MODEL 1
REMARK VINA RESULT:      -5.2      0.000      0.000
REMARK  7 active torsions:
REMARK  status: ('A' for Active; 'I' for Inactive)
REMARK    1  A    between atoms: C_2  and  C_3 
REMARK    2  A    between atoms: C_3  and  O_6 
REMARK    3  A    between atoms: C_3  and  C_4 
REMARK    4  A    between atoms: C_7  and  O_6 
REMARK    5  A    between atoms: C_9  and  C_10 
REMARK    6  A    between atoms: N_15  and  C_14 
REMARK    7  A    between atoms: N_20  and  C_19 
REMARK       I    between atoms: C_22  and  N_20 
ROOT
ATOM      1  C   LIG d   1     -25.413  84.983 113.396  0.00  0.00     0.161 C 
ATOM      2  C   LIG d   1     -24.320  85.866 113.395  0.00  0.00     0.016 C 
ATOM      3  C   LIG d   1     -22.998  85.468 113.701  0.00  0.00     0.038 C 
ATOM      4  C   LIG d   1     -22.653  84.120 113.883  0.00  0.00     0.028 C 
ATOM      5  C   LIG d   1     -23.807  83.263 114.391  0.00  0.00    -0.047 C 
ATOM      6  C   LIG d   1     -25.038  83.489 113.483  0.00  0.00     0.091 C 
ENDROOT
BRANCH   1   7
ATOM      7  O   LIG d   1     -26.238  85.226 112.239  0.00  0.00    -0.368 OA
BRANCH   7   8
ATOM      8  C   LIG d   1     -27.121  86.372 112.316  0.00  0.00     0.119 C 
BRANCH   8   9
ATOM      9  C   LIG d   1     -28.480  85.950 111.724  0.00  0.00     0.028 C 
ATOM     10  C   LIG d   1     -29.195  84.899 112.590  0.00  0.00     0.006 C 
ENDBRANCH   8   9
BRANCH   8  11
ATOM     11  C   LIG d   1     -26.628  87.515 111.424  0.00  0.00     0.028 C 
ATOM     12  C   LIG d   1     -27.192  88.883 111.841  0.00  0.00     0.006 C 
ENDBRANCH   8  11
ENDBRANCH   7   8
ENDBRANCH   1   7
BRANCH   6  13
ATOM     13  N   LIG d   1     -26.237  82.752 113.960  0.00  0.00    -0.311 N 
ATOM     14  C   LIG d   1     -26.893  81.862 113.217  0.00  0.00     0.210 C 
ATOM     15  C   LIG d   1     -28.115  81.231 113.893  0.00  0.00     0.109 C 
ATOM     16  O   LIG d   1     -26.562  81.512 112.074  0.00  0.00    -0.276 OA
ATOM     17  H   LIG d   1     -26.556  82.951 114.887  0.00  0.00     0.149 HD
ENDBRANCH   6  13
BRANCH   5  18
ATOM     18  N   LIG d   1     -23.348  81.861 114.404  0.00  0.00     0.381 N 
ATOM     19  H   LIG d   1     -23.931  81.319 115.010  0.00  0.00    -0.090 HD
ATOM     20  H   LIG d   1     -22.409  81.829 114.759  0.00  0.00    -0.090 HD
ATOM     21  H   LIG d   1     -23.375  81.484 113.482  0.00  0.00    -0.090 HD
ENDBRANCH   5  18
BRANCH   3  22
ATOM     22  C   LIG d   1     -22.012  86.428 113.867  0.00  0.00     0.382 C 
ATOM     23  O   LIG d   1     -22.237  87.443 114.569  0.00  0.00    -0.241 OA
ATOM     24  O   LIG d   1     -20.915  86.314 113.288  0.00  0.00    -0.241 OA
ENDBRANCH   3  22
TORSDOF 7
ENDMDL
MODEL 2
REMARK VINA RESULT:      -5.2     25.595     28.326
REMARK  7 active torsions:
REMARK  status: ('A' for Active; 'I' for Inactive)
REMARK    1  A    between atoms: C_2  and  C_3 
REMARK    2  A    between atoms: C_3  and  O_6 
REMARK    3  A    between atoms: C_3  and  C_4 
REMARK    4  A    between atoms: C_7  and  O_6 
REMARK    5  A    between atoms: C_9  and  C_10 
REMARK    6  A    between atoms: N_15  and  C_14 
REMARK    7  A    between atoms: N_20  and  C_19 
REMARK       I    between atoms: C_22  and  N_20 
ROOT
ATOM      1  C   LIG d   1       2.429  87.661 114.896  0.00  0.00     0.161 C 
ATOM      2  C   LIG d   1       2.487  88.666 115.877  0.00  0.00     0.016 C 
ATOM      3  C   LIG d   1       3.498  89.653 115.921  0.00  0.00     0.038 C 
ATOM      4  C   LIG d   1       4.441  89.794 114.892  0.00  0.00     0.028 C 
ATOM      5  C   LIG d   1       4.726  88.493 114.149  0.00  0.00    -0.047 C 
ATOM      6  C   LIG d   1       3.386  87.866 113.703  0.00  0.00     0.091 C 
ENDROOT
BRANCH   1   7
ATOM      7  O   LIG d   1       1.073  87.510 114.431  0.00  0.00    -0.368 OA
BRANCH   7   8
ATOM      8  C   LIG d   1       0.287  86.481 115.082  0.00  0.00     0.119 C 
BRANCH   8   9
ATOM      9  C   LIG d   1       1.229  85.299 115.381  0.00  0.00     0.028 C 
ATOM     10  C   LIG d   1       1.014  84.719 116.789  0.00  0.00     0.006 C 
ENDBRANCH   8   9
BRANCH   8  11
ATOM     11  C   LIG d   1      -0.783  85.919 114.142  0.00  0.00     0.028 C 
ATOM     12  C   LIG d   1      -0.447  86.136 112.658  0.00  0.00     0.006 C 
ENDBRANCH   8  11
ENDBRANCH   7   8
ENDBRANCH   1   7
BRANCH   6  13
ATOM     13  N   LIG d   1       3.568  86.548 113.042  0.00  0.00    -0.311 N 
ATOM     14  C   LIG d   1       3.144  86.282 111.808  0.00  0.00     0.210 C 
ATOM     15  C   LIG d   1       3.416  84.854 111.324  0.00  0.00     0.109 C 
ATOM     16  O   LIG d   1       2.596  87.102 111.056  0.00  0.00    -0.276 OA
ATOM     17  H   LIG d   1       4.031  85.834 113.569  0.00  0.00     0.149 HD
ENDBRANCH   6  13
BRANCH   5  18
ATOM     18  N   LIG d   1       5.619  88.812 113.019  0.00  0.00     0.381 N 
ATOM     19  H   LIG d   1       6.326  88.109 112.937  0.00  0.00    -0.090 HD
ATOM     20  H   LIG d   1       6.069  89.693 113.199  0.00  0.00    -0.090 HD
ATOM     21  H   LIG d   1       5.094  88.866 112.174  0.00  0.00    -0.090 HD
ENDBRANCH   5  18
BRANCH   3  22
ATOM     22  C   LIG d   1       3.596  90.487 117.024  0.00  0.00     0.382 C 
ATOM     23  O   LIG d   1       3.453  90.019 118.179  0.00  0.00    -0.241 OA
ATOM     24  O   LIG d   1       3.782  91.710 116.877  0.00  0.00    -0.241 OA
ENDBRANCH   3  22
TORSDOF 7
ENDMDL
MODEL 3
REMARK VINA RESULT:      -5.1     24.851     27.451
REMARK  7 active torsions:
REMARK  status: ('A' for Active; 'I' for Inactive)
REMARK    1  A    between atoms: C_2  and  C_3 
REMARK    2  A    between atoms: C_3  and  O_6 
REMARK    3  A    between atoms: C_3  and  C_4 
REMARK    4  A    between atoms: C_7  and  O_6 
REMARK    5  A    between atoms: C_9  and  C_10 
REMARK    6  A    between atoms: N_15  and  C_14 
REMARK    7  A    between atoms: N_20  and  C_19 
REMARK       I    between atoms: C_22  and  N_20 
ROOT
ATOM      1  C   LIG d   1       2.310  85.178 114.264  0.00  0.00     0.161 C 
ATOM      2  C   LIG d   1       1.816  84.297 113.287  0.00  0.00     0.016 C 
ATOM      3  C   LIG d   1       0.452  84.225 112.922  0.00  0.00     0.038 C 
ATOM      4  C   LIG d   1      -0.494  85.141 113.404  0.00  0.00     0.028 C 
ATOM      5  C   LIG d   1      -0.136  85.719 114.770  0.00  0.00    -0.047 C 
ATOM      6  C   LIG d   1       1.311  86.261 114.721  0.00  0.00     0.091 C 
ENDROOT
BRANCH   1   7
ATOM      7  O   LIG d   1       3.532  85.786 113.801  0.00  0.00    -0.368 OA
BRANCH   7   8
ATOM      8  C   LIG d   1       3.406  87.109 113.222  0.00  0.00     0.119 C 
BRANCH   8   9
ATOM      9  C   LIG d   1       3.423  86.947 111.689  0.00  0.00     0.028 C 
ATOM     10  C   LIG d   1       2.045  87.204 111.056  0.00  0.00     0.006 C 
ENDBRANCH   8   9
BRANCH   8  11
ATOM     11  C   LIG d   1       4.621  87.979 113.551  0.00  0.00     0.028 C 
ATOM     12  C   LIG d   1       4.350  89.480 113.358  0.00  0.00     0.006 C 
ENDBRANCH   8  11
ENDBRANCH   7   8
ENDBRANCH   1   7
BRANCH   6  13
ATOM     13  N   LIG d   1       1.770  86.769 116.040  0.00  0.00    -0.311 N 
ATOM     14  C   LIG d   1       1.768  88.059 116.371  0.00  0.00     0.210 C 
ATOM     15  C   LIG d   1       2.301  88.368 117.773  0.00  0.00     0.109 C 
ATOM     16  O   LIG d   1       1.344  88.973 115.649  0.00  0.00    -0.276 OA
ATOM     17  H   LIG d   1       2.102  86.091 116.699  0.00  0.00     0.149 HD
ENDBRANCH   6  13
BRANCH   5  18
ATOM     18  N   LIG d   1      -1.133  86.758 115.089  0.00  0.00     0.381 N 
ATOM     19  H   LIG d   1      -1.621  86.513 115.927  0.00  0.00    -0.090 HD
ATOM     20  H   LIG d   1      -1.800  86.810 114.339  0.00  0.00    -0.090 HD
ATOM     21  H   LIG d   1      -0.682  87.639 115.204  0.00  0.00    -0.090 HD
ENDBRANCH   5  18
BRANCH   3  22
ATOM     22  C   LIG d   1       0.016  83.202 112.094  0.00  0.00     0.382 C 
ATOM     23  O   LIG d   1       0.843  82.552 111.410  0.00  0.00    -0.241 OA
ATOM     24  O   LIG d   1      -1.199  82.949 111.988  0.00  0.00    -0.241 OA
ENDBRANCH   3  22
TORSDOF 7
ENDMDL
MODEL 4
REMARK VINA RESULT:      -5.1     24.720     27.435
REMARK  7 active torsions:
REMARK  status: ('A' for Active; 'I' for Inactive)
REMARK    1  A    between atoms: C_2  and  C_3 
REMARK    2  A    between atoms: C_3  and  O_6 
REMARK    3  A    between atoms: C_3  and  C_4 
REMARK    4  A    between atoms: C_7  and  O_6 
REMARK    5  A    between atoms: C_9  and  C_10 
REMARK    6  A    between atoms: N_15  and  C_14 
REMARK    7  A    between atoms: N_20  and  C_19 
REMARK       I    between atoms: C_22  and  N_20 
ROOT
ATOM      1  C   LIG d   1       2.044  86.774 114.263  0.00  0.00     0.161 C 
ATOM      2  C   LIG d   1       2.855  87.903 114.063  0.00  0.00     0.016 C 
ATOM      3  C   LIG d   1       3.720  88.054 112.955  0.00  0.00     0.038 C 
ATOM      4  C   LIG d   1       3.722  87.145 111.887  0.00  0.00     0.028 C 
ATOM      5  C   LIG d   1       3.291  85.738 112.287  0.00  0.00    -0.047 C 
ATOM      6  C   LIG d   1       1.950  85.823 113.051  0.00  0.00     0.091 C 
ENDROOT
BRANCH   1   7
ATOM      7  O   LIG d   1       0.728  87.185 114.682  0.00  0.00    -0.368 OA
BRANCH   7   8
ATOM      8  C   LIG d   1       0.471  87.147 116.107  0.00  0.00     0.119 C 
BRANCH   8   9
ATOM      9  C   LIG d   1       1.423  86.102 116.721  0.00  0.00     0.028 C 
ATOM     10  C   LIG d   1       0.672  85.012 117.505  0.00  0.00     0.006 C 
ENDBRANCH   8   9
BRANCH   8  11
ATOM     11  C   LIG d   1      -0.941  86.634 116.405  0.00  0.00     0.028 C 
ATOM     12  C   LIG d   1      -1.842  87.704 117.041  0.00  0.00     0.006 C 
ENDBRANCH   8  11
ENDBRANCH   7   8
ENDBRANCH   1   7
BRANCH   6  13
ATOM     13  N   LIG d   1       1.499  84.499 113.553  0.00  0.00    -0.311 N 
ATOM     14  C   LIG d   1       0.647  83.716 112.893  0.00  0.00     0.210 C 
ATOM     15  C   LIG d   1       0.299  82.401 113.597  0.00  0.00     0.109 C 
ATOM     16  O   LIG d   1       0.172  83.971 111.776  0.00  0.00    -0.276 OA
ATOM     17  H   LIG d   1       1.860  84.199 114.438  0.00  0.00     0.149 HD
ENDBRANCH   6  13
BRANCH   5  18
ATOM     18  N   LIG d   1       3.205  84.931 111.056  0.00  0.00     0.381 N 
ATOM     19  H   LIG d   1       2.851  85.492 110.307  0.00  0.00    -0.090 HD
ATOM     20  H   LIG d   1       2.565  84.171 111.209  0.00  0.00    -0.090 HD
ATOM     21  H   LIG d   1       4.104  84.575 110.818  0.00  0.00    -0.090 HD
ENDBRANCH   5  18
BRANCH   3  22
ATOM     22  C   LIG d   1       4.626  89.103 112.929  0.00  0.00     0.382 C 
ATOM     23  O   LIG d   1       4.415  90.132 113.616  0.00  0.00    -0.241 OA
ATOM     24  O   LIG d   1       5.629  89.053 112.192  0.00  0.00    -0.241 OA
ENDBRANCH   3  22
TORSDOF 7
ENDMDL
MODEL 5
REMARK VINA RESULT:      -4.9     24.916     27.130
REMARK  7 active torsions:
REMARK  status: ('A' for Active; 'I' for Inactive)
REMARK    1  A    between atoms: C_2  and  C_3 
REMARK    2  A    between atoms: C_3  and  O_6 
REMARK    3  A    between atoms: C_3  and  C_4 
REMARK    4  A    between atoms: C_7  and  O_6 
REMARK    5  A    between atoms: C_9  and  C_10 
REMARK    6  A    between atoms: N_15  and  C_14 
REMARK    7  A    between atoms: N_20  and  C_19 
REMARK       I    between atoms: C_22  and  N_20 
ROOT
ATOM      1  C   LIG d   1       1.123  86.961 114.931  0.00  0.00     0.161 C 
ATOM      2  C   LIG d   1      -0.001  86.787 115.755  0.00  0.00     0.016 C 
ATOM      3  C   LIG d   1      -0.370  87.699 116.771  0.00  0.00     0.038 C 
ATOM      4  C   LIG d   1       0.279  88.932 116.931  0.00  0.00     0.028 C 
ATOM      5  C   LIG d   1       1.728  88.921 116.455  0.00  0.00    -0.047 C 
ATOM      6  C   LIG d   1       1.779  88.355 115.018  0.00  0.00     0.091 C 
ENDROOT
BRANCH   1   7
ATOM      7  O   LIG d   1       0.780  86.652 113.566  0.00  0.00    -0.368 OA
BRANCH   7   8
ATOM      8  C   LIG d   1       0.987  85.279 113.151  0.00  0.00     0.119 C 
BRANCH   8   9
ATOM      9  C   LIG d   1       2.018  85.292 112.006  0.00  0.00     0.028 C 
ATOM     10  C   LIG d   1       3.384  84.734 112.440  0.00  0.00     0.006 C 
ENDBRANCH   8   9
BRANCH   8  11
ATOM     11  C   LIG d   1      -0.287  84.683 112.545  0.00  0.00     0.028 C 
ATOM     12  C   LIG d   1      -0.340  83.151 112.659  0.00  0.00     0.006 C 
ENDBRANCH   8  11
ENDBRANCH   7   8
ENDBRANCH   1   7
BRANCH   6  13
ATOM     13  N   LIG d   1       3.169  88.231 114.507  0.00  0.00    -0.311 N 
ATOM     14  C   LIG d   1       3.519  88.524 113.256  0.00  0.00     0.210 C 
ATOM     15  C   LIG d   1       5.001  88.306 112.931  0.00  0.00     0.109 C 
ATOM     16  O   LIG d   1       2.750  88.973 112.393  0.00  0.00    -0.276 OA
ATOM     17  H   LIG d   1       3.863  87.902 115.149  0.00  0.00     0.149 HD
ENDBRANCH   6  13
BRANCH   5  18
ATOM     18  N   LIG d   1       2.240  90.301 116.552  0.00  0.00     0.381 N 
ATOM     19  H   LIG d   1       1.475  90.946 116.562  0.00  0.00    -0.090 HD
ATOM     20  H   LIG d   1       2.806  90.495 115.745  0.00  0.00    -0.090 HD
ATOM     21  H   LIG d   1       2.783  90.406 117.381  0.00  0.00    -0.090 HD
ENDBRANCH   5  18
BRANCH   3  22
ATOM     22  C   LIG d   1      -1.375  87.363 117.665  0.00  0.00     0.382 C 
ATOM     23  O   LIG d   1      -1.199  86.428 118.483  0.00  0.00    -0.241 OA
ATOM     24  O   LIG d   1      -2.472  87.953 117.634  0.00  0.00    -0.241 OA
ENDBRANCH   3  22
TORSDOF 7
ENDMDL
MODEL 6
REMARK VINA RESULT:      -4.8     25.493     27.743
REMARK  7 active torsions:
REMARK  status: ('A' for Active; 'I' for Inactive)
REMARK    1  A    between atoms: C_2  and  C_3 
REMARK    2  A    between atoms: C_3  and  O_6 
REMARK    3  A    between atoms: C_3  and  C_4 
REMARK    4  A    between atoms: C_7  and  O_6 
REMARK    5  A    between atoms: C_9  and  C_10 
REMARK    6  A    between atoms: N_15  and  C_14 
REMARK    7  A    between atoms: N_20  and  C_19 
REMARK       I    between atoms: C_22  and  N_20 
ROOT
ATOM      1  C   LIG d   1       1.519  85.182 113.961  0.00  0.00     0.161 C 
ATOM      2  C   LIG d   1       1.835  86.247 113.100  0.00  0.00     0.016 C 
ATOM      3  C   LIG d   1       2.848  87.194 113.373  0.00  0.00     0.038 C 
ATOM      4  C   LIG d   1       3.722  87.051 114.461  0.00  0.00     0.028 C 
ATOM      5  C   LIG d   1       3.117  86.277 115.627  0.00  0.00    -0.047 C 
ATOM      6  C   LIG d   1       2.535  84.946 115.097  0.00  0.00     0.091 C 
ENDROOT
BRANCH   1   7
ATOM      7  O   LIG d   1       1.333  83.975 113.196  0.00  0.00    -0.368 OA
BRANCH   7   8
ATOM      8  C   LIG d   1       1.316  84.129 111.756  0.00  0.00     0.119 C 
BRANCH   8   9
ATOM      9  C   LIG d   1      -0.068  83.669 111.257  0.00  0.00     0.028 C 
ATOM     10  C   LIG d   1      -0.751  82.697 112.234  0.00  0.00     0.006 C 
ENDBRANCH   8   9
BRANCH   8  11
ATOM     11  C   LIG d   1       2.321  83.189 111.083  0.00  0.00     0.028 C 
ATOM     12  C   LIG d   1       3.767  83.704 111.169  0.00  0.00     0.006 C 
ENDBRANCH   8  11
ENDBRANCH   7   8
ENDBRANCH   1   7
BRANCH   6  13
ATOM     13  N   LIG d   1       1.849  84.165 116.159  0.00  0.00    -0.311 N 
ATOM     14  C   LIG d   1       2.149  82.900 116.449  0.00  0.00     0.210 C 
ATOM     15  C   LIG d   1       1.306  82.275 117.565  0.00  0.00     0.109 C 
ATOM     16  O   LIG d   1       3.055  82.247 115.909  0.00  0.00    -0.276 OA
ATOM     17  H   LIG d   1       1.121  84.628 116.668  0.00  0.00     0.149 HD
ENDBRANCH   6  13
BRANCH   5  18
ATOM     18  N   LIG d   1       4.178  86.084 116.633  0.00  0.00     0.381 N 
ATOM     19  H   LIG d   1       3.881  85.415 117.315  0.00  0.00    -0.090 HD
ATOM     20  H   LIG d   1       4.345  86.957 117.101  0.00  0.00    -0.090 HD
ATOM     21  H   LIG d   1       5.014  85.770 116.191  0.00  0.00    -0.090 HD
ENDBRANCH   5  18
BRANCH   3  22
ATOM     22  C   LIG d   1       2.969  88.321 112.575  0.00  0.00     0.382 C 
ATOM     23  O   LIG d   1       2.141  88.530 111.656  0.00  0.00    -0.241 OA
ATOM     24  O   LIG d   1       3.922  89.107 112.732  0.00  0.00    -0.241 OA
ENDBRANCH   3  22
TORSDOF 7
ENDMDL
MODEL 7
REMARK VINA RESULT:      -4.8      1.395      2.088
REMARK  7 active torsions:
REMARK  status: ('A' for Active; 'I' for Inactive)
REMARK    1  A    between atoms: C_2  and  C_3 
REMARK    2  A    between atoms: C_3  and  O_6 
REMARK    3  A    between atoms: C_3  and  C_4 
REMARK    4  A    between atoms: C_7  and  O_6 
REMARK    5  A    between atoms: C_9  and  C_10 
REMARK    6  A    between atoms: N_15  and  C_14 
REMARK    7  A    between atoms: N_20  and  C_19 
REMARK       I    between atoms: C_22  and  N_20 
ROOT
ATOM      1  C   LIG d   1     -25.579  85.174 114.424  0.00  0.00     0.161 C 
ATOM      2  C   LIG d   1     -24.432  85.980 114.332  0.00  0.00     0.016 C 
ATOM      3  C   LIG d   1     -23.244  85.573 113.683  0.00  0.00     0.038 C 
ATOM      4  C   LIG d   1     -23.174  84.381 112.946  0.00  0.00     0.028 C 
ATOM      5  C   LIG d   1     -24.140  83.308 113.435  0.00  0.00    -0.047 C 
ATOM      6  C   LIG d   1     -25.558  83.916 113.530  0.00  0.00     0.091 C 
ENDROOT
BRANCH   1   7
ATOM      7  O   LIG d   1     -26.754  85.963 114.152  0.00  0.00    -0.368 OA
BRANCH   7   8
ATOM      8  C   LIG d   1     -26.520  87.312 113.679  0.00  0.00     0.119 C 
BRANCH   8   9
ATOM      9  C   LIG d   1     -27.219  88.274 114.659  0.00  0.00     0.028 C 
ATOM     10  C   LIG d   1     -26.775  89.734 114.466  0.00  0.00     0.006 C 
ENDBRANCH   8   9
BRANCH   8  11
ATOM     11  C   LIG d   1     -27.194  87.553 112.325  0.00  0.00     0.028 C 
ATOM     12  C   LIG d   1     -27.857  86.288 111.757  0.00  0.00     0.006 C 
ENDBRANCH   8  11
ENDBRANCH   7   8
ENDBRANCH   1   7
BRANCH   6  13
ATOM     13  N   LIG d   1     -26.551  82.957 114.082  0.00  0.00    -0.311 N 
ATOM     14  C   LIG d   1     -27.589  82.496 113.387  0.00  0.00     0.210 C 
ATOM     15  C   LIG d   1     -28.501  81.531 114.150  0.00  0.00     0.109 C 
ATOM     16  O   LIG d   1     -27.823  82.770 112.200  0.00  0.00    -0.276 OA
ATOM     17  H   LIG d   1     -26.419  82.658 115.028  0.00  0.00     0.149 HD
ENDBRANCH   6  13
BRANCH   5  18
ATOM     18  N   LIG d   1     -24.060  82.174 112.495  0.00  0.00     0.381 N 
ATOM     19  H   LIG d   1     -24.643  81.427 112.815  0.00  0.00    -0.090 HD
ATOM     20  H   LIG d   1     -23.112  81.843 112.465  0.00  0.00    -0.090 HD
ATOM     21  H   LIG d   1     -24.347  82.463 111.586  0.00  0.00    -0.090 HD
ENDBRANCH   5  18
BRANCH   3  22
ATOM     22  C   LIG d   1     -22.097  86.343 113.801  0.00  0.00     0.382 C 
ATOM     23  O   LIG d   1     -21.037  85.979 113.237  0.00  0.00    -0.241 OA
ATOM     24  O   LIG d   1     -22.097  87.373 114.501  0.00  0.00    -0.241 OA
ENDBRANCH   3  22
TORSDOF 7
ENDMDL
MODEL 8
REMARK VINA RESULT:      -4.6     19.502     21.568
REMARK  7 active torsions:
REMARK  status: ('A' for Active; 'I' for Inactive)
REMARK    1  A    between atoms: C_2  and  C_3 
REMARK    2  A    between atoms: C_3  and  O_6 
REMARK    3  A    between atoms: C_3  and  C_4 
REMARK    4  A    between atoms: C_7  and  O_6 
REMARK    5  A    between atoms: C_9  and  C_10 
REMARK    6  A    between atoms: N_15  and  C_14 
REMARK    7  A    between atoms: N_20  and  C_19 
REMARK       I    between atoms: C_22  and  N_20 
ROOT
ATOM      1  C   LIG d   1     -17.358  64.886 114.763  0.00  0.00     0.161 C 
ATOM      2  C   LIG d   1     -16.388  65.178 115.736  0.00  0.00     0.016 C 
ATOM      3  C   LIG d   1     -16.519  66.227 116.675  0.00  0.00     0.038 C 
ATOM      4  C   LIG d   1     -17.705  66.964 116.802  0.00  0.00     0.028 C 
ATOM      5  C   LIG d   1     -18.513  67.038 115.511  0.00  0.00    -0.047 C 
ATOM      6  C   LIG d   1     -18.707  65.608 114.957  0.00  0.00     0.091 C 
ENDROOT
BRANCH   1   7
ATOM      7  O   LIG d   1     -17.559  63.461 114.685  0.00  0.00    -0.368 OA
BRANCH   7   8
ATOM      8  C   LIG d   1     -18.465  62.891 115.662  0.00  0.00     0.119 C 
BRANCH   8   9
ATOM      9  C   LIG d   1     -17.663  61.876 116.500  0.00  0.00     0.028 C 
ATOM     10  C   LIG d   1     -17.402  62.374 117.932  0.00  0.00     0.006 C 
ENDBRANCH   8   9
BRANCH   8  11
ATOM     11  C   LIG d   1     -19.571  62.075 114.987  0.00  0.00     0.028 C 
ATOM     12  C   LIG d   1     -19.349  61.907 113.475  0.00  0.00     0.006 C 
ENDBRANCH   8  11
ENDBRANCH   7   8
ENDBRANCH   1   7
BRANCH   6  13
ATOM     13  N   LIG d   1     -19.416  65.597 113.651  0.00  0.00    -0.311 N 
ATOM     14  C   LIG d   1     -20.722  65.372 113.527  0.00  0.00     0.210 C 
ATOM     15  C   LIG d   1     -21.248  65.385 112.088  0.00  0.00     0.109 C 
ATOM     16  O   LIG d   1     -21.502  65.195 114.475  0.00  0.00    -0.276 OA
ATOM     17  H   LIG d   1     -18.864  65.763 112.832  0.00  0.00     0.149 HD
ENDBRANCH   6  13
BRANCH   5  18
ATOM     18  N   LIG d   1     -19.787  67.716 115.820  0.00  0.00     0.381 N 
ATOM     19  H   LIG d   1     -19.655  68.708 115.802  0.00  0.00    -0.090 HD
ATOM     20  H   LIG d   1     -20.079  67.453 116.745  0.00  0.00    -0.090 HD
ATOM     21  H   LIG d   1     -20.482  67.454 115.157  0.00  0.00    -0.090 HD
ENDBRANCH   5  18
BRANCH   3  22
ATOM     22  C   LIG d   1     -15.440  66.573 117.474  0.00  0.00     0.382 C 
ATOM     23  O   LIG d   1     -15.562  66.584 118.722  0.00  0.00    -0.241 OA
ATOM     24  O   LIG d   1     -14.359  66.918 116.960  0.00  0.00    -0.241 OA
ENDBRANCH   3  22
TORSDOF 7
ENDMDL
MODEL 9
REMARK VINA RESULT:      -4.6     26.860     28.039
REMARK  7 active torsions:
REMARK  status: ('A' for Active; 'I' for Inactive)
REMARK    1  A    between atoms: C_2  and  C_3 
REMARK    2  A    between atoms: C_3  and  O_6 
REMARK    3  A    between atoms: C_3  and  C_4 
REMARK    4  A    between atoms: C_7  and  O_6 
REMARK    5  A    between atoms: C_9  and  C_10 
REMARK    6  A    between atoms: N_15  and  C_14 
REMARK    7  A    between atoms: N_20  and  C_19 
REMARK       I    between atoms: C_22  and  N_20 
ROOT
ATOM      1  C   LIG d   1       2.254  86.437 114.558  0.00  0.00     0.161 C 
ATOM      2  C   LIG d   1       2.028  85.077 114.293  0.00  0.00     0.016 C 
ATOM      3  C   LIG d   1       1.621  84.149 115.279  0.00  0.00     0.038 C 
ATOM      4  C   LIG d   1       1.263  84.553 116.574  0.00  0.00     0.028 C 
ATOM      5  C   LIG d   1       1.958  85.833 117.023  0.00  0.00    -0.047 C 
ATOM      6  C   LIG d   1       1.762  86.918 115.939  0.00  0.00     0.091 C 
ENDROOT
BRANCH   1   7
ATOM      7  O   LIG d   1       1.674  87.242 113.512  0.00  0.00    -0.368 OA
BRANCH   7   8
ATOM      8  C   LIG d   1       2.608  87.874 112.602  0.00  0.00     0.119 C 
BRANCH   8   9
ATOM      9  C   LIG d   1       2.512  87.135 111.253  0.00  0.00     0.028 C 
ATOM     10  C   LIG d   1       3.655  86.125 111.055  0.00  0.00     0.006 C 
ENDBRANCH   8   9
BRANCH   8  11
ATOM     11  C   LIG d   1       4.055  87.683 113.067  0.00  0.00     0.028 C 
ATOM     12  C   LIG d   1       4.789  89.015 113.291  0.00  0.00     0.006 C 
ENDBRANCH   8  11
ENDBRANCH   7   8
ENDBRANCH   1   7
BRANCH   6  13
ATOM     13  N   LIG d   1       2.482  88.177 116.261  0.00  0.00    -0.311 N 
ATOM     14  C   LIG d   1       1.911  89.380 116.218  0.00  0.00     0.210 C 
ATOM     15  C   LIG d   1       2.837  90.549 116.566  0.00  0.00     0.109 C 
ATOM     16  O   LIG d   1       0.716  89.587 115.955  0.00  0.00    -0.276 OA
ATOM     17  H   LIG d   1       3.447  88.099 116.514  0.00  0.00     0.149 HD
ENDBRANCH   6  13
BRANCH   5  18
ATOM     18  N   LIG d   1       1.391  86.213 118.331  0.00  0.00     0.381 N 
ATOM     19  H   LIG d   1       1.946  85.824 119.067  0.00  0.00    -0.090 HD
ATOM     20  H   LIG d   1       0.462  85.837 118.404  0.00  0.00    -0.090 HD
ATOM     21  H   LIG d   1       1.363  87.205 118.415  0.00  0.00    -0.090 HD
ENDBRANCH   5  18
BRANCH   3  22
ATOM     22  C   LIG d   1       1.606  82.794 114.984  0.00  0.00     0.382 C 
ATOM     23  O   LIG d   1       0.635  82.298 114.363  0.00  0.00    -0.241 OA
ATOM     24  O   LIG d   1       2.531  82.054 115.369  0.00  0.00    -0.241 OA
ENDBRANCH   3  22
TORSDOF 7
ENDMDL
