MODEL 1
REMARK VINA RESULT:      -6.2      0.000      0.000
REMARK  7 active torsions:
REMARK  status: ('A' for Active; 'I' for Inactive)
REMARK    1  A    between atoms: C_2  and  C_3 
REMARK    2  A    between atoms: C_3  and  O_6 
REMARK    3  A    between atoms: C_3  and  C_4 
REMARK    4  A    between atoms: C_7  and  O_6 
REMARK    5  A    between atoms: C_9  and  C_10 
REMARK    6  A    between atoms: N_15  and  C_14 
REMARK    7  A    between atoms: N_20  and  C_19 
REMARK       I    between atoms: C_22  and  N_20 
ROOT
ATOM      1  C   LIG d   1      -3.002  76.879 115.881  0.00  0.00     0.161 C 
ATOM      2  C   LIG d   1      -3.375  77.520 114.688  0.00  0.00     0.016 C 
ATOM      3  C   LIG d   1      -2.584  77.506 113.517  0.00  0.00     0.038 C 
ATOM      4  C   LIG d   1      -1.428  76.718 113.412  0.00  0.00     0.028 C 
ATOM      5  C   LIG d   1      -0.748  76.459 114.753  0.00  0.00    -0.047 C 
ATOM      6  C   LIG d   1      -1.798  75.922 115.752  0.00  0.00     0.091 C 
ENDROOT
BRANCH   1   7
ATOM      7  O   LIG d   1      -4.136  76.186 116.439  0.00  0.00    -0.368 OA
BRANCH   7   8
ATOM      8  C   LIG d   1      -5.217  75.890 115.520  0.00  0.00     0.119 C 
BRANCH   8   9
ATOM      9  C   LIG d   1      -6.541  76.161 116.261  0.00  0.00     0.028 C 
ATOM     10  C   LIG d   1      -6.518  77.489 117.036  0.00  0.00     0.006 C 
ENDBRANCH   8   9
BRANCH   8  11
ATOM     11  C   LIG d   1      -5.251  74.401 115.161  0.00  0.00     0.028 C 
ATOM     12  C   LIG d   1      -6.296  73.617 115.969  0.00  0.00     0.006 C 
ENDBRANCH   8  11
ENDBRANCH   7   8
ENDBRANCH   1   7
BRANCH   6  13
ATOM     13  N   LIG d   1      -1.235  75.721 117.113  0.00  0.00    -0.311 N 
ATOM     14  C   LIG d   1      -0.656  74.589 117.507  0.00  0.00     0.210 C 
ATOM     15  C   LIG d   1      -0.161  74.586 118.956  0.00  0.00     0.109 C 
ATOM     16  O   LIG d   1      -0.476  73.598 116.783  0.00  0.00    -0.276 OA
ATOM     17  H   LIG d   1      -1.311  76.486 117.755  0.00  0.00     0.149 HD
ENDBRANCH   6  13
BRANCH   5  18
ATOM     18  N   LIG d   1       0.360  75.514 114.515  0.00  0.00     0.381 N 
ATOM     19  H   LIG d   1       1.159  76.009 114.173  0.00  0.00    -0.090 HD
ATOM     20  H   LIG d   1       0.076  74.850 113.817  0.00  0.00    -0.090 HD
ATOM     21  H   LIG d   1       0.591  75.040 115.361  0.00  0.00    -0.090 HD
ENDBRANCH   5  18
BRANCH   3  22
ATOM     22  C   LIG d   1      -2.925  78.319 112.447  0.00  0.00     0.382 C 
ATOM     23  O   LIG d   1      -2.924  77.855 111.281  0.00  0.00    -0.241 OA
ATOM     24  O   LIG d   1      -3.193  79.522 112.627  0.00  0.00    -0.241 OA
ENDBRANCH   3  22
TORSDOF 7
ENDMDL
MODEL 2
REMARK VINA RESULT:      -5.2      3.094      5.075
REMARK  7 active torsions:
REMARK  status: ('A' for Active; 'I' for Inactive)
REMARK    1  A    between atoms: C_2  and  C_3 
REMARK    2  A    between atoms: C_3  and  O_6 
REMARK    3  A    between atoms: C_3  and  C_4 
REMARK    4  A    between atoms: C_7  and  O_6 
REMARK    5  A    between atoms: C_9  and  C_10 
REMARK    6  A    between atoms: N_15  and  C_14 
REMARK    7  A    between atoms: N_20  and  C_19 
REMARK       I    between atoms: C_22  and  N_20 
ROOT
ATOM      1  C   LIG d   1      -5.730  77.632 117.281  0.00  0.00     0.161 C 
ATOM      2  C   LIG d   1      -6.862  78.447 117.444  0.00  0.00     0.016 C 
ATOM      3  C   LIG d   1      -6.795  79.800 117.849  0.00  0.00     0.038 C 
ATOM      4  C   LIG d   1      -5.573  80.477 117.972  0.00  0.00     0.028 C 
ATOM      5  C   LIG d   1      -4.403  79.559 118.308  0.00  0.00    -0.047 C 
ATOM      6  C   LIG d   1      -4.383  78.384 117.303  0.00  0.00     0.091 C 
ENDROOT
BRANCH   1   7
ATOM      7  O   LIG d   1      -5.854  76.861 116.069  0.00  0.00    -0.368 OA
BRANCH   7   8
ATOM      8  C   LIG d   1      -5.487  75.463 116.163  0.00  0.00     0.119 C 
BRANCH   8   9
ATOM      9  C   LIG d   1      -4.805  75.073 114.837  0.00  0.00     0.028 C 
ATOM     10  C   LIG d   1      -4.728  76.248 113.849  0.00  0.00     0.006 C 
ENDBRANCH   8   9
BRANCH   8  11
ATOM     11  C   LIG d   1      -6.726  74.568 116.261  0.00  0.00     0.028 C 
ATOM     12  C   LIG d   1      -6.425  73.096 115.936  0.00  0.00     0.006 C 
ENDBRANCH   8  11
ENDBRANCH   7   8
ENDBRANCH   1   7
BRANCH   6  13
ATOM     13  N   LIG d   1      -3.319  77.393 117.611  0.00  0.00    -0.311 N 
ATOM     14  C   LIG d   1      -2.295  77.140 116.798  0.00  0.00     0.210 C 
ATOM     15  C   LIG d   1      -1.323  76.067 117.297  0.00  0.00     0.109 C 
ATOM     16  O   LIG d   1      -2.083  77.725 115.725  0.00  0.00    -0.276 OA
ATOM     17  H   LIG d   1      -3.397  76.895 118.476  0.00  0.00     0.149 HD
ENDBRANCH   6  13
BRANCH   5  18
ATOM     18  N   LIG d   1      -3.172  80.372 118.270  0.00  0.00     0.381 N 
ATOM     19  H   LIG d   1      -2.541  80.064 118.983  0.00  0.00    -0.090 HD
ATOM     20  H   LIG d   1      -3.411  81.331 118.454  0.00  0.00    -0.090 HD
ATOM     21  H   LIG d   1      -2.740  80.295 117.376  0.00  0.00    -0.090 HD
ENDBRANCH   5  18
BRANCH   3  22
ATOM     22  C   LIG d   1      -7.960  80.479 118.174  0.00  0.00     0.382 C 
ATOM     23  O   LIG d   1      -8.276  81.518 117.545  0.00  0.00    -0.241 OA
ATOM     24  O   LIG d   1      -8.675  80.091 119.116  0.00  0.00    -0.241 OA
ENDBRANCH   3  22
TORSDOF 7
ENDMDL
MODEL 3
REMARK VINA RESULT:      -5.2      2.584      3.560
REMARK  7 active torsions:
REMARK  status: ('A' for Active; 'I' for Inactive)
REMARK    1  A    between atoms: C_2  and  C_3 
REMARK    2  A    between atoms: C_3  and  O_6 
REMARK    3  A    between atoms: C_3  and  C_4 
REMARK    4  A    between atoms: C_7  and  O_6 
REMARK    5  A    between atoms: C_9  and  C_10 
REMARK    6  A    between atoms: N_15  and  C_14 
REMARK    7  A    between atoms: N_20  and  C_19 
REMARK       I    between atoms: C_22  and  N_20 
ROOT
ATOM      1  C   LIG d   1      -3.027  76.144 115.320  0.00  0.00     0.161 C 
ATOM      2  C   LIG d   1      -2.250  75.184 114.650  0.00  0.00     0.016 C 
ATOM      3  C   LIG d   1      -0.846  75.275 114.517  0.00  0.00     0.038 C 
ATOM      4  C   LIG d   1      -0.101  76.262 115.180  0.00  0.00     0.028 C 
ATOM      5  C   LIG d   1      -0.890  77.539 115.449  0.00  0.00    -0.047 C 
ATOM      6  C   LIG d   1      -2.220  77.169 116.144  0.00  0.00     0.091 C 
ENDROOT
BRANCH   1   7
ATOM      7  O   LIG d   1      -4.003  75.487 116.153  0.00  0.00    -0.368 OA
BRANCH   7   8
ATOM      8  C   LIG d   1      -5.333  75.356 115.595  0.00  0.00     0.119 C 
BRANCH   8   9
ATOM      9  C   LIG d   1      -6.340  75.668 116.718  0.00  0.00     0.028 C 
ATOM     10  C   LIG d   1      -6.830  77.125 116.680  0.00  0.00     0.006 C 
ENDBRANCH   8   9
BRANCH   8  11
ATOM     11  C   LIG d   1      -5.623  73.910 115.180  0.00  0.00     0.028 C 
ATOM     12  C   LIG d   1      -6.476  73.154 116.211  0.00  0.00     0.006 C 
ENDBRANCH   8  11
ENDBRANCH   7   8
ENDBRANCH   1   7
BRANCH   6  13
ATOM     13  N   LIG d   1      -3.091  78.352 116.368  0.00  0.00    -0.311 N 
ATOM     14  C   LIG d   1      -3.595  78.677 117.557  0.00  0.00     0.210 C 
ATOM     15  C   LIG d   1      -4.485  79.924 117.563  0.00  0.00     0.109 C 
ATOM     16  O   LIG d   1      -3.364  78.070 118.613  0.00  0.00    -0.276 OA
ATOM     17  H   LIG d   1      -3.305  78.918 115.570  0.00  0.00     0.149 HD
ENDBRANCH   6  13
BRANCH   5  18
ATOM     18  N   LIG d   1      -0.039  78.426 116.264  0.00  0.00     0.381 N 
ATOM     19  H   LIG d   1       0.695  78.804 115.699  0.00  0.00    -0.090 HD
ATOM     20  H   LIG d   1       0.378  77.887 117.003  0.00  0.00    -0.090 HD
ATOM     21  H   LIG d   1      -0.586  79.164 116.649  0.00  0.00    -0.090 HD
ENDBRANCH   5  18
BRANCH   3  22
ATOM     22  C   LIG d   1      -0.176  74.395 113.681  0.00  0.00     0.382 C 
ATOM     23  O   LIG d   1      -0.080  74.645 112.455  0.00  0.00    -0.241 OA
ATOM     24  O   LIG d   1       0.295  73.332 114.129  0.00  0.00    -0.241 OA
ENDBRANCH   3  22
TORSDOF 7
ENDMDL
MODEL 4
REMARK VINA RESULT:      -5.0      9.933     11.867
REMARK  7 active torsions:
REMARK  status: ('A' for Active; 'I' for Inactive)
REMARK    1  A    between atoms: C_2  and  C_3 
REMARK    2  A    between atoms: C_3  and  O_6 
REMARK    3  A    between atoms: C_3  and  C_4 
REMARK    4  A    between atoms: C_7  and  O_6 
REMARK    5  A    between atoms: C_9  and  C_10 
REMARK    6  A    between atoms: N_15  and  C_14 
REMARK    7  A    between atoms: N_20  and  C_19 
REMARK       I    between atoms: C_22  and  N_20 
ROOT
ATOM      1  C   LIG d   1       2.332  86.272 113.115  0.00  0.00     0.161 C 
ATOM      2  C   LIG d   1       2.358  87.671 112.994  0.00  0.00     0.016 C 
ATOM      3  C   LIG d   1       2.932  88.526 113.963  0.00  0.00     0.038 C 
ATOM      4  C   LIG d   1       3.659  88.027 115.054  0.00  0.00     0.028 C 
ATOM      5  C   LIG d   1       3.225  86.629 115.483  0.00  0.00    -0.047 C 
ATOM      6  C   LIG d   1       3.217  85.704 114.244  0.00  0.00     0.091 C 
ENDROOT
BRANCH   1   7
ATOM      7  O   LIG d   1       2.678  85.665 111.854  0.00  0.00    -0.368 OA
BRANCH   7   8
ATOM      8  C   LIG d   1       1.601  85.001 111.150  0.00  0.00     0.119 C 
BRANCH   8   9
ATOM      9  C   LIG d   1       0.318  85.188 111.983  0.00  0.00     0.028 C 
ATOM     10  C   LIG d   1      -0.790  85.913 111.200  0.00  0.00     0.006 C 
ENDBRANCH   8   9
BRANCH   8  11
ATOM     11  C   LIG d   1       1.826  83.487 111.087  0.00  0.00     0.028 C 
ATOM     12  C   LIG d   1       3.312  83.103 111.161  0.00  0.00     0.006 C 
ENDBRANCH   8  11
ENDBRANCH   7   8
ENDBRANCH   1   7
BRANCH   6  13
ATOM     13  N   LIG d   1       2.724  84.338 114.560  0.00  0.00    -0.311 N 
ATOM     14  C   LIG d   1       3.521  83.337 114.929  0.00  0.00     0.210 C 
ATOM     15  C   LIG d   1       2.810  82.006 115.188  0.00  0.00     0.109 C 
ATOM     16  O   LIG d   1       4.746  83.434 115.098  0.00  0.00    -0.276 OA
ATOM     17  H   LIG d   1       1.738  84.179 114.479  0.00  0.00     0.149 HD
ENDBRANCH   6  13
BRANCH   5  18
ATOM     18  N   LIG d   1       4.153  86.177 116.536  0.00  0.00     0.381 N 
ATOM     19  H   LIG d   1       3.657  86.061 117.398  0.00  0.00    -0.090 HD
ATOM     20  H   LIG d   1       4.859  86.880 116.671  0.00  0.00    -0.090 HD
ATOM     21  H   LIG d   1       4.578  85.316 116.270  0.00  0.00    -0.090 HD
ENDBRANCH   5  18
BRANCH   3  22
ATOM     22  C   LIG d   1       2.747  89.896 113.866  0.00  0.00     0.382 C 
ATOM     23  O   LIG d   1       2.616  90.433 112.740  0.00  0.00    -0.241 OA
ATOM     24  O   LIG d   1       2.755  90.609 114.888  0.00  0.00    -0.241 OA
ENDBRANCH   3  22
TORSDOF 7
ENDMDL
MODEL 5
REMARK VINA RESULT:      -5.0      2.229      3.234
REMARK  7 active torsions:
REMARK  status: ('A' for Active; 'I' for Inactive)
REMARK    1  A    between atoms: C_2  and  C_3 
REMARK    2  A    between atoms: C_3  and  O_6 
REMARK    3  A    between atoms: C_3  and  C_4 
REMARK    4  A    between atoms: C_7  and  O_6 
REMARK    5  A    between atoms: C_9  and  C_10 
REMARK    6  A    between atoms: N_15  and  C_14 
REMARK    7  A    between atoms: N_20  and  C_19 
REMARK       I    between atoms: C_22  and  N_20 
ROOT
ATOM      1  C   LIG d   1      -3.432  76.965 115.195  0.00  0.00     0.161 C 
ATOM      2  C   LIG d   1      -3.109  77.089 113.834  0.00  0.00     0.016 C 
ATOM      3  C   LIG d   1      -2.050  77.895 113.355  0.00  0.00     0.038 C 
ATOM      4  C   LIG d   1      -1.141  78.517 114.224  0.00  0.00     0.028 C 
ATOM      5  C   LIG d   1      -1.730  78.828 115.596  0.00  0.00    -0.047 C 
ATOM      6  C   LIG d   1      -2.382  77.547 116.165  0.00  0.00     0.091 C 
ENDROOT
BRANCH   1   7
ATOM      7  O   LIG d   1      -3.693  75.583 115.511  0.00  0.00    -0.368 OA
BRANCH   7   8
ATOM      8  C   LIG d   1      -5.038  75.273 115.950  0.00  0.00     0.119 C 
BRANCH   8   9
ATOM      9  C   LIG d   1      -5.475  73.983 115.230  0.00  0.00     0.028 C 
ATOM     10  C   LIG d   1      -6.474  73.157 116.058  0.00  0.00     0.006 C 
ENDBRANCH   8   9
BRANCH   8  11
ATOM     11  C   LIG d   1      -6.033  76.346 115.499  0.00  0.00     0.028 C 
ATOM     12  C   LIG d   1      -6.933  76.844 116.642  0.00  0.00     0.006 C 
ENDBRANCH   8  11
ENDBRANCH   7   8
ENDBRANCH   1   7
BRANCH   6  13
ATOM     13  N   LIG d   1      -3.056  77.785 117.468  0.00  0.00    -0.311 N 
ATOM     14  C   LIG d   1      -4.000  78.707 117.647  0.00  0.00     0.210 C 
ATOM     15  C   LIG d   1      -4.550  78.800 119.074  0.00  0.00     0.109 C 
ATOM     16  O   LIG d   1      -4.458  79.434 116.753  0.00  0.00    -0.276 OA
ATOM     17  H   LIG d   1      -2.768  77.218 118.240  0.00  0.00     0.149 HD
ENDBRANCH   6  13
BRANCH   5  18
ATOM     18  N   LIG d   1      -0.638  79.346 116.442  0.00  0.00     0.381 N 
ATOM     19  H   LIG d   1       0.188  78.801 116.300  0.00  0.00    -0.090 HD
ATOM     20  H   LIG d   1      -0.908  79.265 117.407  0.00  0.00    -0.090 HD
ATOM     21  H   LIG d   1      -0.458  80.300 116.220  0.00  0.00    -0.090 HD
ENDBRANCH   5  18
BRANCH   3  22
ATOM     22  C   LIG d   1      -1.917  78.118 111.993  0.00  0.00     0.382 C 
ATOM     23  O   LIG d   1      -1.803  77.146 111.207  0.00  0.00    -0.241 OA
ATOM     24  O   LIG d   1      -1.865  79.279 111.545  0.00  0.00    -0.241 OA
ENDBRANCH   3  22
TORSDOF 7
ENDMDL
MODEL 6
REMARK VINA RESULT:      -5.0      2.440      3.264
REMARK  7 active torsions:
REMARK  status: ('A' for Active; 'I' for Inactive)
REMARK    1  A    between atoms: C_2  and  C_3 
REMARK    2  A    between atoms: C_3  and  O_6 
REMARK    3  A    between atoms: C_3  and  C_4 
REMARK    4  A    between atoms: C_7  and  O_6 
REMARK    5  A    between atoms: C_9  and  C_10 
REMARK    6  A    between atoms: N_15  and  C_14 
REMARK    7  A    between atoms: N_20  and  C_19 
REMARK       I    between atoms: C_22  and  N_20 
ROOT
ATOM      1  C   LIG d   1      -2.625  78.873 115.975  0.00  0.00     0.161 C 
ATOM      2  C   LIG d   1      -2.824  79.918 115.057  0.00  0.00     0.016 C 
ATOM      3  C   LIG d   1      -2.387  79.866 113.713  0.00  0.00     0.038 C 
ATOM      4  C   LIG d   1      -1.852  78.697 113.152  0.00  0.00     0.028 C 
ATOM      5  C   LIG d   1      -1.173  77.791 114.173  0.00  0.00    -0.047 C 
ATOM      6  C   LIG d   1      -2.143  77.547 115.351  0.00  0.00     0.091 C 
ENDROOT
BRANCH   1   7
ATOM      7  O   LIG d   1      -3.829  78.659 116.739  0.00  0.00    -0.368 OA
BRANCH   7   8
ATOM      8  C   LIG d   1      -4.345  79.811 117.450  0.00  0.00     0.119 C 
BRANCH   8   9
ATOM      9  C   LIG d   1      -3.678  79.836 118.839  0.00  0.00     0.028 C 
ATOM     10  C   LIG d   1      -3.342  81.263 119.303  0.00  0.00     0.006 C 
ENDBRANCH   8   9
BRANCH   8  11
ATOM     11  C   LIG d   1      -5.846  79.670 117.724  0.00  0.00     0.028 C 
ATOM     12  C   LIG d   1      -6.372  78.254 117.443  0.00  0.00     0.006 C 
ENDBRANCH   8  11
ENDBRANCH   7   8
ENDBRANCH   1   7
BRANCH   6  13
ATOM     13  N   LIG d   1      -1.527  76.738 116.435  0.00  0.00    -0.311 N 
ATOM     14  C   LIG d   1      -1.569  75.407 116.471  0.00  0.00     0.210 C 
ATOM     15  C   LIG d   1      -0.888  74.772 117.687  0.00  0.00     0.109 C 
ATOM     16  O   LIG d   1      -2.077  74.692 115.595  0.00  0.00    -0.276 OA
ATOM     17  H   LIG d   1      -1.066  77.237 117.170  0.00  0.00     0.149 HD
ENDBRANCH   6  13
BRANCH   5  18
ATOM     18  N   LIG d   1      -0.784  76.549 113.477  0.00  0.00     0.381 N 
ATOM     19  H   LIG d   1      -1.001  76.624 112.504  0.00  0.00    -0.090 HD
ATOM     20  H   LIG d   1      -1.311  75.784 113.860  0.00  0.00    -0.090 HD
ATOM     21  H   LIG d   1       0.191  76.383 113.596  0.00  0.00    -0.090 HD
ENDBRANCH   5  18
BRANCH   3  22
ATOM     22  C   LIG d   1      -2.447  81.007 112.927  0.00  0.00     0.382 C 
ATOM     23  O   LIG d   1      -3.560  81.495 112.614  0.00  0.00    -0.241 OA
ATOM     24  O   LIG d   1      -1.404  81.528 112.489  0.00  0.00    -0.241 OA
ENDBRANCH   3  22
TORSDOF 7
ENDMDL
MODEL 7
REMARK VINA RESULT:      -4.9      9.561     11.747
REMARK  7 active torsions:
REMARK  status: ('A' for Active; 'I' for Inactive)
REMARK    1  A    between atoms: C_2  and  C_3 
REMARK    2  A    between atoms: C_3  and  O_6 
REMARK    3  A    between atoms: C_3  and  C_4 
REMARK    4  A    between atoms: C_7  and  O_6 
REMARK    5  A    between atoms: C_9  and  C_10 
REMARK    6  A    between atoms: N_15  and  C_14 
REMARK    7  A    between atoms: N_20  and  C_19 
REMARK       I    between atoms: C_22  and  N_20 
ROOT
ATOM      1  C   LIG d   1       3.204  85.402 112.747  0.00  0.00     0.161 C 
ATOM      2  C   LIG d   1       3.825  86.642 112.972  0.00  0.00     0.016 C 
ATOM      3  C   LIG d   1       3.224  87.882 112.659  0.00  0.00     0.038 C 
ATOM      4  C   LIG d   1       1.889  87.973 112.235  0.00  0.00     0.028 C 
ATOM      5  C   LIG d   1       1.397  86.722 111.514  0.00  0.00    -0.047 C 
ATOM      6  C   LIG d   1       1.706  85.485 112.388  0.00  0.00     0.091 C 
ENDROOT
BRANCH   1   7
ATOM      7  O   LIG d   1       3.400  84.543 113.888  0.00  0.00    -0.368 OA
BRANCH   7   8
ATOM      8  C   LIG d   1       2.260  84.384 114.768  0.00  0.00     0.119 C 
BRANCH   8   9
ATOM      9  C   LIG d   1       2.476  85.315 115.977  0.00  0.00     0.028 C 
ATOM     10  C   LIG d   1       1.582  86.565 115.921  0.00  0.00     0.006 C 
ENDBRANCH   8   9
BRANCH   8  11
ATOM     11  C   LIG d   1       2.200  82.969 115.352  0.00  0.00     0.028 C 
ATOM     12  C   LIG d   1       2.250  81.877 114.272  0.00  0.00     0.006 C 
ENDBRANCH   8  11
ENDBRANCH   7   8
ENDBRANCH   1   7
BRANCH   6  13
ATOM     13  N   LIG d   1       1.332  84.211 111.720  0.00  0.00    -0.311 N 
ATOM     14  C   LIG d   1       0.119  83.668 111.804  0.00  0.00     0.210 C 
ATOM     15  C   LIG d   1      -0.049  82.342 111.056  0.00  0.00     0.109 C 
ATOM     16  O   LIG d   1      -0.844  84.175 112.400  0.00  0.00    -0.276 OA
ATOM     17  H   LIG d   1       2.044  83.749 111.190  0.00  0.00     0.149 HD
ENDBRANCH   6  13
BRANCH   5  18
ATOM     18  N   LIG d   1      -0.044  86.898 111.251  0.00  0.00     0.381 N 
ATOM     19  H   LIG d   1      -0.368  87.739 111.686  0.00  0.00    -0.090 HD
ATOM     20  H   LIG d   1      -0.545  86.124 111.650  0.00  0.00    -0.090 HD
ATOM     21  H   LIG d   1      -0.209  86.939 110.269  0.00  0.00    -0.090 HD
ENDBRANCH   5  18
BRANCH   3  22
ATOM     22  C   LIG d   1       3.972  89.047 112.730  0.00  0.00     0.382 C 
ATOM     23  O   LIG d   1       3.399  90.153 112.877  0.00  0.00    -0.241 OA
ATOM     24  O   LIG d   1       5.211  89.010 112.606  0.00  0.00    -0.241 OA
ENDBRANCH   3  22
TORSDOF 7
ENDMDL
MODEL 8
REMARK VINA RESULT:      -4.7      3.313      4.848
REMARK  7 active torsions:
REMARK  status: ('A' for Active; 'I' for Inactive)
REMARK    1  A    between atoms: C_2  and  C_3 
REMARK    2  A    between atoms: C_3  and  O_6 
REMARK    3  A    between atoms: C_3  and  C_4 
REMARK    4  A    between atoms: C_7  and  O_6 
REMARK    5  A    between atoms: C_9  and  C_10 
REMARK    6  A    between atoms: N_15  and  C_14 
REMARK    7  A    between atoms: N_20  and  C_19 
REMARK       I    between atoms: C_22  and  N_20 
ROOT
ATOM      1  C   LIG d   1      -3.277  78.767 116.932  0.00  0.00     0.161 C 
ATOM      2  C   LIG d   1      -2.444  79.796 117.400  0.00  0.00     0.016 C 
ATOM      3  C   LIG d   1      -1.144  80.035 116.897  0.00  0.00     0.038 C 
ATOM      4  C   LIG d   1      -0.644  79.350 115.780  0.00  0.00     0.028 C 
ATOM      5  C   LIG d   1      -1.251  77.963 115.598  0.00  0.00    -0.047 C 
ATOM      6  C   LIG d   1      -2.791  78.080 115.638  0.00  0.00     0.091 C 
ENDROOT
BRANCH   1   7
ATOM      7  O   LIG d   1      -4.619  79.263 116.762  0.00  0.00    -0.368 OA
BRANCH   7   8
ATOM      8  C   LIG d   1      -5.410  79.386 117.970  0.00  0.00     0.119 C 
BRANCH   8   9
ATOM      9  C   LIG d   1      -6.069  78.018 118.233  0.00  0.00     0.028 C 
ATOM     10  C   LIG d   1      -6.685  77.409 116.963  0.00  0.00     0.006 C 
ENDBRANCH   8   9
BRANCH   8  11
ATOM     11  C   LIG d   1      -6.572  80.365 117.777  0.00  0.00     0.028 C 
ATOM     12  C   LIG d   1      -6.439  81.626 118.646  0.00  0.00     0.006 C 
ENDBRANCH   8  11
ENDBRANCH   7   8
ENDBRANCH   1   7
BRANCH   6  13
ATOM     13  N   LIG d   1      -3.463  76.757 115.551  0.00  0.00    -0.311 N 
ATOM     14  C   LIG d   1      -4.086  76.321 114.458  0.00  0.00     0.210 C 
ATOM     15  C   LIG d   1      -4.729  74.937 114.589  0.00  0.00     0.109 C 
ATOM     16  O   LIG d   1      -4.140  76.936 113.382  0.00  0.00    -0.276 OA
ATOM     17  H   LIG d   1      -3.441  76.180 116.369  0.00  0.00     0.149 HD
ENDBRANCH   6  13
BRANCH   5  18
ATOM     18  N   LIG d   1      -0.745  77.419 114.324  0.00  0.00     0.381 N 
ATOM     19  H   LIG d   1      -0.449  78.167 113.729  0.00  0.00    -0.090 HD
ATOM     20  H   LIG d   1      -1.489  76.925 113.863  0.00  0.00    -0.090 HD
ATOM     21  H   LIG d   1       0.018  76.801 114.496  0.00  0.00    -0.090 HD
ENDBRANCH   5  18
BRANCH   3  22
ATOM     22  C   LIG d   1      -0.314  80.941 117.540  0.00  0.00     0.382 C 
ATOM     23  O   LIG d   1       0.482  81.645 116.872  0.00  0.00    -0.241 OA
ATOM     24  O   LIG d   1      -0.320  81.033 118.782  0.00  0.00    -0.241 OA
ENDBRANCH   3  22
TORSDOF 7
ENDMDL
MODEL 9
REMARK VINA RESULT:      -4.5      2.803      5.301
REMARK  7 active torsions:
REMARK  status: ('A' for Active; 'I' for Inactive)
REMARK    1  A    between atoms: C_2  and  C_3 
REMARK    2  A    between atoms: C_3  and  O_6 
REMARK    3  A    between atoms: C_3  and  C_4 
REMARK    4  A    between atoms: C_7  and  O_6 
REMARK    5  A    between atoms: C_9  and  C_10 
REMARK    6  A    between atoms: N_15  and  C_14 
REMARK    7  A    between atoms: N_20  and  C_19 
REMARK       I    between atoms: C_22  and  N_20 
ROOT
ATOM      1  C   LIG d   1      -2.659  77.154 116.599  0.00  0.00     0.161 C 
ATOM      2  C   LIG d   1      -3.718  77.798 117.259  0.00  0.00     0.016 C 
ATOM      3  C   LIG d   1      -5.068  77.393 117.145  0.00  0.00     0.038 C 
ATOM      4  C   LIG d   1      -5.434  76.214 116.479  0.00  0.00     0.028 C 
ATOM      5  C   LIG d   1      -4.459  75.813 115.378  0.00  0.00    -0.047 C 
ATOM      6  C   LIG d   1      -3.026  75.799 115.957  0.00  0.00     0.091 C 
ENDROOT
BRANCH   1   7
ATOM      7  O   LIG d   1      -1.546  76.995 117.501  0.00  0.00    -0.368 OA
BRANCH   7   8
ATOM      8  C   LIG d   1      -0.397  77.842 117.250  0.00  0.00     0.119 C 
BRANCH   8   9
ATOM      9  C   LIG d   1       0.857  76.948 117.301  0.00  0.00     0.028 C 
ATOM     10  C   LIG d   1       0.844  75.986 118.501  0.00  0.00     0.006 C 
ENDBRANCH   8   9
BRANCH   8  11
ATOM     11  C   LIG d   1      -0.207  78.870 118.369  0.00  0.00     0.028 C 
ATOM     12  C   LIG d   1      -0.578  80.297 117.936  0.00  0.00     0.006 C 
ENDBRANCH   8  11
ENDBRANCH   7   8
ENDBRANCH   1   7
BRANCH   6  13
ATOM     13  N   LIG d   1      -1.999  75.498 114.925  0.00  0.00    -0.311 N 
ATOM     14  C   LIG d   1      -1.002  74.636 115.113  0.00  0.00     0.210 C 
ATOM     15  C   LIG d   1      -0.043  74.489 113.927  0.00  0.00     0.109 C 
ATOM     16  O   LIG d   1      -0.838  73.956 116.137  0.00  0.00    -0.276 OA
ATOM     17  H   LIG d   1      -2.075  75.983 114.052  0.00  0.00     0.149 HD
ENDBRANCH   6  13
BRANCH   5  18
ATOM     18  N   LIG d   1      -4.886  74.499 114.861  0.00  0.00     0.381 N 
ATOM     19  H   LIG d   1      -5.884  74.432 114.888  0.00  0.00    -0.090 HD
ATOM     20  H   LIG d   1      -4.506  73.779 115.450  0.00  0.00    -0.090 HD
ATOM     21  H   LIG d   1      -4.562  74.378 113.927  0.00  0.00    -0.090 HD
ENDBRANCH   5  18
BRANCH   3  22
ATOM     22  C   LIG d   1      -6.072  78.193 117.669  0.00  0.00     0.382 C 
ATOM     23  O   LIG d   1      -6.371  79.273 117.105  0.00  0.00    -0.241 OA
ATOM     24  O   LIG d   1      -6.653  77.870 118.723  0.00  0.00    -0.241 OA
ENDBRANCH   3  22
TORSDOF 7
ENDMDL
