MODEL 1
REMARK VINA RESULT:      -5.7      0.000      0.000
REMARK  7 active torsions:
REMARK  status: ('A' for Active; 'I' for Inactive)
REMARK    1  A    between atoms: C_2  and  C_3 
REMARK    2  A    between atoms: C_3  and  O_6 
REMARK    3  A    between atoms: C_3  and  C_4 
REMARK    4  A    between atoms: C_7  and  O_6 
REMARK    5  A    between atoms: C_9  and  C_10 
REMARK    6  A    between atoms: N_15  and  C_14 
REMARK    7  A    between atoms: N_20  and  C_19 
REMARK       I    between atoms: C_22  and  N_20 
ROOT
ATOM      1  C   LIG d   1      -2.921  77.012 116.135  0.00  0.00     0.161 C 
ATOM      2  C   LIG d   1      -3.258  77.890 115.091  0.00  0.00     0.016 C 
ATOM      3  C   LIG d   1      -2.465  78.063 113.933  0.00  0.00     0.038 C 
ATOM      4  C   LIG d   1      -1.350  77.253 113.670  0.00  0.00     0.028 C 
ATOM      5  C   LIG d   1      -0.689  76.705 114.930  0.00  0.00    -0.047 C 
ATOM      6  C   LIG d   1      -1.767  76.039 115.814  0.00  0.00     0.091 C 
ENDROOT
BRANCH   1   7
ATOM      7  O   LIG d   1      -4.090  76.282 116.556  0.00  0.00    -0.368 OA
BRANCH   7   8
ATOM      8  C   LIG d   1      -5.042  75.948 115.516  0.00  0.00     0.119 C 
BRANCH   8   9
ATOM      9  C   LIG d   1      -6.454  76.093 116.116  0.00  0.00     0.028 C 
ATOM     10  C   LIG d   1      -6.629  77.409 116.892  0.00  0.00     0.006 C 
ENDBRANCH   8   9
BRANCH   8  11
ATOM     11  C   LIG d   1      -4.925  74.477 115.105  0.00  0.00     0.028 C 
ATOM     12  C   LIG d   1      -6.279  73.751 115.099  0.00  0.00     0.006 C 
ENDBRANCH   8  11
ENDBRANCH   7   8
ENDBRANCH   1   7
BRANCH   6  13
ATOM     13  N   LIG d   1      -1.219  75.550 117.106  0.00  0.00    -0.311 N 
ATOM     14  C   LIG d   1      -0.792  74.303 117.297  0.00  0.00     0.210 C 
ATOM     15  C   LIG d   1      -0.283  74.003 118.710  0.00  0.00     0.109 C 
ATOM     16  O   LIG d   1      -0.756  73.426 116.421  0.00  0.00    -0.276 OA
ATOM     17  H   LIG d   1      -1.183  76.205 117.863  0.00  0.00     0.149 HD
ENDBRANCH   6  13
BRANCH   5  18
ATOM     18  N   LIG d   1       0.370  75.769 114.507  0.00  0.00     0.381 N 
ATOM     19  H   LIG d   1       0.840  75.403 115.310  0.00  0.00    -0.090 HD
ATOM     20  H   LIG d   1       1.042  76.269 113.950  0.00  0.00    -0.090 HD
ATOM     21  H   LIG d   1      -0.025  75.025 113.975  0.00  0.00    -0.090 HD
ENDBRANCH   5  18
BRANCH   3  22
ATOM     22  C   LIG d   1      -2.762  79.084 113.043  0.00  0.00     0.382 C 
ATOM     23  O   LIG d   1      -3.625  79.944 113.341  0.00  0.00    -0.241 OA
ATOM     24  O   LIG d   1      -2.210  79.129 111.927  0.00  0.00    -0.241 OA
ENDBRANCH   3  22
TORSDOF 7
ENDMDL
MODEL 2
REMARK VINA RESULT:      -5.5      2.931      6.069
REMARK  7 active torsions:
REMARK  status: ('A' for Active; 'I' for Inactive)
REMARK    1  A    between atoms: C_2  and  C_3 
REMARK    2  A    between atoms: C_3  and  O_6 
REMARK    3  A    between atoms: C_3  and  C_4 
REMARK    4  A    between atoms: C_7  and  O_6 
REMARK    5  A    between atoms: C_9  and  C_10 
REMARK    6  A    between atoms: N_15  and  C_14 
REMARK    7  A    between atoms: N_20  and  C_19 
REMARK       I    between atoms: C_22  and  N_20 
ROOT
ATOM      1  C   LIG d   1      -4.257  77.124 115.657  0.00  0.00     0.161 C 
ATOM      2  C   LIG d   1      -4.531  75.857 115.117  0.00  0.00     0.016 C 
ATOM      3  C   LIG d   1      -5.713  75.131 115.394  0.00  0.00     0.038 C 
ATOM      4  C   LIG d   1      -6.776  75.694 116.116  0.00  0.00     0.028 C 
ATOM      5  C   LIG d   1      -6.336  76.772 117.101  0.00  0.00    -0.047 C 
ATOM      6  C   LIG d   1      -5.453  77.801 116.357  0.00  0.00     0.091 C 
ENDROOT
BRANCH   1   7
ATOM      7  O   LIG d   1      -3.722  77.986 114.633  0.00  0.00    -0.368 OA
BRANCH   7   8
ATOM      8  C   LIG d   1      -2.887  77.349 113.635  0.00  0.00     0.119 C 
BRANCH   8   9
ATOM      9  C   LIG d   1      -1.419  77.612 114.024  0.00  0.00     0.028 C 
ATOM     10  C   LIG d   1      -0.754  76.385 114.671  0.00  0.00     0.006 C 
ENDBRANCH   8   9
BRANCH   8  11
ATOM     11  C   LIG d   1      -3.066  78.000 112.261  0.00  0.00     0.028 C 
ATOM     12  C   LIG d   1      -2.006  77.546 111.244  0.00  0.00     0.006 C 
ENDBRANCH   8  11
ENDBRANCH   7   8
ENDBRANCH   1   7
BRANCH   6  13
ATOM     13  N   LIG d   1      -4.911  78.845 117.266  0.00  0.00    -0.311 N 
ATOM     14  C   LIG d   1      -5.502  80.021 117.467  0.00  0.00     0.210 C 
ATOM     15  C   LIG d   1      -4.765  80.959 118.428  0.00  0.00     0.109 C 
ATOM     16  O   LIG d   1      -6.583  80.364 116.966  0.00  0.00    -0.276 OA
ATOM     17  H   LIG d   1      -4.053  78.637 117.738  0.00  0.00     0.149 HD
ENDBRANCH   6  13
BRANCH   5  18
ATOM     18  N   LIG d   1      -7.553  77.368 117.683  0.00  0.00     0.381 N 
ATOM     19  H   LIG d   1      -7.308  77.946 118.462  0.00  0.00    -0.090 HD
ATOM     20  H   LIG d   1      -8.150  76.630 118.012  0.00  0.00    -0.090 HD
ATOM     21  H   LIG d   1      -8.030  77.910 116.996  0.00  0.00    -0.090 HD
ENDBRANCH   5  18
BRANCH   3  22
ATOM     22  C   LIG d   1      -5.823  73.813 114.980  0.00  0.00     0.382 C 
ATOM     23  O   LIG d   1      -5.941  72.897 115.830  0.00  0.00    -0.241 OA
ATOM     24  O   LIG d   1      -5.761  73.523 113.771  0.00  0.00    -0.241 OA
ENDBRANCH   3  22
TORSDOF 7
ENDMDL
MODEL 3
REMARK VINA RESULT:      -5.3      2.887      4.338
REMARK  7 active torsions:
REMARK  status: ('A' for Active; 'I' for Inactive)
REMARK    1  A    between atoms: C_2  and  C_3 
REMARK    2  A    between atoms: C_3  and  O_6 
REMARK    3  A    between atoms: C_3  and  C_4 
REMARK    4  A    between atoms: C_7  and  O_6 
REMARK    5  A    between atoms: C_9  and  C_10 
REMARK    6  A    between atoms: N_15  and  C_14 
REMARK    7  A    between atoms: N_20  and  C_19 
REMARK       I    between atoms: C_22  and  N_20 
ROOT
ATOM      1  C   LIG d   1      -2.939  79.516 114.961  0.00  0.00     0.161 C 
ATOM      2  C   LIG d   1      -2.444  80.745 114.493  0.00  0.00     0.016 C 
ATOM      3  C   LIG d   1      -1.783  80.895 113.252  0.00  0.00     0.038 C 
ATOM      4  C   LIG d   1      -1.706  79.848 112.322  0.00  0.00     0.028 C 
ATOM      5  C   LIG d   1      -1.745  78.465 112.962  0.00  0.00    -0.047 C 
ATOM      6  C   LIG d   1      -2.962  78.386 113.911  0.00  0.00     0.091 C 
ENDROOT
BRANCH   1   7
ATOM      7  O   LIG d   1      -4.252  79.702 115.527  0.00  0.00    -0.368 OA
BRANCH   7   8
ATOM      8  C   LIG d   1      -4.298  80.014 116.941  0.00  0.00     0.119 C 
BRANCH   8   9
ATOM      9  C   LIG d   1      -4.825  78.765 117.674  0.00  0.00     0.028 C 
ATOM     10  C   LIG d   1      -6.041  78.140 116.969  0.00  0.00     0.006 C 
ENDBRANCH   8   9
BRANCH   8  11
ATOM     11  C   LIG d   1      -5.320  81.117 117.234  0.00  0.00     0.028 C 
ATOM     12  C   LIG d   1      -5.054  81.836 118.567  0.00  0.00     0.006 C 
ENDBRANCH   8  11
ENDBRANCH   7   8
ENDBRANCH   1   7
BRANCH   6  13
ATOM     13  N   LIG d   1      -3.027  77.094 114.643  0.00  0.00    -0.311 N 
ATOM     14  C   LIG d   1      -4.017  76.215 114.493  0.00  0.00     0.210 C 
ATOM     15  C   LIG d   1      -3.901  74.956 115.357  0.00  0.00     0.109 C 
ATOM     16  O   LIG d   1      -4.964  76.345 113.702  0.00  0.00    -0.276 OA
ATOM     17  H   LIG d   1      -2.283  76.893 115.282  0.00  0.00     0.149 HD
ENDBRANCH   6  13
BRANCH   5  18
ATOM     18  N   LIG d   1      -1.796  77.471 111.873  0.00  0.00     0.381 N 
ATOM     19  H   LIG d   1      -1.070  76.794 111.998  0.00  0.00    -0.090 HD
ATOM     20  H   LIG d   1      -1.641  77.940 110.997  0.00  0.00    -0.090 HD
ATOM     21  H   LIG d   1      -2.684  77.020 111.864  0.00  0.00    -0.090 HD
ENDBRANCH   5  18
BRANCH   3  22
ATOM     22  C   LIG d   1      -1.156  82.094 112.949  0.00  0.00     0.382 C 
ATOM     23  O   LIG d   1      -1.624  82.837 112.053  0.00  0.00    -0.241 OA
ATOM     24  O   LIG d   1      -0.103  82.420 113.529  0.00  0.00    -0.241 OA
ENDBRANCH   3  22
TORSDOF 7
ENDMDL
MODEL 4
REMARK VINA RESULT:      -5.1      4.232      6.914
REMARK  7 active torsions:
REMARK  status: ('A' for Active; 'I' for Inactive)
REMARK    1  A    between atoms: C_2  and  C_3 
REMARK    2  A    between atoms: C_3  and  O_6 
REMARK    3  A    between atoms: C_3  and  C_4 
REMARK    4  A    between atoms: C_7  and  O_6 
REMARK    5  A    between atoms: C_9  and  C_10 
REMARK    6  A    between atoms: N_15  and  C_14 
REMARK    7  A    between atoms: N_20  and  C_19 
REMARK       I    between atoms: C_22  and  N_20 
ROOT
ATOM      1  C   LIG d   1      -6.416  78.771 118.536  0.00  0.00     0.161 C 
ATOM      2  C   LIG d   1      -7.786  78.496 118.688  0.00  0.00     0.016 C 
ATOM      3  C   LIG d   1      -8.806  79.411 118.340  0.00  0.00     0.038 C 
ATOM      4  C   LIG d   1      -8.528  80.612 117.670  0.00  0.00     0.028 C 
ATOM      5  C   LIG d   1      -7.131  81.153 117.952  0.00  0.00    -0.047 C 
ATOM      6  C   LIG d   1      -6.098  80.031 117.704  0.00  0.00     0.091 C 
ENDROOT
BRANCH   1   7
ATOM      7  O   LIG d   1      -5.747  77.621 117.981  0.00  0.00    -0.368 OA
BRANCH   7   8
ATOM      8  C   LIG d   1      -5.895  77.424 116.554  0.00  0.00     0.119 C 
BRANCH   8   9
ATOM      9  C   LIG d   1      -6.643  76.093 116.346  0.00  0.00     0.028 C 
ATOM     10  C   LIG d   1      -6.491  75.552 114.914  0.00  0.00     0.006 C 
ENDBRANCH   8   9
BRANCH   8  11
ATOM     11  C   LIG d   1      -4.536  77.238 115.872  0.00  0.00     0.028 C 
ATOM     12  C   LIG d   1      -3.393  77.015 116.875  0.00  0.00     0.006 C 
ENDBRANCH   8  11
ENDBRANCH   7   8
ENDBRANCH   1   7
BRANCH   6  13
ATOM     13  N   LIG d   1      -4.712  80.451 118.038  0.00  0.00    -0.311 N 
ATOM     14  C   LIG d   1      -3.789  80.729 117.119  0.00  0.00     0.210 C 
ATOM     15  C   LIG d   1      -2.418  81.125 117.679  0.00  0.00     0.109 C 
ATOM     16  O   LIG d   1      -3.983  80.717 115.895  0.00  0.00    -0.276 OA
ATOM     17  H   LIG d   1      -4.477  80.518 119.009  0.00  0.00     0.149 HD
ENDBRANCH   6  13
BRANCH   5  18
ATOM     18  N   LIG d   1      -6.925  82.330 117.086  0.00  0.00     0.381 N 
ATOM     19  H   LIG d   1      -6.168  82.158 116.455  0.00  0.00    -0.090 HD
ATOM     20  H   LIG d   1      -6.685  83.118 117.660  0.00  0.00    -0.090 HD
ATOM     21  H   LIG d   1      -7.757  82.525 116.573  0.00  0.00    -0.090 HD
ENDBRANCH   5  18
BRANCH   3  22
ATOM     22  C   LIG d   1     -10.119  79.145 118.697  0.00  0.00     0.382 C 
ATOM     23  O   LIG d   1     -10.650  78.056 118.371  0.00  0.00    -0.241 OA
ATOM     24  O   LIG d   1     -10.793  79.998 119.305  0.00  0.00    -0.241 OA
ENDBRANCH   3  22
TORSDOF 7
ENDMDL
MODEL 5
REMARK VINA RESULT:      -5.1      9.153     11.118
REMARK  7 active torsions:
REMARK  status: ('A' for Active; 'I' for Inactive)
REMARK    1  A    between atoms: C_2  and  C_3 
REMARK    2  A    between atoms: C_3  and  O_6 
REMARK    3  A    between atoms: C_3  and  C_4 
REMARK    4  A    between atoms: C_7  and  O_6 
REMARK    5  A    between atoms: C_9  and  C_10 
REMARK    6  A    between atoms: N_15  and  C_14 
REMARK    7  A    between atoms: N_20  and  C_19 
REMARK       I    between atoms: C_22  and  N_20 
ROOT
ATOM      1  C   LIG d   1       3.084  85.141 113.873  0.00  0.00     0.161 C 
ATOM      2  C   LIG d   1       2.957  86.380 113.223  0.00  0.00     0.016 C 
ATOM      3  C   LIG d   1       3.219  87.619 113.851  0.00  0.00     0.038 C 
ATOM      4  C   LIG d   1       3.775  87.696 115.136  0.00  0.00     0.028 C 
ATOM      5  C   LIG d   1       3.444  86.492 116.012  0.00  0.00    -0.047 C 
ATOM      6  C   LIG d   1       3.796  85.199 115.241  0.00  0.00     0.091 C 
ENDROOT
BRANCH   1   7
ATOM      7  O   LIG d   1       3.743  84.198 113.005  0.00  0.00    -0.368 OA
BRANCH   7   8
ATOM      8  C   LIG d   1       2.902  83.534 112.031  0.00  0.00     0.119 C 
BRANCH   8   9
ATOM      9  C   LIG d   1       2.024  82.521 112.791  0.00  0.00     0.028 C 
ATOM     10  C   LIG d   1       0.525  82.717 112.511  0.00  0.00     0.006 C 
ENDBRANCH   8   9
BRANCH   8  11
ATOM     11  C   LIG d   1       3.735  82.696 111.055  0.00  0.00     0.028 C 
ATOM     12  C   LIG d   1       3.605  81.186 111.305  0.00  0.00     0.006 C 
ENDBRANCH   8  11
ENDBRANCH   7   8
ENDBRANCH   1   7
BRANCH   6  13
ATOM     13  N   LIG d   1       3.425  83.973 115.994  0.00  0.00    -0.311 N 
ATOM     14  C   LIG d   1       4.315  83.083 116.429  0.00  0.00     0.210 C 
ATOM     15  C   LIG d   1       3.719  81.879 117.166  0.00  0.00     0.109 C 
ATOM     16  O   LIG d   1       5.544  83.192 116.304  0.00  0.00    -0.276 OA
ATOM     17  H   LIG d   1       2.451  83.821 116.167  0.00  0.00     0.149 HD
ENDBRANCH   6  13
BRANCH   5  18
ATOM     18  N   LIG d   1       4.198  86.637 117.272  0.00  0.00     0.381 N 
ATOM     19  H   LIG d   1       5.107  87.011 117.082  0.00  0.00    -0.090 HD
ATOM     20  H   LIG d   1       4.311  85.731 117.689  0.00  0.00    -0.090 HD
ATOM     21  H   LIG d   1       3.707  87.240 117.895  0.00  0.00    -0.090 HD
ENDBRANCH   5  18
BRANCH   3  22
ATOM     22  C   LIG d   1       2.886  88.801 113.205  0.00  0.00     0.382 C 
ATOM     23  O   LIG d   1       3.635  89.802 113.305  0.00  0.00    -0.241 OA
ATOM     24  O   LIG d   1       1.825  88.891 112.560  0.00  0.00    -0.241 OA
ENDBRANCH   3  22
TORSDOF 7
ENDMDL
MODEL 6
REMARK VINA RESULT:      -5.0      1.966      4.971
REMARK  7 active torsions:
REMARK  status: ('A' for Active; 'I' for Inactive)
REMARK    1  A    between atoms: C_2  and  C_3 
REMARK    2  A    between atoms: C_3  and  O_6 
REMARK    3  A    between atoms: C_3  and  C_4 
REMARK    4  A    between atoms: C_7  and  O_6 
REMARK    5  A    between atoms: C_9  and  C_10 
REMARK    6  A    between atoms: N_15  and  C_14 
REMARK    7  A    between atoms: N_20  and  C_19 
REMARK       I    between atoms: C_22  and  N_20 
ROOT
ATOM      1  C   LIG d   1      -2.448  76.682 114.832  0.00  0.00     0.161 C 
ATOM      2  C   LIG d   1      -2.057  75.525 115.528  0.00  0.00     0.016 C 
ATOM      3  C   LIG d   1      -1.244  75.549 116.684  0.00  0.00     0.038 C 
ATOM      4  C   LIG d   1      -0.889  76.751 117.315  0.00  0.00     0.028 C 
ATOM      5  C   LIG d   1      -0.838  77.942 116.364  0.00  0.00    -0.047 C 
ATOM      6  C   LIG d   1      -2.161  78.007 115.569  0.00  0.00     0.091 C 
ENDROOT
BRANCH   1   7
ATOM      7  O   LIG d   1      -3.843  76.594 114.482  0.00  0.00    -0.368 OA
BRANCH   7   8
ATOM      8  C   LIG d   1      -4.693  75.890 115.422  0.00  0.00     0.119 C 
BRANCH   8   9
ATOM      9  C   LIG d   1      -5.832  75.237 114.616  0.00  0.00     0.028 C 
ATOM     10  C   LIG d   1      -5.694  73.707 114.539  0.00  0.00     0.006 C 
ENDBRANCH   8   9
BRANCH   8  11
ATOM     11  C   LIG d   1      -5.382  76.861 116.385  0.00  0.00     0.028 C 
ATOM     12  C   LIG d   1      -6.892  76.603 116.512  0.00  0.00     0.006 C 
ENDBRANCH   8  11
ENDBRANCH   7   8
ENDBRANCH   1   7
BRANCH   6  13
ATOM     13  N   LIG d   1      -2.161  79.094 114.556  0.00  0.00    -0.311 N 
ATOM     14  C   LIG d   1      -3.072  80.065 114.523  0.00  0.00     0.210 C 
ATOM     15  C   LIG d   1      -2.900  81.074 113.383  0.00  0.00     0.109 C 
ATOM     16  O   LIG d   1      -3.988  80.205 115.348  0.00  0.00    -0.276 OA
ATOM     17  H   LIG d   1      -1.435  79.075 113.867  0.00  0.00     0.149 HD
ENDBRANCH   6  13
BRANCH   5  18
ATOM     18  N   LIG d   1      -0.591  79.149 117.176  0.00  0.00     0.381 N 
ATOM     19  H   LIG d   1      -1.331  79.269 117.838  0.00  0.00    -0.090 HD
ATOM     20  H   LIG d   1      -0.577  79.951 116.570  0.00  0.00    -0.090 HD
ATOM     21  H   LIG d   1       0.281  79.068 117.651  0.00  0.00    -0.090 HD
ENDBRANCH   5  18
BRANCH   3  22
ATOM     22  C   LIG d   1      -0.745  74.362 117.198  0.00  0.00     0.382 C 
ATOM     23  O   LIG d   1      -0.847  73.301 116.538  0.00  0.00    -0.241 OA
ATOM     24  O   LIG d   1      -0.234  74.331 118.334  0.00  0.00    -0.241 OA
ENDBRANCH   3  22
TORSDOF 7
ENDMDL
MODEL 7
REMARK VINA RESULT:      -4.9      3.617      6.604
REMARK  7 active torsions:
REMARK  status: ('A' for Active; 'I' for Inactive)
REMARK    1  A    between atoms: C_2  and  C_3 
REMARK    2  A    between atoms: C_3  and  O_6 
REMARK    3  A    between atoms: C_3  and  C_4 
REMARK    4  A    between atoms: C_7  and  O_6 
REMARK    5  A    between atoms: C_9  and  C_10 
REMARK    6  A    between atoms: N_15  and  C_14 
REMARK    7  A    between atoms: N_20  and  C_19 
REMARK       I    between atoms: C_22  and  N_20 
ROOT
ATOM      1  C   LIG d   1      -4.564  78.593 116.405  0.00  0.00     0.161 C 
ATOM      2  C   LIG d   1      -4.403  77.349 115.772  0.00  0.00     0.016 C 
ATOM      3  C   LIG d   1      -5.310  76.275 115.923  0.00  0.00     0.038 C 
ATOM      4  C   LIG d   1      -6.528  76.424 116.604  0.00  0.00     0.028 C 
ATOM      5  C   LIG d   1      -6.493  77.504 117.680  0.00  0.00    -0.047 C 
ATOM      6  C   LIG d   1      -5.943  78.810 117.062  0.00  0.00     0.091 C 
ENDROOT
BRANCH   1   7
ATOM      7  O   LIG d   1      -4.279  79.656 115.475  0.00  0.00    -0.368 OA
BRANCH   7   8
ATOM      8  C   LIG d   1      -3.246  80.590 115.872  0.00  0.00     0.119 C 
BRANCH   8   9
ATOM      9  C   LIG d   1      -2.264  80.725 114.692  0.00  0.00     0.028 C 
ATOM     10  C   LIG d   1      -2.911  80.357 113.346  0.00  0.00     0.006 C 
ENDBRANCH   8   9
BRANCH   8  11
ATOM     11  C   LIG d   1      -2.412  80.039 117.032  0.00  0.00     0.028 C 
ATOM     12  C   LIG d   1      -2.292  81.028 118.203  0.00  0.00     0.006 C 
ENDBRANCH   8  11
ENDBRANCH   7   8
ENDBRANCH   1   7
BRANCH   6  13
ATOM     13  N   LIG d   1      -5.797  79.895 118.067  0.00  0.00    -0.311 N 
ATOM     14  C   LIG d   1      -6.296  81.118 117.903  0.00  0.00     0.210 C 
ATOM     15  C   LIG d   1      -6.014  82.091 119.053  0.00  0.00     0.109 C 
ATOM     16  O   LIG d   1      -6.973  81.482 116.930  0.00  0.00    -0.276 OA
ATOM     17  H   LIG d   1      -5.288  79.677 118.902  0.00  0.00     0.149 HD
ENDBRANCH   6  13
BRANCH   5  18
ATOM     18  N   LIG d   1      -7.861  77.647 118.212  0.00  0.00     0.381 N 
ATOM     19  H   LIG d   1      -8.520  77.275 117.558  0.00  0.00    -0.090 HD
ATOM     20  H   LIG d   1      -8.060  78.623 118.340  0.00  0.00    -0.090 HD
ATOM     21  H   LIG d   1      -7.940  77.168 119.083  0.00  0.00    -0.090 HD
ENDBRANCH   5  18
BRANCH   3  22
ATOM     22  C   LIG d   1      -4.983  75.024 115.424  0.00  0.00     0.382 C 
ATOM     23  O   LIG d   1      -4.074  74.909 114.567  0.00  0.00    -0.241 OA
ATOM     24  O   LIG d   1      -5.615  74.014 115.787  0.00  0.00    -0.241 OA
ENDBRANCH   3  22
TORSDOF 7
ENDMDL
MODEL 8
REMARK VINA RESULT:      -4.8      9.525     11.668
REMARK  7 active torsions:
REMARK  status: ('A' for Active; 'I' for Inactive)
REMARK    1  A    between atoms: C_2  and  C_3 
REMARK    2  A    between atoms: C_3  and  O_6 
REMARK    3  A    between atoms: C_3  and  C_4 
REMARK    4  A    between atoms: C_7  and  O_6 
REMARK    5  A    between atoms: C_9  and  C_10 
REMARK    6  A    between atoms: N_15  and  C_14 
REMARK    7  A    between atoms: N_20  and  C_19 
REMARK       I    between atoms: C_22  and  N_20 
ROOT
ATOM      1  C   LIG d   1       3.394  85.884 114.667  0.00  0.00     0.161 C 
ATOM      2  C   LIG d   1       3.493  87.274 114.848  0.00  0.00     0.016 C 
ATOM      3  C   LIG d   1       3.124  88.215 113.860  0.00  0.00     0.038 C 
ATOM      4  C   LIG d   1       2.485  87.831 112.671  0.00  0.00     0.028 C 
ATOM      5  C   LIG d   1       2.826  86.411 112.232  0.00  0.00    -0.047 C 
ATOM      6  C   LIG d   1       2.596  85.450 113.420  0.00  0.00     0.091 C 
ENDROOT
BRANCH   1   7
ATOM      7  O   LIG d   1       2.844  85.275 115.852  0.00  0.00    -0.368 OA
BRANCH   7   8
ATOM      8  C   LIG d   1       3.799  84.678 116.763  0.00  0.00     0.119 C 
BRANCH   8   9
ATOM      9  C   LIG d   1       3.601  83.151 116.706  0.00  0.00     0.028 C 
ATOM     10  C   LIG d   1       2.117  82.753 116.638  0.00  0.00     0.006 C 
ENDBRANCH   8   9
BRANCH   8  11
ATOM     11  C   LIG d   1       3.505  85.071 118.214  0.00  0.00     0.028 C 
ATOM     12  C   LIG d   1       2.293  86.007 118.344  0.00  0.00     0.006 C 
ENDBRANCH   8  11
ENDBRANCH   7   8
ENDBRANCH   1   7
BRANCH   6  13
ATOM     13  N   LIG d   1       2.985  84.051 113.101  0.00  0.00    -0.311 N 
ATOM     14  C   LIG d   1       2.106  83.064 112.937  0.00  0.00     0.210 C 
ATOM     15  C   LIG d   1       2.721  81.695 112.633  0.00  0.00     0.109 C 
ATOM     16  O   LIG d   1       0.874  83.200 112.982  0.00  0.00    -0.276 OA
ATOM     17  H   LIG d   1       3.964  83.859 113.015  0.00  0.00     0.149 HD
ENDBRANCH   6  13
BRANCH   5  18
ATOM     18  N   LIG d   1       1.987  86.094 111.060  0.00  0.00     0.381 N 
ATOM     19  H   LIG d   1       1.895  85.102 110.969  0.00  0.00    -0.090 HD
ATOM     20  H   LIG d   1       2.437  86.447 110.234  0.00  0.00    -0.090 HD
ATOM     21  H   LIG d   1       1.088  86.511 111.162  0.00  0.00    -0.090 HD
ENDBRANCH   5  18
BRANCH   3  22
ATOM     22  C   LIG d   1       3.430  89.556 114.039  0.00  0.00     0.382 C 
ATOM     23  O   LIG d   1       3.187  90.113 115.136  0.00  0.00    -0.241 OA
ATOM     24  O   LIG d   1       3.907  90.226 113.103  0.00  0.00    -0.241 OA
ENDBRANCH   3  22
TORSDOF 7
ENDMDL
MODEL 9
REMARK VINA RESULT:      -4.8      3.082      4.306
REMARK  7 active torsions:
REMARK  status: ('A' for Active; 'I' for Inactive)
REMARK    1  A    between atoms: C_2  and  C_3 
REMARK    2  A    between atoms: C_3  and  O_6 
REMARK    3  A    between atoms: C_3  and  C_4 
REMARK    4  A    between atoms: C_7  and  O_6 
REMARK    5  A    between atoms: C_9  and  C_10 
REMARK    6  A    between atoms: N_15  and  C_14 
REMARK    7  A    between atoms: N_20  and  C_19 
REMARK       I    between atoms: C_22  and  N_20 
ROOT
ATOM      1  C   LIG d   1      -2.879  79.606 115.462  0.00  0.00     0.161 C 
ATOM      2  C   LIG d   1      -2.064  80.721 115.207  0.00  0.00     0.016 C 
ATOM      3  C   LIG d   1      -1.041  80.730 114.231  0.00  0.00     0.038 C 
ATOM      4  C   LIG d   1      -0.864  79.667 113.333  0.00  0.00     0.028 C 
ATOM      5  C   LIG d   1      -1.331  78.324 113.884  0.00  0.00    -0.047 C 
ATOM      6  C   LIG d   1      -2.774  78.476 114.417  0.00  0.00     0.091 C 
ENDROOT
BRANCH   1   7
ATOM      7  O   LIG d   1      -4.250  80.027 115.609  0.00  0.00    -0.368 OA
BRANCH   7   8
ATOM      8  C   LIG d   1      -4.784  79.999 116.956  0.00  0.00     0.119 C 
BRANCH   8   9
ATOM      9  C   LIG d   1      -4.913  81.458 117.433  0.00  0.00     0.028 C 
ATOM     10  C   LIG d   1      -6.363  81.969 117.374  0.00  0.00     0.006 C 
ENDBRANCH   8   9
BRANCH   8  11
ATOM     11  C   LIG d   1      -3.805  79.338 117.930  0.00  0.00     0.028 C 
ATOM     12  C   LIG d   1      -4.466  78.255 118.797  0.00  0.00     0.006 C 
ENDBRANCH   8  11
ENDBRANCH   7   8
ENDBRANCH   1   7
BRANCH   6  13
ATOM     13  N   LIG d   1      -3.278  77.229 115.050  0.00  0.00    -0.311 N 
ATOM     14  C   LIG d   1      -4.183  76.433 114.484  0.00  0.00     0.210 C 
ATOM     15  C   LIG d   1      -4.579  75.209 115.316  0.00  0.00     0.109 C 
ATOM     16  O   LIG d   1      -4.671  76.606 113.357  0.00  0.00    -0.276 OA
ATOM     17  H   LIG d   1      -2.912  76.996 115.953  0.00  0.00     0.149 HD
ENDBRANCH   6  13
BRANCH   5  18
ATOM     18  N   LIG d   1      -1.217  77.333 112.798  0.00  0.00     0.381 N 
ATOM     19  H   LIG d   1      -2.096  77.241 112.329  0.00  0.00    -0.090 HD
ATOM     20  H   LIG d   1      -0.977  76.442 113.195  0.00  0.00    -0.090 HD
ATOM     21  H   LIG d   1      -0.515  77.616 112.150  0.00  0.00    -0.090 HD
ENDBRANCH   5  18
BRANCH   3  22
ATOM     22  C   LIG d   1      -0.157  81.797 114.172  0.00  0.00     0.382 C 
ATOM     23  O   LIG d   1       0.649  81.995 115.113  0.00  0.00    -0.241 OA
ATOM     24  O   LIG d   1      -0.184  82.588 113.211  0.00  0.00    -0.241 OA
ENDBRANCH   3  22
TORSDOF 7
ENDMDL
