MODEL 1
REMARK VINA RESULT:      -5.6      0.000      0.000
REMARK  7 active torsions:
REMARK  status: ('A' for Active; 'I' for Inactive)
REMARK    1  A    between atoms: C_2  and  C_3 
REMARK    2  A    between atoms: C_3  and  O_6 
REMARK    3  A    between atoms: C_3  and  C_4 
REMARK    4  A    between atoms: C_7  and  O_6 
REMARK    5  A    between atoms: C_9  and  C_10 
REMARK    6  A    between atoms: N_15  and  C_14 
REMARK    7  A    between atoms: N_20  and  C_19 
REMARK       I    between atoms: C_22  and  N_20 
ROOT
ATOM      1  C   LIG d   1       2.237  88.885 115.462  0.00  0.00     0.161 C 
ATOM      2  C   LIG d   1       1.065  89.119 116.201  0.00  0.00     0.016 C 
ATOM      3  C   LIG d   1       0.934  90.166 117.142  0.00  0.00     0.038 C 
ATOM      4  C   LIG d   1       1.922  91.150 117.299  0.00  0.00     0.028 C 
ATOM      5  C   LIG d   1       3.323  90.664 116.941  0.00  0.00    -0.047 C 
ATOM      6  C   LIG d   1       3.286  90.015 115.539  0.00  0.00     0.091 C 
ENDROOT
BRANCH   1   7
ATOM      7  O   LIG d   1       1.902  88.606 114.089  0.00  0.00    -0.368 OA
BRANCH   7   8
ATOM      8  C   LIG d   1       2.210  87.271 113.617  0.00  0.00     0.119 C 
BRANCH   8   9
ATOM      9  C   LIG d   1       2.681  87.394 112.154  0.00  0.00     0.028 C 
ATOM     10  C   LIG d   1       4.014  86.670 111.904  0.00  0.00     0.006 C 
ENDBRANCH   8   9
BRANCH   8  11
ATOM     11  C   LIG d   1       0.955  86.395 113.566  0.00  0.00     0.028 C 
ATOM     12  C   LIG d   1       1.230  84.936 113.965  0.00  0.00     0.006 C 
ENDBRANCH   8  11
ENDBRANCH   7   8
ENDBRANCH   1   7
BRANCH   6  13
ATOM     13  N   LIG d   1       4.598  89.437 115.147  0.00  0.00    -0.311 N 
ATOM     14  C   LIG d   1       5.136  89.592 113.938  0.00  0.00     0.210 C 
ATOM     15  C   LIG d   1       6.486  88.897 113.738  0.00  0.00     0.109 C 
ATOM     16  O   LIG d   1       4.637  90.264 113.023  0.00  0.00    -0.276 OA
ATOM     17  H   LIG d   1       5.086  88.903 115.839  0.00  0.00     0.149 HD
ENDBRANCH   6  13
BRANCH   5  18
ATOM     18  N   LIG d   1       4.230  91.825 117.017  0.00  0.00     0.381 N 
ATOM     19  H   LIG d   1       3.707  92.650 117.235  0.00  0.00    -0.090 HD
ATOM     20  H   LIG d   1       4.666  91.956 116.122  0.00  0.00    -0.090 HD
ATOM     21  H   LIG d   1       4.925  91.670 117.714  0.00  0.00    -0.090 HD
ENDBRANCH   5  18
BRANCH   3  22
ATOM     22  C   LIG d   1      -0.179  90.214 117.966  0.00  0.00     0.382 C 
ATOM     23  O   LIG d   1      -0.164  89.627 119.075  0.00  0.00    -0.241 OA
ATOM     24  O   LIG d   1      -1.215  90.799 117.597  0.00  0.00    -0.241 OA
ENDBRANCH   3  22
TORSDOF 7
ENDMDL
MODEL 2
REMARK VINA RESULT:      -5.3      6.798     10.117
REMARK  7 active torsions:
REMARK  status: ('A' for Active; 'I' for Inactive)
REMARK    1  A    between atoms: C_2  and  C_3 
REMARK    2  A    between atoms: C_3  and  O_6 
REMARK    3  A    between atoms: C_3  and  C_4 
REMARK    4  A    between atoms: C_7  and  O_6 
REMARK    5  A    between atoms: C_9  and  C_10 
REMARK    6  A    between atoms: N_15  and  C_14 
REMARK    7  A    between atoms: N_20  and  C_19 
REMARK       I    between atoms: C_22  and  N_20 
ROOT
ATOM      1  C   LIG d   1      -2.401  81.842 113.193  0.00  0.00     0.161 C 
ATOM      2  C   LIG d   1      -2.738  80.491 113.005  0.00  0.00     0.016 C 
ATOM      3  C   LIG d   1      -1.870  79.549 112.406  0.00  0.00     0.038 C 
ATOM      4  C   LIG d   1      -0.540  79.863 112.089  0.00  0.00     0.028 C 
ATOM      5  C   LIG d   1      -0.320  81.343 111.797  0.00  0.00    -0.047 C 
ATOM      6  C   LIG d   1      -0.914  82.177 112.955  0.00  0.00     0.091 C 
ENDROOT
BRANCH   1   7
ATOM      7  O   LIG d   1      -2.806  82.268 114.509  0.00  0.00    -0.368 OA
BRANCH   7   8
ATOM      8  C   LIG d   1      -2.464  81.378 115.600  0.00  0.00     0.119 C 
BRANCH   8   9
ATOM      9  C   LIG d   1      -3.695  81.280 116.521  0.00  0.00     0.028 C 
ATOM     10  C   LIG d   1      -3.366  81.632 117.982  0.00  0.00     0.006 C 
ENDBRANCH   8   9
BRANCH   8  11
ATOM     11  C   LIG d   1      -1.351  81.968 116.472  0.00  0.00     0.028 C 
ATOM     12  C   LIG d   1      -0.031  81.190 116.361  0.00  0.00     0.006 C 
ENDBRANCH   8  11
ENDBRANCH   7   8
ENDBRANCH   1   7
BRANCH   6  13
ATOM     13  N   LIG d   1      -0.816  83.639 112.709  0.00  0.00    -0.311 N 
ATOM     14  C   LIG d   1      -0.093  84.463 113.466  0.00  0.00     0.210 C 
ATOM     15  C   LIG d   1      -0.146  85.937 113.050  0.00  0.00     0.109 C 
ATOM     16  O   LIG d   1       0.612  84.109 114.423  0.00  0.00    -0.276 OA
ATOM     17  H   LIG d   1      -1.332  84.007 111.934  0.00  0.00     0.149 HD
ENDBRANCH   6  13
BRANCH   5  18
ATOM     18  N   LIG d   1       1.129  81.552 111.618  0.00  0.00     0.381 N 
ATOM     19  H   LIG d   1       1.421  81.169 110.741  0.00  0.00    -0.090 HD
ATOM     20  H   LIG d   1       1.620  81.070 112.351  0.00  0.00    -0.090 HD
ATOM     21  H   LIG d   1       1.341  82.525 111.651  0.00  0.00    -0.090 HD
ENDBRANCH   5  18
BRANCH   3  22
ATOM     22  C   LIG d   1      -2.345  78.287 112.081  0.00  0.00     0.382 C 
ATOM     23  O   LIG d   1      -3.436  77.887 112.553  0.00  0.00    -0.241 OA
ATOM     24  O   LIG d   1      -1.674  77.527 111.357  0.00  0.00    -0.241 OA
ENDBRANCH   3  22
TORSDOF 7
ENDMDL
MODEL 3
REMARK VINA RESULT:      -5.3      2.790      3.762
REMARK  7 active torsions:
REMARK  status: ('A' for Active; 'I' for Inactive)
REMARK    1  A    between atoms: C_2  and  C_3 
REMARK    2  A    between atoms: C_3  and  O_6 
REMARK    3  A    between atoms: C_3  and  C_4 
REMARK    4  A    between atoms: C_7  and  O_6 
REMARK    5  A    between atoms: C_9  and  C_10 
REMARK    6  A    between atoms: N_15  and  C_14 
REMARK    7  A    between atoms: N_20  and  C_19 
REMARK       I    between atoms: C_22  and  N_20 
ROOT
ATOM      1  C   LIG d   1       3.191  87.889 114.372  0.00  0.00     0.161 C 
ATOM      2  C   LIG d   1       3.143  88.884 115.363  0.00  0.00     0.016 C 
ATOM      3  C   LIG d   1       4.098  89.920 115.473  0.00  0.00     0.038 C 
ATOM      4  C   LIG d   1       5.089  90.121 114.500  0.00  0.00     0.028 C 
ATOM      5  C   LIG d   1       5.480  88.846 113.761  0.00  0.00    -0.047 C 
ATOM      6  C   LIG d   1       4.200  88.157 113.236  0.00  0.00     0.091 C 
ENDROOT
BRANCH   1   7
ATOM      7  O   LIG d   1       1.872  87.675 113.831  0.00  0.00    -0.368 OA
BRANCH   7   8
ATOM      8  C   LIG d   1       1.141  86.543 114.363  0.00  0.00     0.119 C 
BRANCH   8   9
ATOM      9  C   LIG d   1       2.066  85.313 114.279  0.00  0.00     0.028 C 
ATOM     10  C   LIG d   1       2.310  84.667 115.653  0.00  0.00     0.006 C 
ENDBRANCH   8   9
BRANCH   8  11
ATOM     11  C   LIG d   1      -0.070  86.201 113.490  0.00  0.00     0.028 C 
ATOM     12  C   LIG d   1       0.119  84.901 112.693  0.00  0.00     0.006 C 
ENDBRANCH   8  11
ENDBRANCH   7   8
ENDBRANCH   1   7
BRANCH   6  13
ATOM     13  N   LIG d   1       4.487  86.857 112.574  0.00  0.00    -0.311 N 
ATOM     14  C   LIG d   1       3.747  86.360 111.584  0.00  0.00     0.210 C 
ATOM     15  C   LIG d   1       4.205  84.997 111.057  0.00  0.00     0.109 C 
ATOM     16  O   LIG d   1       2.774  86.933 111.072  0.00  0.00    -0.276 OA
ATOM     17  H   LIG d   1       5.277  86.340 112.906  0.00  0.00     0.149 HD
ENDBRANCH   6  13
BRANCH   5  18
ATOM     18  N   LIG d   1       6.417  89.223 112.686  0.00  0.00     0.381 N 
ATOM     19  H   LIG d   1       6.508  88.468 112.036  0.00  0.00    -0.090 HD
ATOM     20  H   LIG d   1       7.319  89.403 113.089  0.00  0.00    -0.090 HD
ATOM     21  H   LIG d   1       6.086  90.037 112.216  0.00  0.00    -0.090 HD
ENDBRANCH   5  18
BRANCH   3  22
ATOM     22  C   LIG d   1       4.093  90.745 116.587  0.00  0.00     0.382 C 
ATOM     23  O   LIG d   1       4.479  90.304 117.696  0.00  0.00    -0.241 OA
ATOM     24  O   LIG d   1       3.664  91.912 116.507  0.00  0.00    -0.241 OA
ENDBRANCH   3  22
TORSDOF 7
ENDMDL
MODEL 4
REMARK VINA RESULT:      -5.2      8.890     11.593
REMARK  7 active torsions:
REMARK  status: ('A' for Active; 'I' for Inactive)
REMARK    1  A    between atoms: C_2  and  C_3 
REMARK    2  A    between atoms: C_3  and  O_6 
REMARK    3  A    between atoms: C_3  and  C_4 
REMARK    4  A    between atoms: C_7  and  O_6 
REMARK    5  A    between atoms: C_9  and  C_10 
REMARK    6  A    between atoms: N_15  and  C_14 
REMARK    7  A    between atoms: N_20  and  C_19 
REMARK       I    between atoms: C_22  and  N_20 
ROOT
ATOM      1  C   LIG d   1      -2.210  80.562 114.602  0.00  0.00     0.161 C 
ATOM      2  C   LIG d   1      -1.803  81.652 113.815  0.00  0.00     0.016 C 
ATOM      3  C   LIG d   1      -1.234  81.513 112.528  0.00  0.00     0.038 C 
ATOM      4  C   LIG d   1      -1.172  80.273 111.875  0.00  0.00     0.028 C 
ATOM      5  C   LIG d   1      -1.107  79.087 112.831  0.00  0.00    -0.047 C 
ATOM      6  C   LIG d   1      -2.253  79.209 113.861  0.00  0.00     0.091 C 
ENDROOT
BRANCH   1   7
ATOM      7  O   LIG d   1      -3.489  80.844 115.204  0.00  0.00    -0.368 OA
BRANCH   7   8
ATOM      8  C   LIG d   1      -3.456  81.532 116.478  0.00  0.00     0.119 C 
BRANCH   8   9
ATOM      9  C   LIG d   1      -2.347  80.881 117.327  0.00  0.00     0.028 C 
ATOM     10  C   LIG d   1      -1.435  81.922 117.999  0.00  0.00     0.006 C 
ENDBRANCH   8   9
BRANCH   8  11
ATOM     11  C   LIG d   1      -4.751  81.309 117.265  0.00  0.00     0.028 C 
ATOM     12  C   LIG d   1      -4.975  79.836 117.641  0.00  0.00     0.006 C 
ENDBRANCH   8  11
ENDBRANCH   7   8
ENDBRANCH   1   7
BRANCH   6  13
ATOM     13  N   LIG d   1      -2.212  78.133 114.886  0.00  0.00    -0.311 N 
ATOM     14  C   LIG d   1      -2.952  77.029 114.819  0.00  0.00     0.210 C 
ATOM     15  C   LIG d   1      -2.771  76.057 115.990  0.00  0.00     0.109 C 
ATOM     16  O   LIG d   1      -3.719  76.746 113.886  0.00  0.00    -0.276 OA
ATOM     17  H   LIG d   1      -1.594  78.267 115.662  0.00  0.00     0.149 HD
ENDBRANCH   6  13
BRANCH   5  18
ATOM     18  N   LIG d   1      -1.186  77.856 112.022  0.00  0.00     0.381 N 
ATOM     19  H   LIG d   1      -0.264  77.520 111.826  0.00  0.00    -0.090 HD
ATOM     20  H   LIG d   1      -1.635  78.070 111.149  0.00  0.00    -0.090 HD
ATOM     21  H   LIG d   1      -1.705  77.160 112.509  0.00  0.00    -0.090 HD
ENDBRANCH   5  18
BRANCH   3  22
ATOM     22  C   LIG d   1      -0.682  82.618 111.898  0.00  0.00     0.382 C 
ATOM     23  O   LIG d   1      -1.415  83.392 111.236  0.00  0.00    -0.241 OA
ATOM     24  O   LIG d   1       0.545  82.825 111.945  0.00  0.00    -0.241 OA
ENDBRANCH   3  22
TORSDOF 7
ENDMDL
MODEL 5
REMARK VINA RESULT:      -5.2     11.372     13.558
REMARK  7 active torsions:
REMARK  status: ('A' for Active; 'I' for Inactive)
REMARK    1  A    between atoms: C_2  and  C_3 
REMARK    2  A    between atoms: C_3  and  O_6 
REMARK    3  A    between atoms: C_3  and  C_4 
REMARK    4  A    between atoms: C_7  and  O_6 
REMARK    5  A    between atoms: C_9  and  C_10 
REMARK    6  A    between atoms: N_15  and  C_14 
REMARK    7  A    between atoms: N_20  and  C_19 
REMARK       I    between atoms: C_22  and  N_20 
ROOT
ATOM      1  C   LIG d   1      10.465  79.348 114.513  0.00  0.00     0.161 C 
ATOM      2  C   LIG d   1       9.115  79.305 114.902  0.00  0.00     0.016 C 
ATOM      3  C   LIG d   1       8.480  78.136 115.379  0.00  0.00     0.038 C 
ATOM      4  C   LIG d   1       9.196  76.959 115.644  0.00  0.00     0.028 C 
ATOM      5  C   LIG d   1      10.452  76.808 114.792  0.00  0.00    -0.047 C 
ATOM      6  C   LIG d   1      11.289  78.103 114.900  0.00  0.00     0.091 C 
ENDROOT
BRANCH   1   7
ATOM      7  O   LIG d   1      11.085  80.541 115.032  0.00  0.00    -0.368 OA
BRANCH   7   8
ATOM      8  C   LIG d   1      11.277  81.623 114.087  0.00  0.00     0.119 C 
BRANCH   8   9
ATOM      9  C   LIG d   1      10.035  82.531 114.164  0.00  0.00     0.028 C 
ATOM     10  C   LIG d   1       9.793  83.076 115.581  0.00  0.00     0.006 C 
ENDBRANCH   8   9
BRANCH   8  11
ATOM     11  C   LIG d   1      11.312  81.104 112.646  0.00  0.00     0.028 C 
ATOM     12  C   LIG d   1      10.557  82.016 111.666  0.00  0.00     0.006 C 
ENDBRANCH   8  11
ENDBRANCH   7   8
ENDBRANCH   1   7
BRANCH   6  13
ATOM     13  N   LIG d   1      12.494  78.073 114.030  0.00  0.00    -0.311 N 
ATOM     14  C   LIG d   1      13.693  77.674 114.451  0.00  0.00     0.210 C 
ATOM     15  C   LIG d   1      14.803  77.740 113.397  0.00  0.00     0.109 C 
ATOM     16  O   LIG d   1      13.935  77.241 115.587  0.00  0.00    -0.276 OA
ATOM     17  H   LIG d   1      12.380  78.378 113.083  0.00  0.00     0.149 HD
ENDBRANCH   6  13
BRANCH   5  18
ATOM     18  N   LIG d   1      11.172  75.612 115.267  0.00  0.00     0.381 N 
ATOM     19  H   LIG d   1      10.650  75.170 115.997  0.00  0.00    -0.090 HD
ATOM     20  H   LIG d   1      12.061  75.895 115.642  0.00  0.00    -0.090 HD
ATOM     21  H   LIG d   1      11.309  74.975 114.514  0.00  0.00    -0.090 HD
ENDBRANCH   5  18
BRANCH   3  22
ATOM     22  C   LIG d   1       7.105  78.125 115.558  0.00  0.00     0.382 C 
ATOM     23  O   LIG d   1       6.594  77.397 116.443  0.00  0.00    -0.241 OA
ATOM     24  O   LIG d   1       6.366  78.800 114.817  0.00  0.00    -0.241 OA
ENDBRANCH   3  22
TORSDOF 7
ENDMDL
MODEL 6
REMARK VINA RESULT:      -5.1      3.122      5.184
REMARK  7 active torsions:
REMARK  status: ('A' for Active; 'I' for Inactive)
REMARK    1  A    between atoms: C_2  and  C_3 
REMARK    2  A    between atoms: C_3  and  O_6 
REMARK    3  A    between atoms: C_3  and  C_4 
REMARK    4  A    between atoms: C_7  and  O_6 
REMARK    5  A    between atoms: C_9  and  C_10 
REMARK    6  A    between atoms: N_15  and  C_14 
REMARK    7  A    between atoms: N_20  and  C_19 
REMARK       I    between atoms: C_22  and  N_20 
ROOT
ATOM      1  C   LIG d   1       3.621  88.206 115.205  0.00  0.00     0.161 C 
ATOM      2  C   LIG d   1       2.911  87.538 114.194  0.00  0.00     0.016 C 
ATOM      3  C   LIG d   1       3.396  87.382 112.875  0.00  0.00     0.038 C 
ATOM      4  C   LIG d   1       4.699  87.756 112.516  0.00  0.00     0.028 C 
ATOM      5  C   LIG d   1       5.262  88.887 113.369  0.00  0.00    -0.047 C 
ATOM      6  C   LIG d   1       5.091  88.523 114.861  0.00  0.00     0.091 C 
ENDROOT
BRANCH   1   7
ATOM      7  O   LIG d   1       3.544  87.456 116.434  0.00  0.00    -0.368 OA
BRANCH   7   8
ATOM      8  C   LIG d   1       4.265  86.200 116.460  0.00  0.00     0.119 C 
BRANCH   8   9
ATOM      9  C   LIG d   1       3.292  85.118 116.967  0.00  0.00     0.028 C 
ATOM     10  C   LIG d   1       2.813  84.185 115.842  0.00  0.00     0.006 C 
ENDBRANCH   8   9
BRANCH   8  11
ATOM     11  C   LIG d   1       5.404  86.232 117.483  0.00  0.00     0.028 C 
ATOM     12  C   LIG d   1       6.650  85.467 117.012  0.00  0.00     0.006 C 
ENDBRANCH   8  11
ENDBRANCH   7   8
ENDBRANCH   1   7
BRANCH   6  13
ATOM     13  N   LIG d   1       5.540  89.614 115.766  0.00  0.00    -0.311 N 
ATOM     14  C   LIG d   1       6.752  89.658 116.316  0.00  0.00     0.210 C 
ATOM     15  C   LIG d   1       7.002  90.859 117.234  0.00  0.00     0.109 C 
ATOM     16  O   LIG d   1       7.655  88.834 116.106  0.00  0.00    -0.276 OA
ATOM     17  H   LIG d   1       4.881  90.340 115.966  0.00  0.00     0.149 HD
ENDBRANCH   6  13
BRANCH   5  18
ATOM     18  N   LIG d   1       6.671  89.082 112.979  0.00  0.00     0.381 N 
ATOM     19  H   LIG d   1       7.163  89.555 113.710  0.00  0.00    -0.090 HD
ATOM     20  H   LIG d   1       6.704  89.655 112.154  0.00  0.00    -0.090 HD
ATOM     21  H   LIG d   1       7.099  88.200 112.797  0.00  0.00    -0.090 HD
ENDBRANCH   5  18
BRANCH   3  22
ATOM     22  C   LIG d   1       2.558  86.883 111.889  0.00  0.00     0.382 C 
ATOM     23  O   LIG d   1       2.037  87.663 111.056  0.00  0.00    -0.241 OA
ATOM     24  O   LIG d   1       2.282  85.669 111.850  0.00  0.00    -0.241 OA
ENDBRANCH   3  22
TORSDOF 7
ENDMDL
MODEL 7
REMARK VINA RESULT:      -4.9      8.949     11.835
REMARK  7 active torsions:
REMARK  status: ('A' for Active; 'I' for Inactive)
REMARK    1  A    between atoms: C_2  and  C_3 
REMARK    2  A    between atoms: C_3  and  O_6 
REMARK    3  A    between atoms: C_3  and  C_4 
REMARK    4  A    between atoms: C_7  and  O_6 
REMARK    5  A    between atoms: C_9  and  C_10 
REMARK    6  A    between atoms: N_15  and  C_14 
REMARK    7  A    between atoms: N_20  and  C_19 
REMARK       I    between atoms: C_22  and  N_20 
ROOT
ATOM      1  C   LIG d   1      -1.318  79.607 115.008  0.00  0.00     0.161 C 
ATOM      2  C   LIG d   1      -1.470  80.920 114.530  0.00  0.00     0.016 C 
ATOM      3  C   LIG d   1      -1.537  81.245 113.156  0.00  0.00     0.038 C 
ATOM      4  C   LIG d   1      -1.611  80.256 112.163  0.00  0.00     0.028 C 
ATOM      5  C   LIG d   1      -0.953  78.941 112.569  0.00  0.00    -0.047 C 
ATOM      6  C   LIG d   1      -1.508  78.506 113.944  0.00  0.00     0.091 C 
ENDROOT
BRANCH   1   7
ATOM      7  O   LIG d   1      -2.207  79.387 116.121  0.00  0.00    -0.368 OA
BRANCH   7   8
ATOM      8  C   LIG d   1      -1.604  79.436 117.438  0.00  0.00     0.119 C 
BRANCH   8   9
ATOM      9  C   LIG d   1      -1.872  78.080 118.120  0.00  0.00     0.028 C 
ATOM     10  C   LIG d   1      -3.229  77.479 117.718  0.00  0.00     0.006 C 
ENDBRANCH   8   9
BRANCH   8  11
ATOM     11  C   LIG d   1      -2.288  80.479 118.326  0.00  0.00     0.028 C 
ATOM     12  C   LIG d   1      -1.578  81.842 118.300  0.00  0.00     0.006 C 
ENDBRANCH   8  11
ENDBRANCH   7   8
ENDBRANCH   1   7
BRANCH   6  13
ATOM     13  N   LIG d   1      -0.856  77.272 114.454  0.00  0.00    -0.311 N 
ATOM     14  C   LIG d   1      -1.517  76.143 114.704  0.00  0.00     0.210 C 
ATOM     15  C   LIG d   1      -0.657  74.995 115.243  0.00  0.00     0.109 C 
ATOM     16  O   LIG d   1      -2.728  75.973 114.500  0.00  0.00    -0.276 OA
ATOM     17  H   LIG d   1       0.131  77.311 114.618  0.00  0.00     0.149 HD
ENDBRANCH   6  13
BRANCH   5  18
ATOM     18  N   LIG d   1      -1.223  77.960 111.500  0.00  0.00     0.381 N 
ATOM     19  H   LIG d   1      -2.081  78.189 111.039  0.00  0.00    -0.090 HD
ATOM     20  H   LIG d   1      -1.320  77.049 111.912  0.00  0.00    -0.090 HD
ATOM     21  H   LIG d   1      -0.474  77.957 110.843  0.00  0.00    -0.090 HD
ENDBRANCH   5  18
BRANCH   3  22
ATOM     22  C   LIG d   1      -1.492  82.573 112.761  0.00  0.00     0.382 C 
ATOM     23  O   LIG d   1      -1.354  83.478 113.619  0.00  0.00    -0.241 OA
ATOM     24  O   LIG d   1      -1.633  82.880 111.562  0.00  0.00    -0.241 OA
ENDBRANCH   3  22
TORSDOF 7
ENDMDL
MODEL 8
REMARK VINA RESULT:      -4.7      5.696      9.042
REMARK  7 active torsions:
REMARK  status: ('A' for Active; 'I' for Inactive)
REMARK    1  A    between atoms: C_2  and  C_3 
REMARK    2  A    between atoms: C_3  and  O_6 
REMARK    3  A    between atoms: C_3  and  C_4 
REMARK    4  A    between atoms: C_7  and  O_6 
REMARK    5  A    between atoms: C_9  and  C_10 
REMARK    6  A    between atoms: N_15  and  C_14 
REMARK    7  A    between atoms: N_20  and  C_19 
REMARK       I    between atoms: C_22  and  N_20 
ROOT
ATOM      1  C   LIG d   1       0.056  82.303 114.721  0.00  0.00     0.161 C 
ATOM      2  C   LIG d   1       0.850  83.457 114.832  0.00  0.00     0.016 C 
ATOM      3  C   LIG d   1       1.021  84.388 113.781  0.00  0.00     0.038 C 
ATOM      4  C   LIG d   1       0.283  84.305 112.590  0.00  0.00     0.028 C 
ATOM      5  C   LIG d   1      -0.147  82.884 112.241  0.00  0.00    -0.047 C 
ATOM      6  C   LIG d   1      -0.844  82.255 113.469  0.00  0.00     0.091 C 
ENDROOT
BRANCH   1   7
ATOM      7  O   LIG d   1      -0.737  82.140 115.914  0.00  0.00    -0.368 OA
BRANCH   7   8
ATOM      8  C   LIG d   1      -0.634  80.855 116.577  0.00  0.00     0.119 C 
BRANCH   8   9
ATOM      9  C   LIG d   1      -2.067  80.367 116.864  0.00  0.00     0.028 C 
ATOM     10  C   LIG d   1      -3.124  81.443 116.568  0.00  0.00     0.006 C 
ENDBRANCH   8   9
BRANCH   8  11
ATOM     11  C   LIG d   1       0.033  80.988 117.949  0.00  0.00     0.028 C 
ATOM     12  C   LIG d   1      -0.151  82.383 118.568  0.00  0.00     0.006 C 
ENDBRANCH   8  11
ENDBRANCH   7   8
ENDBRANCH   1   7
BRANCH   6  13
ATOM     13  N   LIG d   1      -1.222  80.836 113.241  0.00  0.00    -0.311 N 
ATOM     14  C   LIG d   1      -2.478  80.430 113.070  0.00  0.00     0.210 C 
ATOM     15  C   LIG d   1      -2.649  78.921 112.869  0.00  0.00     0.109 C 
ATOM     16  O   LIG d   1      -3.465  81.180 113.033  0.00  0.00    -0.276 OA
ATOM     17  H   LIG d   1      -0.480  80.163 113.224  0.00  0.00     0.149 HD
ENDBRANCH   6  13
BRANCH   5  18
ATOM     18  N   LIG d   1      -1.021  82.961 111.056  0.00  0.00     0.381 N 
ATOM     19  H   LIG d   1      -0.837  83.807 110.553  0.00  0.00    -0.090 HD
ATOM     20  H   LIG d   1      -1.979  82.977 111.359  0.00  0.00    -0.090 HD
ATOM     21  H   LIG d   1      -0.865  82.175 110.465  0.00  0.00    -0.090 HD
ENDBRANCH   5  18
BRANCH   3  22
ATOM     22  C   LIG d   1       1.968  85.393 113.900  0.00  0.00     0.382 C 
ATOM     23  O   LIG d   1       1.648  86.585 113.677  0.00  0.00    -0.241 OA
ATOM     24  O   LIG d   1       3.149  85.118 114.186  0.00  0.00    -0.241 OA
ENDBRANCH   3  22
TORSDOF 7
ENDMDL
MODEL 9
REMARK VINA RESULT:      -4.7      4.177      6.527
REMARK  7 active torsions:
REMARK  status: ('A' for Active; 'I' for Inactive)
REMARK    1  A    between atoms: C_2  and  C_3 
REMARK    2  A    between atoms: C_3  and  O_6 
REMARK    3  A    between atoms: C_3  and  C_4 
REMARK    4  A    between atoms: C_7  and  O_6 
REMARK    5  A    between atoms: C_9  and  C_10 
REMARK    6  A    between atoms: N_15  and  C_14 
REMARK    7  A    between atoms: N_20  and  C_19 
REMARK       I    between atoms: C_22  and  N_20 
ROOT
ATOM      1  C   LIG d   1       1.927  84.530 114.109  0.00  0.00     0.161 C 
ATOM      2  C   LIG d   1       2.366  85.474 113.166  0.00  0.00     0.016 C 
ATOM      3  C   LIG d   1       3.317  86.480 113.456  0.00  0.00     0.038 C 
ATOM      4  C   LIG d   1       4.011  86.514 114.675  0.00  0.00     0.028 C 
ATOM      5  C   LIG d   1       3.236  85.891 115.831  0.00  0.00    -0.047 C 
ATOM      6  C   LIG d   1       2.754  84.483 115.411  0.00  0.00     0.091 C 
ENDROOT
BRANCH   1   7
ATOM      7  O   LIG d   1       1.872  83.224 113.503  0.00  0.00    -0.368 OA
BRANCH   7   8
ATOM      8  C   LIG d   1       0.571  82.792 113.036  0.00  0.00     0.119 C 
BRANCH   8   9
ATOM      9  C   LIG d   1      -0.490  83.511 113.892  0.00  0.00     0.028 C 
ATOM     10  C   LIG d   1      -1.235  82.549 114.833  0.00  0.00     0.006 C 
ENDBRANCH   8   9
BRANCH   8  11
ATOM     11  C   LIG d   1       0.354  81.298 113.292  0.00  0.00     0.028 C 
ATOM     12  C   LIG d   1       0.175  80.491 111.996  0.00  0.00     0.006 C 
ENDBRANCH   8  11
ENDBRANCH   7   8
ENDBRANCH   1   7
BRANCH   6  13
ATOM     13  N   LIG d   1       1.916  83.836 116.454  0.00  0.00    -0.311 N 
ATOM     14  C   LIG d   1       1.978  82.538 116.743  0.00  0.00     0.210 C 
ATOM     15  C   LIG d   1       1.013  82.072 117.838  0.00  0.00     0.109 C 
ATOM     16  O   LIG d   1       2.764  81.734 116.220  0.00  0.00    -0.276 OA
ATOM     17  H   LIG d   1       1.272  84.422 116.949  0.00  0.00     0.149 HD
ENDBRANCH   6  13
BRANCH   5  18
ATOM     18  N   LIG d   1       4.128  85.870 117.006  0.00  0.00     0.381 N 
ATOM     19  H   LIG d   1       3.630  86.183 117.815  0.00  0.00    -0.090 HD
ATOM     20  H   LIG d   1       4.894  86.500 116.843  0.00  0.00    -0.090 HD
ATOM     21  H   LIG d   1       4.473  84.947 117.155  0.00  0.00    -0.090 HD
ENDBRANCH   5  18
BRANCH   3  22
ATOM     22  C   LIG d   1       3.554  87.488 112.535  0.00  0.00     0.382 C 
ATOM     23  O   LIG d   1       4.650  87.538 111.928  0.00  0.00    -0.241 OA
ATOM     24  O   LIG d   1       2.701  88.375 112.336  0.00  0.00    -0.241 OA
ENDBRANCH   3  22
TORSDOF 7
ENDMDL
