MODEL 1
REMARK VINA RESULT:      -5.1      0.000      0.000
REMARK  7 active torsions:
REMARK  status: ('A' for Active; 'I' for Inactive)
REMARK    1  A    between atoms: C_2  and  C_3 
REMARK    2  A    between atoms: C_3  and  O_6 
REMARK    3  A    between atoms: C_3  and  C_4 
REMARK    4  A    between atoms: C_7  and  O_6 
REMARK    5  A    between atoms: C_9  and  C_10 
REMARK    6  A    between atoms: N_15  and  C_14 
REMARK    7  A    between atoms: N_20  and  C_19 
REMARK       I    between atoms: C_22  and  N_20 
ROOT
ATOM      1  C   LIG d   1      -3.346  76.596 116.894  0.00  0.00     0.161 C 
ATOM      2  C   LIG d   1      -3.305  77.804 116.179  0.00  0.00     0.016 C 
ATOM      3  C   LIG d   1      -2.145  78.284 115.528  0.00  0.00     0.038 C 
ATOM      4  C   LIG d   1      -0.981  77.509 115.420  0.00  0.00     0.028 C 
ATOM      5  C   LIG d   1      -0.815  76.505 116.556  0.00  0.00    -0.047 C 
ATOM      6  C   LIG d   1      -2.117  75.684 116.694  0.00  0.00     0.091 C 
ENDROOT
BRANCH   1   7
ATOM      7  O   LIG d   1      -4.557  75.882 116.577  0.00  0.00    -0.368 OA
BRANCH   7   8
ATOM      8  C   LIG d   1      -5.371  76.445 115.520  0.00  0.00     0.119 C 
BRANCH   8   9
ATOM      9  C   LIG d   1      -6.819  76.522 116.041  0.00  0.00     0.028 C 
ATOM     10  C   LIG d   1      -6.970  77.506 117.214  0.00  0.00     0.006 C 
ENDBRANCH   8   9
BRANCH   8  11
ATOM     11  C   LIG d   1      -5.427  75.516 114.304  0.00  0.00     0.028 C 
ATOM     12  C   LIG d   1      -4.988  74.080 114.630  0.00  0.00     0.006 C 
ENDBRANCH   8  11
ENDBRANCH   7   8
ENDBRANCH   1   7
BRANCH   6  13
ATOM     13  N   LIG d   1      -2.071  74.735 117.837  0.00  0.00    -0.311 N 
ATOM     14  C   LIG d   1      -1.641  73.479 117.729  0.00  0.00     0.210 C 
ATOM     15  C   LIG d   1      -1.695  72.664 119.026  0.00  0.00     0.109 C 
ATOM     16  O   LIG d   1      -1.191  72.971 116.691  0.00  0.00    -0.276 OA
ATOM     17  H   LIG d   1      -2.388  75.073 118.724  0.00  0.00     0.149 HD
ENDBRANCH   6  13
BRANCH   5  18
ATOM     18  N   LIG d   1       0.363  75.672 116.246  0.00  0.00     0.381 N 
ATOM     19  H   LIG d   1       0.425  75.528 115.258  0.00  0.00    -0.090 HD
ATOM     20  H   LIG d   1       0.254  74.777 116.689  0.00  0.00    -0.090 HD
ATOM     21  H   LIG d   1       1.191  76.117 116.576  0.00  0.00    -0.090 HD
ENDBRANCH   5  18
BRANCH   3  22
ATOM     22  C   LIG d   1      -2.130  79.571 115.010  0.00  0.00     0.382 C 
ATOM     23  O   LIG d   1      -1.155  80.327 115.237  0.00  0.00    -0.241 OA
ATOM     24  O   LIG d   1      -3.100  79.999 114.356  0.00  0.00    -0.241 OA
ENDBRANCH   3  22
TORSDOF 7
ENDMDL
MODEL 2
REMARK VINA RESULT:      -5.0     21.928     24.308
REMARK  7 active torsions:
REMARK  status: ('A' for Active; 'I' for Inactive)
REMARK    1  A    between atoms: C_2  and  C_3 
REMARK    2  A    between atoms: C_3  and  O_6 
REMARK    3  A    between atoms: C_3  and  C_4 
REMARK    4  A    between atoms: C_7  and  O_6 
REMARK    5  A    between atoms: C_9  and  C_10 
REMARK    6  A    between atoms: N_15  and  C_14 
REMARK    7  A    between atoms: N_20  and  C_19 
REMARK       I    between atoms: C_22  and  N_20 
ROOT
ATOM      1  C   LIG d   1     -25.494  85.555 114.234  0.00  0.00     0.161 C 
ATOM      2  C   LIG d   1     -24.457  86.492 114.093  0.00  0.00     0.016 C 
ATOM      3  C   LIG d   1     -23.171  86.163 113.607  0.00  0.00     0.038 C 
ATOM      4  C   LIG d   1     -22.879  84.895 113.083  0.00  0.00     0.028 C 
ATOM      5  C   LIG d   1     -23.741  83.783 113.671  0.00  0.00    -0.047 C 
ATOM      6  C   LIG d   1     -25.229  84.191 113.564  0.00  0.00     0.091 C 
ENDROOT
BRANCH   1   7
ATOM      7  O   LIG d   1     -26.731  86.118 113.752  0.00  0.00    -0.368 OA
BRANCH   7   8
ATOM      8  C   LIG d   1     -26.638  86.930 112.556  0.00  0.00     0.119 C 
BRANCH   8   9
ATOM      9  C   LIG d   1     -27.179  88.330 112.903  0.00  0.00     0.028 C 
ATOM     10  C   LIG d   1     -26.773  89.390 111.866  0.00  0.00     0.006 C 
ENDBRANCH   8   9
BRANCH   8  11
ATOM     11  C   LIG d   1     -27.559  86.402 111.452  0.00  0.00     0.028 C 
ATOM     12  C   LIG d   1     -28.367  85.169 111.888  0.00  0.00     0.006 C 
ENDBRANCH   8  11
ENDBRANCH   7   8
ENDBRANCH   1   7
BRANCH   6  13
ATOM     13  N   LIG d   1     -26.136  83.196 114.193  0.00  0.00    -0.311 N 
ATOM     14  C   LIG d   1     -26.728  82.214 113.516  0.00  0.00     0.210 C 
ATOM     15  C   LIG d   1     -27.640  81.311 114.353  0.00  0.00     0.109 C 
ATOM     16  O   LIG d   1     -26.559  81.984 112.309  0.00  0.00    -0.276 OA
ATOM     17  H   LIG d   1     -26.304  83.290 115.175  0.00  0.00     0.149 HD
ENDBRANCH   6  13
BRANCH   5  18
ATOM     18  N   LIG d   1     -23.428  82.541 112.939  0.00  0.00     0.381 N 
ATOM     19  H   LIG d   1     -23.674  81.748 113.497  0.00  0.00    -0.090 HD
ATOM     20  H   LIG d   1     -22.439  82.509 112.763  0.00  0.00    -0.090 HD
ATOM     21  H   LIG d   1     -23.928  82.518 112.077  0.00  0.00    -0.090 HD
ENDBRANCH   5  18
BRANCH   3  22
ATOM     22  C   LIG d   1     -22.149  87.097 113.678  0.00  0.00     0.382 C 
ATOM     23  O   LIG d   1     -22.234  88.059 114.479  0.00  0.00    -0.241 OA
ATOM     24  O   LIG d   1     -21.164  87.015 112.921  0.00  0.00    -0.241 OA
ENDBRANCH   3  22
TORSDOF 7
ENDMDL
MODEL 3
REMARK VINA RESULT:      -4.9      9.432     11.607
REMARK  7 active torsions:
REMARK  status: ('A' for Active; 'I' for Inactive)
REMARK    1  A    between atoms: C_2  and  C_3 
REMARK    2  A    between atoms: C_3  and  O_6 
REMARK    3  A    between atoms: C_3  and  C_4 
REMARK    4  A    between atoms: C_7  and  O_6 
REMARK    5  A    between atoms: C_9  and  C_10 
REMARK    6  A    between atoms: N_15  and  C_14 
REMARK    7  A    between atoms: N_20  and  C_19 
REMARK       I    between atoms: C_22  and  N_20 
ROOT
ATOM      1  C   LIG d   1       1.716  86.067 114.595  0.00  0.00     0.161 C 
ATOM      2  C   LIG d   1       1.792  87.339 114.003  0.00  0.00     0.016 C 
ATOM      3  C   LIG d   1       2.889  88.213 114.174  0.00  0.00     0.038 C 
ATOM      4  C   LIG d   1       4.062  87.811 114.831  0.00  0.00     0.028 C 
ATOM      5  C   LIG d   1       3.829  86.723 115.874  0.00  0.00    -0.047 C 
ATOM      6  C   LIG d   1       3.034  85.568 115.224  0.00  0.00     0.091 C 
ENDROOT
BRANCH   1   7
ATOM      7  O   LIG d   1       1.224  85.110 113.637  0.00  0.00    -0.368 OA
BRANCH   7   8
ATOM      8  C   LIG d   1       1.306  85.502 112.245  0.00  0.00     0.119 C 
BRANCH   8   9
ATOM      9  C   LIG d   1      -0.038  85.141 111.582  0.00  0.00     0.028 C 
ATOM     10  C   LIG d   1      -0.845  86.385 111.175  0.00  0.00     0.006 C 
ENDBRANCH   8   9
BRANCH   8  11
ATOM     11  C   LIG d   1       2.361  84.682 111.496  0.00  0.00     0.028 C 
ATOM     12  C   LIG d   1       3.646  85.477 111.218  0.00  0.00     0.006 C 
ENDBRANCH   8  11
ENDBRANCH   7   8
ENDBRANCH   1   7
BRANCH   6  13
ATOM     13  N   LIG d   1       2.690  84.499 116.198  0.00  0.00    -0.311 N 
ATOM     14  C   LIG d   1       3.448  83.423 116.403  0.00  0.00     0.210 C 
ATOM     15  C   LIG d   1       2.901  82.434 117.437  0.00  0.00     0.109 C 
ATOM     16  O   LIG d   1       4.538  83.210 115.851  0.00  0.00    -0.276 OA
ATOM     17  H   LIG d   1       1.838  84.607 116.713  0.00  0.00     0.149 HD
ENDBRANCH   6  13
BRANCH   5  18
ATOM     18  N   LIG d   1       5.149  86.303 116.382  0.00  0.00     0.381 N 
ATOM     19  H   LIG d   1       5.143  86.305 117.382  0.00  0.00    -0.090 HD
ATOM     20  H   LIG d   1       5.842  86.960 116.069  0.00  0.00    -0.090 HD
ATOM     21  H   LIG d   1       5.369  85.392 116.045  0.00  0.00    -0.090 HD
ENDBRANCH   5  18
BRANCH   3  22
ATOM     22  C   LIG d   1       2.805  89.520 113.718  0.00  0.00     0.382 C 
ATOM     23  O   LIG d   1       3.185  90.465 114.450  0.00  0.00    -0.241 OA
ATOM     24  O   LIG d   1       2.311  89.769 112.602  0.00  0.00    -0.241 OA
ENDBRANCH   3  22
TORSDOF 7
ENDMDL
MODEL 4
REMARK VINA RESULT:      -4.8     21.586     24.110
REMARK  7 active torsions:
REMARK  status: ('A' for Active; 'I' for Inactive)
REMARK    1  A    between atoms: C_2  and  C_3 
REMARK    2  A    between atoms: C_3  and  O_6 
REMARK    3  A    between atoms: C_3  and  C_4 
REMARK    4  A    between atoms: C_7  and  O_6 
REMARK    5  A    between atoms: C_9  and  C_10 
REMARK    6  A    between atoms: N_15  and  C_14 
REMARK    7  A    between atoms: N_20  and  C_19 
REMARK       I    between atoms: C_22  and  N_20 
ROOT
ATOM      1  C   LIG d   1     -25.523  84.992 113.604  0.00  0.00     0.161 C 
ATOM      2  C   LIG d   1     -24.577  86.010 113.398  0.00  0.00     0.016 C 
ATOM      3  C   LIG d   1     -23.207  85.875 113.720  0.00  0.00     0.038 C 
ATOM      4  C   LIG d   1     -22.659  84.652 114.133  0.00  0.00     0.028 C 
ATOM      5  C   LIG d   1     -23.664  83.744 114.835  0.00  0.00    -0.047 C 
ATOM      6  C   LIG d   1     -24.925  83.612 113.950  0.00  0.00     0.091 C 
ENDROOT
BRANCH   1   7
ATOM      7  O   LIG d   1     -26.388  84.889 112.456  0.00  0.00    -0.368 OA
BRANCH   7   8
ATOM      8  C   LIG d   1     -27.744  85.368 112.634  0.00  0.00     0.119 C 
BRANCH   8   9
ATOM      9  C   LIG d   1     -28.693  84.189 112.345  0.00  0.00     0.028 C 
ATOM     10  C   LIG d   1     -28.161  83.265 111.236  0.00  0.00     0.006 C 
ENDBRANCH   8   9
BRANCH   8  11
ATOM     11  C   LIG d   1     -28.098  86.437 111.596  0.00  0.00     0.028 C 
ATOM     12  C   LIG d   1     -27.532  87.822 111.950  0.00  0.00     0.006 C 
ENDBRANCH   8  11
ENDBRANCH   7   8
ENDBRANCH   1   7
BRANCH   6  13
ATOM     13  N   LIG d   1     -25.992  82.809 114.600  0.00  0.00    -0.311 N 
ATOM     14  C   LIG d   1     -26.440  81.653 114.112  0.00  0.00     0.210 C 
ATOM     15  C   LIG d   1     -27.559  80.997 114.928  0.00  0.00     0.109 C 
ATOM     16  O   LIG d   1     -25.995  81.093 113.100  0.00  0.00    -0.276 OA
ATOM     17  H   LIG d   1     -26.388  83.174 115.444  0.00  0.00     0.149 HD
ENDBRANCH   6  13
BRANCH   5  18
ATOM     18  N   LIG d   1     -22.998  82.453 115.087  0.00  0.00     0.381 N 
ATOM     19  H   LIG d   1     -23.412  82.007 115.882  0.00  0.00    -0.090 HD
ATOM     20  H   LIG d   1     -22.028  82.621 115.290  0.00  0.00    -0.090 HD
ATOM     21  H   LIG d   1     -23.080  81.864 114.288  0.00  0.00    -0.090 HD
ENDBRANCH   5  18
BRANCH   3  22
ATOM     22  C   LIG d   1     -22.377  86.985 113.669  0.00  0.00     0.382 C 
ATOM     23  O   LIG d   1     -21.330  86.952 112.978  0.00  0.00    -0.241 OA
ATOM     24  O   LIG d   1     -22.639  88.001 114.339  0.00  0.00    -0.241 OA
ENDBRANCH   3  22
TORSDOF 7
ENDMDL
MODEL 5
REMARK VINA RESULT:      -4.7      9.492     12.282
REMARK  7 active torsions:
REMARK  status: ('A' for Active; 'I' for Inactive)
REMARK    1  A    between atoms: C_2  and  C_3 
REMARK    2  A    between atoms: C_3  and  O_6 
REMARK    3  A    between atoms: C_3  and  C_4 
REMARK    4  A    between atoms: C_7  and  O_6 
REMARK    5  A    between atoms: C_9  and  C_10 
REMARK    6  A    between atoms: N_15  and  C_14 
REMARK    7  A    between atoms: N_20  and  C_19 
REMARK       I    between atoms: C_22  and  N_20 
ROOT
ATOM      1  C   LIG d   1       3.697  86.048 113.501  0.00  0.00     0.161 C 
ATOM      2  C   LIG d   1       3.855  87.391 113.883  0.00  0.00     0.016 C 
ATOM      3  C   LIG d   1       3.057  88.443 113.378  0.00  0.00     0.038 C 
ATOM      4  C   LIG d   1       1.940  88.201 112.565  0.00  0.00     0.028 C 
ATOM      5  C   LIG d   1       2.050  86.916 111.751  0.00  0.00    -0.047 C 
ATOM      6  C   LIG d   1       2.412  85.751 112.700  0.00  0.00     0.091 C 
ENDROOT
BRANCH   1   7
ATOM      7  O   LIG d   1       3.772  85.197 114.662  0.00  0.00    -0.368 OA
BRANCH   7   8
ATOM      8  C   LIG d   1       3.273  85.762 115.899  0.00  0.00     0.119 C 
BRANCH   8   9
ATOM      9  C   LIG d   1       4.223  85.317 117.027  0.00  0.00     0.028 C 
ATOM     10  C   LIG d   1       5.583  84.836 116.494  0.00  0.00     0.006 C 
ENDBRANCH   8   9
BRANCH   8  11
ATOM     11  C   LIG d   1       1.905  85.177 116.266  0.00  0.00     0.028 C 
ATOM     12  C   LIG d   1       1.993  83.729 116.772  0.00  0.00     0.006 C 
ENDBRANCH   8  11
ENDBRANCH   7   8
ENDBRANCH   1   7
BRANCH   6  13
ATOM     13  N   LIG d   1       2.622  84.472 111.972  0.00  0.00    -0.311 N 
ATOM     14  C   LIG d   1       2.104  83.310 112.367  0.00  0.00     0.210 C 
ATOM     15  C   LIG d   1       2.459  82.110 111.484  0.00  0.00     0.109 C 
ATOM     16  O   LIG d   1       1.357  83.166 113.347  0.00  0.00    -0.276 OA
ATOM     17  H   LIG d   1       3.190  84.504 111.148  0.00  0.00     0.149 HD
ENDBRANCH   6  13
BRANCH   5  18
ATOM     18  N   LIG d   1       0.764  86.718 111.056  0.00  0.00     0.381 N 
ATOM     19  H   LIG d   1       0.698  85.775 110.729  0.00  0.00    -0.090 HD
ATOM     20  H   LIG d   1       0.726  87.331 110.261  0.00  0.00    -0.090 HD
ATOM     21  H   LIG d   1       0.008  86.916 111.674  0.00  0.00    -0.090 HD
ENDBRANCH   5  18
BRANCH   3  22
ATOM     22  C   LIG d   1       3.399  89.758 113.655  0.00  0.00     0.382 C 
ATOM     23  O   LIG d   1       3.056  90.673 112.868  0.00  0.00    -0.241 OA
ATOM     24  O   LIG d   1       4.083  90.035 114.658  0.00  0.00    -0.241 OA
ENDBRANCH   3  22
TORSDOF 7
ENDMDL
MODEL 6
REMARK VINA RESULT:      -4.7      1.759      4.911
REMARK  7 active torsions:
REMARK  status: ('A' for Active; 'I' for Inactive)
REMARK    1  A    between atoms: C_2  and  C_3 
REMARK    2  A    between atoms: C_3  and  O_6 
REMARK    3  A    between atoms: C_3  and  C_4 
REMARK    4  A    between atoms: C_7  and  O_6 
REMARK    5  A    between atoms: C_9  and  C_10 
REMARK    6  A    between atoms: N_15  and  C_14 
REMARK    7  A    between atoms: N_20  and  C_19 
REMARK       I    between atoms: C_22  and  N_20 
ROOT
ATOM      1  C   LIG d   1      -1.852  75.767 115.144  0.00  0.00     0.161 C 
ATOM      2  C   LIG d   1      -1.867  74.664 116.014  0.00  0.00     0.016 C 
ATOM      3  C   LIG d   1      -1.250  74.668 117.286  0.00  0.00     0.038 C 
ATOM      4  C   LIG d   1      -0.700  75.833 117.840  0.00  0.00     0.028 C 
ATOM      5  C   LIG d   1      -0.216  76.832 116.793  0.00  0.00    -0.047 C 
ATOM      6  C   LIG d   1      -1.353  77.083 115.776  0.00  0.00     0.091 C 
ENDROOT
BRANCH   1   7
ATOM      7  O   LIG d   1      -3.159  75.952 114.566  0.00  0.00    -0.368 OA
BRANCH   7   8
ATOM      8  C   LIG d   1      -4.277  75.468 115.351  0.00  0.00     0.119 C 
BRANCH   8   9
ATOM      9  C   LIG d   1      -5.338  74.937 114.368  0.00  0.00     0.028 C 
ATOM     10  C   LIG d   1      -6.123  76.069 113.684  0.00  0.00     0.006 C 
ENDBRANCH   8   9
BRANCH   8  11
ATOM     11  C   LIG d   1      -4.962  76.610 116.109  0.00  0.00     0.028 C 
ATOM     12  C   LIG d   1      -4.551  76.674 117.588  0.00  0.00     0.006 C 
ENDBRANCH   8  11
ENDBRANCH   7   8
ENDBRANCH   1   7
BRANCH   6  13
ATOM     13  N   LIG d   1      -0.935  77.984 114.670  0.00  0.00    -0.311 N 
ATOM     14  C   LIG d   1      -1.690  78.981 114.213  0.00  0.00     0.210 C 
ATOM     15  C   LIG d   1      -1.079  79.775 113.054  0.00  0.00     0.109 C 
ATOM     16  O   LIG d   1      -2.794  79.304 114.677  0.00  0.00    -0.276 OA
ATOM     17  H   LIG d   1      -0.040  77.812 114.256  0.00  0.00     0.149 HD
ENDBRANCH   6  13
BRANCH   5  18
ATOM     18  N   LIG d   1       0.204  78.054 117.504  0.00  0.00     0.381 N 
ATOM     19  H   LIG d   1       0.726  77.808 118.321  0.00  0.00    -0.090 HD
ATOM     20  H   LIG d   1      -0.614  78.560 117.793  0.00  0.00    -0.090 HD
ATOM     21  H   LIG d   1       0.761  78.622 116.905  0.00  0.00    -0.090 HD
ENDBRANCH   5  18
BRANCH   3  22
ATOM     22  C   LIG d   1      -1.142  73.485 118.001  0.00  0.00     0.382 C 
ATOM     23  O   LIG d   1      -0.228  73.345 118.848  0.00  0.00    -0.241 OA
ATOM     24  O   LIG d   1      -1.922  72.539 117.778  0.00  0.00    -0.241 OA
ENDBRANCH   3  22
TORSDOF 7
ENDMDL
MODEL 7
REMARK VINA RESULT:      -4.6     21.921     23.968
REMARK  7 active torsions:
REMARK  status: ('A' for Active; 'I' for Inactive)
REMARK    1  A    between atoms: C_2  and  C_3 
REMARK    2  A    between atoms: C_3  and  O_6 
REMARK    3  A    between atoms: C_3  and  C_4 
REMARK    4  A    between atoms: C_7  and  O_6 
REMARK    5  A    between atoms: C_9  and  C_10 
REMARK    6  A    between atoms: N_15  and  C_14 
REMARK    7  A    between atoms: N_20  and  C_19 
REMARK       I    between atoms: C_22  and  N_20 
ROOT
ATOM      1  C   LIG d   1     -24.634  84.433 113.565  0.00  0.00     0.161 C 
ATOM      2  C   LIG d   1     -23.418  85.130 113.663  0.00  0.00     0.016 C 
ATOM      3  C   LIG d   1     -23.330  86.541 113.686  0.00  0.00     0.038 C 
ATOM      4  C   LIG d   1     -24.470  87.354 113.765  0.00  0.00     0.028 C 
ATOM      5  C   LIG d   1     -25.715  86.712 113.160  0.00  0.00    -0.047 C 
ATOM      6  C   LIG d   1     -25.895  85.300 113.763  0.00  0.00     0.091 C 
ENDROOT
BRANCH   1   7
ATOM      7  O   LIG d   1     -24.638  83.326 114.488  0.00  0.00    -0.368 OA
BRANCH   7   8
ATOM      8  C   LIG d   1     -24.237  82.043 113.947  0.00  0.00     0.119 C 
BRANCH   8   9
ATOM      9  C   LIG d   1     -25.515  81.314 113.488  0.00  0.00     0.028 C 
ATOM     10  C   LIG d   1     -25.669  81.306 111.958  0.00  0.00     0.006 C 
ENDBRANCH   8   9
BRANCH   8  11
ATOM     11  C   LIG d   1     -23.625  81.148 115.029  0.00  0.00     0.028 C 
ATOM     12  C   LIG d   1     -24.382  79.822 115.203  0.00  0.00     0.006 C 
ENDBRANCH   8  11
ENDBRANCH   7   8
ENDBRANCH   1   7
BRANCH   6  13
ATOM     13  N   LIG d   1     -27.042  84.570 113.163  0.00  0.00    -0.311 N 
ATOM     14  C   LIG d   1     -28.016  84.017 113.883  0.00  0.00     0.210 C 
ATOM     15  C   LIG d   1     -29.092  83.294 113.067  0.00  0.00     0.109 C 
ATOM     16  O   LIG d   1     -28.108  84.083 115.118  0.00  0.00    -0.276 OA
ATOM     17  H   LIG d   1     -27.063  84.495 112.164  0.00  0.00     0.149 HD
ENDBRANCH   6  13
BRANCH   5  18
ATOM     18  N   LIG d   1     -26.855  87.607 113.434  0.00  0.00     0.381 N 
ATOM     19  H   LIG d   1     -26.529  88.546 113.548  0.00  0.00    -0.090 HD
ATOM     20  H   LIG d   1     -27.295  87.320 114.290  0.00  0.00    -0.090 HD
ATOM     21  H   LIG d   1     -27.510  87.564 112.684  0.00  0.00    -0.090 HD
ENDBRANCH   5  18
BRANCH   3  22
ATOM     22  C   LIG d   1     -22.090  87.153 113.589  0.00  0.00     0.382 C 
ATOM     23  O   LIG d   1     -21.848  88.189 114.255  0.00  0.00    -0.241 OA
ATOM     24  O   LIG d   1     -21.225  86.709 112.811  0.00  0.00    -0.241 OA
ENDBRANCH   3  22
TORSDOF 7
ENDMDL
MODEL 8
REMARK VINA RESULT:      -4.6      1.943      2.474
REMARK  7 active torsions:
REMARK  status: ('A' for Active; 'I' for Inactive)
REMARK    1  A    between atoms: C_2  and  C_3 
REMARK    2  A    between atoms: C_3  and  O_6 
REMARK    3  A    between atoms: C_3  and  C_4 
REMARK    4  A    between atoms: C_7  and  O_6 
REMARK    5  A    between atoms: C_9  and  C_10 
REMARK    6  A    between atoms: N_15  and  C_14 
REMARK    7  A    between atoms: N_20  and  C_19 
REMARK       I    between atoms: C_22  and  N_20 
ROOT
ATOM      1  C   LIG d   1      -3.008  77.796 114.870  0.00  0.00     0.161 C 
ATOM      2  C   LIG d   1      -3.078  78.721 113.815  0.00  0.00     0.016 C 
ATOM      3  C   LIG d   1      -2.134  79.757 113.626  0.00  0.00     0.038 C 
ATOM      4  C   LIG d   1      -0.965  79.845 114.396  0.00  0.00     0.028 C 
ATOM      5  C   LIG d   1      -1.110  79.239 115.788  0.00  0.00    -0.047 C 
ATOM      6  C   LIG d   1      -1.680  77.808 115.655  0.00  0.00     0.091 C 
ENDROOT
BRANCH   1   7
ATOM      7  O   LIG d   1      -3.286  76.470 114.376  0.00  0.00    -0.368 OA
BRANCH   7   8
ATOM      8  C   LIG d   1      -4.647  76.002 114.540  0.00  0.00     0.119 C 
BRANCH   8   9
ATOM      9  C   LIG d   1      -5.182  76.585 115.862  0.00  0.00     0.028 C 
ATOM     10  C   LIG d   1      -6.718  76.650 115.896  0.00  0.00     0.006 C 
ENDBRANCH   8   9
BRANCH   8  11
ATOM     11  C   LIG d   1      -4.695  74.481 114.718  0.00  0.00     0.028 C 
ATOM     12  C   LIG d   1      -3.700  73.974 115.774  0.00  0.00     0.006 C 
ENDBRANCH   8  11
ENDBRANCH   7   8
ENDBRANCH   1   7
BRANCH   6  13
ATOM     13  N   LIG d   1      -1.932  77.174 116.975  0.00  0.00    -0.311 N 
ATOM     14  C   LIG d   1      -1.307  76.073 117.391  0.00  0.00     0.210 C 
ATOM     15  C   LIG d   1      -1.729  75.574 118.776  0.00  0.00     0.109 C 
ATOM     16  O   LIG d   1      -0.420  75.482 116.757  0.00  0.00    -0.276 OA
ATOM     17  H   LIG d   1      -2.614  77.606 117.566  0.00  0.00     0.149 HD
ENDBRANCH   6  13
BRANCH   5  18
ATOM     18  N   LIG d   1       0.218  79.275 116.430  0.00  0.00     0.381 N 
ATOM     19  H   LIG d   1       0.277  78.559 117.126  0.00  0.00    -0.090 HD
ATOM     20  H   LIG d   1       0.336  80.165 116.882  0.00  0.00    -0.090 HD
ATOM     21  H   LIG d   1       0.931  79.145 115.746  0.00  0.00    -0.090 HD
ENDBRANCH   5  18
BRANCH   3  22
ATOM     22  C   LIG d   1      -2.376  80.743 112.681  0.00  0.00     0.382 C 
ATOM     23  O   LIG d   1      -1.453  81.124 111.922  0.00  0.00    -0.241 OA
ATOM     24  O   LIG d   1      -3.495  81.286 112.608  0.00  0.00    -0.241 OA
ENDBRANCH   3  22
TORSDOF 7
ENDMDL
MODEL 9
REMARK VINA RESULT:      -4.5     21.624     23.362
REMARK  7 active torsions:
REMARK  status: ('A' for Active; 'I' for Inactive)
REMARK    1  A    between atoms: C_2  and  C_3 
REMARK    2  A    between atoms: C_3  and  O_6 
REMARK    3  A    between atoms: C_3  and  C_4 
REMARK    4  A    between atoms: C_7  and  O_6 
REMARK    5  A    between atoms: C_9  and  C_10 
REMARK    6  A    between atoms: N_15  and  C_14 
REMARK    7  A    between atoms: N_20  and  C_19 
REMARK       I    between atoms: C_22  and  N_20 
ROOT
ATOM      1  C   LIG d   1     -23.941  83.681 113.585  0.00  0.00     0.161 C 
ATOM      2  C   LIG d   1     -22.974  84.696 113.670  0.00  0.00     0.016 C 
ATOM      3  C   LIG d   1     -23.294  86.065 113.822  0.00  0.00     0.038 C 
ATOM      4  C   LIG d   1     -24.608  86.498 114.051  0.00  0.00     0.028 C 
ATOM      5  C   LIG d   1     -25.664  85.564 113.470  0.00  0.00    -0.047 C 
ATOM      6  C   LIG d   1     -25.375  84.122 113.945  0.00  0.00     0.091 C 
ENDROOT
BRANCH   1   7
ATOM      7  O   LIG d   1     -23.544  82.558 114.396  0.00  0.00    -0.368 OA
BRANCH   7   8
ATOM      8  C   LIG d   1     -24.070  82.529 115.746  0.00  0.00     0.119 C 
BRANCH   8   9
ATOM      9  C   LIG d   1     -22.907  82.857 116.703  0.00  0.00     0.028 C 
ATOM     10  C   LIG d   1     -23.092  84.211 117.409  0.00  0.00     0.006 C 
ENDBRANCH   8   9
BRANCH   8  11
ATOM     11  C   LIG d   1     -24.530  81.121 116.135  0.00  0.00     0.028 C 
ATOM     12  C   LIG d   1     -24.580  80.159 114.938  0.00  0.00     0.006 C 
ENDBRANCH   8  11
ENDBRANCH   7   8
ENDBRANCH   1   7
BRANCH   6  13
ATOM     13  N   LIG d   1     -26.312  83.132 113.353  0.00  0.00    -0.311 N 
ATOM     14  C   LIG d   1     -27.396  82.681 113.983  0.00  0.00     0.210 C 
ATOM     15  C   LIG d   1     -28.215  81.649 113.201  0.00  0.00     0.109 C 
ATOM     16  O   LIG d   1     -27.775  83.062 115.101  0.00  0.00    -0.276 OA
ATOM     17  H   LIG d   1     -26.098  82.793 112.436  0.00  0.00     0.149 HD
ENDBRANCH   6  13
BRANCH   5  18
ATOM     18  N   LIG d   1     -26.985  86.061 113.900  0.00  0.00     0.381 N 
ATOM     19  H   LIG d   1     -27.401  86.597 113.165  0.00  0.00    -0.090 HD
ATOM     20  H   LIG d   1     -26.862  86.661 114.697  0.00  0.00    -0.090 HD
ATOM     21  H   LIG d   1     -27.576  85.296 114.139  0.00  0.00    -0.090 HD
ENDBRANCH   5  18
BRANCH   3  22
ATOM     22  C   LIG d   1     -22.296  87.021 113.704  0.00  0.00     0.382 C 
ATOM     23  O   LIG d   1     -22.373  88.090 114.356  0.00  0.00    -0.241 OA
ATOM     24  O   LIG d   1     -21.344  86.847 112.921  0.00  0.00    -0.241 OA
ENDBRANCH   3  22
TORSDOF 7
ENDMDL
