MODEL 1
REMARK VINA RESULT:      -5.3      0.000      0.000
REMARK  7 active torsions:
REMARK  status: ('A' for Active; 'I' for Inactive)
REMARK    1  A    between atoms: C_2  and  C_3 
REMARK    2  A    between atoms: C_3  and  O_6 
REMARK    3  A    between atoms: C_3  and  C_4 
REMARK    4  A    between atoms: C_7  and  O_6 
REMARK    5  A    between atoms: C_9  and  C_10 
REMARK    6  A    between atoms: N_15  and  C_14 
REMARK    7  A    between atoms: N_20  and  C_19 
REMARK       I    between atoms: C_22  and  N_20 
ROOT
ATOM      1  C   LIG d   1      -3.259  75.440 116.376  0.00  0.00     0.161 C 
ATOM      2  C   LIG d   1      -3.752  76.168 115.281  0.00  0.00     0.016 C 
ATOM      3  C   LIG d   1      -2.938  76.618 114.215  0.00  0.00     0.038 C 
ATOM      4  C   LIG d   1      -1.593  76.237 114.098  0.00  0.00     0.028 C 
ATOM      5  C   LIG d   1      -0.933  75.926 115.437  0.00  0.00    -0.047 C 
ATOM      6  C   LIG d   1      -1.816  74.920 116.211  0.00  0.00     0.091 C 
ENDROOT
BRANCH   1   7
ATOM      7  O   LIG d   1      -4.152  74.351 116.681  0.00  0.00    -0.368 OA
BRANCH   7   8
ATOM      8  C   LIG d   1      -5.561  74.599 116.451  0.00  0.00     0.119 C 
BRANCH   8   9
ATOM      9  C   LIG d   1      -6.210  74.887 117.818  0.00  0.00     0.028 C 
ATOM     10  C   LIG d   1      -6.814  76.299 117.896  0.00  0.00     0.006 C 
ENDBRANCH   8   9
BRANCH   8  11
ATOM     11  C   LIG d   1      -6.268  73.347 115.922  0.00  0.00     0.028 C 
ATOM     12  C   LIG d   1      -6.475  72.277 117.005  0.00  0.00     0.006 C 
ENDBRANCH   8  11
ENDBRANCH   7   8
ENDBRANCH   1   7
BRANCH   6  13
ATOM     13  N   LIG d   1      -1.285  74.626 117.567  0.00  0.00    -0.311 N 
ATOM     14  C   LIG d   1      -0.497  73.587 117.837  0.00  0.00     0.210 C 
ATOM     15  C   LIG d   1      -0.078  73.457 119.305  0.00  0.00     0.109 C 
ATOM     16  O   LIG d   1      -0.078  72.780 116.994  0.00  0.00    -0.276 OA
ATOM     17  H   LIG d   1      -1.550  75.249 118.305  0.00  0.00     0.149 HD
ENDBRANCH   6  13
BRANCH   5  18
ATOM     18  N   LIG d   1       0.421  75.410 115.158  0.00  0.00     0.381 N 
ATOM     19  H   LIG d   1       0.765  75.808 114.306  0.00  0.00    -0.090 HD
ATOM     20  H   LIG d   1       0.372  74.413 115.043  0.00  0.00    -0.090 HD
ATOM     21  H   LIG d   1       1.034  75.636 115.910  0.00  0.00    -0.090 HD
ENDBRANCH   5  18
BRANCH   3  22
ATOM     22  C   LIG d   1      -3.460  77.491 113.273  0.00  0.00     0.382 C 
ATOM     23  O   LIG d   1      -3.020  78.664 113.195  0.00  0.00    -0.241 OA
ATOM     24  O   LIG d   1      -4.394  77.135 112.531  0.00  0.00    -0.241 OA
ENDBRANCH   3  22
TORSDOF 7
ENDMDL
MODEL 2
REMARK VINA RESULT:      -5.1     22.400     25.062
REMARK  7 active torsions:
REMARK  status: ('A' for Active; 'I' for Inactive)
REMARK    1  A    between atoms: C_2  and  C_3 
REMARK    2  A    between atoms: C_3  and  O_6 
REMARK    3  A    between atoms: C_3  and  C_4 
REMARK    4  A    between atoms: C_7  and  O_6 
REMARK    5  A    between atoms: C_9  and  C_10 
REMARK    6  A    between atoms: N_15  and  C_14 
REMARK    7  A    between atoms: N_20  and  C_19 
REMARK       I    between atoms: C_22  and  N_20 
ROOT
ATOM      1  C   LIG d   1     -25.625  85.657 114.005  0.00  0.00     0.161 C 
ATOM      2  C   LIG d   1     -24.552  86.563 113.967  0.00  0.00     0.016 C 
ATOM      3  C   LIG d   1     -23.247  86.207 113.555  0.00  0.00     0.038 C 
ATOM      4  C   LIG d   1     -22.961  84.949 113.005  0.00  0.00     0.028 C 
ATOM      5  C   LIG d   1     -23.895  83.847 113.494  0.00  0.00    -0.047 C 
ATOM      6  C   LIG d   1     -25.358  84.308 113.304  0.00  0.00     0.091 C 
ENDROOT
BRANCH   1   7
ATOM      7  O   LIG d   1     -26.808  86.277 113.464  0.00  0.00    -0.368 OA
BRANCH   7   8
ATOM      8  C   LIG d   1     -26.601  87.181 112.351  0.00  0.00     0.119 C 
BRANCH   8   9
ATOM      9  C   LIG d   1     -27.366  88.482 112.664  0.00  0.00     0.028 C 
ATOM     10  C   LIG d   1     -27.244  89.520 111.535  0.00  0.00     0.006 C 
ENDBRANCH   8   9
BRANCH   8  11
ATOM     11  C   LIG d   1     -27.234  86.638 111.067  0.00  0.00     0.028 C 
ATOM     12  C   LIG d   1     -28.574  85.927 111.317  0.00  0.00     0.006 C 
ENDBRANCH   8  11
ENDBRANCH   7   8
ENDBRANCH   1   7
BRANCH   6  13
ATOM     13  N   LIG d   1     -26.336  83.324 113.835  0.00  0.00    -0.311 N 
ATOM     14  C   LIG d   1     -27.203  82.665 113.068  0.00  0.00     0.210 C 
ATOM     15  C   LIG d   1     -28.136  81.711 113.819  0.00  0.00     0.109 C 
ATOM     16  O   LIG d   1     -27.266  82.756 111.832  0.00  0.00    -0.276 OA
ATOM     17  H   LIG d   1     -26.333  83.165 114.823  0.00  0.00     0.149 HD
ENDBRANCH   6  13
BRANCH   5  18
ATOM     18  N   LIG d   1     -23.572  82.622 112.739  0.00  0.00     0.381 N 
ATOM     19  H   LIG d   1     -23.702  82.783 111.760  0.00  0.00    -0.090 HD
ATOM     20  H   LIG d   1     -24.198  81.890 113.024  0.00  0.00    -0.090 HD
ATOM     21  H   LIG d   1     -22.630  82.350 112.916  0.00  0.00    -0.090 HD
ENDBRANCH   5  18
BRANCH   3  22
ATOM     22  C   LIG d   1     -22.203  87.103 113.728  0.00  0.00     0.382 C 
ATOM     23  O   LIG d   1     -21.143  86.966 113.071  0.00  0.00    -0.241 OA
ATOM     24  O   LIG d   1     -22.292  88.022 114.564  0.00  0.00    -0.241 OA
ENDBRANCH   3  22
TORSDOF 7
ENDMDL
MODEL 3
REMARK VINA RESULT:      -5.0      4.001      6.079
REMARK  7 active torsions:
REMARK  status: ('A' for Active; 'I' for Inactive)
REMARK    1  A    between atoms: C_2  and  C_3 
REMARK    2  A    between atoms: C_3  and  O_6 
REMARK    3  A    between atoms: C_3  and  C_4 
REMARK    4  A    between atoms: C_7  and  O_6 
REMARK    5  A    between atoms: C_9  and  C_10 
REMARK    6  A    between atoms: N_15  and  C_14 
REMARK    7  A    between atoms: N_20  and  C_19 
REMARK       I    between atoms: C_22  and  N_20 
ROOT
ATOM      1  C   LIG d   1      -6.739  77.325 117.399  0.00  0.00     0.161 C 
ATOM      2  C   LIG d   1      -8.099  77.560 117.661  0.00  0.00     0.016 C 
ATOM      3  C   LIG d   1      -8.594  78.786 118.162  0.00  0.00     0.038 C 
ATOM      4  C   LIG d   1      -7.776  79.918 118.293  0.00  0.00     0.028 C 
ATOM      5  C   LIG d   1      -6.306  79.580 118.519  0.00  0.00    -0.047 C 
ATOM      6  C   LIG d   1      -5.847  78.584 117.430  0.00  0.00     0.091 C 
ENDROOT
BRANCH   1   7
ATOM      7  O   LIG d   1      -6.596  76.641 116.138  0.00  0.00    -0.368 OA
BRANCH   7   8
ATOM      8  C   LIG d   1      -5.994  75.324 116.192  0.00  0.00     0.119 C 
BRANCH   8   9
ATOM      9  C   LIG d   1      -5.480  74.992 114.778  0.00  0.00     0.028 C 
ATOM     10  C   LIG d   1      -6.188  75.814 113.688  0.00  0.00     0.006 C 
ENDBRANCH   8   9
BRANCH   8  11
ATOM     11  C   LIG d   1      -7.036  74.247 116.508  0.00  0.00     0.028 C 
ATOM     12  C   LIG d   1      -6.407  72.871 116.777  0.00  0.00     0.006 C 
ENDBRANCH   8  11
ENDBRANCH   7   8
ENDBRANCH   1   7
BRANCH   6  13
ATOM     13  N   LIG d   1      -4.444  78.136 117.627  0.00  0.00    -0.311 N 
ATOM     14  C   LIG d   1      -3.541  78.103 116.648  0.00  0.00     0.210 C 
ATOM     15  C   LIG d   1      -2.158  77.589 117.061  0.00  0.00     0.109 C 
ATOM     16  O   LIG d   1      -3.745  78.481 115.485  0.00  0.00    -0.276 OA
ATOM     17  H   LIG d   1      -4.184  77.842 118.548  0.00  0.00     0.149 HD
ENDBRANCH   6  13
BRANCH   5  18
ATOM     18  N   LIG d   1      -5.550  80.847 118.500  0.00  0.00     0.381 N 
ATOM     19  H   LIG d   1      -4.922  80.854 117.721  0.00  0.00    -0.090 HD
ATOM     20  H   LIG d   1      -5.008  80.914 119.343  0.00  0.00    -0.090 HD
ATOM     21  H   LIG d   1      -6.178  81.618 118.437  0.00  0.00    -0.090 HD
ENDBRANCH   5  18
BRANCH   3  22
ATOM     22  C   LIG d   1      -9.914  78.876 118.576  0.00  0.00     0.382 C 
ATOM     23  O   LIG d   1     -10.669  77.877 118.487  0.00  0.00    -0.241 OA
ATOM     24  O   LIG d   1     -10.373  79.955 118.997  0.00  0.00    -0.241 OA
ENDBRANCH   3  22
TORSDOF 7
ENDMDL
MODEL 4
REMARK VINA RESULT:      -4.9      2.656      3.877
REMARK  7 active torsions:
REMARK  status: ('A' for Active; 'I' for Inactive)
REMARK    1  A    between atoms: C_2  and  C_3 
REMARK    2  A    between atoms: C_3  and  O_6 
REMARK    3  A    between atoms: C_3  and  C_4 
REMARK    4  A    between atoms: C_7  and  O_6 
REMARK    5  A    between atoms: C_9  and  C_10 
REMARK    6  A    between atoms: N_15  and  C_14 
REMARK    7  A    between atoms: N_20  and  C_19 
REMARK       I    between atoms: C_22  and  N_20 
ROOT
ATOM      1  C   LIG d   1      -3.024  75.215 115.585  0.00  0.00     0.161 C 
ATOM      2  C   LIG d   1      -2.135  74.288 115.015  0.00  0.00     0.016 C 
ATOM      3  C   LIG d   1      -0.744  74.514 114.901  0.00  0.00     0.038 C 
ATOM      4  C   LIG d   1      -0.122  75.625 115.489  0.00  0.00     0.028 C 
ATOM      5  C   LIG d   1      -1.045  76.831 115.632  0.00  0.00    -0.047 C 
ATOM      6  C   LIG d   1      -2.349  76.384 116.332  0.00  0.00     0.091 C 
ENDROOT
BRANCH   1   7
ATOM      7  O   LIG d   1      -3.950  74.534 116.454  0.00  0.00    -0.368 OA
BRANCH   7   8
ATOM      8  C   LIG d   1      -5.134  73.989 115.822  0.00  0.00     0.119 C 
BRANCH   8   9
ATOM      9  C   LIG d   1      -5.766  75.112 114.977  0.00  0.00     0.028 C 
ATOM     10  C   LIG d   1      -6.828  75.906 115.756  0.00  0.00     0.006 C 
ENDBRANCH   8   9
BRANCH   8  11
ATOM     11  C   LIG d   1      -6.197  73.615 116.860  0.00  0.00     0.028 C 
ATOM     12  C   LIG d   1      -6.647  72.149 116.751  0.00  0.00     0.006 C 
ENDBRANCH   8  11
ENDBRANCH   7   8
ENDBRANCH   1   7
BRANCH   6  13
ATOM     13  N   LIG d   1      -3.342  77.485 116.436  0.00  0.00    -0.311 N 
ATOM     14  C   LIG d   1      -3.930  77.836 117.578  0.00  0.00     0.210 C 
ATOM     15  C   LIG d   1      -4.937  78.984 117.460  0.00  0.00     0.109 C 
ATOM     16  O   LIG d   1      -3.689  77.328 118.683  0.00  0.00    -0.276 OA
ATOM     17  H   LIG d   1      -3.572  77.972 115.592  0.00  0.00     0.149 HD
ENDBRANCH   6  13
BRANCH   5  18
ATOM     18  N   LIG d   1      -0.311  77.867 116.382  0.00  0.00     0.381 N 
ATOM     19  H   LIG d   1      -0.330  78.730 115.876  0.00  0.00    -0.090 HD
ATOM     20  H   LIG d   1       0.647  77.580 116.480  0.00  0.00    -0.090 HD
ATOM     21  H   LIG d   1      -0.722  77.992 117.281  0.00  0.00    -0.090 HD
ENDBRANCH   5  18
BRANCH   3  22
ATOM     22  C   LIG d   1       0.034  73.640 114.156  0.00  0.00     0.382 C 
ATOM     23  O   LIG d   1      -0.470  73.020 113.189  0.00  0.00    -0.241 OA
ATOM     24  O   LIG d   1       1.222  73.431 114.467  0.00  0.00    -0.241 OA
ENDBRANCH   3  22
TORSDOF 7
ENDMDL
MODEL 5
REMARK VINA RESULT:      -4.9      2.454      4.730
REMARK  7 active torsions:
REMARK  status: ('A' for Active; 'I' for Inactive)
REMARK    1  A    between atoms: C_2  and  C_3 
REMARK    2  A    between atoms: C_3  and  O_6 
REMARK    3  A    between atoms: C_3  and  C_4 
REMARK    4  A    between atoms: C_7  and  O_6 
REMARK    5  A    between atoms: C_9  and  C_10 
REMARK    6  A    between atoms: N_15  and  C_14 
REMARK    7  A    between atoms: N_20  and  C_19 
REMARK       I    between atoms: C_22  and  N_20 
ROOT
ATOM      1  C   LIG d   1      -3.717  75.552 115.843  0.00  0.00     0.161 C 
ATOM      2  C   LIG d   1      -2.664  74.634 115.695  0.00  0.00     0.016 C 
ATOM      3  C   LIG d   1      -1.646  74.456 116.661  0.00  0.00     0.038 C 
ATOM      4  C   LIG d   1      -1.698  75.079 117.916  0.00  0.00     0.028 C 
ATOM      5  C   LIG d   1      -2.470  76.394 117.909  0.00  0.00    -0.047 C 
ATOM      6  C   LIG d   1      -3.852  76.161 117.255  0.00  0.00     0.091 C 
ENDROOT
BRANCH   1   7
ATOM      7  O   LIG d   1      -4.959  74.940 115.441  0.00  0.00    -0.368 OA
BRANCH   7   8
ATOM      8  C   LIG d   1      -5.680  74.225 116.474  0.00  0.00     0.119 C 
BRANCH   8   9
ATOM      9  C   LIG d   1      -5.716  72.738 116.070  0.00  0.00     0.028 C 
ATOM     10  C   LIG d   1      -6.810  71.954 116.812  0.00  0.00     0.006 C 
ENDBRANCH   8   9
BRANCH   8  11
ATOM     11  C   LIG d   1      -7.146  74.663 116.535  0.00  0.00     0.028 C 
ATOM     12  C   LIG d   1      -7.469  75.801 115.554  0.00  0.00     0.006 C 
ENDBRANCH   8  11
ENDBRANCH   7   8
ENDBRANCH   1   7
BRANCH   6  13
ATOM     13  N   LIG d   1      -4.639  77.415 117.131  0.00  0.00    -0.311 N 
ATOM     14  C   LIG d   1      -5.568  77.787 118.009  0.00  0.00     0.210 C 
ATOM     15  C   LIG d   1      -6.276  79.106 117.682  0.00  0.00     0.109 C 
ATOM     16  O   LIG d   1      -5.851  77.167 119.045  0.00  0.00    -0.276 OA
ATOM     17  H   LIG d   1      -4.452  77.994 116.336  0.00  0.00     0.149 HD
ENDBRANCH   6  13
BRANCH   5  18
ATOM     18  N   LIG d   1      -2.563  76.864 119.303  0.00  0.00     0.381 N 
ATOM     19  H   LIG d   1      -3.172  76.265 119.823  0.00  0.00    -0.090 HD
ATOM     20  H   LIG d   1      -2.953  77.791 119.309  0.00  0.00    -0.090 HD
ATOM     21  H   LIG d   1      -1.659  76.874 119.721  0.00  0.00    -0.090 HD
ENDBRANCH   5  18
BRANCH   3  22
ATOM     22  C   LIG d   1      -0.541  73.675 116.358  0.00  0.00     0.382 C 
ATOM     23  O   LIG d   1      -0.190  72.756 117.136  0.00  0.00    -0.241 OA
ATOM     24  O   LIG d   1       0.136  73.907 115.338  0.00  0.00    -0.241 OA
ENDBRANCH   3  22
TORSDOF 7
ENDMDL
MODEL 6
REMARK VINA RESULT:      -4.7      2.399      5.655
REMARK  7 active torsions:
REMARK  status: ('A' for Active; 'I' for Inactive)
REMARK    1  A    between atoms: C_2  and  C_3 
REMARK    2  A    between atoms: C_3  and  O_6 
REMARK    3  A    between atoms: C_3  and  C_4 
REMARK    4  A    between atoms: C_7  and  O_6 
REMARK    5  A    between atoms: C_9  and  C_10 
REMARK    6  A    between atoms: N_15  and  C_14 
REMARK    7  A    between atoms: N_20  and  C_19 
REMARK       I    between atoms: C_22  and  N_20 
ROOT
ATOM      1  C   LIG d   1      -3.070  75.018 115.881  0.00  0.00     0.161 C 
ATOM      2  C   LIG d   1      -3.905  74.000 116.371  0.00  0.00     0.016 C 
ATOM      3  C   LIG d   1      -5.206  73.754 115.874  0.00  0.00     0.038 C 
ATOM      4  C   LIG d   1      -5.705  74.417 114.743  0.00  0.00     0.028 C 
ATOM      5  C   LIG d   1      -5.095  75.798 114.532  0.00  0.00    -0.047 C 
ATOM      6  C   LIG d   1      -3.555  75.678 114.573  0.00  0.00     0.091 C 
ENDROOT
BRANCH   1   7
ATOM      7  O   LIG d   1      -1.729  74.515 115.721  0.00  0.00    -0.368 OA
BRANCH   7   8
ATOM      8  C   LIG d   1      -0.839  74.705 116.848  0.00  0.00     0.119 C 
BRANCH   8   9
ATOM      9  C   LIG d   1       0.199  75.771 116.445  0.00  0.00     0.028 C 
ATOM     10  C   LIG d   1       1.022  76.272 117.643  0.00  0.00     0.006 C 
ENDBRANCH   8   9
BRANCH   8  11
ATOM     11  C   LIG d   1      -0.027  73.438 117.136  0.00  0.00     0.028 C 
ATOM     12  C   LIG d   1      -0.387  72.794 118.485  0.00  0.00     0.006 C 
ENDBRANCH   8  11
ENDBRANCH   7   8
ENDBRANCH   1   7
BRANCH   6  13
ATOM     13  N   LIG d   1      -2.880  76.998 114.459  0.00  0.00    -0.311 N 
ATOM     14  C   LIG d   1      -2.440  77.498 113.306  0.00  0.00     0.210 C 
ATOM     15  C   LIG d   1      -1.756  78.865 113.414  0.00  0.00     0.109 C 
ATOM     16  O   LIG d   1      -2.579  76.955 112.200  0.00  0.00    -0.276 OA
ATOM     17  H   LIG d   1      -2.754  77.520 115.304  0.00  0.00     0.149 HD
ENDBRANCH   6  13
BRANCH   5  18
ATOM     18  N   LIG d   1      -5.601  76.317 113.248  0.00  0.00     0.381 N 
ATOM     19  H   LIG d   1      -5.895  77.267 113.358  0.00  0.00    -0.090 HD
ATOM     20  H   LIG d   1      -6.397  75.772 112.967  0.00  0.00    -0.090 HD
ATOM     21  H   LIG d   1      -4.889  76.260 112.553  0.00  0.00    -0.090 HD
ENDBRANCH   5  18
BRANCH   3  22
ATOM     22  C   LIG d   1      -6.037  72.863 116.536  0.00  0.00     0.382 C 
ATOM     23  O   LIG d   1      -6.497  73.155 117.666  0.00  0.00    -0.241 OA
ATOM     24  O   LIG d   1      -6.297  71.752 116.037  0.00  0.00    -0.241 OA
ENDBRANCH   3  22
TORSDOF 7
ENDMDL
MODEL 7
REMARK VINA RESULT:      -4.6     13.963     16.701
REMARK  7 active torsions:
REMARK  status: ('A' for Active; 'I' for Inactive)
REMARK    1  A    between atoms: C_2  and  C_3 
REMARK    2  A    between atoms: C_3  and  O_6 
REMARK    3  A    between atoms: C_3  and  C_4 
REMARK    4  A    between atoms: C_7  and  O_6 
REMARK    5  A    between atoms: C_9  and  C_10 
REMARK    6  A    between atoms: N_15  and  C_14 
REMARK    7  A    between atoms: N_20  and  C_19 
REMARK       I    between atoms: C_22  and  N_20 
ROOT
ATOM      1  C   LIG d   1     -15.841  64.696 114.302  0.00  0.00     0.161 C 
ATOM      2  C   LIG d   1     -15.429  65.626 113.333  0.00  0.00     0.016 C 
ATOM      3  C   LIG d   1     -14.683  66.788 113.636  0.00  0.00     0.038 C 
ATOM      4  C   LIG d   1     -14.165  67.022 114.919  0.00  0.00     0.028 C 
ATOM      5  C   LIG d   1     -14.981  66.370 116.030  0.00  0.00    -0.047 C 
ATOM      6  C   LIG d   1     -15.190  64.877 115.689  0.00  0.00     0.091 C 
ENDROOT
BRANCH   1   7
ATOM      7  O   LIG d   1     -15.623  63.356 113.817  0.00  0.00    -0.368 OA
BRANCH   7   8
ATOM      8  C   LIG d   1     -16.812  62.563 113.578  0.00  0.00     0.119 C 
BRANCH   8   9
ATOM      9  C   LIG d   1     -18.031  63.477 113.806  0.00  0.00     0.028 C 
ATOM     10  C   LIG d   1     -18.885  63.645 112.538  0.00  0.00     0.006 C 
ENDBRANCH   8   9
BRANCH   8  11
ATOM     11  C   LIG d   1     -16.949  61.439 114.608  0.00  0.00     0.028 C 
ATOM     12  C   LIG d   1     -17.822  60.277 114.110  0.00  0.00     0.006 C 
ENDBRANCH   8  11
ENDBRANCH   7   8
ENDBRANCH   1   7
BRANCH   6  13
ATOM     13  N   LIG d   1     -16.051  64.183 116.683  0.00  0.00    -0.311 N 
ATOM     14  C   LIG d   1     -15.629  63.170 117.438  0.00  0.00     0.210 C 
ATOM     15  C   LIG d   1     -16.683  62.586 118.384  0.00  0.00     0.109 C 
ATOM     16  O   LIG d   1     -14.473  62.721 117.437  0.00  0.00    -0.276 OA
ATOM     17  H   LIG d   1     -16.995  64.504 116.772  0.00  0.00     0.149 HD
ENDBRANCH   6  13
BRANCH   5  18
ATOM     18  N   LIG d   1     -14.255  66.577 117.297  0.00  0.00     0.381 N 
ATOM     19  H   LIG d   1     -14.477  65.843 117.939  0.00  0.00    -0.090 HD
ATOM     20  H   LIG d   1     -14.548  67.449 117.701  0.00  0.00    -0.090 HD
ATOM     21  H   LIG d   1     -13.273  66.595 117.128  0.00  0.00    -0.090 HD
ENDBRANCH   5  18
BRANCH   3  22
ATOM     22  C   LIG d   1     -14.482  67.750 112.659  0.00  0.00     0.382 C 
ATOM     23  O   LIG d   1     -13.824  68.785 112.924  0.00  0.00    -0.241 OA
ATOM     24  O   LIG d   1     -14.989  67.618 111.529  0.00  0.00    -0.241 OA
ENDBRANCH   3  22
TORSDOF 7
ENDMDL
MODEL 8
REMARK VINA RESULT:      -4.6      2.159      4.904
REMARK  7 active torsions:
REMARK  status: ('A' for Active; 'I' for Inactive)
REMARK    1  A    between atoms: C_2  and  C_3 
REMARK    2  A    between atoms: C_3  and  O_6 
REMARK    3  A    between atoms: C_3  and  C_4 
REMARK    4  A    between atoms: C_7  and  O_6 
REMARK    5  A    between atoms: C_9  and  C_10 
REMARK    6  A    between atoms: N_15  and  C_14 
REMARK    7  A    between atoms: N_20  and  C_19 
REMARK       I    between atoms: C_22  and  N_20 
ROOT
ATOM      1  C   LIG d   1      -2.790  75.462 114.933  0.00  0.00     0.161 C 
ATOM      2  C   LIG d   1      -2.403  76.720 114.443  0.00  0.00     0.016 C 
ATOM      3  C   LIG d   1      -2.784  77.941 115.046  0.00  0.00     0.038 C 
ATOM      4  C   LIG d   1      -3.458  77.982 116.276  0.00  0.00     0.028 C 
ATOM      5  C   LIG d   1      -4.305  76.742 116.544  0.00  0.00    -0.047 C 
ATOM      6  C   LIG d   1      -3.432  75.483 116.336  0.00  0.00     0.091 C 
ENDROOT
BRANCH   1   7
ATOM      7  O   LIG d   1      -1.664  74.562 114.910  0.00  0.00    -0.368 OA
BRANCH   7   8
ATOM      8  C   LIG d   1      -0.361  75.167 115.098  0.00  0.00     0.119 C 
BRANCH   8   9
ATOM      9  C   LIG d   1       0.629  74.427 114.177  0.00  0.00     0.028 C 
ATOM     10  C   LIG d   1      -0.025  73.248 113.438  0.00  0.00     0.006 C 
ENDBRANCH   8   9
BRANCH   8  11
ATOM     11  C   LIG d   1       0.160  74.938 116.520  0.00  0.00     0.028 C 
ATOM     12  C   LIG d   1      -0.318  73.608 117.123  0.00  0.00     0.006 C 
ENDBRANCH   8  11
ENDBRANCH   7   8
ENDBRANCH   1   7
BRANCH   6  13
ATOM     13  N   LIG d   1      -4.205  74.224 116.496  0.00  0.00    -0.311 N 
ATOM     14  C   LIG d   1      -5.451  74.067 116.051  0.00  0.00     0.210 C 
ATOM     15  C   LIG d   1      -6.072  72.697 116.338  0.00  0.00     0.109 C 
ATOM     16  O   LIG d   1      -6.089  74.922 115.418  0.00  0.00    -0.276 OA
ATOM     17  H   LIG d   1      -3.752  73.468 116.970  0.00  0.00     0.149 HD
ENDBRANCH   6  13
BRANCH   5  18
ATOM     18  N   LIG d   1      -4.839  76.855 117.914  0.00  0.00     0.381 N 
ATOM     19  H   LIG d   1      -4.331  77.553 118.419  0.00  0.00    -0.090 HD
ATOM     20  H   LIG d   1      -4.718  75.975 118.383  0.00  0.00    -0.090 HD
ATOM     21  H   LIG d   1      -5.806  77.094 117.884  0.00  0.00    -0.090 HD
ENDBRANCH   5  18
BRANCH   3  22
ATOM     22  C   LIG d   1      -2.526  79.139 114.397  0.00  0.00     0.382 C 
ATOM     23  O   LIG d   1      -3.475  79.890 114.065  0.00  0.00    -0.241 OA
ATOM     24  O   LIG d   1      -1.359  79.457 114.098  0.00  0.00    -0.241 OA
ENDBRANCH   3  22
TORSDOF 7
ENDMDL
MODEL 9
REMARK VINA RESULT:      -4.5     15.001     18.192
REMARK  7 active torsions:
REMARK  status: ('A' for Active; 'I' for Inactive)
REMARK    1  A    between atoms: C_2  and  C_3 
REMARK    2  A    between atoms: C_3  and  O_6 
REMARK    3  A    between atoms: C_3  and  C_4 
REMARK    4  A    between atoms: C_7  and  O_6 
REMARK    5  A    between atoms: C_9  and  C_10 
REMARK    6  A    between atoms: N_15  and  C_14 
REMARK    7  A    between atoms: N_20  and  C_19 
REMARK       I    between atoms: C_22  and  N_20 
ROOT
ATOM      1  C   LIG d   1     -17.323  64.158 116.540  0.00  0.00     0.161 C 
ATOM      2  C   LIG d   1     -16.550  65.211 117.057  0.00  0.00     0.016 C 
ATOM      3  C   LIG d   1     -15.454  65.782 116.370  0.00  0.00     0.038 C 
ATOM      4  C   LIG d   1     -15.147  65.436 115.046  0.00  0.00     0.028 C 
ATOM      5  C   LIG d   1     -15.585  64.024 114.672  0.00  0.00    -0.047 C 
ATOM      6  C   LIG d   1     -17.073  63.843 115.051  0.00  0.00     0.091 C 
ENDROOT
BRANCH   1   7
ATOM      7  O   LIG d   1     -18.722  64.420 116.769  0.00  0.00    -0.368 OA
BRANCH   7   8
ATOM      8  C   LIG d   1     -19.336  65.403 115.900  0.00  0.00     0.119 C 
BRANCH   8   9
ATOM      9  C   LIG d   1     -19.908  66.520 116.795  0.00  0.00     0.028 C 
ATOM     10  C   LIG d   1     -21.131  66.055 117.604  0.00  0.00     0.006 C 
ENDBRANCH   8   9
BRANCH   8  11
ATOM     11  C   LIG d   1     -20.543  64.817 115.162  0.00  0.00     0.028 C 
ATOM     12  C   LIG d   1     -20.713  65.392 113.746  0.00  0.00     0.006 C 
ENDBRANCH   8  11
ENDBRANCH   7   8
ENDBRANCH   1   7
BRANCH   6  13
ATOM     13  N   LIG d   1     -17.559  62.462 114.795  0.00  0.00    -0.311 N 
ATOM     14  C   LIG d   1     -18.222  62.109 113.695  0.00  0.00     0.210 C 
ATOM     15  C   LIG d   1     -18.650  60.639 113.641  0.00  0.00     0.109 C 
ATOM     16  O   LIG d   1     -18.469  62.867 112.745  0.00  0.00    -0.276 OA
ATOM     17  H   LIG d   1     -17.374  61.776 115.501  0.00  0.00     0.149 HD
ENDBRANCH   6  13
BRANCH   5  18
ATOM     18  N   LIG d   1     -15.330  63.845 113.230  0.00  0.00     0.381 N 
ATOM     19  H   LIG d   1     -14.785  63.019 113.082  0.00  0.00    -0.090 HD
ATOM     20  H   LIG d   1     -14.805  64.633 112.893  0.00  0.00    -0.090 HD
ATOM     21  H   LIG d   1     -16.193  63.776 112.737  0.00  0.00    -0.090 HD
ENDBRANCH   5  18
BRANCH   3  22
ATOM     22  C   LIG d   1     -14.626  66.681 117.025  0.00  0.00     0.382 C 
ATOM     23  O   LIG d   1     -15.120  67.555 117.778  0.00  0.00    -0.241 OA
ATOM     24  O   LIG d   1     -13.395  66.658 116.837  0.00  0.00    -0.241 OA
ENDBRANCH   3  22
TORSDOF 7
ENDMDL
