MODEL 1
REMARK VINA RESULT:      -5.6      0.000      0.000
REMARK  7 active torsions:
REMARK  status: ('A' for Active; 'I' for Inactive)
REMARK    1  A    between atoms: C_2  and  C_3 
REMARK    2  A    between atoms: C_3  and  O_6 
REMARK    3  A    between atoms: C_3  and  C_4 
REMARK    4  A    between atoms: C_7  and  O_6 
REMARK    5  A    between atoms: C_9  and  C_10 
REMARK    6  A    between atoms: N_15  and  C_14 
REMARK    7  A    between atoms: N_20  and  C_19 
REMARK       I    between atoms: C_22  and  N_20 
ROOT
ATOM      1  C   LIG d   1      -6.728  75.946 116.749  0.00  0.00     0.161 C 
ATOM      2  C   LIG d   1      -5.736  76.442 115.887  0.00  0.00     0.016 C 
ATOM      3  C   LIG d   1      -5.042  75.637 114.955  0.00  0.00     0.038 C 
ATOM      4  C   LIG d   1      -5.401  74.302 114.716  0.00  0.00     0.028 C 
ATOM      5  C   LIG d   1      -6.055  73.626 115.917  0.00  0.00    -0.047 C 
ATOM      6  C   LIG d   1      -7.211  74.517 116.425  0.00  0.00     0.091 C 
ENDROOT
BRANCH   1   7
ATOM      7  O   LIG d   1      -7.845  76.857 116.784  0.00  0.00    -0.368 OA
BRANCH   7   8
ATOM      8  C   LIG d   1      -7.988  77.645 117.991  0.00  0.00     0.119 C 
BRANCH   8   9
ATOM      9  C   LIG d   1      -9.492  77.722 118.318  0.00  0.00     0.028 C 
ATOM     10  C   LIG d   1     -10.298  76.598 117.645  0.00  0.00     0.006 C 
ENDBRANCH   8   9
BRANCH   8  11
ATOM     11  C   LIG d   1      -7.548  79.094 117.766  0.00  0.00     0.028 C 
ATOM     12  C   LIG d   1      -8.657  80.110 118.082  0.00  0.00     0.006 C 
ENDBRANCH   8  11
ENDBRANCH   7   8
ENDBRANCH   1   7
BRANCH   6  13
ATOM     13  N   LIG d   1      -7.851  73.970 117.650  0.00  0.00    -0.311 N 
ATOM     14  C   LIG d   1      -8.902  73.152 117.626  0.00  0.00     0.210 C 
ATOM     15  C   LIG d   1      -9.418  72.722 119.002  0.00  0.00     0.109 C 
ATOM     16  O   LIG d   1      -9.435  72.717 116.594  0.00  0.00    -0.276 OA
ATOM     17  H   LIG d   1      -7.462  74.247 118.531  0.00  0.00     0.149 HD
ENDBRANCH   6  13
BRANCH   5  18
ATOM     18  N   LIG d   1      -6.502  72.288 115.486  0.00  0.00     0.381 N 
ATOM     19  H   LIG d   1      -6.655  71.709 116.287  0.00  0.00    -0.090 HD
ATOM     20  H   LIG d   1      -5.780  71.869 114.927  0.00  0.00    -0.090 HD
ATOM     21  H   LIG d   1      -7.341  72.364 114.956  0.00  0.00    -0.090 HD
ENDBRANCH   5  18
BRANCH   3  22
ATOM     22  C   LIG d   1      -3.948  76.156 114.279  0.00  0.00     0.382 C 
ATOM     23  O   LIG d   1      -4.118  76.829 113.234  0.00  0.00    -0.241 OA
ATOM     24  O   LIG d   1      -2.791  75.923 114.677  0.00  0.00    -0.241 OA
ENDBRANCH   3  22
TORSDOF 7
ENDMDL
MODEL 2
REMARK VINA RESULT:      -5.5      2.410      5.635
REMARK  7 active torsions:
REMARK  status: ('A' for Active; 'I' for Inactive)
REMARK    1  A    between atoms: C_2  and  C_3 
REMARK    2  A    between atoms: C_3  and  O_6 
REMARK    3  A    between atoms: C_3  and  C_4 
REMARK    4  A    between atoms: C_7  and  O_6 
REMARK    5  A    between atoms: C_9  and  C_10 
REMARK    6  A    between atoms: N_15  and  C_14 
REMARK    7  A    between atoms: N_20  and  C_19 
REMARK       I    between atoms: C_22  and  N_20 
ROOT
ATOM      1  C   LIG d   1      -6.218  74.643 118.017  0.00  0.00     0.161 C 
ATOM      2  C   LIG d   1      -6.325  73.291 117.648  0.00  0.00     0.016 C 
ATOM      3  C   LIG d   1      -7.463  72.746 117.011  0.00  0.00     0.038 C 
ATOM      4  C   LIG d   1      -8.518  73.554 116.559  0.00  0.00     0.028 C 
ATOM      5  C   LIG d   1      -8.679  74.843 117.359  0.00  0.00    -0.047 C 
ATOM      6  C   LIG d   1      -7.312  75.561 117.434  0.00  0.00     0.091 C 
ENDROOT
BRANCH   1   7
ATOM      7  O   LIG d   1      -4.910  75.141 117.674  0.00  0.00    -0.368 OA
BRANCH   7   8
ATOM      8  C   LIG d   1      -4.204  74.415 116.637  0.00  0.00     0.119 C 
BRANCH   8   9
ATOM      9  C   LIG d   1      -2.727  74.317 117.066  0.00  0.00     0.028 C 
ATOM     10  C   LIG d   1      -1.763  74.367 115.869  0.00  0.00     0.006 C 
ENDBRANCH   8   9
BRANCH   8  11
ATOM     11  C   LIG d   1      -4.192  75.196 115.320  0.00  0.00     0.028 C 
ATOM     12  C   LIG d   1      -5.213  74.662 114.302  0.00  0.00     0.006 C 
ENDBRANCH   8  11
ENDBRANCH   7   8
ENDBRANCH   1   7
BRANCH   6  13
ATOM     13  N   LIG d   1      -7.362  76.789 118.270  0.00  0.00    -0.311 N 
ATOM     14  C   LIG d   1      -6.878  77.965 117.874  0.00  0.00     0.210 C 
ATOM     15  C   LIG d   1      -7.014  79.097 118.898  0.00  0.00     0.109 C 
ATOM     16  O   LIG d   1      -6.379  78.186 116.761  0.00  0.00    -0.276 OA
ATOM     17  H   LIG d   1      -7.779  76.707 119.176  0.00  0.00     0.149 HD
ENDBRANCH   6  13
BRANCH   5  18
ATOM     18  N   LIG d   1      -9.721  75.650 116.697  0.00  0.00     0.381 N 
ATOM     19  H   LIG d   1      -9.764  75.417 115.725  0.00  0.00    -0.090 HD
ATOM     20  H   LIG d   1      -9.480  76.622 116.779  0.00  0.00    -0.090 HD
ATOM     21  H   LIG d   1     -10.605  75.483 117.126  0.00  0.00    -0.090 HD
ENDBRANCH   5  18
BRANCH   3  22
ATOM     22  C   LIG d   1      -7.572  71.373 116.854  0.00  0.00     0.382 C 
ATOM     23  O   LIG d   1      -6.743  70.756 116.142  0.00  0.00    -0.241 OA
ATOM     24  O   LIG d   1      -8.513  70.750 117.380  0.00  0.00    -0.241 OA
ENDBRANCH   3  22
TORSDOF 7
ENDMDL
MODEL 3
REMARK VINA RESULT:      -5.5      2.420      6.152
REMARK  7 active torsions:
REMARK  status: ('A' for Active; 'I' for Inactive)
REMARK    1  A    between atoms: C_2  and  C_3 
REMARK    2  A    between atoms: C_3  and  O_6 
REMARK    3  A    between atoms: C_3  and  C_4 
REMARK    4  A    between atoms: C_7  and  O_6 
REMARK    5  A    between atoms: C_9  and  C_10 
REMARK    6  A    between atoms: N_15  and  C_14 
REMARK    7  A    between atoms: N_20  and  C_19 
REMARK       I    between atoms: C_22  and  N_20 
ROOT
ATOM      1  C   LIG d   1      -7.633  76.225 117.624  0.00  0.00     0.161 C 
ATOM      2  C   LIG d   1      -8.878  76.734 118.032  0.00  0.00     0.016 C 
ATOM      3  C   LIG d   1      -9.132  78.113 118.218  0.00  0.00     0.038 C 
ATOM      4  C   LIG d   1      -8.195  79.094 117.860  0.00  0.00     0.028 C 
ATOM      5  C   LIG d   1      -6.752  78.605 117.923  0.00  0.00    -0.047 C 
ATOM      6  C   LIG d   1      -6.633  77.288 117.123  0.00  0.00     0.091 C 
ENDROOT
BRANCH   1   7
ATOM      7  O   LIG d   1      -7.826  75.207 116.623  0.00  0.00    -0.368 OA
BRANCH   7   8
ATOM      8  C   LIG d   1      -7.642  73.838 117.062  0.00  0.00     0.119 C 
BRANCH   8   9
ATOM      9  C   LIG d   1      -6.840  73.106 115.969  0.00  0.00     0.028 C 
ATOM     10  C   LIG d   1      -6.778  71.587 116.205  0.00  0.00     0.006 C 
ENDBRANCH   8   9
BRANCH   8  11
ATOM     11  C   LIG d   1      -8.979  73.096 117.149  0.00  0.00     0.028 C 
ATOM     12  C   LIG d   1      -9.359  72.719 118.590  0.00  0.00     0.006 C 
ENDBRANCH   8  11
ENDBRANCH   7   8
ENDBRANCH   1   7
BRANCH   6  13
ATOM     13  N   LIG d   1      -5.272  76.697 117.203  0.00  0.00    -0.311 N 
ATOM     14  C   LIG d   1      -4.532  76.412 116.132  0.00  0.00     0.210 C 
ATOM     15  C   LIG d   1      -3.166  75.790 116.437  0.00  0.00     0.109 C 
ATOM     16  O   LIG d   1      -4.865  76.646 114.960  0.00  0.00    -0.276 OA
ATOM     17  H   LIG d   1      -4.911  76.504 118.117  0.00  0.00     0.149 HD
ENDBRANCH   6  13
BRANCH   5  18
ATOM     18  N   LIG d   1      -5.893  79.682 117.395  0.00  0.00     0.381 N 
ATOM     19  H   LIG d   1      -4.940  79.380 117.383  0.00  0.00    -0.090 HD
ATOM     20  H   LIG d   1      -5.963  80.480 118.001  0.00  0.00    -0.090 HD
ATOM     21  H   LIG d   1      -6.183  79.928 116.474  0.00  0.00    -0.090 HD
ENDBRANCH   5  18
BRANCH   3  22
ATOM     22  C   LIG d   1     -10.320  78.519 118.804  0.00  0.00     0.382 C 
ATOM     23  O   LIG d   1     -11.287  77.723 118.881  0.00  0.00    -0.241 OA
ATOM     24  O   LIG d   1     -10.453  79.686 119.219  0.00  0.00    -0.241 OA
ENDBRANCH   3  22
TORSDOF 7
ENDMDL
MODEL 4
REMARK VINA RESULT:      -5.3      3.667      7.024
REMARK  7 active torsions:
REMARK  status: ('A' for Active; 'I' for Inactive)
REMARK    1  A    between atoms: C_2  and  C_3 
REMARK    2  A    between atoms: C_3  and  O_6 
REMARK    3  A    between atoms: C_3  and  C_4 
REMARK    4  A    between atoms: C_7  and  O_6 
REMARK    5  A    between atoms: C_9  and  C_10 
REMARK    6  A    between atoms: N_15  and  C_14 
REMARK    7  A    between atoms: N_20  and  C_19 
REMARK       I    between atoms: C_22  and  N_20 
ROOT
ATOM      1  C   LIG d   1      -3.516  75.473 116.683  0.00  0.00     0.161 C 
ATOM      2  C   LIG d   1      -4.249  74.376 117.168  0.00  0.00     0.016 C 
ATOM      3  C   LIG d   1      -5.347  73.809 116.481  0.00  0.00     0.038 C 
ATOM      4  C   LIG d   1      -5.695  74.207 115.182  0.00  0.00     0.028 C 
ATOM      5  C   LIG d   1      -5.303  75.646 114.864  0.00  0.00    -0.047 C 
ATOM      6  C   LIG d   1      -3.811  75.849 115.216  0.00  0.00     0.091 C 
ENDROOT
BRANCH   1   7
ATOM      7  O   LIG d   1      -2.106  75.238 116.866  0.00  0.00    -0.368 OA
BRANCH   7   8
ATOM      8  C   LIG d   1      -1.573  74.041 116.247  0.00  0.00     0.119 C 
BRANCH   8   9
ATOM      9  C   LIG d   1      -0.803  73.263 117.330  0.00  0.00     0.028 C 
ATOM     10  C   LIG d   1       0.069  74.180 118.204  0.00  0.00     0.006 C 
ENDBRANCH   8   9
BRANCH   8  11
ATOM     11  C   LIG d   1      -0.533  74.384 115.176  0.00  0.00     0.028 C 
ATOM     12  C   LIG d   1       0.129  73.137 114.568  0.00  0.00     0.006 C 
ENDBRANCH   8  11
ENDBRANCH   7   8
ENDBRANCH   1   7
BRANCH   6  13
ATOM     13  N   LIG d   1      -3.367  77.253 115.014  0.00  0.00    -0.311 N 
ATOM     14  C   LIG d   1      -2.801  77.689 113.890  0.00  0.00     0.210 C 
ATOM     15  C   LIG d   1      -2.400  79.167 113.899  0.00  0.00     0.109 C 
ATOM     16  O   LIG d   1      -2.621  76.999 112.875  0.00  0.00    -0.276 OA
ATOM     17  H   LIG d   1      -3.504  77.889 115.775  0.00  0.00     0.149 HD
ENDBRANCH   6  13
BRANCH   5  18
ATOM     18  N   LIG d   1      -5.598  75.884 113.438  0.00  0.00     0.381 N 
ATOM     19  H   LIG d   1      -6.342  76.547 113.353  0.00  0.00    -0.090 HD
ATOM     20  H   LIG d   1      -5.895  75.021 113.019  0.00  0.00    -0.090 HD
ATOM     21  H   LIG d   1      -4.785  76.225 112.974  0.00  0.00    -0.090 HD
ENDBRANCH   5  18
BRANCH   3  22
ATOM     22  C   LIG d   1      -6.135  72.858 117.112  0.00  0.00     0.382 C 
ATOM     23  O   LIG d   1      -6.656  71.933 116.444  0.00  0.00    -0.241 OA
ATOM     24  O   LIG d   1      -6.368  72.940 118.333  0.00  0.00    -0.241 OA
ENDBRANCH   3  22
TORSDOF 7
ENDMDL
MODEL 5
REMARK VINA RESULT:      -5.3      2.099      4.344
REMARK  7 active torsions:
REMARK  status: ('A' for Active; 'I' for Inactive)
REMARK    1  A    between atoms: C_2  and  C_3 
REMARK    2  A    between atoms: C_3  and  O_6 
REMARK    3  A    between atoms: C_3  and  C_4 
REMARK    4  A    between atoms: C_7  and  O_6 
REMARK    5  A    between atoms: C_9  and  C_10 
REMARK    6  A    between atoms: N_15  and  C_14 
REMARK    7  A    between atoms: N_20  and  C_19 
REMARK       I    between atoms: C_22  and  N_20 
ROOT
ATOM      1  C   LIG d   1      -7.462  74.914 116.892  0.00  0.00     0.161 C 
ATOM      2  C   LIG d   1      -6.688  74.762 115.730  0.00  0.00     0.016 C 
ATOM      3  C   LIG d   1      -5.756  75.726 115.284  0.00  0.00     0.038 C 
ATOM      4  C   LIG d   1      -5.423  76.849 116.057  0.00  0.00     0.028 C 
ATOM      5  C   LIG d   1      -6.544  77.297 116.988  0.00  0.00    -0.047 C 
ATOM      6  C   LIG d   1      -7.032  76.080 117.807  0.00  0.00     0.091 C 
ENDROOT
BRANCH   1   7
ATOM      7  O   LIG d   1      -7.481  73.677 117.632  0.00  0.00    -0.368 OA
BRANCH   7   8
ATOM      8  C   LIG d   1      -8.537  72.746 117.290  0.00  0.00     0.119 C 
BRANCH   8   9
ATOM      9  C   LIG d   1      -9.413  72.559 118.544  0.00  0.00     0.028 C 
ATOM     10  C   LIG d   1      -9.468  71.093 119.008  0.00  0.00     0.006 C 
ENDBRANCH   8   9
BRANCH   8  11
ATOM     11  C   LIG d   1      -7.974  71.357 116.977  0.00  0.00     0.028 C 
ATOM     12  C   LIG d   1      -6.642  71.411 116.213  0.00  0.00     0.006 C 
ENDBRANCH   8  11
ENDBRANCH   7   8
ENDBRANCH   1   7
BRANCH   6  13
ATOM     13  N   LIG d   1      -8.185  76.413 118.684  0.00  0.00    -0.311 N 
ATOM     14  C   LIG d   1      -9.432  76.546 118.236  0.00  0.00     0.210 C 
ATOM     15  C   LIG d   1     -10.468  76.911 119.304  0.00  0.00     0.109 C 
ATOM     16  O   LIG d   1      -9.785  76.364 117.060  0.00  0.00    -0.276 OA
ATOM     17  H   LIG d   1      -7.994  76.546 119.658  0.00  0.00     0.149 HD
ENDBRANCH   6  13
BRANCH   5  18
ATOM     18  N   LIG d   1      -6.014  78.386 117.831  0.00  0.00     0.381 N 
ATOM     19  H   LIG d   1      -6.729  79.068 117.991  0.00  0.00    -0.090 HD
ATOM     20  H   LIG d   1      -5.255  78.832 117.346  0.00  0.00    -0.090 HD
ATOM     21  H   LIG d   1      -5.694  78.020 118.700  0.00  0.00    -0.090 HD
ENDBRANCH   5  18
BRANCH   3  22
ATOM     22  C   LIG d   1      -5.175  75.593 114.032  0.00  0.00     0.382 C 
ATOM     23  O   LIG d   1      -5.085  76.588 113.273  0.00  0.00    -0.241 OA
ATOM     24  O   LIG d   1      -4.780  74.481 113.634  0.00  0.00    -0.241 OA
ENDBRANCH   3  22
TORSDOF 7
ENDMDL
MODEL 6
REMARK VINA RESULT:      -5.2     12.276     15.006
REMARK  7 active torsions:
REMARK  status: ('A' for Active; 'I' for Inactive)
REMARK    1  A    between atoms: C_2  and  C_3 
REMARK    2  A    between atoms: C_3  and  O_6 
REMARK    3  A    between atoms: C_3  and  C_4 
REMARK    4  A    between atoms: C_7  and  O_6 
REMARK    5  A    between atoms: C_9  and  C_10 
REMARK    6  A    between atoms: N_15  and  C_14 
REMARK    7  A    between atoms: N_20  and  C_19 
REMARK       I    between atoms: C_22  and  N_20 
ROOT
ATOM      1  C   LIG d   1       3.431  85.222 112.999  0.00  0.00     0.161 C 
ATOM      2  C   LIG d   1       4.140  86.387 113.338  0.00  0.00     0.016 C 
ATOM      3  C   LIG d   1       3.729  87.685 112.958  0.00  0.00     0.038 C 
ATOM      4  C   LIG d   1       2.492  87.920 112.339  0.00  0.00     0.028 C 
ATOM      5  C   LIG d   1       1.984  86.731 111.531  0.00  0.00    -0.047 C 
ATOM      6  C   LIG d   1       2.022  85.467 112.420  0.00  0.00     0.091 C 
ENDROOT
BRANCH   1   7
ATOM      7  O   LIG d   1       3.358  84.346 114.141  0.00  0.00    -0.368 OA
BRANCH   7   8
ATOM      8  C   LIG d   1       4.115  83.114 114.049  0.00  0.00     0.119 C 
BRANCH   8   9
ATOM      9  C   LIG d   1       4.657  83.010 112.611  0.00  0.00     0.028 C 
ATOM     10  C   LIG d   1       4.897  81.554 112.177  0.00  0.00     0.006 C 
ENDBRANCH   8   9
BRANCH   8  11
ATOM     11  C   LIG d   1       3.212  81.890 114.232  0.00  0.00     0.028 C 
ATOM     12  C   LIG d   1       3.295  81.294 115.646  0.00  0.00     0.006 C 
ENDBRANCH   8  11
ENDBRANCH   7   8
ENDBRANCH   1   7
BRANCH   6  13
ATOM     13  N   LIG d   1       1.620  84.242 111.681  0.00  0.00    -0.311 N 
ATOM     14  C   LIG d   1       0.669  83.410 112.103  0.00  0.00     0.210 C 
ATOM     15  C   LIG d   1       0.425  82.196 111.201  0.00  0.00     0.109 C 
ATOM     16  O   LIG d   1      -0.017  83.580 113.122  0.00  0.00    -0.276 OA
ATOM     17  H   LIG d   1       2.104  84.045 110.827  0.00  0.00     0.149 HD
ENDBRANCH   6  13
BRANCH   5  18
ATOM     18  N   LIG d   1       0.627  87.063 111.056  0.00  0.00     0.381 N 
ATOM     19  H   LIG d   1       0.178  86.238 110.711  0.00  0.00    -0.090 HD
ATOM     20  H   LIG d   1       0.699  87.722 110.301  0.00  0.00    -0.090 HD
ATOM     21  H   LIG d   1       0.092  87.455 111.799  0.00  0.00    -0.090 HD
ENDBRANCH   5  18
BRANCH   3  22
ATOM     22  C   LIG d   1       4.578  88.762 113.162  0.00  0.00     0.382 C 
ATOM     23  O   LIG d   1       5.808  88.569 113.319  0.00  0.00    -0.241 OA
ATOM     24  O   LIG d   1       4.124  89.920 113.236  0.00  0.00    -0.241 OA
ENDBRANCH   3  22
TORSDOF 7
ENDMDL
MODEL 7
REMARK VINA RESULT:      -5.2     19.213     21.481
REMARK  7 active torsions:
REMARK  status: ('A' for Active; 'I' for Inactive)
REMARK    1  A    between atoms: C_2  and  C_3 
REMARK    2  A    between atoms: C_3  and  O_6 
REMARK    3  A    between atoms: C_3  and  C_4 
REMARK    4  A    between atoms: C_7  and  O_6 
REMARK    5  A    between atoms: C_9  and  C_10 
REMARK    6  A    between atoms: N_15  and  C_14 
REMARK    7  A    between atoms: N_20  and  C_19 
REMARK       I    between atoms: C_22  and  N_20 
ROOT
ATOM      1  C   LIG d   1     -25.785  85.630 113.343  0.00  0.00     0.161 C 
ATOM      2  C   LIG d   1     -24.694  86.510 113.427  0.00  0.00     0.016 C 
ATOM      3  C   LIG d   1     -23.366  86.084 113.660  0.00  0.00     0.038 C 
ATOM      4  C   LIG d   1     -23.015  84.725 113.673  0.00  0.00     0.028 C 
ATOM      5  C   LIG d   1     -24.158  83.809 114.095  0.00  0.00    -0.047 C 
ATOM      6  C   LIG d   1     -25.406  84.137 113.244  0.00  0.00     0.091 C 
ENDROOT
BRANCH   1   7
ATOM      7  O   LIG d   1     -26.632  86.006 112.238  0.00  0.00    -0.368 OA
BRANCH   7   8
ATOM      8  C   LIG d   1     -27.361  87.249 112.389  0.00  0.00     0.119 C 
BRANCH   8   9
ATOM      9  C   LIG d   1     -28.858  86.932 112.209  0.00  0.00     0.028 C 
ATOM     10  C   LIG d   1     -29.109  85.890 111.106  0.00  0.00     0.006 C 
ENDBRANCH   8   9
BRANCH   8  11
ATOM     11  C   LIG d   1     -27.018  88.235 111.268  0.00  0.00     0.028 C 
ATOM     12  C   LIG d   1     -27.713  89.595 111.439  0.00  0.00     0.006 C 
ENDBRANCH   8  11
ENDBRANCH   7   8
ENDBRANCH   1   7
BRANCH   6  13
ATOM     13  N   LIG d   1     -26.595  83.343 113.650  0.00  0.00    -0.311 N 
ATOM     14  C   LIG d   1     -27.351  82.663 112.790  0.00  0.00     0.210 C 
ATOM     15  C   LIG d   1     -28.540  81.928 113.415  0.00  0.00     0.109 C 
ATOM     16  O   LIG d   1     -27.130  82.572 111.573  0.00  0.00    -0.276 OA
ATOM     17  H   LIG d   1     -26.827  83.336 114.624  0.00  0.00     0.149 HD
ENDBRANCH   6  13
BRANCH   5  18
ATOM     18  N   LIG d   1     -23.697  82.417 113.932  0.00  0.00     0.381 N 
ATOM     19  H   LIG d   1     -24.001  82.061 113.048  0.00  0.00    -0.090 HD
ATOM     20  H   LIG d   1     -24.104  81.852 114.656  0.00  0.00    -0.090 HD
ATOM     21  H   LIG d   1     -22.703  82.378 113.990  0.00  0.00    -0.090 HD
ENDBRANCH   5  18
BRANCH   3  22
ATOM     22  C   LIG d   1     -22.379  87.021 113.922  0.00  0.00     0.382 C 
ATOM     23  O   LIG d   1     -22.525  87.840 114.861  0.00  0.00    -0.241 OA
ATOM     24  O   LIG d   1     -21.364  87.088 113.203  0.00  0.00    -0.241 OA
ENDBRANCH   3  22
TORSDOF 7
ENDMDL
MODEL 8
REMARK VINA RESULT:      -5.2      2.241      5.087
REMARK  7 active torsions:
REMARK  status: ('A' for Active; 'I' for Inactive)
REMARK    1  A    between atoms: C_2  and  C_3 
REMARK    2  A    between atoms: C_3  and  O_6 
REMARK    3  A    between atoms: C_3  and  C_4 
REMARK    4  A    between atoms: C_7  and  O_6 
REMARK    5  A    between atoms: C_9  and  C_10 
REMARK    6  A    between atoms: N_15  and  C_14 
REMARK    7  A    between atoms: N_20  and  C_19 
REMARK       I    between atoms: C_22  and  N_20 
ROOT
ATOM      1  C   LIG d   1      -7.066  76.664 117.115  0.00  0.00     0.161 C 
ATOM      2  C   LIG d   1      -6.712  78.013 117.287  0.00  0.00     0.016 C 
ATOM      3  C   LIG d   1      -7.590  78.986 117.817  0.00  0.00     0.038 C 
ATOM      4  C   LIG d   1      -8.839  78.643 118.356  0.00  0.00     0.028 C 
ATOM      5  C   LIG d   1      -9.437  77.381 117.743  0.00  0.00    -0.047 C 
ATOM      6  C   LIG d   1      -8.385  76.249 117.800  0.00  0.00     0.091 C 
ENDROOT
BRANCH   1   7
ATOM      7  O   LIG d   1      -5.986  75.816 117.554  0.00  0.00    -0.368 OA
BRANCH   7   8
ATOM      8  C   LIG d   1      -5.046  75.401 116.532  0.00  0.00     0.119 C 
BRANCH   8   9
ATOM      9  C   LIG d   1      -5.864  74.890 115.331  0.00  0.00     0.028 C 
ATOM     10  C   LIG d   1      -5.320  75.405 113.988  0.00  0.00     0.006 C 
ENDBRANCH   8   9
BRANCH   8  11
ATOM     11  C   LIG d   1      -4.213  74.202 116.995  0.00  0.00     0.028 C 
ATOM     12  C   LIG d   1      -2.707  74.395 116.755  0.00  0.00     0.006 C 
ENDBRANCH   8  11
ENDBRANCH   7   8
ENDBRANCH   1   7
BRANCH   6  13
ATOM     13  N   LIG d   1      -8.859  75.002 117.145  0.00  0.00    -0.311 N 
ATOM     14  C   LIG d   1      -8.735  73.794 117.692  0.00  0.00     0.210 C 
ATOM     15  C   LIG d   1      -9.271  72.640 116.840  0.00  0.00     0.109 C 
ATOM     16  O   LIG d   1      -8.260  73.572 118.816  0.00  0.00    -0.276 OA
ATOM     17  H   LIG d   1      -9.285  75.094 116.244  0.00  0.00     0.149 HD
ENDBRANCH   6  13
BRANCH   5  18
ATOM     18  N   LIG d   1     -10.669  77.063 118.490  0.00  0.00     0.381 N 
ATOM     19  H   LIG d   1     -10.571  76.176 118.942  0.00  0.00    -0.090 HD
ATOM     20  H   LIG d   1     -11.435  77.005 117.843  0.00  0.00    -0.090 HD
ATOM     21  H   LIG d   1     -10.849  77.771 119.167  0.00  0.00    -0.090 HD
ENDBRANCH   5  18
BRANCH   3  22
ATOM     22  C   LIG d   1      -7.236  80.326 117.776  0.00  0.00     0.382 C 
ATOM     23  O   LIG d   1      -6.177  80.712 118.327  0.00  0.00    -0.241 OA
ATOM     24  O   LIG d   1      -7.984  81.160 117.232  0.00  0.00    -0.241 OA
ENDBRANCH   3  22
TORSDOF 7
ENDMDL
MODEL 9
REMARK VINA RESULT:      -5.1      2.534      5.864
REMARK  7 active torsions:
REMARK  status: ('A' for Active; 'I' for Inactive)
REMARK    1  A    between atoms: C_2  and  C_3 
REMARK    2  A    between atoms: C_3  and  O_6 
REMARK    3  A    between atoms: C_3  and  C_4 
REMARK    4  A    between atoms: C_7  and  O_6 
REMARK    5  A    between atoms: C_9  and  C_10 
REMARK    6  A    between atoms: N_15  and  C_14 
REMARK    7  A    between atoms: N_20  and  C_19 
REMARK       I    between atoms: C_22  and  N_20 
ROOT
ATOM      1  C   LIG d   1      -7.346  75.779 118.715  0.00  0.00     0.161 C 
ATOM      2  C   LIG d   1      -8.658  76.279 118.657  0.00  0.00     0.016 C 
ATOM      3  C   LIG d   1      -8.976  77.579 118.201  0.00  0.00     0.038 C 
ATOM      4  C   LIG d   1      -8.011  78.420 117.627  0.00  0.00     0.028 C 
ATOM      5  C   LIG d   1      -6.596  78.150 118.129  0.00  0.00    -0.047 C 
ATOM      6  C   LIG d   1      -6.293  76.641 117.988  0.00  0.00     0.091 C 
ENDROOT
BRANCH   1   7
ATOM      7  O   LIG d   1      -7.317  74.426 118.217  0.00  0.00    -0.368 OA
BRANCH   7   8
ATOM      8  C   LIG d   1      -7.749  74.242 116.846  0.00  0.00     0.119 C 
BRANCH   8   9
ATOM      9  C   LIG d   1      -9.025  73.380 116.875  0.00  0.00     0.028 C 
ATOM     10  C   LIG d   1      -9.186  72.613 118.199  0.00  0.00     0.006 C 
ENDBRANCH   8   9
BRANCH   8  11
ATOM     11  C   LIG d   1      -6.728  73.428 116.045  0.00  0.00     0.028 C 
ATOM     12  C   LIG d   1      -5.826  74.306 115.163  0.00  0.00     0.006 C 
ENDBRANCH   8  11
ENDBRANCH   7   8
ENDBRANCH   1   7
BRANCH   6  13
ATOM     13  N   LIG d   1      -4.960  76.277 118.534  0.00  0.00    -0.311 N 
ATOM     14  C   LIG d   1      -3.838  76.313 117.816  0.00  0.00     0.210 C 
ATOM     15  C   LIG d   1      -2.576  75.879 118.567  0.00  0.00     0.109 C 
ATOM     16  O   LIG d   1      -3.765  76.694 116.638  0.00  0.00    -0.276 OA
ATOM     17  H   LIG d   1      -4.923  75.986 119.492  0.00  0.00     0.149 HD
ENDBRANCH   6  13
BRANCH   5  18
ATOM     18  N   LIG d   1      -5.677  79.000 117.348  0.00  0.00     0.381 N 
ATOM     19  H   LIG d   1      -4.741  78.658 117.439  0.00  0.00    -0.090 HD
ATOM     20  H   LIG d   1      -5.708  79.935 117.715  0.00  0.00    -0.090 HD
ATOM     21  H   LIG d   1      -5.946  79.002 116.389  0.00  0.00    -0.090 HD
ENDBRANCH   5  18
BRANCH   3  22
ATOM     22  C   LIG d   1     -10.265  78.065 118.356  0.00  0.00     0.382 C 
ATOM     23  O   LIG d   1     -11.239  77.275 118.339  0.00  0.00    -0.241 OA
ATOM     24  O   LIG d   1     -10.470  79.289 118.467  0.00  0.00    -0.241 OA
ENDBRANCH   3  22
TORSDOF 7
ENDMDL
