MODEL 1
REMARK VINA RESULT:      -5.1      0.000      0.000
REMARK  7 active torsions:
REMARK  status: ('A' for Active; 'I' for Inactive)
REMARK    1  A    between atoms: C_2  and  C_3 
REMARK    2  A    between atoms: C_3  and  O_6 
REMARK    3  A    between atoms: C_3  and  C_4 
REMARK    4  A    between atoms: C_7  and  O_6 
REMARK    5  A    between atoms: C_9  and  C_10 
REMARK    6  A    between atoms: N_15  and  C_14 
REMARK    7  A    between atoms: N_20  and  C_19 
REMARK       I    between atoms: C_22  and  N_20 
ROOT
ATOM      1  C   LIG d   1       2.798  86.700 114.611  0.00  0.00     0.161 C 
ATOM      2  C   LIG d   1       3.067  88.045 114.312  0.00  0.00     0.016 C 
ATOM      3  C   LIG d   1       4.187  88.746 114.817  0.00  0.00     0.038 C 
ATOM      4  C   LIG d   1       5.202  88.100 115.539  0.00  0.00     0.028 C 
ATOM      5  C   LIG d   1       4.718  86.864 116.289  0.00  0.00    -0.047 C 
ATOM      6  C   LIG d   1       3.953  85.948 115.307  0.00  0.00     0.091 C 
ENDROOT
BRANCH   1   7
ATOM      7  O   LIG d   1       2.397  86.004 113.415  0.00  0.00    -0.368 OA
BRANCH   7   8
ATOM      8  C   LIG d   1       2.840  86.581 112.162  0.00  0.00     0.119 C 
BRANCH   8   9
ATOM      9  C   LIG d   1       1.597  86.766 111.271  0.00  0.00     0.028 C 
ATOM     10  C   LIG d   1       0.289  86.454 112.017  0.00  0.00     0.006 C 
ENDBRANCH   8   9
BRANCH   8  11
ATOM     11  C   LIG d   1       3.749  85.617 111.395  0.00  0.00     0.028 C 
ATOM     12  C   LIG d   1       3.835  84.230 112.051  0.00  0.00     0.006 C 
ENDBRANCH   8  11
ENDBRANCH   7   8
ENDBRANCH   1   7
BRANCH   6  13
ATOM     13  N   LIG d   1       3.373  84.756 115.978  0.00  0.00    -0.311 N 
ATOM     14  C   LIG d   1       4.021  83.599 116.105  0.00  0.00     0.210 C 
ATOM     15  C   LIG d   1       3.234  82.491 116.812  0.00  0.00     0.109 C 
ATOM     16  O   LIG d   1       5.184  83.394 115.726  0.00  0.00    -0.276 OA
ATOM     17  H   LIG d   1       2.445  84.843 116.342  0.00  0.00     0.149 HD
ENDBRANCH   6  13
BRANCH   5  18
ATOM     18  N   LIG d   1       5.901  86.213 116.884  0.00  0.00     0.381 N 
ATOM     19  H   LIG d   1       6.453  85.790 116.165  0.00  0.00    -0.090 HD
ATOM     20  H   LIG d   1       5.593  85.490 117.511  0.00  0.00    -0.090 HD
ATOM     21  H   LIG d   1       6.446  86.883 117.380  0.00  0.00    -0.090 HD
ENDBRANCH   5  18
BRANCH   3  22
ATOM     22  C   LIG d   1       4.279  90.117 114.634  0.00  0.00     0.382 C 
ATOM     23  O   LIG d   1       4.460  90.871 115.621  0.00  0.00    -0.241 OA
ATOM     24  O   LIG d   1       4.139  90.615 113.501  0.00  0.00    -0.241 OA
ENDBRANCH   3  22
TORSDOF 7
ENDMDL
MODEL 2
REMARK VINA RESULT:      -5.0     10.408     12.348
REMARK  7 active torsions:
REMARK  status: ('A' for Active; 'I' for Inactive)
REMARK    1  A    between atoms: C_2  and  C_3 
REMARK    2  A    between atoms: C_3  and  O_6 
REMARK    3  A    between atoms: C_3  and  C_4 
REMARK    4  A    between atoms: C_7  and  O_6 
REMARK    5  A    between atoms: C_9  and  C_10 
REMARK    6  A    between atoms: N_15  and  C_14 
REMARK    7  A    between atoms: N_20  and  C_19 
REMARK       I    between atoms: C_22  and  N_20 
ROOT
ATOM      1  C   LIG d   1      -2.206  77.178 116.688  0.00  0.00     0.161 C 
ATOM      2  C   LIG d   1      -2.686  78.013 115.666  0.00  0.00     0.016 C 
ATOM      3  C   LIG d   1      -2.197  77.980 114.339  0.00  0.00     0.038 C 
ATOM      4  C   LIG d   1      -1.294  76.997 113.907  0.00  0.00     0.028 C 
ATOM      5  C   LIG d   1      -0.407  76.456 115.023  0.00  0.00    -0.047 C 
ATOM      6  C   LIG d   1      -1.300  76.024 116.209  0.00  0.00     0.091 C 
ENDROOT
BRANCH   1   7
ATOM      7  O   LIG d   1      -3.311  76.662 117.456  0.00  0.00    -0.368 OA
BRANCH   7   8
ATOM      8  C   LIG d   1      -4.571  76.536 116.754  0.00  0.00     0.119 C 
BRANCH   8   9
ATOM      9  C   LIG d   1      -5.697  76.802 117.771  0.00  0.00     0.028 C 
ATOM     10  C   LIG d   1      -5.228  76.626 119.225  0.00  0.00     0.006 C 
ENDBRANCH   8   9
BRANCH   8  11
ATOM     11  C   LIG d   1      -4.797  75.101 116.266  0.00  0.00     0.028 C 
ATOM     12  C   LIG d   1      -5.419  75.040 114.862  0.00  0.00     0.006 C 
ENDBRANCH   8  11
ENDBRANCH   7   8
ENDBRANCH   1   7
BRANCH   6  13
ATOM     13  N   LIG d   1      -0.506  75.561 117.377  0.00  0.00    -0.311 N 
ATOM     14  C   LIG d   1      -0.824  74.488 118.100  0.00  0.00     0.210 C 
ATOM     15  C   LIG d   1       0.117  74.198 119.273  0.00  0.00     0.109 C 
ATOM     16  O   LIG d   1      -1.777  73.732 117.862  0.00  0.00    -0.276 OA
ATOM     17  H   LIG d   1       0.302  76.099 117.622  0.00  0.00     0.149 HD
ENDBRANCH   6  13
BRANCH   5  18
ATOM     18  N   LIG d   1       0.387  75.345 114.463  0.00  0.00     0.381 N 
ATOM     19  H   LIG d   1      -0.112  74.485 114.571  0.00  0.00    -0.090 HD
ATOM     20  H   LIG d   1       1.251  75.275 114.971  0.00  0.00    -0.090 HD
ATOM     21  H   LIG d   1       0.572  75.512 113.499  0.00  0.00    -0.090 HD
ENDBRANCH   5  18
BRANCH   3  22
ATOM     22  C   LIG d   1      -2.582  78.962 113.440  0.00  0.00     0.382 C 
ATOM     23  O   LIG d   1      -3.197  79.977 113.846  0.00  0.00    -0.241 OA
ATOM     24  O   LIG d   1      -2.361  78.824 112.222  0.00  0.00    -0.241 OA
ENDBRANCH   3  22
TORSDOF 7
ENDMDL
MODEL 3
REMARK VINA RESULT:      -4.9     12.083     14.480
REMARK  7 active torsions:
REMARK  status: ('A' for Active; 'I' for Inactive)
REMARK    1  A    between atoms: C_2  and  C_3 
REMARK    2  A    between atoms: C_3  and  O_6 
REMARK    3  A    between atoms: C_3  and  C_4 
REMARK    4  A    between atoms: C_7  and  O_6 
REMARK    5  A    between atoms: C_9  and  C_10 
REMARK    6  A    between atoms: N_15  and  C_14 
REMARK    7  A    between atoms: N_20  and  C_19 
REMARK       I    between atoms: C_22  and  N_20 
ROOT
ATOM      1  C   LIG d   1      -6.528  77.868 117.156  0.00  0.00     0.161 C 
ATOM      2  C   LIG d   1      -6.538  79.270 117.236  0.00  0.00     0.016 C 
ATOM      3  C   LIG d   1      -7.628  80.013 117.746  0.00  0.00     0.038 C 
ATOM      4  C   LIG d   1      -8.728  79.392 118.355  0.00  0.00     0.028 C 
ATOM      5  C   LIG d   1      -8.988  77.979 117.841  0.00  0.00    -0.047 C 
ATOM      6  C   LIG d   1      -7.674  77.168 117.918  0.00  0.00     0.091 C 
ENDROOT
BRANCH   1   7
ATOM      7  O   LIG d   1      -5.252  77.362 117.596  0.00  0.00    -0.368 OA
BRANCH   7   8
ATOM      8  C   LIG d   1      -4.319  76.992 116.551  0.00  0.00     0.119 C 
BRANCH   8   9
ATOM      9  C   LIG d   1      -4.434  75.469 116.346  0.00  0.00     0.028 C 
ATOM     10  C   LIG d   1      -5.131  75.106 115.024  0.00  0.00     0.006 C 
ENDBRANCH   8   9
BRANCH   8  11
ATOM     11  C   LIG d   1      -2.871  77.235 116.987  0.00  0.00     0.028 C 
ATOM     12  C   LIG d   1      -2.262  78.497 116.355  0.00  0.00     0.006 C 
ENDBRANCH   8  11
ENDBRANCH   7   8
ENDBRANCH   1   7
BRANCH   6  13
ATOM     13  N   LIG d   1      -7.819  75.800 117.355  0.00  0.00    -0.311 N 
ATOM     14  C   LIG d   1      -8.133  74.735 118.090  0.00  0.00     0.210 C 
ATOM     15  C   LIG d   1      -8.212  73.416 117.316  0.00  0.00     0.109 C 
ATOM     16  O   LIG d   1      -8.386  74.763 119.304  0.00  0.00    -0.276 OA
ATOM     17  H   LIG d   1      -7.661  75.692 116.372  0.00  0.00     0.149 HD
ENDBRANCH   6  13
BRANCH   5  18
ATOM     18  N   LIG d   1     -10.073  77.401 118.656  0.00  0.00     0.381 N 
ATOM     19  H   LIG d   1     -10.347  78.051 119.365  0.00  0.00    -0.090 HD
ATOM     20  H   LIG d   1      -9.733  76.568 119.105  0.00  0.00    -0.090 HD
ATOM     21  H   LIG d   1     -10.853  77.180 118.077  0.00  0.00    -0.090 HD
ENDBRANCH   5  18
BRANCH   3  22
ATOM     22  C   LIG d   1      -7.641  81.393 117.613  0.00  0.00     0.382 C 
ATOM     23  O   LIG d   1      -7.707  81.913 116.473  0.00  0.00    -0.241 OA
ATOM     24  O   LIG d   1      -7.543  82.125 118.617  0.00  0.00    -0.241 OA
ENDBRANCH   3  22
TORSDOF 7
ENDMDL
MODEL 4
REMARK VINA RESULT:      -4.8      2.928      4.822
REMARK  7 active torsions:
REMARK  status: ('A' for Active; 'I' for Inactive)
REMARK    1  A    between atoms: C_2  and  C_3 
REMARK    2  A    between atoms: C_3  and  O_6 
REMARK    3  A    between atoms: C_3  and  C_4 
REMARK    4  A    between atoms: C_7  and  O_6 
REMARK    5  A    between atoms: C_9  and  C_10 
REMARK    6  A    between atoms: N_15  and  C_14 
REMARK    7  A    between atoms: N_20  and  C_19 
REMARK       I    between atoms: C_22  and  N_20 
ROOT
ATOM      1  C   LIG d   1       1.797  87.012 114.873  0.00  0.00     0.161 C 
ATOM      2  C   LIG d   1       0.723  86.615 115.688  0.00  0.00     0.016 C 
ATOM      3  C   LIG d   1       0.544  87.069 117.015  0.00  0.00     0.038 C 
ATOM      4  C   LIG d   1       1.350  88.075 117.570  0.00  0.00     0.028 C 
ATOM      5  C   LIG d   1       2.747  88.135 116.963  0.00  0.00    -0.047 C 
ATOM      6  C   LIG d   1       2.623  88.193 115.423  0.00  0.00     0.091 C 
ENDROOT
BRANCH   1   7
ATOM      7  O   LIG d   1       1.320  87.309 113.546  0.00  0.00    -0.368 OA
BRANCH   7   8
ATOM      8  C   LIG d   1       1.239  86.187 112.632  0.00  0.00     0.119 C 
BRANCH   8   9
ATOM      9  C   LIG d   1       2.118  86.520 111.412  0.00  0.00     0.028 C 
ATOM     10  C   LIG d   1       3.588  86.117 111.620  0.00  0.00     0.006 C 
ENDBRANCH   8   9
BRANCH   8  11
ATOM     11  C   LIG d   1      -0.179  86.022 112.077  0.00  0.00     0.028 C 
ATOM     12  C   LIG d   1      -0.661  84.563 112.097  0.00  0.00     0.006 C 
ENDBRANCH   8  11
ENDBRANCH   7   8
ENDBRANCH   1   7
BRANCH   6  13
ATOM     13  N   LIG d   1       3.947  88.170 114.747  0.00  0.00    -0.311 N 
ATOM     14  C   LIG d   1       4.392  89.158 113.972  0.00  0.00     0.210 C 
ATOM     15  C   LIG d   1       5.774  88.923 113.355  0.00  0.00     0.109 C 
ATOM     16  O   LIG d   1       3.787  90.220 113.763  0.00  0.00    -0.276 OA
ATOM     17  H   LIG d   1       4.516  87.358 114.887  0.00  0.00     0.149 HD
ENDBRANCH   6  13
BRANCH   5  18
ATOM     18  N   LIG d   1       3.430  89.312 117.533  0.00  0.00     0.381 N 
ATOM     19  H   LIG d   1       3.129  90.140 117.060  0.00  0.00    -0.090 HD
ATOM     20  H   LIG d   1       4.421  89.211 117.394  0.00  0.00    -0.090 HD
ATOM     21  H   LIG d   1       3.229  89.384 118.506  0.00  0.00    -0.090 HD
ENDBRANCH   5  18
BRANCH   3  22
ATOM     22  C   LIG d   1      -0.426  86.486 117.815  0.00  0.00     0.382 C 
ATOM     23  O   LIG d   1      -0.292  85.299 118.199  0.00  0.00    -0.241 OA
ATOM     24  O   LIG d   1      -1.455  87.117 118.122  0.00  0.00    -0.241 OA
ENDBRANCH   3  22
TORSDOF 7
ENDMDL
MODEL 5
REMARK VINA RESULT:      -4.6     26.691     29.150
REMARK  7 active torsions:
REMARK  status: ('A' for Active; 'I' for Inactive)
REMARK    1  A    between atoms: C_2  and  C_3 
REMARK    2  A    between atoms: C_3  and  O_6 
REMARK    3  A    between atoms: C_3  and  C_4 
REMARK    4  A    between atoms: C_7  and  O_6 
REMARK    5  A    between atoms: C_9  and  C_10 
REMARK    6  A    between atoms: N_15  and  C_14 
REMARK    7  A    between atoms: N_20  and  C_19 
REMARK       I    between atoms: C_22  and  N_20 
ROOT
ATOM      1  C   LIG d   1     -16.890  65.876 114.075  0.00  0.00     0.161 C 
ATOM      2  C   LIG d   1     -16.302  66.739 113.136  0.00  0.00     0.016 C 
ATOM      3  C   LIG d   1     -15.332  67.711 113.473  0.00  0.00     0.038 C 
ATOM      4  C   LIG d   1     -14.769  67.783 114.756  0.00  0.00     0.028 C 
ATOM      5  C   LIG d   1     -15.695  67.269 115.853  0.00  0.00    -0.047 C 
ATOM      6  C   LIG d   1     -16.208  65.865 115.460  0.00  0.00     0.091 C 
ENDROOT
BRANCH   1   7
ATOM      7  O   LIG d   1     -16.955  64.540 113.538  0.00  0.00    -0.368 OA
BRANCH   7   8
ATOM      8  C   LIG d   1     -18.274  64.061 113.177  0.00  0.00     0.119 C 
BRANCH   8   9
ATOM      9  C   LIG d   1     -19.285  65.158 113.561  0.00  0.00     0.028 C 
ATOM     10  C   LIG d   1     -20.358  64.651 114.540  0.00  0.00     0.006 C 
ENDBRANCH   8   9
BRANCH   8  11
ATOM     11  C   LIG d   1     -18.668  62.836 114.008  0.00  0.00     0.028 C 
ATOM     12  C   LIG d   1     -17.465  62.164 114.688  0.00  0.00     0.006 C 
ENDBRANCH   8  11
ENDBRANCH   7   8
ENDBRANCH   1   7
BRANCH   6  13
ATOM     13  N   LIG d   1     -17.187  65.324 116.439  0.00  0.00    -0.311 N 
ATOM     14  C   LIG d   1     -16.851  64.508 117.436  0.00  0.00     0.210 C 
ATOM     15  C   LIG d   1     -18.017  64.051 118.319  0.00  0.00     0.109 C 
ATOM     16  O   LIG d   1     -15.693  64.145 117.694  0.00  0.00    -0.276 OA
ATOM     17  H   LIG d   1     -18.144  65.593 116.323  0.00  0.00     0.149 HD
ENDBRANCH   6  13
BRANCH   5  18
ATOM     18  N   LIG d   1     -14.934  67.273 117.117  0.00  0.00     0.381 N 
ATOM     19  H   LIG d   1     -15.477  67.706 117.837  0.00  0.00    -0.090 HD
ATOM     20  H   LIG d   1     -14.094  67.810 116.989  0.00  0.00    -0.090 HD
ATOM     21  H   LIG d   1     -14.704  66.340 117.379  0.00  0.00    -0.090 HD
ENDBRANCH   5  18
BRANCH   3  22
ATOM     22  C   LIG d   1     -14.943  68.650 112.530  0.00  0.00     0.382 C 
ATOM     23  O   LIG d   1     -13.844  69.243 112.651  0.00  0.00    -0.241 OA
ATOM     24  O   LIG d   1     -15.698  68.943 111.583  0.00  0.00    -0.241 OA
ENDBRANCH   3  22
TORSDOF 7
ENDMDL
MODEL 6
REMARK VINA RESULT:      -4.5      2.826      5.997
REMARK  7 active torsions:
REMARK  status: ('A' for Active; 'I' for Inactive)
REMARK    1  A    between atoms: C_2  and  C_3 
REMARK    2  A    between atoms: C_3  and  O_6 
REMARK    3  A    between atoms: C_3  and  C_4 
REMARK    4  A    between atoms: C_7  and  O_6 
REMARK    5  A    between atoms: C_9  and  C_10 
REMARK    6  A    between atoms: N_15  and  C_14 
REMARK    7  A    between atoms: N_20  and  C_19 
REMARK       I    between atoms: C_22  and  N_20 
ROOT
ATOM      1  C   LIG d   1       4.632  90.361 115.210  0.00  0.00     0.161 C 
ATOM      2  C   LIG d   1       3.701  89.667 114.419  0.00  0.00     0.016 C 
ATOM      3  C   LIG d   1       3.667  88.258 114.312  0.00  0.00     0.038 C 
ATOM      4  C   LIG d   1       4.473  87.434 115.112  0.00  0.00     0.028 C 
ATOM      5  C   LIG d   1       5.773  88.100 115.550  0.00  0.00    -0.047 C 
ATOM      6  C   LIG d   1       5.447  89.475 116.176  0.00  0.00     0.091 C 
ENDROOT
BRANCH   1   7
ATOM      7  O   LIG d   1       3.968  91.415 115.935  0.00  0.00    -0.368 OA
BRANCH   7   8
ATOM      8  C   LIG d   1       3.388  91.044 117.209  0.00  0.00     0.119 C 
BRANCH   8   9
ATOM      9  C   LIG d   1       1.856  91.069 117.046  0.00  0.00     0.028 C 
ATOM     10  C   LIG d   1       1.226  89.676 117.207  0.00  0.00     0.006 C 
ENDBRANCH   8   9
BRANCH   8  11
ATOM     11  C   LIG d   1       3.698  92.087 118.287  0.00  0.00     0.028 C 
ATOM     12  C   LIG d   1       4.816  93.057 117.874  0.00  0.00     0.006 C 
ENDBRANCH   8  11
ENDBRANCH   7   8
ENDBRANCH   1   7
BRANCH   6  13
ATOM     13  N   LIG d   1       6.669  90.230 116.555  0.00  0.00    -0.311 N 
ATOM     14  C   LIG d   1       7.180  90.229 117.785  0.00  0.00     0.210 C 
ATOM     15  C   LIG d   1       8.434  91.091 117.966  0.00  0.00     0.109 C 
ATOM     16  O   LIG d   1       6.732  89.571 118.736  0.00  0.00    -0.276 OA
ATOM     17  H   LIG d   1       7.115  90.767 115.836  0.00  0.00     0.149 HD
ENDBRANCH   6  13
BRANCH   5  18
ATOM     18  N   LIG d   1       6.449  87.184 116.489  0.00  0.00     0.381 N 
ATOM     19  H   LIG d   1       7.079  87.699 117.070  0.00  0.00    -0.090 HD
ATOM     20  H   LIG d   1       6.982  86.514 115.962  0.00  0.00    -0.090 HD
ATOM     21  H   LIG d   1       5.775  86.714 117.051  0.00  0.00    -0.090 HD
ENDBRANCH   5  18
BRANCH   3  22
ATOM     22  C   LIG d   1       2.848  87.659 113.367  0.00  0.00     0.382 C 
ATOM     23  O   LIG d   1       3.222  87.582 112.172  0.00  0.00    -0.241 OA
ATOM     24  O   LIG d   1       1.721  87.236 113.685  0.00  0.00    -0.241 OA
ENDBRANCH   3  22
TORSDOF 7
ENDMDL
MODEL 7
REMARK VINA RESULT:      -4.4     12.832     15.042
REMARK  7 active torsions:
REMARK  status: ('A' for Active; 'I' for Inactive)
REMARK    1  A    between atoms: C_2  and  C_3 
REMARK    2  A    between atoms: C_3  and  O_6 
REMARK    3  A    between atoms: C_3  and  C_4 
REMARK    4  A    between atoms: C_7  and  O_6 
REMARK    5  A    between atoms: C_9  and  C_10 
REMARK    6  A    between atoms: N_15  and  C_14 
REMARK    7  A    between atoms: N_20  and  C_19 
REMARK       I    between atoms: C_22  and  N_20 
ROOT
ATOM      1  C   LIG d   1      -5.013  75.434 117.160  0.00  0.00     0.161 C 
ATOM      2  C   LIG d   1      -4.002  74.835 117.930  0.00  0.00     0.016 C 
ATOM      3  C   LIG d   1      -2.622  75.036 117.694  0.00  0.00     0.038 C 
ATOM      4  C   LIG d   1      -2.158  75.974 116.761  0.00  0.00     0.028 C 
ATOM      5  C   LIG d   1      -3.136  76.226 115.617  0.00  0.00    -0.047 C 
ATOM      6  C   LIG d   1      -4.527  76.547 116.208  0.00  0.00     0.091 C 
ENDROOT
BRANCH   1   7
ATOM      7  O   LIG d   1      -6.055  75.931 118.022  0.00  0.00    -0.368 OA
BRANCH   7   8
ATOM      8  C   LIG d   1      -7.358  75.317 117.867  0.00  0.00     0.119 C 
BRANCH   8   9
ATOM      9  C   LIG d   1      -7.169  74.036 117.031  0.00  0.00     0.028 C 
ATOM     10  C   LIG d   1      -8.178  72.937 117.406  0.00  0.00     0.006 C 
ENDBRANCH   8   9
BRANCH   8  11
ATOM     11  C   LIG d   1      -8.298  76.203 117.045  0.00  0.00     0.028 C 
ATOM     12  C   LIG d   1      -9.352  76.915 117.908  0.00  0.00     0.006 C 
ENDBRANCH   8  11
ENDBRANCH   7   8
ENDBRANCH   1   7
BRANCH   6  13
ATOM     13  N   LIG d   1      -5.563  76.724 115.157  0.00  0.00    -0.311 N 
ATOM     14  C   LIG d   1      -5.808  75.819 114.210  0.00  0.00     0.210 C 
ATOM     15  C   LIG d   1      -6.903  76.208 113.213  0.00  0.00     0.109 C 
ATOM     16  O   LIG d   1      -5.245  74.717 114.122  0.00  0.00    -0.276 OA
ATOM     17  H   LIG d   1      -6.089  77.576 115.172  0.00  0.00     0.149 HD
ENDBRANCH   6  13
BRANCH   5  18
ATOM     18  N   LIG d   1      -2.589  77.322 114.796  0.00  0.00     0.381 N 
ATOM     19  H   LIG d   1      -2.639  78.183 115.303  0.00  0.00    -0.090 HD
ATOM     20  H   LIG d   1      -3.145  77.413 113.964  0.00  0.00    -0.090 HD
ATOM     21  H   LIG d   1      -1.643  77.126 114.552  0.00  0.00    -0.090 HD
ENDBRANCH   5  18
BRANCH   3  22
ATOM     22  C   LIG d   1      -1.690  74.263 118.370  0.00  0.00     0.382 C 
ATOM     23  O   LIG d   1      -2.054  73.221 118.967  0.00  0.00    -0.241 OA
ATOM     24  O   LIG d   1      -0.498  74.618 118.427  0.00  0.00    -0.241 OA
ENDBRANCH   3  22
TORSDOF 7
ENDMDL
MODEL 8
REMARK VINA RESULT:      -4.4     11.761     14.591
REMARK  7 active torsions:
REMARK  status: ('A' for Active; 'I' for Inactive)
REMARK    1  A    between atoms: C_2  and  C_3 
REMARK    2  A    between atoms: C_3  and  O_6 
REMARK    3  A    between atoms: C_3  and  C_4 
REMARK    4  A    between atoms: C_7  and  O_6 
REMARK    5  A    between atoms: C_9  and  C_10 
REMARK    6  A    between atoms: N_15  and  C_14 
REMARK    7  A    between atoms: N_20  and  C_19 
REMARK       I    between atoms: C_22  and  N_20 
ROOT
ATOM      1  C   LIG d   1      -5.064  76.006 118.167  0.00  0.00     0.161 C 
ATOM      2  C   LIG d   1      -4.043  76.942 117.936  0.00  0.00     0.016 C 
ATOM      3  C   LIG d   1      -3.496  77.197 116.657  0.00  0.00     0.038 C 
ATOM      4  C   LIG d   1      -4.041  76.637 115.492  0.00  0.00     0.028 C 
ATOM      5  C   LIG d   1      -4.741  75.303 115.732  0.00  0.00    -0.047 C 
ATOM      6  C   LIG d   1      -5.747  75.466 116.894  0.00  0.00     0.091 C 
ENDROOT
BRANCH   1   7
ATOM      7  O   LIG d   1      -6.044  76.564 119.064  0.00  0.00    -0.368 OA
BRANCH   7   8
ATOM      8  C   LIG d   1      -7.048  77.416 118.461  0.00  0.00     0.119 C 
BRANCH   8   9
ATOM      9  C   LIG d   1      -6.661  78.876 118.768  0.00  0.00     0.028 C 
ATOM     10  C   LIG d   1      -6.465  79.712 117.492  0.00  0.00     0.006 C 
ENDBRANCH   8   9
BRANCH   8  11
ATOM     11  C   LIG d   1      -8.418  77.213 119.115  0.00  0.00     0.028 C 
ATOM     12  C   LIG d   1      -9.576  77.722 118.242  0.00  0.00     0.006 C 
ENDBRANCH   8  11
ENDBRANCH   7   8
ENDBRANCH   1   7
BRANCH   6  13
ATOM     13  N   LIG d   1      -6.415  74.187 117.249  0.00  0.00    -0.311 N 
ATOM     14  C   LIG d   1      -7.722  73.978 117.109  0.00  0.00     0.210 C 
ATOM     15  C   LIG d   1      -8.208  72.595 117.554  0.00  0.00     0.109 C 
ATOM     16  O   LIG d   1      -8.521  74.796 116.628  0.00  0.00    -0.276 OA
ATOM     17  H   LIG d   1      -5.836  73.457 117.618  0.00  0.00     0.149 HD
ENDBRANCH   6  13
BRANCH   5  18
ATOM     18  N   LIG d   1      -5.380  74.901 114.465  0.00  0.00     0.381 N 
ATOM     19  H   LIG d   1      -5.301  73.911 114.345  0.00  0.00    -0.090 HD
ATOM     20  H   LIG d   1      -4.903  75.351 113.703  0.00  0.00    -0.090 HD
ATOM     21  H   LIG d   1      -6.340  75.167 114.468  0.00  0.00    -0.090 HD
ENDBRANCH   5  18
BRANCH   3  22
ATOM     22  C   LIG d   1      -2.364  77.990 116.539  0.00  0.00     0.382 C 
ATOM     23  O   LIG d   1      -1.435  77.885 117.375  0.00  0.00    -0.241 OA
ATOM     24  O   LIG d   1      -2.281  78.841 115.633  0.00  0.00    -0.241 OA
ENDBRANCH   3  22
TORSDOF 7
ENDMDL
MODEL 9
REMARK VINA RESULT:      -4.3     26.764     29.028
REMARK  7 active torsions:
REMARK  status: ('A' for Active; 'I' for Inactive)
REMARK    1  A    between atoms: C_2  and  C_3 
REMARK    2  A    between atoms: C_3  and  O_6 
REMARK    3  A    between atoms: C_3  and  C_4 
REMARK    4  A    between atoms: C_7  and  O_6 
REMARK    5  A    between atoms: C_9  and  C_10 
REMARK    6  A    between atoms: N_15  and  C_14 
REMARK    7  A    between atoms: N_20  and  C_19 
REMARK       I    between atoms: C_22  and  N_20 
ROOT
ATOM      1  C   LIG d   1     -15.916  66.297 116.293  0.00  0.00     0.161 C 
ATOM      2  C   LIG d   1     -15.500  67.277 115.376  0.00  0.00     0.016 C 
ATOM      3  C   LIG d   1     -15.770  67.210 113.990  0.00  0.00     0.038 C 
ATOM      4  C   LIG d   1     -16.610  66.227 113.445  0.00  0.00     0.028 C 
ATOM      5  C   LIG d   1     -16.636  64.935 114.255  0.00  0.00    -0.047 C 
ATOM      6  C   LIG d   1     -16.928  65.276 115.734  0.00  0.00     0.091 C 
ENDROOT
BRANCH   1   7
ATOM      7  O   LIG d   1     -16.443  66.928 117.477  0.00  0.00    -0.368 OA
BRANCH   7   8
ATOM      8  C   LIG d   1     -16.876  68.303 117.327  0.00  0.00     0.119 C 
BRANCH   8   9
ATOM      9  C   LIG d   1     -16.211  69.123 118.450  0.00  0.00     0.028 C 
ATOM     10  C   LIG d   1     -15.250  68.278 119.302  0.00  0.00     0.006 C 
ENDBRANCH   8   9
BRANCH   8  11
ATOM     11  C   LIG d   1     -18.384  68.440 117.563  0.00  0.00     0.028 C 
ATOM     12  C   LIG d   1     -19.006  67.183 118.191  0.00  0.00     0.006 C 
ENDBRANCH   8  11
ENDBRANCH   7   8
ENDBRANCH   1   7
BRANCH   6  13
ATOM     13  N   LIG d   1     -16.887  64.076 116.610  0.00  0.00    -0.311 N 
ATOM     14  C   LIG d   1     -17.970  63.378 116.948  0.00  0.00     0.210 C 
ATOM     15  C   LIG d   1     -17.708  62.188 117.877  0.00  0.00     0.109 C 
ATOM     16  O   LIG d   1     -19.117  63.611 116.541  0.00  0.00    -0.276 OA
ATOM     17  H   LIG d   1     -15.991  63.798 116.961  0.00  0.00     0.149 HD
ENDBRANCH   6  13
BRANCH   5  18
ATOM     18  N   LIG d   1     -17.652  64.052 113.653  0.00  0.00     0.381 N 
ATOM     19  H   LIG d   1     -18.193  63.617 114.374  0.00  0.00    -0.090 HD
ATOM     20  H   LIG d   1     -17.188  63.332 113.128  0.00  0.00    -0.090 HD
ATOM     21  H   LIG d   1     -18.249  64.578 113.053  0.00  0.00    -0.090 HD
ENDBRANCH   5  18
BRANCH   3  22
ATOM     22  C   LIG d   1     -15.164  68.110 113.127  0.00  0.00     0.382 C 
ATOM     23  O   LIG d   1     -14.168  68.770 113.508  0.00  0.00    -0.241 OA
ATOM     24  O   LIG d   1     -15.629  68.304 111.987  0.00  0.00    -0.241 OA
ENDBRANCH   3  22
TORSDOF 7
ENDMDL
