MODEL 1
REMARK VINA RESULT:      -4.8      0.000      0.000
REMARK  7 active torsions:
REMARK  status: ('A' for Active; 'I' for Inactive)
REMARK    1  A    between atoms: C_2  and  C_3 
REMARK    2  A    between atoms: C_3  and  O_6 
REMARK    3  A    between atoms: C_3  and  C_4 
REMARK    4  A    between atoms: C_7  and  O_6 
REMARK    5  A    between atoms: C_9  and  C_10 
REMARK    6  A    between atoms: N_15  and  C_14 
REMARK    7  A    between atoms: N_20  and  C_19 
REMARK       I    between atoms: C_22  and  N_20 
ROOT
ATOM      1  C   LIG d   1       2.775  85.385 113.642  0.00  0.00     0.161 C 
ATOM      2  C   LIG d   1       3.652  86.481 113.690  0.00  0.00     0.016 C 
ATOM      3  C   LIG d   1       3.467  87.660 112.931  0.00  0.00     0.038 C 
ATOM      4  C   LIG d   1       2.304  87.883 112.180  0.00  0.00     0.028 C 
ATOM      5  C   LIG d   1       1.634  86.599 111.704  0.00  0.00    -0.047 C 
ATOM      6  C   LIG d   1       1.441  85.655 112.913  0.00  0.00     0.091 C 
ENDROOT
BRANCH   1   7
ATOM      7  O   LIG d   1       2.527  84.898 114.975  0.00  0.00    -0.368 OA
BRANCH   7   8
ATOM      8  C   LIG d   1       1.487  85.578 115.720  0.00  0.00     0.119 C 
BRANCH   8   9
ATOM      9  C   LIG d   1       2.127  86.135 117.006  0.00  0.00     0.028 C 
ATOM     10  C   LIG d   1       3.482  85.477 117.320  0.00  0.00     0.006 C 
ENDBRANCH   8   9
BRANCH   8  11
ATOM     11  C   LIG d   1       0.410  84.599 116.194  0.00  0.00     0.028 C 
ATOM     12  C   LIG d   1       0.820  83.129 116.014  0.00  0.00     0.006 C 
ENDBRANCH   8  11
ENDBRANCH   7   8
ENDBRANCH   1   7
BRANCH   6  13
ATOM     13  N   LIG d   1       0.869  84.341 112.522  0.00  0.00    -0.311 N 
ATOM     14  C   LIG d   1      -0.433  84.064 112.574  0.00  0.00     0.210 C 
ATOM     15  C   LIG d   1      -0.809  82.642 112.144  0.00  0.00     0.109 C 
ATOM     16  O   LIG d   1      -1.315  84.870 112.904  0.00  0.00    -0.276 OA
ATOM     17  H   LIG d   1       1.510  83.638 112.211  0.00  0.00     0.149 HD
ENDBRANCH   6  13
BRANCH   5  18
ATOM     18  N   LIG d   1       0.363  86.973 111.055  0.00  0.00     0.381 N 
ATOM     19  H   LIG d   1       0.519  87.724 110.413  0.00  0.00    -0.090 HD
ATOM     20  H   LIG d   1      -0.281  87.289 111.759  0.00  0.00    -0.090 HD
ATOM     21  H   LIG d   1      -0.018  86.188 110.574  0.00  0.00    -0.090 HD
ENDBRANCH   5  18
BRANCH   3  22
ATOM     22  C   LIG d   1       4.473  88.613 112.886  0.00  0.00     0.382 C 
ATOM     23  O   LIG d   1       5.632  88.285 112.535  0.00  0.00    -0.241 OA
ATOM     24  O   LIG d   1       4.247  89.787 113.236  0.00  0.00    -0.241 OA
ENDBRANCH   3  22
TORSDOF 7
ENDMDL
MODEL 2
REMARK VINA RESULT:      -4.7      4.262      6.469
REMARK  7 active torsions:
REMARK  status: ('A' for Active; 'I' for Inactive)
REMARK    1  A    between atoms: C_2  and  C_3 
REMARK    2  A    between atoms: C_3  and  O_6 
REMARK    3  A    between atoms: C_3  and  C_4 
REMARK    4  A    between atoms: C_7  and  O_6 
REMARK    5  A    between atoms: C_9  and  C_10 
REMARK    6  A    between atoms: N_15  and  C_14 
REMARK    7  A    between atoms: N_20  and  C_19 
REMARK       I    between atoms: C_22  and  N_20 
ROOT
ATOM      1  C   LIG d   1       4.811  89.808 115.343  0.00  0.00     0.161 C 
ATOM      2  C   LIG d   1       3.992  89.404 114.277  0.00  0.00     0.016 C 
ATOM      3  C   LIG d   1       4.057  88.120 113.689  0.00  0.00     0.038 C 
ATOM      4  C   LIG d   1       4.847  87.095 114.231  0.00  0.00     0.028 C 
ATOM      5  C   LIG d   1       6.063  87.608 114.995  0.00  0.00    -0.047 C 
ATOM      6  C   LIG d   1       5.601  88.668 116.020  0.00  0.00     0.091 C 
ENDROOT
BRANCH   1   7
ATOM      7  O   LIG d   1       4.026  90.522 116.319  0.00  0.00    -0.368 OA
BRANCH   7   8
ATOM      8  C   LIG d   1       2.687  90.019 116.551  0.00  0.00     0.119 C 
BRANCH   8   9
ATOM      9  C   LIG d   1       1.851  91.180 117.124  0.00  0.00     0.028 C 
ATOM     10  C   LIG d   1       0.338  90.921 117.018  0.00  0.00     0.006 C 
ENDBRANCH   8   9
BRANCH   8  11
ATOM     11  C   LIG d   1       2.678  88.938 117.636  0.00  0.00     0.028 C 
ATOM     12  C   LIG d   1       2.309  87.550 117.090  0.00  0.00     0.006 C 
ENDBRANCH   8  11
ENDBRANCH   7   8
ENDBRANCH   1   7
BRANCH   6  13
ATOM     13  N   LIG d   1       6.739  89.283 116.752  0.00  0.00    -0.311 N 
ATOM     14  C   LIG d   1       7.177  88.842 117.930  0.00  0.00     0.210 C 
ATOM     15  C   LIG d   1       8.350  89.631 118.521  0.00  0.00     0.109 C 
ATOM     16  O   LIG d   1       6.727  87.852 118.526  0.00  0.00    -0.276 OA
ATOM     17  H   LIG d   1       7.183  90.072 116.325  0.00  0.00     0.149 HD
ENDBRANCH   6  13
BRANCH   5  18
ATOM     18  N   LIG d   1       6.719  86.445 115.621  0.00  0.00     0.381 N 
ATOM     19  H   LIG d   1       6.912  85.751 114.927  0.00  0.00    -0.090 HD
ATOM     20  H   LIG d   1       6.095  86.047 116.301  0.00  0.00    -0.090 HD
ATOM     21  H   LIG d   1       7.566  86.728 116.063  0.00  0.00    -0.090 HD
ENDBRANCH   5  18
BRANCH   3  22
ATOM     22  C   LIG d   1       3.355  87.862 112.521  0.00  0.00     0.382 C 
ATOM     23  O   LIG d   1       2.373  88.578 112.209  0.00  0.00    -0.241 OA
ATOM     24  O   LIG d   1       3.664  86.896 111.798  0.00  0.00    -0.241 OA
ENDBRANCH   3  22
TORSDOF 7
ENDMDL
MODEL 3
REMARK VINA RESULT:      -4.6      1.960      3.780
REMARK  7 active torsions:
REMARK  status: ('A' for Active; 'I' for Inactive)
REMARK    1  A    between atoms: C_2  and  C_3 
REMARK    2  A    between atoms: C_3  and  O_6 
REMARK    3  A    between atoms: C_3  and  C_4 
REMARK    4  A    between atoms: C_7  and  O_6 
REMARK    5  A    between atoms: C_9  and  C_10 
REMARK    6  A    between atoms: N_15  and  C_14 
REMARK    7  A    between atoms: N_20  and  C_19 
REMARK       I    between atoms: C_22  and  N_20 
ROOT
ATOM      1  C   LIG d   1       1.755  85.942 113.472  0.00  0.00     0.161 C 
ATOM      2  C   LIG d   1       2.720  86.781 112.890  0.00  0.00     0.016 C 
ATOM      3  C   LIG d   1       3.610  87.581 113.642  0.00  0.00     0.038 C 
ATOM      4  C   LIG d   1       3.697  87.482 115.038  0.00  0.00     0.028 C 
ATOM      5  C   LIG d   1       2.399  87.024 115.695  0.00  0.00    -0.047 C 
ATOM      6  C   LIG d   1       1.909  85.737 114.993  0.00  0.00     0.091 C 
ENDROOT
BRANCH   1   7
ATOM      7  O   LIG d   1       1.741  84.670 112.794  0.00  0.00    -0.368 OA
BRANCH   7   8
ATOM      8  C   LIG d   1       0.697  84.486 111.805  0.00  0.00     0.119 C 
BRANCH   8   9
ATOM      9  C   LIG d   1      -0.490  85.380 112.214  0.00  0.00     0.028 C 
ATOM     10  C   LIG d   1      -0.986  86.262 111.055  0.00  0.00     0.006 C 
ENDBRANCH   8   9
BRANCH   8  11
ATOM     11  C   LIG d   1       0.153  83.055 111.829  0.00  0.00     0.028 C 
ATOM     12  C   LIG d   1      -1.164  82.931 112.611  0.00  0.00     0.006 C 
ENDBRANCH   8  11
ENDBRANCH   7   8
ENDBRANCH   1   7
BRANCH   6  13
ATOM     13  N   LIG d   1       0.601  85.268 115.519  0.00  0.00    -0.311 N 
ATOM     14  C   LIG d   1       0.359  84.004 115.863  0.00  0.00     0.210 C 
ATOM     15  C   LIG d   1      -1.063  83.730 116.363  0.00  0.00     0.109 C 
ATOM     16  O   LIG d   1       1.198  83.090 115.833  0.00  0.00    -0.276 OA
ATOM     17  H   LIG d   1      -0.127  85.950 115.605  0.00  0.00     0.149 HD
ENDBRANCH   6  13
BRANCH   5  18
ATOM     18  N   LIG d   1       2.671  86.832 117.132  0.00  0.00     0.381 N 
ATOM     19  H   LIG d   1       3.129  85.954 117.276  0.00  0.00    -0.090 HD
ATOM     20  H   LIG d   1       1.797  86.816 117.628  0.00  0.00    -0.090 HD
ATOM     21  H   LIG d   1       3.242  87.573 117.473  0.00  0.00    -0.090 HD
ENDBRANCH   5  18
BRANCH   3  22
ATOM     22  C   LIG d   1       4.399  88.523 112.998  0.00  0.00     0.382 C 
ATOM     23  O   LIG d   1       5.516  88.192 112.532  0.00  0.00    -0.241 OA
ATOM     24  O   LIG d   1       4.027  89.709 112.916  0.00  0.00    -0.241 OA
ENDBRANCH   3  22
TORSDOF 7
ENDMDL
MODEL 4
REMARK VINA RESULT:      -4.6      4.850      6.914
REMARK  7 active torsions:
REMARK  status: ('A' for Active; 'I' for Inactive)
REMARK    1  A    between atoms: C_2  and  C_3 
REMARK    2  A    between atoms: C_3  and  O_6 
REMARK    3  A    between atoms: C_3  and  C_4 
REMARK    4  A    between atoms: C_7  and  O_6 
REMARK    5  A    between atoms: C_9  and  C_10 
REMARK    6  A    between atoms: N_15  and  C_14 
REMARK    7  A    between atoms: N_20  and  C_19 
REMARK       I    between atoms: C_22  and  N_20 
ROOT
ATOM      1  C   LIG d   1      -1.780  81.084 114.334  0.00  0.00     0.161 C 
ATOM      2  C   LIG d   1      -1.656  82.428 113.944  0.00  0.00     0.016 C 
ATOM      3  C   LIG d   1      -1.129  82.830 112.694  0.00  0.00     0.038 C 
ATOM      4  C   LIG d   1      -0.830  81.904 111.684  0.00  0.00     0.028 C 
ATOM      5  C   LIG d   1      -0.464  80.523 112.217  0.00  0.00    -0.047 C 
ATOM      6  C   LIG d   1      -1.561  80.059 113.202  0.00  0.00     0.091 C 
ENDROOT
BRANCH   1   7
ATOM      7  O   LIG d   1      -3.061  80.874 114.960  0.00  0.00    -0.368 OA
BRANCH   7   8
ATOM      8  C   LIG d   1      -3.046  80.699 116.399  0.00  0.00     0.119 C 
BRANCH   8   9
ATOM      9  C   LIG d   1      -4.089  79.620 116.745  0.00  0.00     0.028 C 
ATOM     10  C   LIG d   1      -4.593  79.733 118.194  0.00  0.00     0.006 C 
ENDBRANCH   8   9
BRANCH   8  11
ATOM     11  C   LIG d   1      -3.519  81.966 117.118  0.00  0.00     0.028 C 
ATOM     12  C   LIG d   1      -2.390  82.674 117.883  0.00  0.00     0.006 C 
ENDBRANCH   8  11
ENDBRANCH   7   8
ENDBRANCH   1   7
BRANCH   6  13
ATOM     13  N   LIG d   1      -1.240  78.753 113.834  0.00  0.00    -0.311 N 
ATOM     14  C   LIG d   1      -2.136  77.782 114.006  0.00  0.00     0.210 C 
ATOM     15  C   LIG d   1      -1.600  76.524 114.697  0.00  0.00     0.109 C 
ATOM     16  O   LIG d   1      -3.314  77.831 113.624  0.00  0.00    -0.276 OA
ATOM     17  H   LIG d   1      -0.299  78.616 114.146  0.00  0.00     0.149 HD
ENDBRANCH   6  13
BRANCH   5  18
ATOM     18  N   LIG d   1      -0.311  79.624 111.057  0.00  0.00     0.381 N 
ATOM     19  H   LIG d   1      -0.039  80.152 110.253  0.00  0.00    -0.090 HD
ATOM     20  H   LIG d   1      -1.196  79.189 110.864  0.00  0.00    -0.090 HD
ATOM     21  H   LIG d   1       0.374  78.928 111.254  0.00  0.00    -0.090 HD
ENDBRANCH   5  18
BRANCH   3  22
ATOM     22  C   LIG d   1      -0.861  84.170 112.461  0.00  0.00     0.382 C 
ATOM     23  O   LIG d   1      -0.256  84.848 113.326  0.00  0.00    -0.241 OA
ATOM     24  O   LIG d   1      -1.254  84.720 111.415  0.00  0.00    -0.241 OA
ENDBRANCH   3  22
TORSDOF 7
ENDMDL
MODEL 5
REMARK VINA RESULT:      -4.6      2.515      6.159
REMARK  7 active torsions:
REMARK  status: ('A' for Active; 'I' for Inactive)
REMARK    1  A    between atoms: C_2  and  C_3 
REMARK    2  A    between atoms: C_3  and  O_6 
REMARK    3  A    between atoms: C_3  and  C_4 
REMARK    4  A    between atoms: C_7  and  O_6 
REMARK    5  A    between atoms: C_9  and  C_10 
REMARK    6  A    between atoms: N_15  and  C_14 
REMARK    7  A    between atoms: N_20  and  C_19 
REMARK       I    between atoms: C_22  and  N_20 
ROOT
ATOM      1  C   LIG d   1      -0.580  83.821 112.918  0.00  0.00     0.161 C 
ATOM      2  C   LIG d   1      -1.550  82.807 112.986  0.00  0.00     0.016 C 
ATOM      3  C   LIG d   1      -1.356  81.509 112.460  0.00  0.00     0.038 C 
ATOM      4  C   LIG d   1      -0.115  81.089 111.962  0.00  0.00     0.028 C 
ATOM      5  C   LIG d   1       0.736  82.229 111.414  0.00  0.00    -0.047 C 
ATOM      6  C   LIG d   1       0.821  83.348 112.477  0.00  0.00     0.091 C 
ENDROOT
BRANCH   1   7
ATOM      7  O   LIG d   1      -0.502  84.508 114.183  0.00  0.00    -0.368 OA
BRANCH   7   8
ATOM      8  C   LIG d   1       0.140  83.785 115.262  0.00  0.00     0.119 C 
BRANCH   8   9
ATOM      9  C   LIG d   1      -0.872  83.686 116.419  0.00  0.00     0.028 C 
ATOM     10  C   LIG d   1      -0.583  82.498 117.352  0.00  0.00     0.006 C 
ENDBRANCH   8   9
BRANCH   8  11
ATOM     11  C   LIG d   1       1.328  84.568 115.829  0.00  0.00     0.028 C 
ATOM     12  C   LIG d   1       1.366  86.026 115.344  0.00  0.00     0.006 C 
ENDBRANCH   8  11
ENDBRANCH   7   8
ENDBRANCH   1   7
BRANCH   6  13
ATOM     13  N   LIG d   1       1.565  84.538 111.990  0.00  0.00    -0.311 N 
ATOM     14  C   LIG d   1       2.874  84.707 112.168  0.00  0.00     0.210 C 
ATOM     15  C   LIG d   1       3.440  86.015 111.604  0.00  0.00     0.109 C 
ATOM     16  O   LIG d   1       3.627  83.884 112.710  0.00  0.00    -0.276 OA
ATOM     17  H   LIG d   1       1.038  85.242 111.511  0.00  0.00     0.149 HD
ENDBRANCH   6  13
BRANCH   5  18
ATOM     18  N   LIG d   1       2.053  81.671 111.055  0.00  0.00     0.381 N 
ATOM     19  H   LIG d   1       2.520  81.347 111.879  0.00  0.00    -0.090 HD
ATOM     20  H   LIG d   1       2.612  82.396 110.641  0.00  0.00    -0.090 HD
ATOM     21  H   LIG d   1       1.941  80.919 110.411  0.00  0.00    -0.090 HD
ENDBRANCH   5  18
BRANCH   3  22
ATOM     22  C   LIG d   1      -2.425  80.628 112.394  0.00  0.00     0.382 C 
ATOM     23  O   LIG d   1      -3.485  80.880 113.017  0.00  0.00    -0.241 OA
ATOM     24  O   LIG d   1      -2.328  79.564 111.754  0.00  0.00    -0.241 OA
ENDBRANCH   3  22
TORSDOF 7
ENDMDL
MODEL 6
REMARK VINA RESULT:      -4.6      3.921      5.367
REMARK  7 active torsions:
REMARK  status: ('A' for Active; 'I' for Inactive)
REMARK    1  A    between atoms: C_2  and  C_3 
REMARK    2  A    between atoms: C_3  and  O_6 
REMARK    3  A    between atoms: C_3  and  C_4 
REMARK    4  A    between atoms: C_7  and  O_6 
REMARK    5  A    between atoms: C_9  and  C_10 
REMARK    6  A    between atoms: N_15  and  C_14 
REMARK    7  A    between atoms: N_20  and  C_19 
REMARK       I    between atoms: C_22  and  N_20 
ROOT
ATOM      1  C   LIG d   1       0.302  81.129 114.484  0.00  0.00     0.161 C 
ATOM      2  C   LIG d   1       0.924  82.279 113.970  0.00  0.00     0.016 C 
ATOM      3  C   LIG d   1       0.923  82.616 112.597  0.00  0.00     0.038 C 
ATOM      4  C   LIG d   1       0.166  81.901 111.659  0.00  0.00     0.028 C 
ATOM      5  C   LIG d   1      -0.066  80.445 112.050  0.00  0.00    -0.047 C 
ATOM      6  C   LIG d   1      -0.624  80.396 113.491  0.00  0.00     0.091 C 
ENDROOT
BRANCH   1   7
ATOM      7  O   LIG d   1      -0.418  81.460 115.689  0.00  0.00    -0.368 OA
BRANCH   7   8
ATOM      8  C   LIG d   1      -0.486  82.868 116.024  0.00  0.00     0.119 C 
BRANCH   8   9
ATOM      9  C   LIG d   1      -0.485  82.978 117.561  0.00  0.00     0.028 C 
ATOM     10  C   LIG d   1       0.353  84.166 118.064  0.00  0.00     0.006 C 
ENDBRANCH   8   9
BRANCH   8  11
ATOM     11  C   LIG d   1      -1.813  83.484 115.574  0.00  0.00     0.028 C 
ATOM     12  C   LIG d   1      -1.624  84.700 114.653  0.00  0.00     0.006 C 
ENDBRANCH   8  11
ENDBRANCH   7   8
ENDBRANCH   1   7
BRANCH   6  13
ATOM     13  N   LIG d   1      -0.800  79.005 113.983  0.00  0.00    -0.311 N 
ATOM     14  C   LIG d   1      -1.935  78.320 113.855  0.00  0.00     0.210 C 
ATOM     15  C   LIG d   1      -1.910  76.909 114.450  0.00  0.00     0.109 C 
ATOM     16  O   LIG d   1      -2.950  78.736 113.277  0.00  0.00    -0.276 OA
ATOM     17  H   LIG d   1      -0.016  78.579 114.438  0.00  0.00     0.149 HD
ENDBRANCH   6  13
BRANCH   5  18
ATOM     18  N   LIG d   1      -0.983  79.857 111.055  0.00  0.00     0.381 N 
ATOM     19  H   LIG d   1      -1.682  80.526 110.801  0.00  0.00    -0.090 HD
ATOM     20  H   LIG d   1      -1.441  79.062 111.465  0.00  0.00    -0.090 HD
ATOM     21  H   LIG d   1      -0.473  79.575 110.247  0.00  0.00    -0.090 HD
ENDBRANCH   5  18
BRANCH   3  22
ATOM     22  C   LIG d   1       1.719  83.658 112.145  0.00  0.00     0.382 C 
ATOM     23  O   LIG d   1       2.961  83.503 112.051  0.00  0.00    -0.241 OA
ATOM     24  O   LIG d   1       1.217  84.764 111.872  0.00  0.00    -0.241 OA
ENDBRANCH   3  22
TORSDOF 7
ENDMDL
MODEL 7
REMARK VINA RESULT:      -4.5      2.110      4.418
REMARK  7 active torsions:
REMARK  status: ('A' for Active; 'I' for Inactive)
REMARK    1  A    between atoms: C_2  and  C_3 
REMARK    2  A    between atoms: C_3  and  O_6 
REMARK    3  A    between atoms: C_3  and  C_4 
REMARK    4  A    between atoms: C_7  and  O_6 
REMARK    5  A    between atoms: C_9  and  C_10 
REMARK    6  A    between atoms: N_15  and  C_14 
REMARK    7  A    between atoms: N_20  and  C_19 
REMARK       I    between atoms: C_22  and  N_20 
ROOT
ATOM      1  C   LIG d   1       1.502  85.101 113.625  0.00  0.00     0.161 C 
ATOM      2  C   LIG d   1       2.188  86.083 112.891  0.00  0.00     0.016 C 
ATOM      3  C   LIG d   1       3.477  86.551 113.233  0.00  0.00     0.038 C 
ATOM      4  C   LIG d   1       4.236  85.956 114.252  0.00  0.00     0.028 C 
ATOM      5  C   LIG d   1       3.386  85.306 115.339  0.00  0.00    -0.047 C 
ATOM      6  C   LIG d   1       2.359  84.362 114.674  0.00  0.00     0.091 C 
ENDROOT
BRANCH   1   7
ATOM      7  O   LIG d   1       0.888  84.157 112.725  0.00  0.00    -0.368 OA
BRANCH   7   8
ATOM      8  C   LIG d   1      -0.521  84.359 112.454  0.00  0.00     0.119 C 
BRANCH   8   9
ATOM      9  C   LIG d   1      -1.190  82.971 112.426  0.00  0.00     0.028 C 
ATOM     10  C   LIG d   1      -0.439  81.975 111.526  0.00  0.00     0.006 C 
ENDBRANCH   8   9
BRANCH   8  11
ATOM     11  C   LIG d   1      -0.741  84.943 111.055  0.00  0.00     0.028 C 
ATOM     12  C   LIG d   1      -1.079  86.442 111.083  0.00  0.00     0.006 C 
ENDBRANCH   8  11
ENDBRANCH   7   8
ENDBRANCH   1   7
BRANCH   6  13
ATOM     13  N   LIG d   1       1.431  83.749 115.661  0.00  0.00    -0.311 N 
ATOM     14  C   LIG d   1       1.638  82.557 116.220  0.00  0.00     0.210 C 
ATOM     15  C   LIG d   1       0.549  82.103 117.196  0.00  0.00     0.109 C 
ATOM     16  O   LIG d   1       2.637  81.848 116.024  0.00  0.00    -0.276 OA
ATOM     17  H   LIG d   1       0.611  84.270 115.901  0.00  0.00     0.149 HD
ENDBRANCH   6  13
BRANCH   5  18
ATOM     18  N   LIG d   1       4.301  84.608 116.262  0.00  0.00     0.381 N 
ATOM     19  H   LIG d   1       4.801  85.276 116.814  0.00  0.00    -0.090 HD
ATOM     20  H   LIG d   1       4.967  84.082 115.724  0.00  0.00    -0.090 HD
ATOM     21  H   LIG d   1       3.785  83.996 116.855  0.00  0.00    -0.090 HD
ENDBRANCH   5  18
BRANCH   3  22
ATOM     22  C   LIG d   1       4.005  87.653 112.577  0.00  0.00     0.382 C 
ATOM     23  O   LIG d   1       3.423  88.762 112.648  0.00  0.00    -0.241 OA
ATOM     24  O   LIG d   1       5.030  87.541 111.879  0.00  0.00    -0.241 OA
ENDBRANCH   3  22
TORSDOF 7
ENDMDL
MODEL 8
REMARK VINA RESULT:      -4.5      2.469      6.228
REMARK  7 active torsions:
REMARK  status: ('A' for Active; 'I' for Inactive)
REMARK    1  A    between atoms: C_2  and  C_3 
REMARK    2  A    between atoms: C_3  and  O_6 
REMARK    3  A    between atoms: C_3  and  C_4 
REMARK    4  A    between atoms: C_7  and  O_6 
REMARK    5  A    between atoms: C_9  and  C_10 
REMARK    6  A    between atoms: N_15  and  C_14 
REMARK    7  A    between atoms: N_20  and  C_19 
REMARK       I    between atoms: C_22  and  N_20 
ROOT
ATOM      1  C   LIG d   1       0.851  84.932 113.881  0.00  0.00     0.161 C 
ATOM      2  C   LIG d   1      -0.186  84.082 113.461  0.00  0.00     0.016 C 
ATOM      3  C   LIG d   1      -1.025  83.377 114.354  0.00  0.00     0.038 C 
ATOM      4  C   LIG d   1      -0.981  83.593 115.740  0.00  0.00     0.028 C 
ATOM      5  C   LIG d   1       0.384  84.058 116.237  0.00  0.00    -0.047 C 
ATOM      6  C   LIG d   1       0.842  85.266 115.388  0.00  0.00     0.091 C 
ENDROOT
BRANCH   1   7
ATOM      7  O   LIG d   1       0.838  86.142 113.100  0.00  0.00    -0.368 OA
BRANCH   7   8
ATOM      8  C   LIG d   1       1.696  86.157 111.933  0.00  0.00     0.119 C 
BRANCH   8   9
ATOM      9  C   LIG d   1       2.966  85.357 112.283  0.00  0.00     0.028 C 
ATOM     10  C   LIG d   1       3.575  84.656 111.056  0.00  0.00     0.006 C 
ENDBRANCH   8   9
BRANCH   8  11
ATOM     11  C   LIG d   1       2.183  87.574 111.617  0.00  0.00     0.028 C 
ATOM     12  C   LIG d   1       3.287  88.052 112.574  0.00  0.00     0.006 C 
ENDBRANCH   8  11
ENDBRANCH   7   8
ENDBRANCH   1   7
BRANCH   6  13
ATOM     13  N   LIG d   1       2.206  85.731 115.753  0.00  0.00    -0.311 N 
ATOM     14  C   LIG d   1       2.520  87.013 115.931  0.00  0.00     0.210 C 
ATOM     15  C   LIG d   1       3.987  87.276 116.284  0.00  0.00     0.109 C 
ATOM     16  O   LIG d   1       1.716  87.954 115.862  0.00  0.00    -0.276 OA
ATOM     17  H   LIG d   1       2.913  85.030 115.861  0.00  0.00     0.149 HD
ENDBRANCH   6  13
BRANCH   5  18
ATOM     18  N   LIG d   1       0.250  84.377 117.671  0.00  0.00     0.381 N 
ATOM     19  H   LIG d   1      -0.660  84.750 117.852  0.00  0.00    -0.090 HD
ATOM     20  H   LIG d   1       0.931  85.075 117.913  0.00  0.00    -0.090 HD
ATOM     21  H   LIG d   1       0.396  83.557 118.218  0.00  0.00    -0.090 HD
ENDBRANCH   5  18
BRANCH   3  22
ATOM     22  C   LIG d   1      -1.894  82.413 113.865  0.00  0.00     0.382 C 
ATOM     23  O   LIG d   1      -2.281  82.466 112.673  0.00  0.00    -0.241 OA
ATOM     24  O   LIG d   1      -2.330  81.518 114.613  0.00  0.00    -0.241 OA
ENDBRANCH   3  22
TORSDOF 7
ENDMDL
MODEL 9
REMARK VINA RESULT:      -4.3      4.582      6.715
REMARK  7 active torsions:
REMARK  status: ('A' for Active; 'I' for Inactive)
REMARK    1  A    between atoms: C_2  and  C_3 
REMARK    2  A    between atoms: C_3  and  O_6 
REMARK    3  A    between atoms: C_3  and  C_4 
REMARK    4  A    between atoms: C_7  and  O_6 
REMARK    5  A    between atoms: C_9  and  C_10 
REMARK    6  A    between atoms: N_15  and  C_14 
REMARK    7  A    between atoms: N_20  and  C_19 
REMARK       I    between atoms: C_22  and  N_20 
ROOT
ATOM      1  C   LIG d   1       4.489  88.063 116.938  0.00  0.00     0.161 C 
ATOM      2  C   LIG d   1       3.445  89.003 116.911  0.00  0.00     0.016 C 
ATOM      3  C   LIG d   1       3.656  90.401 116.934  0.00  0.00     0.038 C 
ATOM      4  C   LIG d   1       4.939  90.959 116.832  0.00  0.00     0.028 C 
ATOM      5  C   LIG d   1       6.040  90.049 117.366  0.00  0.00    -0.047 C 
ATOM      6  C   LIG d   1       5.897  88.654 116.715  0.00  0.00     0.091 C 
ENDROOT
BRANCH   1   7
ATOM      7  O   LIG d   1       4.228  87.016 115.983  0.00  0.00    -0.368 OA
BRANCH   7   8
ATOM      8  C   LIG d   1       3.402  87.378 114.849  0.00  0.00     0.119 C 
BRANCH   8   9
ATOM      9  C   LIG d   1       2.473  86.184 114.553  0.00  0.00     0.028 C 
ATOM     10  C   LIG d   1       1.286  86.109 115.528  0.00  0.00     0.006 C 
ENDBRANCH   8   9
BRANCH   8  11
ATOM     11  C   LIG d   1       4.243  87.561 113.583  0.00  0.00     0.028 C 
ATOM     12  C   LIG d   1       4.560  89.036 113.286  0.00  0.00     0.006 C 
ENDBRANCH   8  11
ENDBRANCH   7   8
ENDBRANCH   1   7
BRANCH   6  13
ATOM     13  N   LIG d   1       6.884  87.678 117.245  0.00  0.00    -0.311 N 
ATOM     14  C   LIG d   1       7.709  86.976 116.470  0.00  0.00     0.210 C 
ATOM     15  C   LIG d   1       8.633  86.010 117.219  0.00  0.00     0.109 C 
ATOM     16  O   LIG d   1       7.786  87.085 115.237  0.00  0.00    -0.276 OA
ATOM     17  H   LIG d   1       6.911  87.550 118.238  0.00  0.00     0.149 HD
ENDBRANCH   6  13
BRANCH   5  18
ATOM     18  N   LIG d   1       7.333  90.695 117.072  0.00  0.00     0.381 N 
ATOM     19  H   LIG d   1       8.080  90.057 117.261  0.00  0.00    -0.090 HD
ATOM     20  H   LIG d   1       7.441  91.494 117.672  0.00  0.00    -0.090 HD
ATOM     21  H   LIG d   1       7.363  90.980 116.118  0.00  0.00    -0.090 HD
ENDBRANCH   5  18
BRANCH   3  22
ATOM     22  C   LIG d   1       2.577  91.256 117.100  0.00  0.00     0.382 C 
ATOM     23  O   LIG d   1       2.771  92.465 117.372  0.00  0.00    -0.241 OA
ATOM     24  O   LIG d   1       1.411  90.824 117.025  0.00  0.00    -0.241 OA
ENDBRANCH   3  22
TORSDOF 7
ENDMDL
