MODEL 1
REMARK VINA RESULT:      -5.5      0.000      0.000
REMARK  7 active torsions:
REMARK  status: ('A' for Active; 'I' for Inactive)
REMARK    1  A    between atoms: C_2  and  C_3 
REMARK    2  A    between atoms: C_3  and  O_6 
REMARK    3  A    between atoms: C_3  and  C_4 
REMARK    4  A    between atoms: C_7  and  O_6 
REMARK    5  A    between atoms: C_9  and  C_10 
REMARK    6  A    between atoms: N_15  and  C_14 
REMARK    7  A    between atoms: N_20  and  C_19 
REMARK       I    between atoms: C_22  and  N_20 
ROOT
ATOM      1  C   LIG d   1      -4.886  75.365 117.422  0.00  0.00     0.161 C 
ATOM      2  C   LIG d   1      -6.055  76.143 117.460  0.00  0.00     0.016 C 
ATOM      3  C   LIG d   1      -6.076  77.530 117.186  0.00  0.00     0.038 C 
ATOM      4  C   LIG d   1      -4.946  78.208 116.706  0.00  0.00     0.028 C 
ATOM      5  C   LIG d   1      -3.629  77.571 117.137  0.00  0.00    -0.047 C 
ATOM      6  C   LIG d   1      -3.663  76.065 116.792  0.00  0.00     0.091 C 
ENDROOT
BRANCH   1   7
ATOM      7  O   LIG d   1      -5.150  74.117 116.751  0.00  0.00    -0.368 OA
BRANCH   7   8
ATOM      8  C   LIG d   1      -6.237  74.127 115.793  0.00  0.00     0.119 C 
BRANCH   8   9
ATOM      9  C   LIG d   1      -6.885  72.728 115.815  0.00  0.00     0.028 C 
ATOM     10  C   LIG d   1      -8.201  72.703 116.609  0.00  0.00     0.006 C 
ENDBRANCH   8   9
BRANCH   8  11
ATOM     11  C   LIG d   1      -5.719  74.312 114.364  0.00  0.00     0.028 C 
ATOM     12  C   LIG d   1      -5.903  75.747 113.845  0.00  0.00     0.006 C 
ENDBRANCH   8  11
ENDBRANCH   7   8
ENDBRANCH   1   7
BRANCH   6  13
ATOM     13  N   LIG d   1      -2.446  75.349 117.257  0.00  0.00    -0.311 N 
ATOM     14  C   LIG d   1      -1.805  74.441 116.524  0.00  0.00     0.210 C 
ATOM     15  C   LIG d   1      -0.584  73.809 117.200  0.00  0.00     0.109 C 
ATOM     16  O   LIG d   1      -2.112  74.122 115.365  0.00  0.00    -0.276 OA
ATOM     17  H   LIG d   1      -2.109  75.570 118.174  0.00  0.00     0.149 HD
ENDBRANCH   6  13
BRANCH   5  18
ATOM     18  N   LIG d   1      -2.539  78.296 116.455  0.00  0.00     0.381 N 
ATOM     19  H   LIG d   1      -1.838  77.648 116.155  0.00  0.00    -0.090 HD
ATOM     20  H   LIG d   1      -2.120  78.937 117.104  0.00  0.00    -0.090 HD
ATOM     21  H   LIG d   1      -2.899  78.793 115.670  0.00  0.00    -0.090 HD
ENDBRANCH   5  18
BRANCH   3  22
ATOM     22  C   LIG d   1      -7.228  78.261 117.431  0.00  0.00     0.382 C 
ATOM     23  O   LIG d   1      -8.334  77.676 117.528  0.00  0.00    -0.241 OA
ATOM     24  O   LIG d   1      -7.183  79.503 117.513  0.00  0.00    -0.241 OA
ENDBRANCH   3  22
TORSDOF 7
ENDMDL
MODEL 2
REMARK VINA RESULT:      -5.5      2.742      3.875
REMARK  7 active torsions:
REMARK  status: ('A' for Active; 'I' for Inactive)
REMARK    1  A    between atoms: C_2  and  C_3 
REMARK    2  A    between atoms: C_3  and  O_6 
REMARK    3  A    between atoms: C_3  and  C_4 
REMARK    4  A    between atoms: C_7  and  O_6 
REMARK    5  A    between atoms: C_9  and  C_10 
REMARK    6  A    between atoms: N_15  and  C_14 
REMARK    7  A    between atoms: N_20  and  C_19 
REMARK       I    between atoms: C_22  and  N_20 
ROOT
ATOM      1  C   LIG d   1      -3.262  76.068 115.788  0.00  0.00     0.161 C 
ATOM      2  C   LIG d   1      -3.705  76.722 114.626  0.00  0.00     0.016 C 
ATOM      3  C   LIG d   1      -2.845  77.098 113.569  0.00  0.00     0.038 C 
ATOM      4  C   LIG d   1      -1.498  76.708 113.535  0.00  0.00     0.028 C 
ATOM      5  C   LIG d   1      -0.896  76.486 114.919  0.00  0.00    -0.047 C 
ATOM      6  C   LIG d   1      -1.816  75.536 115.719  0.00  0.00     0.091 C 
ENDROOT
BRANCH   1   7
ATOM      7  O   LIG d   1      -4.173  75.003 116.126  0.00  0.00    -0.368 OA
BRANCH   7   8
ATOM      8  C   LIG d   1      -5.534  75.154 115.655  0.00  0.00     0.119 C 
BRANCH   8   9
ATOM      9  C   LIG d   1      -6.421  75.429 116.885  0.00  0.00     0.028 C 
ATOM     10  C   LIG d   1      -7.427  76.567 116.640  0.00  0.00     0.006 C 
ENDBRANCH   8   9
BRANCH   8  11
ATOM     11  C   LIG d   1      -6.065  73.849 115.056  0.00  0.00     0.028 C 
ATOM     12  C   LIG d   1      -6.792  72.972 116.088  0.00  0.00     0.006 C 
ENDBRANCH   8  11
ENDBRANCH   7   8
ENDBRANCH   1   7
BRANCH   6  13
ATOM     13  N   LIG d   1      -1.344  75.332 117.114  0.00  0.00    -0.311 N 
ATOM     14  C   LIG d   1      -0.828  74.186 117.553  0.00  0.00     0.210 C 
ATOM     15  C   LIG d   1      -0.423  74.183 119.031  0.00  0.00     0.109 C 
ATOM     16  O   LIG d   1      -0.637  73.181 116.852  0.00  0.00    -0.276 OA
ATOM     17  H   LIG d   1      -1.433  76.106 117.743  0.00  0.00     0.149 HD
ENDBRANCH   6  13
BRANCH   5  18
ATOM     18  N   LIG d   1       0.466  75.952 114.732  0.00  0.00     0.381 N 
ATOM     19  H   LIG d   1       1.116  76.707 114.638  0.00  0.00    -0.090 HD
ATOM     20  H   LIG d   1       0.489  75.409 113.887  0.00  0.00    -0.090 HD
ATOM     21  H   LIG d   1       0.718  75.382 115.509  0.00  0.00    -0.090 HD
ENDBRANCH   5  18
BRANCH   3  22
ATOM     22  C   LIG d   1      -3.323  77.908 112.550  0.00  0.00     0.382 C 
ATOM     23  O   LIG d   1      -2.926  79.094 112.453  0.00  0.00    -0.241 OA
ATOM     24  O   LIG d   1      -4.178  77.480 111.752  0.00  0.00    -0.241 OA
ENDBRANCH   3  22
TORSDOF 7
ENDMDL
MODEL 3
REMARK VINA RESULT:      -5.4      2.793      5.259
REMARK  7 active torsions:
REMARK  status: ('A' for Active; 'I' for Inactive)
REMARK    1  A    between atoms: C_2  and  C_3 
REMARK    2  A    between atoms: C_3  and  O_6 
REMARK    3  A    between atoms: C_3  and  C_4 
REMARK    4  A    between atoms: C_7  and  O_6 
REMARK    5  A    between atoms: C_9  and  C_10 
REMARK    6  A    between atoms: N_15  and  C_14 
REMARK    7  A    between atoms: N_20  and  C_19 
REMARK       I    between atoms: C_22  and  N_20 
ROOT
ATOM      1  C   LIG d   1      -3.640  75.107 116.039  0.00  0.00     0.161 C 
ATOM      2  C   LIG d   1      -4.480  74.081 116.501  0.00  0.00     0.016 C 
ATOM      3  C   LIG d   1      -5.742  73.792 115.932  0.00  0.00     0.038 C 
ATOM      4  C   LIG d   1      -6.186  74.416 114.757  0.00  0.00     0.028 C 
ATOM      5  C   LIG d   1      -5.596  75.807 114.551  0.00  0.00    -0.047 C 
ATOM      6  C   LIG d   1      -4.059  75.726 114.688  0.00  0.00     0.091 C 
ENDROOT
BRANCH   1   7
ATOM      7  O   LIG d   1      -2.280  74.634 115.973  0.00  0.00    -0.368 OA
BRANCH   7   8
ATOM      8  C   LIG d   1      -1.503  74.757 117.189  0.00  0.00     0.119 C 
BRANCH   8   9
ATOM      9  C   LIG d   1      -0.741  76.095 117.118  0.00  0.00     0.028 C 
ATOM     10  C   LIG d   1      -0.040  76.300 115.764  0.00  0.00     0.006 C 
ENDBRANCH   8   9
BRANCH   8  11
ATOM     11  C   LIG d   1      -0.420  73.678 117.270  0.00  0.00     0.028 C 
ATOM     12  C   LIG d   1      -0.477  72.873 118.578  0.00  0.00     0.006 C 
ENDBRANCH   8  11
ENDBRANCH   7   8
ENDBRANCH   1   7
BRANCH   6  13
ATOM     13  N   LIG d   1      -3.409  77.058 114.583  0.00  0.00    -0.311 N 
ATOM     14  C   LIG d   1      -2.884  77.531 113.454  0.00  0.00     0.210 C 
ATOM     15  C   LIG d   1      -2.245  78.919 113.570  0.00  0.00     0.109 C 
ATOM     16  O   LIG d   1      -2.915  76.947 112.361  0.00  0.00    -0.276 OA
ATOM     17  H   LIG d   1      -3.368  77.613 115.416  0.00  0.00     0.149 HD
ENDBRANCH   6  13
BRANCH   5  18
ATOM     18  N   LIG d   1      -6.034  76.284 113.225  0.00  0.00     0.381 N 
ATOM     19  H   LIG d   1      -6.086  77.283 113.225  0.00  0.00    -0.090 HD
ATOM     20  H   LIG d   1      -6.951  75.920 113.035  0.00  0.00    -0.090 HD
ATOM     21  H   LIG d   1      -5.395  75.978 112.525  0.00  0.00    -0.090 HD
ENDBRANCH   5  18
BRANCH   3  22
ATOM     22  C   LIG d   1      -6.591  72.896 116.564  0.00  0.00     0.382 C 
ATOM     23  O   LIG d   1      -7.353  72.168 115.883  0.00  0.00    -0.241 OA
ATOM     24  O   LIG d   1      -6.637  72.837 117.807  0.00  0.00    -0.241 OA
ENDBRANCH   3  22
TORSDOF 7
ENDMDL
MODEL 4
REMARK VINA RESULT:      -5.4      2.179      3.258
REMARK  7 active torsions:
REMARK  status: ('A' for Active; 'I' for Inactive)
REMARK    1  A    between atoms: C_2  and  C_3 
REMARK    2  A    between atoms: C_3  and  O_6 
REMARK    3  A    between atoms: C_3  and  C_4 
REMARK    4  A    between atoms: C_7  and  O_6 
REMARK    5  A    between atoms: C_9  and  C_10 
REMARK    6  A    between atoms: N_15  and  C_14 
REMARK    7  A    between atoms: N_20  and  C_19 
REMARK       I    between atoms: C_22  and  N_20 
ROOT
ATOM      1  C   LIG d   1      -6.729  77.262 117.374  0.00  0.00     0.161 C 
ATOM      2  C   LIG d   1      -8.014  77.687 117.749  0.00  0.00     0.016 C 
ATOM      3  C   LIG d   1      -8.322  79.022 118.096  0.00  0.00     0.038 C 
ATOM      4  C   LIG d   1      -7.392  80.061 117.946  0.00  0.00     0.028 C 
ATOM      5  C   LIG d   1      -5.943  79.597 118.053  0.00  0.00    -0.047 C 
ATOM      6  C   LIG d   1      -5.727  78.403 117.096  0.00  0.00     0.091 C 
ENDROOT
BRANCH   1   7
ATOM      7  O   LIG d   1      -6.817  76.385 116.234  0.00  0.00    -0.368 OA
BRANCH   7   8
ATOM      8  C   LIG d   1      -6.330  75.034 116.430  0.00  0.00     0.119 C 
BRANCH   8   9
ATOM      9  C   LIG d   1      -5.708  74.568 115.100  0.00  0.00     0.028 C 
ATOM     10  C   LIG d   1      -5.760  75.657 114.014  0.00  0.00     0.006 C 
ENDBRANCH   8   9
BRANCH   8  11
ATOM     11  C   LIG d   1      -7.481  74.061 116.702  0.00  0.00     0.028 C 
ATOM     12  C   LIG d   1      -7.148  72.616 116.298  0.00  0.00     0.006 C 
ENDBRANCH   8  11
ENDBRANCH   7   8
ENDBRANCH   1   7
BRANCH   6  13
ATOM     13  N   LIG d   1      -4.358  77.834 117.201  0.00  0.00    -0.311 N 
ATOM     14  C   LIG d   1      -3.486  77.829 116.194  0.00  0.00     0.210 C 
ATOM     15  C   LIG d   1      -2.137  77.175 116.508  0.00  0.00     0.109 C 
ATOM     16  O   LIG d   1      -3.691  78.333 115.079  0.00  0.00    -0.276 OA
ATOM     17  H   LIG d   1      -4.097  77.432 118.080  0.00  0.00     0.149 HD
ENDBRANCH   6  13
BRANCH   5  18
ATOM     18  N   LIG d   1      -5.081  80.752 117.740  0.00  0.00     0.381 N 
ATOM     19  H   LIG d   1      -5.066  81.384 118.516  0.00  0.00    -0.090 HD
ATOM     20  H   LIG d   1      -5.462  81.237 116.947  0.00  0.00    -0.090 HD
ATOM     21  H   LIG d   1      -4.156  80.443 117.538  0.00  0.00    -0.090 HD
ENDBRANCH   5  18
BRANCH   3  22
ATOM     22  C   LIG d   1      -9.563  79.322 118.639  0.00  0.00     0.382 C 
ATOM     23  O   LIG d   1     -10.475  78.461 118.633  0.00  0.00    -0.241 OA
ATOM     24  O   LIG d   1      -9.795  80.458 119.094  0.00  0.00    -0.241 OA
ENDBRANCH   3  22
TORSDOF 7
ENDMDL
MODEL 5
REMARK VINA RESULT:      -5.4      2.754      5.218
REMARK  7 active torsions:
REMARK  status: ('A' for Active; 'I' for Inactive)
REMARK    1  A    between atoms: C_2  and  C_3 
REMARK    2  A    between atoms: C_3  and  O_6 
REMARK    3  A    between atoms: C_3  and  C_4 
REMARK    4  A    between atoms: C_7  and  O_6 
REMARK    5  A    between atoms: C_9  and  C_10 
REMARK    6  A    between atoms: N_15  and  C_14 
REMARK    7  A    between atoms: N_20  and  C_19 
REMARK       I    between atoms: C_22  and  N_20 
ROOT
ATOM      1  C   LIG d   1      -2.678  74.914 115.808  0.00  0.00     0.161 C 
ATOM      2  C   LIG d   1      -2.159  74.064 116.799  0.00  0.00     0.016 C 
ATOM      3  C   LIG d   1      -0.924  74.290 117.449  0.00  0.00     0.038 C 
ATOM      4  C   LIG d   1      -0.190  75.470 117.256  0.00  0.00     0.028 C 
ATOM      5  C   LIG d   1      -0.424  76.114 115.894  0.00  0.00    -0.047 C 
ATOM      6  C   LIG d   1      -1.945  76.264 115.665  0.00  0.00     0.091 C 
ENDROOT
BRANCH   1   7
ATOM      7  O   LIG d   1      -4.085  75.129 116.036  0.00  0.00    -0.368 OA
BRANCH   7   8
ATOM      8  C   LIG d   1      -4.952  73.994 115.793  0.00  0.00     0.119 C 
BRANCH   8   9
ATOM      9  C   LIG d   1      -5.706  74.261 114.476  0.00  0.00     0.028 C 
ATOM     10  C   LIG d   1      -5.765  75.758 114.127  0.00  0.00     0.006 C 
ENDBRANCH   8   9
BRANCH   8  11
ATOM     11  C   LIG d   1      -6.038  73.881 116.866  0.00  0.00     0.028 C 
ATOM     12  C   LIG d   1      -7.120  72.849 116.513  0.00  0.00     0.006 C 
ENDBRANCH   8  11
ENDBRANCH   7   8
ENDBRANCH   1   7
BRANCH   6  13
ATOM     13  N   LIG d   1      -2.265  76.808 114.319  0.00  0.00    -0.311 N 
ATOM     14  C   LIG d   1      -2.417  78.108 114.071  0.00  0.00     0.210 C 
ATOM     15  C   LIG d   1      -2.764  78.453 112.620  0.00  0.00     0.109 C 
ATOM     16  O   LIG d   1      -2.266  79.010 114.909  0.00  0.00    -0.276 OA
ATOM     17  H   LIG d   1      -2.374  76.148 113.574  0.00  0.00     0.149 HD
ENDBRANCH   6  13
BRANCH   5  18
ATOM     18  N   LIG d   1       0.293  77.403 115.881  0.00  0.00     0.381 N 
ATOM     19  H   LIG d   1       0.997  77.406 116.591  0.00  0.00    -0.090 HD
ATOM     20  H   LIG d   1      -0.360  78.140 116.082  0.00  0.00    -0.090 HD
ATOM     21  H   LIG d   1       0.710  77.552 114.989  0.00  0.00    -0.090 HD
ENDBRANCH   5  18
BRANCH   3  22
ATOM     22  C   LIG d   1      -0.391  73.310 118.272  0.00  0.00     0.382 C 
ATOM     23  O   LIG d   1       0.533  73.596 119.071  0.00  0.00    -0.241 OA
ATOM     24  O   LIG d   1      -0.793  72.133 118.195  0.00  0.00    -0.241 OA
ENDBRANCH   3  22
TORSDOF 7
ENDMDL
MODEL 6
REMARK VINA RESULT:      -5.1     12.084     14.546
REMARK  7 active torsions:
REMARK  status: ('A' for Active; 'I' for Inactive)
REMARK    1  A    between atoms: C_2  and  C_3 
REMARK    2  A    between atoms: C_3  and  O_6 
REMARK    3  A    between atoms: C_3  and  C_4 
REMARK    4  A    between atoms: C_7  and  O_6 
REMARK    5  A    between atoms: C_9  and  C_10 
REMARK    6  A    between atoms: N_15  and  C_14 
REMARK    7  A    between atoms: N_20  and  C_19 
REMARK       I    between atoms: C_22  and  N_20 
ROOT
ATOM      1  C   LIG d   1       2.109  87.204 114.244  0.00  0.00     0.161 C 
ATOM      2  C   LIG d   1       1.370  86.148 113.686  0.00  0.00     0.016 C 
ATOM      3  C   LIG d   1       0.014  85.898 113.998  0.00  0.00     0.038 C 
ATOM      4  C   LIG d   1      -0.743  86.783 114.780  0.00  0.00     0.028 C 
ATOM      5  C   LIG d   1       0.095  87.585 115.770  0.00  0.00    -0.047 C 
ATOM      6  C   LIG d   1       1.270  88.246 115.013  0.00  0.00     0.091 C 
ENDROOT
BRANCH   1   7
ATOM      7  O   LIG d   1       2.890  87.849 113.219  0.00  0.00    -0.368 OA
BRANCH   7   8
ATOM      8  C   LIG d   1       4.176  87.250 112.925  0.00  0.00     0.119 C 
BRANCH   8   9
ATOM      9  C   LIG d   1       5.241  88.357 113.042  0.00  0.00     0.028 C 
ATOM     10  C   LIG d   1       4.623  89.740 113.309  0.00  0.00     0.006 C 
ENDBRANCH   8   9
BRANCH   8  11
ATOM     11  C   LIG d   1       4.249  86.768 111.473  0.00  0.00     0.028 C 
ATOM     12  C   LIG d   1       3.800  85.308 111.307  0.00  0.00     0.006 C 
ENDBRANCH   8  11
ENDBRANCH   7   8
ENDBRANCH   1   7
BRANCH   6  13
ATOM     13  N   LIG d   1       2.188  88.981 115.922  0.00  0.00    -0.311 N 
ATOM     14  C   LIG d   1       2.085  90.285 116.170  0.00  0.00     0.210 C 
ATOM     15  C   LIG d   1       3.145  90.849 117.121  0.00  0.00     0.109 C 
ATOM     16  O   LIG d   1       1.197  91.023 115.717  0.00  0.00    -0.276 OA
ATOM     17  H   LIG d   1       2.919  88.453 116.357  0.00  0.00     0.149 HD
ENDBRANCH   6  13
BRANCH   5  18
ATOM     18  N   LIG d   1      -0.797  88.562 116.421  0.00  0.00     0.381 N 
ATOM     19  H   LIG d   1      -1.538  88.812 115.796  0.00  0.00    -0.090 HD
ATOM     20  H   LIG d   1      -0.271  89.392 116.633  0.00  0.00    -0.090 HD
ATOM     21  H   LIG d   1      -1.174  88.176 117.258  0.00  0.00    -0.090 HD
ENDBRANCH   5  18
BRANCH   3  22
ATOM     22  C   LIG d   1      -0.588  84.729 113.558  0.00  0.00     0.382 C 
ATOM     23  O   LIG d   1      -0.506  84.397 112.351  0.00  0.00    -0.241 OA
ATOM     24  O   LIG d   1      -1.250  84.024 114.344  0.00  0.00    -0.241 OA
ENDBRANCH   3  22
TORSDOF 7
ENDMDL
MODEL 7
REMARK VINA RESULT:      -5.1      2.907      6.062
REMARK  7 active torsions:
REMARK  status: ('A' for Active; 'I' for Inactive)
REMARK    1  A    between atoms: C_2  and  C_3 
REMARK    2  A    between atoms: C_3  and  O_6 
REMARK    3  A    between atoms: C_3  and  C_4 
REMARK    4  A    between atoms: C_7  and  O_6 
REMARK    5  A    between atoms: C_9  and  C_10 
REMARK    6  A    between atoms: N_15  and  C_14 
REMARK    7  A    between atoms: N_20  and  C_19 
REMARK       I    between atoms: C_22  and  N_20 
ROOT
ATOM      1  C   LIG d   1      -4.521  77.895 116.396  0.00  0.00     0.161 C 
ATOM      2  C   LIG d   1      -4.664  76.677 115.710  0.00  0.00     0.016 C 
ATOM      3  C   LIG d   1      -5.859  75.922 115.706  0.00  0.00     0.038 C 
ATOM      4  C   LIG d   1      -7.048  76.412 116.267  0.00  0.00     0.028 C 
ATOM      5  C   LIG d   1      -6.818  77.404 117.403  0.00  0.00    -0.047 C 
ATOM      6  C   LIG d   1      -5.840  78.500 116.921  0.00  0.00     0.091 C 
ENDROOT
BRANCH   1   7
ATOM      7  O   LIG d   1      -3.830  78.847 115.563  0.00  0.00    -0.368 OA
BRANCH   7   8
ATOM      8  C   LIG d   1      -2.500  79.225 115.996  0.00  0.00     0.119 C 
BRANCH   8   9
ATOM      9  C   LIG d   1      -2.502  80.751 116.215  0.00  0.00     0.028 C 
ATOM     10  C   LIG d   1      -2.192  81.134 117.672  0.00  0.00     0.006 C 
ENDBRANCH   8   9
BRANCH   8  11
ATOM     11  C   LIG d   1      -1.464  78.974 114.896  0.00  0.00     0.028 C 
ATOM     12  C   LIG d   1      -2.101  78.553 113.562  0.00  0.00     0.006 C 
ENDBRANCH   8  11
ENDBRANCH   7   8
ENDBRANCH   1   7
BRANCH   6  13
ATOM     13  N   LIG d   1      -5.495  79.465 117.998  0.00  0.00    -0.311 N 
ATOM     14  C   LIG d   1      -6.090  80.648 118.141  0.00  0.00     0.210 C 
ATOM     15  C   LIG d   1      -5.569  81.497 119.305  0.00  0.00     0.109 C 
ATOM     16  O   LIG d   1      -7.021  81.061 117.433  0.00  0.00    -0.276 OA
ATOM     17  H   LIG d   1      -4.771  79.196 118.636  0.00  0.00     0.149 HD
ENDBRANCH   6  13
BRANCH   5  18
ATOM     18  N   LIG d   1      -8.134  77.938 117.802  0.00  0.00     0.381 N 
ATOM     19  H   LIG d   1      -8.655  78.198 116.988  0.00  0.00    -0.090 HD
ATOM     20  H   LIG d   1      -7.995  78.760 118.363  0.00  0.00    -0.090 HD
ATOM     21  H   LIG d   1      -8.636  77.253 118.322  0.00  0.00    -0.090 HD
ENDBRANCH   5  18
BRANCH   3  22
ATOM     22  C   LIG d   1      -5.863  74.643 115.170  0.00  0.00     0.382 C 
ATOM     23  O   LIG d   1      -6.317  73.684 115.839  0.00  0.00    -0.241 OA
ATOM     24  O   LIG d   1      -5.376  74.429 114.044  0.00  0.00    -0.241 OA
ENDBRANCH   3  22
TORSDOF 7
ENDMDL
MODEL 8
REMARK VINA RESULT:      -5.1     12.464     14.627
REMARK  7 active torsions:
REMARK  status: ('A' for Active; 'I' for Inactive)
REMARK    1  A    between atoms: C_2  and  C_3 
REMARK    2  A    between atoms: C_3  and  O_6 
REMARK    3  A    between atoms: C_3  and  C_4 
REMARK    4  A    between atoms: C_7  and  O_6 
REMARK    5  A    between atoms: C_9  and  C_10 
REMARK    6  A    between atoms: N_15  and  C_14 
REMARK    7  A    between atoms: N_20  and  C_19 
REMARK       I    between atoms: C_22  and  N_20 
ROOT
ATOM      1  C   LIG d   1       1.127  88.181 115.362  0.00  0.00     0.161 C 
ATOM      2  C   LIG d   1       0.020  88.030 116.214  0.00  0.00     0.016 C 
ATOM      3  C   LIG d   1      -0.365  89.001 117.168  0.00  0.00     0.038 C 
ATOM      4  C   LIG d   1       0.245  90.262 117.230  0.00  0.00     0.028 C 
ATOM      5  C   LIG d   1       1.687  90.263 116.732  0.00  0.00    -0.047 C 
ATOM      6  C   LIG d   1       1.737  89.598 115.338  0.00  0.00     0.091 C 
ENDROOT
BRANCH   1   7
ATOM      7  O   LIG d   1       0.775  87.764 114.027  0.00  0.00    -0.368 OA
BRANCH   7   8
ATOM      8  C   LIG d   1       1.548  86.669 113.477  0.00  0.00     0.119 C 
BRANCH   8   9
ATOM      9  C   LIG d   1       1.983  87.077 112.057  0.00  0.00     0.028 C 
ATOM     10  C   LIG d   1       3.482  86.834 111.810  0.00  0.00     0.006 C 
ENDBRANCH   8   9
BRANCH   8  11
ATOM     11  C   LIG d   1       0.685  85.417 113.293  0.00  0.00     0.028 C 
ATOM     12  C   LIG d   1       0.839  84.412 114.446  0.00  0.00     0.006 C 
ENDBRANCH   8  11
ENDBRANCH   7   8
ENDBRANCH   1   7
BRANCH   6  13
ATOM     13  N   LIG d   1       3.123  89.482 114.815  0.00  0.00    -0.311 N 
ATOM     14  C   LIG d   1       3.556  90.129 113.734  0.00  0.00     0.210 C 
ATOM     15  C   LIG d   1       5.014  89.853 113.355  0.00  0.00     0.109 C 
ATOM     16  O   LIG d   1       2.879  90.930 113.072  0.00  0.00    -0.276 OA
ATOM     17  H   LIG d   1       3.749  88.876 115.310  0.00  0.00     0.149 HD
ENDBRANCH   6  13
BRANCH   5  18
ATOM     18  N   LIG d   1       2.154  91.662 116.723  0.00  0.00     0.381 N 
ATOM     19  H   LIG d   1       2.964  91.745 116.141  0.00  0.00    -0.090 HD
ATOM     20  H   LIG d   1       2.409  91.926 117.658  0.00  0.00    -0.090 HD
ATOM     21  H   LIG d   1       1.432  92.261 116.386  0.00  0.00    -0.090 HD
ENDBRANCH   5  18
BRANCH   3  22
ATOM     22  C   LIG d   1      -1.345  88.697 118.100  0.00  0.00     0.382 C 
ATOM     23  O   LIG d   1      -1.023  88.409 119.278  0.00  0.00    -0.241 OA
ATOM     24  O   LIG d   1      -2.545  88.663 117.766  0.00  0.00    -0.241 OA
ENDBRANCH   3  22
TORSDOF 7
ENDMDL
MODEL 9
REMARK VINA RESULT:      -5.1     12.682     14.510
REMARK  7 active torsions:
REMARK  status: ('A' for Active; 'I' for Inactive)
REMARK    1  A    between atoms: C_2  and  C_3 
REMARK    2  A    between atoms: C_3  and  O_6 
REMARK    3  A    between atoms: C_3  and  C_4 
REMARK    4  A    between atoms: C_7  and  O_6 
REMARK    5  A    between atoms: C_9  and  C_10 
REMARK    6  A    between atoms: N_15  and  C_14 
REMARK    7  A    between atoms: N_20  and  C_19 
REMARK       I    between atoms: C_22  and  N_20 
ROOT
ATOM      1  C   LIG d   1       2.922  87.137 115.406  0.00  0.00     0.161 C 
ATOM      2  C   LIG d   1       2.517  88.334 114.792  0.00  0.00     0.016 C 
ATOM      3  C   LIG d   1       3.380  89.435 114.589  0.00  0.00     0.038 C 
ATOM      4  C   LIG d   1       4.756  89.357 114.852  0.00  0.00     0.028 C 
ATOM      5  C   LIG d   1       5.109  88.347 115.938  0.00  0.00    -0.047 C 
ATOM      6  C   LIG d   1       4.447  86.993 115.598  0.00  0.00     0.091 C 
ENDROOT
BRANCH   1   7
ATOM      7  O   LIG d   1       2.401  86.011 114.672  0.00  0.00    -0.368 OA
BRANCH   7   8
ATOM      8  C   LIG d   1       2.071  86.253 113.282  0.00  0.00     0.119 C 
BRANCH   8   9
ATOM      9  C   LIG d   1       0.778  85.475 112.971  0.00  0.00     0.028 C 
ATOM     10  C   LIG d   1      -0.083  85.242 114.224  0.00  0.00     0.006 C 
ENDBRANCH   8   9
BRANCH   8  11
ATOM     11  C   LIG d   1       3.133  85.666 112.348  0.00  0.00     0.028 C 
ATOM     12  C   LIG d   1       4.040  86.740 111.726  0.00  0.00     0.006 C 
ENDBRANCH   8  11
ENDBRANCH   7   8
ENDBRANCH   1   7
BRANCH   6  13
ATOM     13  N   LIG d   1       4.672  85.971 116.654  0.00  0.00    -0.311 N 
ATOM     14  C   LIG d   1       5.006  84.708 116.392  0.00  0.00     0.210 C 
ATOM     15  C   LIG d   1       5.171  83.814 117.625  0.00  0.00     0.109 C 
ATOM     16  O   LIG d   1       5.213  84.252 115.258  0.00  0.00    -0.276 OA
ATOM     17  H   LIG d   1       4.555  86.263 117.604  0.00  0.00     0.149 HD
ENDBRANCH   6  13
BRANCH   5  18
ATOM     18  N   LIG d   1       6.580  88.269 116.013  0.00  0.00     0.381 N 
ATOM     19  H   LIG d   1       6.970  89.190 116.000  0.00  0.00    -0.090 HD
ATOM     20  H   LIG d   1       6.921  87.771 115.209  0.00  0.00    -0.090 HD
ATOM     21  H   LIG d   1       6.854  87.796 116.846  0.00  0.00    -0.090 HD
ENDBRANCH   5  18
BRANCH   3  22
ATOM     22  C   LIG d   1       2.860  90.645 114.154  0.00  0.00     0.382 C 
ATOM     23  O   LIG d   1       3.003  90.995 112.958  0.00  0.00    -0.241 OA
ATOM     24  O   LIG d   1       2.289  91.410 114.954  0.00  0.00    -0.241 OA
ENDBRANCH   3  22
TORSDOF 7
ENDMDL
