MODEL 1
REMARK VINA RESULT:      -5.6      0.000      0.000
REMARK  7 active torsions:
REMARK  status: ('A' for Active; 'I' for Inactive)
REMARK    1  A    between atoms: C_2  and  C_3 
REMARK    2  A    between atoms: C_3  and  O_6 
REMARK    3  A    between atoms: C_3  and  C_4 
REMARK    4  A    between atoms: C_7  and  O_6 
REMARK    5  A    between atoms: C_9  and  C_10 
REMARK    6  A    between atoms: N_15  and  C_14 
REMARK    7  A    between atoms: N_20  and  C_19 
REMARK       I    between atoms: C_22  and  N_20 
ROOT
ATOM      1  C   LIG d   1      -7.187  76.284 117.492  0.00  0.00     0.161 C 
ATOM      2  C   LIG d   1      -8.269  77.057 117.943  0.00  0.00     0.016 C 
ATOM      3  C   LIG d   1      -8.248  78.470 117.997  0.00  0.00     0.038 C 
ATOM      4  C   LIG d   1      -7.190  79.216 117.457  0.00  0.00     0.028 C 
ATOM      5  C   LIG d   1      -5.861  78.468 117.452  0.00  0.00    -0.047 C 
ATOM      6  C   LIG d   1      -6.067  77.084 116.794  0.00  0.00     0.091 C 
ENDROOT
BRANCH   1   7
ATOM      7  O   LIG d   1      -7.664  75.233 116.628  0.00  0.00    -0.368 OA
BRANCH   7   8
ATOM      8  C   LIG d   1      -7.715  73.906 117.207  0.00  0.00     0.119 C 
BRANCH   8   9
ATOM      9  C   LIG d   1      -6.764  73.008 116.392  0.00  0.00     0.028 C 
ATOM     10  C   LIG d   1      -7.126  71.517 116.502  0.00  0.00     0.006 C 
ENDBRANCH   8   9
BRANCH   8  11
ATOM     11  C   LIG d   1      -9.103  73.280 117.044  0.00  0.00     0.028 C 
ATOM     12  C   LIG d   1     -10.170  74.300 116.617  0.00  0.00     0.006 C 
ENDBRANCH   8  11
ENDBRANCH   7   8
ENDBRANCH   1   7
BRANCH   6  13
ATOM     13  N   LIG d   1      -4.835  76.253 116.825  0.00  0.00    -0.311 N 
ATOM     14  C   LIG d   1      -4.210  75.828 115.728  0.00  0.00     0.210 C 
ATOM     15  C   LIG d   1      -2.969  74.967 115.983  0.00  0.00     0.109 C 
ATOM     16  O   LIG d   1      -4.547  76.109 114.568  0.00  0.00    -0.276 OA
ATOM     17  H   LIG d   1      -4.474  76.005 117.725  0.00  0.00     0.149 HD
ENDBRANCH   6  13
BRANCH   5  18
ATOM     18  N   LIG d   1      -4.880  79.307 116.739  0.00  0.00     0.381 N 
ATOM     19  H   LIG d   1      -4.970  79.169 115.752  0.00  0.00    -0.090 HD
ATOM     20  H   LIG d   1      -3.954  79.029 117.013  0.00  0.00    -0.090 HD
ATOM     21  H   LIG d   1      -5.026  80.267 116.962  0.00  0.00    -0.090 HD
ENDBRANCH   5  18
BRANCH   3  22
ATOM     22  C   LIG d   1      -9.276  79.149 118.633  0.00  0.00     0.382 C 
ATOM     23  O   LIG d   1     -10.130  78.514 119.297  0.00  0.00    -0.241 OA
ATOM     24  O   LIG d   1      -9.386  80.384 118.513  0.00  0.00    -0.241 OA
ENDBRANCH   3  22
TORSDOF 7
ENDMDL
MODEL 2
REMARK VINA RESULT:      -5.6      1.635      4.643
REMARK  7 active torsions:
REMARK  status: ('A' for Active; 'I' for Inactive)
REMARK    1  A    between atoms: C_2  and  C_3 
REMARK    2  A    between atoms: C_3  and  O_6 
REMARK    3  A    between atoms: C_3  and  C_4 
REMARK    4  A    between atoms: C_7  and  O_6 
REMARK    5  A    between atoms: C_9  and  C_10 
REMARK    6  A    between atoms: N_15  and  C_14 
REMARK    7  A    between atoms: N_20  and  C_19 
REMARK       I    between atoms: C_22  and  N_20 
ROOT
ATOM      1  C   LIG d   1      -7.290  76.401 116.667  0.00  0.00     0.161 C 
ATOM      2  C   LIG d   1      -6.754  75.915 115.463  0.00  0.00     0.016 C 
ATOM      3  C   LIG d   1      -5.505  76.328 114.944  0.00  0.00     0.038 C 
ATOM      4  C   LIG d   1      -4.633  77.148 115.676  0.00  0.00     0.028 C 
ATOM      5  C   LIG d   1      -5.348  78.062 116.665  0.00  0.00    -0.047 C 
ATOM      6  C   LIG d   1      -6.304  77.212 117.533  0.00  0.00     0.091 C 
ENDROOT
BRANCH   1   7
ATOM      7  O   LIG d   1      -7.848  75.312 117.428  0.00  0.00    -0.368 OA
BRANCH   7   8
ATOM      8  C   LIG d   1      -8.066  74.075 116.705  0.00  0.00     0.119 C 
BRANCH   8   9
ATOM      9  C   LIG d   1      -9.509  73.618 116.996  0.00  0.00     0.028 C 
ATOM     10  C   LIG d   1     -10.553  74.660 116.564  0.00  0.00     0.006 C 
ENDBRANCH   8   9
BRANCH   8  11
ATOM     11  C   LIG d   1      -7.170  72.953 117.237  0.00  0.00     0.028 C 
ATOM     12  C   LIG d   1      -7.596  71.563 116.739  0.00  0.00     0.006 C 
ENDBRANCH   8  11
ENDBRANCH   7   8
ENDBRANCH   1   7
BRANCH   6  13
ATOM     13  N   LIG d   1      -7.105  78.040 118.472  0.00  0.00    -0.311 N 
ATOM     14  C   LIG d   1      -7.520  79.274 118.190  0.00  0.00     0.210 C 
ATOM     15  C   LIG d   1      -8.316  79.959 119.305  0.00  0.00     0.109 C 
ATOM     16  O   LIG d   1      -7.332  79.853 117.109  0.00  0.00    -0.276 OA
ATOM     17  H   LIG d   1      -7.330  77.635 119.360  0.00  0.00     0.149 HD
ENDBRANCH   6  13
BRANCH   5  18
ATOM     18  N   LIG d   1      -4.315  78.759 117.455  0.00  0.00     0.381 N 
ATOM     19  H   LIG d   1      -4.747  79.282 118.190  0.00  0.00    -0.090 HD
ATOM     20  H   LIG d   1      -3.826  79.400 116.857  0.00  0.00    -0.090 HD
ATOM     21  H   LIG d   1      -3.676  78.098 117.840  0.00  0.00    -0.090 HD
ENDBRANCH   5  18
BRANCH   3  22
ATOM     22  C   LIG d   1      -5.134  75.952 113.662  0.00  0.00     0.382 C 
ATOM     23  O   LIG d   1      -5.345  76.724 112.696  0.00  0.00    -0.241 OA
ATOM     24  O   LIG d   1      -4.633  74.831 113.453  0.00  0.00    -0.241 OA
ENDBRANCH   3  22
TORSDOF 7
ENDMDL
MODEL 3
REMARK VINA RESULT:      -5.6      2.203      4.548
REMARK  7 active torsions:
REMARK  status: ('A' for Active; 'I' for Inactive)
REMARK    1  A    between atoms: C_2  and  C_3 
REMARK    2  A    between atoms: C_3  and  O_6 
REMARK    3  A    between atoms: C_3  and  C_4 
REMARK    4  A    between atoms: C_7  and  O_6 
REMARK    5  A    between atoms: C_9  and  C_10 
REMARK    6  A    between atoms: N_15  and  C_14 
REMARK    7  A    between atoms: N_20  and  C_19 
REMARK       I    between atoms: C_22  and  N_20 
ROOT
ATOM      1  C   LIG d   1      -6.326  75.892 117.394  0.00  0.00     0.161 C 
ATOM      2  C   LIG d   1      -7.299  74.940 117.047  0.00  0.00     0.016 C 
ATOM      3  C   LIG d   1      -8.681  75.231 116.976  0.00  0.00     0.038 C 
ATOM      4  C   LIG d   1      -9.171  76.539 117.100  0.00  0.00     0.028 C 
ATOM      5  C   LIG d   1      -8.281  77.442 117.948  0.00  0.00    -0.047 C 
ATOM      6  C   LIG d   1      -6.830  77.350 117.424  0.00  0.00     0.091 C 
ENDROOT
BRANCH   1   7
ATOM      7  O   LIG d   1      -5.190  75.772 116.515  0.00  0.00    -0.368 OA
BRANCH   7   8
ATOM      8  C   LIG d   1      -5.204  76.617 115.337  0.00  0.00     0.119 C 
BRANCH   8   9
ATOM      9  C   LIG d   1      -5.349  75.697 114.109  0.00  0.00     0.028 C 
ATOM     10  C   LIG d   1      -4.799  74.284 114.367  0.00  0.00     0.006 C 
ENDBRANCH   8   9
BRANCH   8  11
ATOM     11  C   LIG d   1      -3.864  77.334 115.151  0.00  0.00     0.028 C 
ATOM     12  C   LIG d   1      -2.922  77.160 116.353  0.00  0.00     0.006 C 
ENDBRANCH   8  11
ENDBRANCH   7   8
ENDBRANCH   1   7
BRANCH   6  13
ATOM     13  N   LIG d   1      -5.878  78.138 118.250  0.00  0.00    -0.311 N 
ATOM     14  C   LIG d   1      -5.512  79.385 117.959  0.00  0.00     0.210 C 
ATOM     15  C   LIG d   1      -4.506  80.008 118.932  0.00  0.00     0.109 C 
ATOM     16  O   LIG d   1      -5.951  80.047 117.006  0.00  0.00    -0.276 OA
ATOM     17  H   LIG d   1      -5.498  77.689 119.061  0.00  0.00     0.149 HD
ENDBRANCH   6  13
BRANCH   5  18
ATOM     18  N   LIG d   1      -8.836  78.807 117.879  0.00  0.00     0.381 N 
ATOM     19  H   LIG d   1      -8.092  79.472 117.812  0.00  0.00    -0.090 HD
ATOM     20  H   LIG d   1      -9.349  78.992 118.724  0.00  0.00    -0.090 HD
ATOM     21  H   LIG d   1      -9.439  78.890 117.091  0.00  0.00    -0.090 HD
ENDBRANCH   5  18
BRANCH   3  22
ATOM     22  C   LIG d   1      -9.593  74.198 116.817  0.00  0.00     0.382 C 
ATOM     23  O   LIG d   1     -10.824  74.432 116.887  0.00  0.00    -0.241 OA
ATOM     24  O   LIG d   1      -9.200  73.028 116.650  0.00  0.00    -0.241 OA
ENDBRANCH   3  22
TORSDOF 7
ENDMDL
MODEL 4
REMARK VINA RESULT:      -5.4      4.219      6.219
REMARK  7 active torsions:
REMARK  status: ('A' for Active; 'I' for Inactive)
REMARK    1  A    between atoms: C_2  and  C_3 
REMARK    2  A    between atoms: C_3  and  O_6 
REMARK    3  A    between atoms: C_3  and  C_4 
REMARK    4  A    between atoms: C_7  and  O_6 
REMARK    5  A    between atoms: C_9  and  C_10 
REMARK    6  A    between atoms: N_15  and  C_14 
REMARK    7  A    between atoms: N_20  and  C_19 
REMARK       I    between atoms: C_22  and  N_20 
ROOT
ATOM      1  C   LIG d   1      -2.035  75.606 114.916  0.00  0.00     0.161 C 
ATOM      2  C   LIG d   1      -1.764  74.813 116.044  0.00  0.00     0.016 C 
ATOM      3  C   LIG d   1      -1.233  75.329 117.249  0.00  0.00     0.038 C 
ATOM      4  C   LIG d   1      -1.077  76.707 117.460  0.00  0.00     0.028 C 
ATOM      5  C   LIG d   1      -0.863  77.497 116.174  0.00  0.00    -0.047 C 
ATOM      6  C   LIG d   1      -1.976  77.128 115.167  0.00  0.00     0.091 C 
ENDROOT
BRANCH   1   7
ATOM      7  O   LIG d   1      -3.312  75.240 114.357  0.00  0.00    -0.368 OA
BRANCH   7   8
ATOM      8  C   LIG d   1      -4.396  75.064 115.302  0.00  0.00     0.119 C 
BRANCH   8   9
ATOM      9  C   LIG d   1      -4.973  73.652 115.087  0.00  0.00     0.028 C 
ATOM     10  C   LIG d   1      -6.204  73.380 115.968  0.00  0.00     0.006 C 
ENDBRANCH   8   9
BRANCH   8  11
ATOM     11  C   LIG d   1      -5.552  76.024 115.009  0.00  0.00     0.028 C 
ATOM     12  C   LIG d   1      -5.798  76.219 113.504  0.00  0.00     0.006 C 
ENDBRANCH   8  11
ENDBRANCH   7   8
ENDBRANCH   1   7
BRANCH   6  13
ATOM     13  N   LIG d   1      -1.793  77.793 113.851  0.00  0.00    -0.311 N 
ATOM     14  C   LIG d   1      -2.370  78.949 113.527  0.00  0.00     0.210 C 
ATOM     15  C   LIG d   1      -2.064  79.451 112.112  0.00  0.00     0.109 C 
ATOM     16  O   LIG d   1      -3.079  79.623 114.289  0.00  0.00    -0.276 OA
ATOM     17  H   LIG d   1      -1.207  77.331 113.183  0.00  0.00     0.149 HD
ENDBRANCH   6  13
BRANCH   5  18
ATOM     18  N   LIG d   1      -0.854  78.929 116.527  0.00  0.00     0.381 N 
ATOM     19  H   LIG d   1       0.080  79.220 116.736  0.00  0.00    -0.090 HD
ATOM     20  H   LIG d   1      -1.418  79.065 117.347  0.00  0.00    -0.090 HD
ATOM     21  H   LIG d   1      -1.216  79.468 115.772  0.00  0.00    -0.090 HD
ENDBRANCH   5  18
BRANCH   3  22
ATOM     22  C   LIG d   1      -0.815  74.458 118.243  0.00  0.00     0.382 C 
ATOM     23  O   LIG d   1      -0.321  74.909 119.305  0.00  0.00    -0.241 OA
ATOM     24  O   LIG d   1      -0.883  73.226 118.074  0.00  0.00    -0.241 OA
ENDBRANCH   3  22
TORSDOF 7
ENDMDL
MODEL 5
REMARK VINA RESULT:      -5.2      3.671      6.149
REMARK  7 active torsions:
REMARK  status: ('A' for Active; 'I' for Inactive)
REMARK    1  A    between atoms: C_2  and  C_3 
REMARK    2  A    between atoms: C_3  and  O_6 
REMARK    3  A    between atoms: C_3  and  C_4 
REMARK    4  A    between atoms: C_7  and  O_6 
REMARK    5  A    between atoms: C_9  and  C_10 
REMARK    6  A    between atoms: N_15  and  C_14 
REMARK    7  A    between atoms: N_20  and  C_19 
REMARK       I    between atoms: C_22  and  N_20 
ROOT
ATOM      1  C   LIG d   1      -2.827  77.839 116.402  0.00  0.00     0.161 C 
ATOM      2  C   LIG d   1      -3.060  78.634 115.268  0.00  0.00     0.016 C 
ATOM      3  C   LIG d   1      -2.471  78.383 114.008  0.00  0.00     0.038 C 
ATOM      4  C   LIG d   1      -1.722  77.224 113.757  0.00  0.00     0.028 C 
ATOM      5  C   LIG d   1      -1.046  76.658 115.001  0.00  0.00    -0.047 C 
ATOM      6  C   LIG d   1      -2.101  76.506 116.120  0.00  0.00     0.091 C 
ENDROOT
BRANCH   1   7
ATOM      7  O   LIG d   1      -4.069  77.596 117.093  0.00  0.00    -0.368 OA
BRANCH   7   8
ATOM      8  C   LIG d   1      -5.275  77.730 116.301  0.00  0.00     0.119 C 
BRANCH   8   9
ATOM      9  C   LIG d   1      -6.320  78.458 117.169  0.00  0.00     0.028 C 
ATOM     10  C   LIG d   1      -5.940  79.924 117.439  0.00  0.00     0.006 C 
ENDBRANCH   8   9
BRANCH   8  11
ATOM     11  C   LIG d   1      -5.890  76.363 115.987  0.00  0.00     0.028 C 
ATOM     12  C   LIG d   1      -6.315  76.225 114.516  0.00  0.00     0.006 C 
ENDBRANCH   8  11
ENDBRANCH   7   8
ENDBRANCH   1   7
BRANCH   6  13
ATOM     13  N   LIG d   1      -1.508  76.038 117.400  0.00  0.00    -0.311 N 
ATOM     14  C   LIG d   1      -1.307  74.753 117.688  0.00  0.00     0.210 C 
ATOM     15  C   LIG d   1      -0.702  74.487 119.070  0.00  0.00     0.109 C 
ATOM     16  O   LIG d   1      -1.544  73.810 116.918  0.00  0.00    -0.276 OA
ATOM     17  H   LIG d   1      -1.257  76.739 118.070  0.00  0.00     0.149 HD
ENDBRANCH   6  13
BRANCH   5  18
ATOM     18  N   LIG d   1      -0.415  75.379 114.623  0.00  0.00     0.381 N 
ATOM     19  H   LIG d   1       0.394  75.554 114.062  0.00  0.00    -0.090 HD
ATOM     20  H   LIG d   1      -1.068  74.844 114.079  0.00  0.00    -0.090 HD
ATOM     21  H   LIG d   1      -0.158  74.871 115.441  0.00  0.00    -0.090 HD
ENDBRANCH   5  18
BRANCH   3  22
ATOM     22  C   LIG d   1      -2.596  79.319 112.992  0.00  0.00     0.382 C 
ATOM     23  O   LIG d   1      -2.949  80.493 113.261  0.00  0.00    -0.241 OA
ATOM     24  O   LIG d   1      -2.403  78.994 111.805  0.00  0.00    -0.241 OA
ENDBRANCH   3  22
TORSDOF 7
ENDMDL
MODEL 6
REMARK VINA RESULT:      -4.9      2.372      5.912
REMARK  7 active torsions:
REMARK  status: ('A' for Active; 'I' for Inactive)
REMARK    1  A    between atoms: C_2  and  C_3 
REMARK    2  A    between atoms: C_3  and  O_6 
REMARK    3  A    between atoms: C_3  and  C_4 
REMARK    4  A    between atoms: C_7  and  O_6 
REMARK    5  A    between atoms: C_9  and  C_10 
REMARK    6  A    between atoms: N_15  and  C_14 
REMARK    7  A    between atoms: N_20  and  C_19 
REMARK       I    between atoms: C_22  and  N_20 
ROOT
ATOM      1  C   LIG d   1      -5.198  77.743 116.403  0.00  0.00     0.161 C 
ATOM      2  C   LIG d   1      -4.123  78.512 115.928  0.00  0.00     0.016 C 
ATOM      3  C   LIG d   1      -3.198  78.046 114.966  0.00  0.00     0.038 C 
ATOM      4  C   LIG d   1      -3.375  76.826 114.297  0.00  0.00     0.028 C 
ATOM      5  C   LIG d   1      -4.161  75.800 115.106  0.00  0.00    -0.047 C 
ATOM      6  C   LIG d   1      -5.472  76.451 115.604  0.00  0.00     0.091 C 
ENDROOT
BRANCH   1   7
ATOM      7  O   LIG d   1      -6.388  78.553 116.468  0.00  0.00    -0.368 OA
BRANCH   7   8
ATOM      8  C   LIG d   1      -6.793  78.986 117.790  0.00  0.00     0.119 C 
BRANCH   8   9
ATOM      9  C   LIG d   1      -8.312  79.244 117.747  0.00  0.00     0.028 C 
ATOM     10  C   LIG d   1      -9.125  78.043 118.258  0.00  0.00     0.006 C 
ENDBRANCH   8   9
BRANCH   8  11
ATOM     11  C   LIG d   1      -6.163  80.334 118.152  0.00  0.00     0.028 C 
ATOM     12  C   LIG d   1      -7.029  81.530 117.727  0.00  0.00     0.006 C 
ENDBRANCH   8  11
ENDBRANCH   7   8
ENDBRANCH   1   7
BRANCH   6  13
ATOM     13  N   LIG d   1      -6.262  75.542 116.474  0.00  0.00    -0.311 N 
ATOM     14  C   LIG d   1      -7.580  75.387 116.368  0.00  0.00     0.210 C 
ATOM     15  C   LIG d   1      -8.201  74.416 117.377  0.00  0.00     0.109 C 
ATOM     16  O   LIG d   1      -8.290  75.937 115.512  0.00  0.00    -0.276 OA
ATOM     17  H   LIG d   1      -5.760  75.033 117.176  0.00  0.00     0.149 HD
ENDBRANCH   6  13
BRANCH   5  18
ATOM     18  N   LIG d   1      -4.390  74.629 114.239  0.00  0.00     0.381 N 
ATOM     19  H   LIG d   1      -5.355  74.583 113.980  0.00  0.00    -0.090 HD
ATOM     20  H   LIG d   1      -4.161  73.795 114.752  0.00  0.00    -0.090 HD
ATOM     21  H   LIG d   1      -3.821  74.692 113.424  0.00  0.00    -0.090 HD
ENDBRANCH   5  18
BRANCH   3  22
ATOM     22  C   LIG d   1      -2.058  78.788 114.693  0.00  0.00     0.382 C 
ATOM     23  O   LIG d   1      -1.069  78.723 115.462  0.00  0.00    -0.241 OA
ATOM     24  O   LIG d   1      -2.023  79.554 113.711  0.00  0.00    -0.241 OA
ENDBRANCH   3  22
TORSDOF 7
ENDMDL
MODEL 7
REMARK VINA RESULT:      -4.9      2.017      5.210
REMARK  7 active torsions:
REMARK  status: ('A' for Active; 'I' for Inactive)
REMARK    1  A    between atoms: C_2  and  C_3 
REMARK    2  A    between atoms: C_3  and  O_6 
REMARK    3  A    between atoms: C_3  and  C_4 
REMARK    4  A    between atoms: C_7  and  O_6 
REMARK    5  A    between atoms: C_9  and  C_10 
REMARK    6  A    between atoms: N_15  and  C_14 
REMARK    7  A    between atoms: N_20  and  C_19 
REMARK       I    between atoms: C_22  and  N_20 
ROOT
ATOM      1  C   LIG d   1      -5.152  76.563 115.273  0.00  0.00     0.161 C 
ATOM      2  C   LIG d   1      -3.951  75.979 114.838  0.00  0.00     0.016 C 
ATOM      3  C   LIG d   1      -2.710  76.176 115.486  0.00  0.00     0.038 C 
ATOM      4  C   LIG d   1      -2.612  76.856 116.709  0.00  0.00     0.028 C 
ATOM      5  C   LIG d   1      -3.715  77.888 116.919  0.00  0.00    -0.047 C 
ATOM      6  C   LIG d   1      -5.085  77.217 116.669  0.00  0.00     0.091 C 
ENDROOT
BRANCH   1   7
ATOM      7  O   LIG d   1      -6.214  75.590 115.226  0.00  0.00    -0.368 OA
BRANCH   7   8
ATOM      8  C   LIG d   1      -6.244  74.627 116.308  0.00  0.00     0.119 C 
BRANCH   8   9
ATOM      9  C   LIG d   1      -5.946  73.241 115.702  0.00  0.00     0.028 C 
ATOM     10  C   LIG d   1      -6.765  72.122 116.366  0.00  0.00     0.006 C 
ENDBRANCH   8   9
BRANCH   8  11
ATOM     11  C   LIG d   1      -7.646  74.512 116.913  0.00  0.00     0.028 C 
ATOM     12  C   LIG d   1      -8.642  75.512 116.304  0.00  0.00     0.006 C 
ENDBRANCH   8  11
ENDBRANCH   7   8
ENDBRANCH   1   7
BRANCH   6  13
ATOM     13  N   LIG d   1      -6.214  78.178 116.770  0.00  0.00    -0.311 N 
ATOM     14  C   LIG d   1      -6.922  78.363 117.883  0.00  0.00     0.210 C 
ATOM     15  C   LIG d   1      -8.056  79.386 117.766  0.00  0.00     0.109 C 
ATOM     16  O   LIG d   1      -6.699  77.799 118.965  0.00  0.00    -0.276 OA
ATOM     17  H   LIG d   1      -6.444  78.700 115.947  0.00  0.00     0.149 HD
ENDBRANCH   6  13
BRANCH   5  18
ATOM     18  N   LIG d   1      -3.573  78.421 118.287  0.00  0.00     0.381 N 
ATOM     19  H   LIG d   1      -2.756  78.037 118.717  0.00  0.00    -0.090 HD
ATOM     20  H   LIG d   1      -4.373  78.145 118.828  0.00  0.00    -0.090 HD
ATOM     21  H   LIG d   1      -3.507  79.415 118.260  0.00  0.00    -0.090 HD
ENDBRANCH   5  18
BRANCH   3  22
ATOM     22  C   LIG d   1      -1.543  75.725 114.888  0.00  0.00     0.382 C 
ATOM     23  O   LIG d   1      -0.788  74.934 115.504  0.00  0.00    -0.241 OA
ATOM     24  O   LIG d   1      -1.213  76.134 113.759  0.00  0.00    -0.241 OA
ENDBRANCH   3  22
TORSDOF 7
ENDMDL
MODEL 8
REMARK VINA RESULT:      -4.7      2.486      5.891
REMARK  7 active torsions:
REMARK  status: ('A' for Active; 'I' for Inactive)
REMARK    1  A    between atoms: C_2  and  C_3 
REMARK    2  A    between atoms: C_3  and  O_6 
REMARK    3  A    between atoms: C_3  and  C_4 
REMARK    4  A    between atoms: C_7  and  O_6 
REMARK    5  A    between atoms: C_9  and  C_10 
REMARK    6  A    between atoms: N_15  and  C_14 
REMARK    7  A    between atoms: N_20  and  C_19 
REMARK       I    between atoms: C_22  and  N_20 
ROOT
ATOM      1  C   LIG d   1      -4.087  76.445 116.358  0.00  0.00     0.161 C 
ATOM      2  C   LIG d   1      -3.121  75.490 116.000  0.00  0.00     0.016 C 
ATOM      3  C   LIG d   1      -1.731  75.748 116.008  0.00  0.00     0.038 C 
ATOM      4  C   LIG d   1      -1.201  76.940 116.523  0.00  0.00     0.028 C 
ATOM      5  C   LIG d   1      -2.160  78.122 116.423  0.00  0.00    -0.047 C 
ATOM      6  C   LIG d   1      -3.523  77.715 117.029  0.00  0.00     0.091 C 
ENDROOT
BRANCH   1   7
ATOM      7  O   LIG d   1      -5.087  75.837 117.199  0.00  0.00    -0.368 OA
BRANCH   7   8
ATOM      8  C   LIG d   1      -6.235  75.273 116.517  0.00  0.00     0.119 C 
BRANCH   8   9
ATOM      9  C   LIG d   1      -7.015  76.441 115.882  0.00  0.00     0.028 C 
ATOM     10  C   LIG d   1      -8.065  77.034 116.837  0.00  0.00     0.006 C 
ENDBRANCH   8   9
BRANCH   8  11
ATOM     11  C   LIG d   1      -7.208  74.626 117.507  0.00  0.00     0.028 C 
ATOM     12  C   LIG d   1      -7.659  73.224 117.070  0.00  0.00     0.006 C 
ENDBRANCH   8  11
ENDBRANCH   7   8
ENDBRANCH   1   7
BRANCH   6  13
ATOM     13  N   LIG d   1      -4.545  78.786 116.895  0.00  0.00    -0.311 N 
ATOM     14  C   LIG d   1      -5.273  79.235 117.916  0.00  0.00     0.210 C 
ATOM     15  C   LIG d   1      -6.284  80.328 117.556  0.00  0.00     0.109 C 
ATOM     16  O   LIG d   1      -5.155  78.855 119.090  0.00  0.00    -0.276 OA
ATOM     17  H   LIG d   1      -4.683  79.173 115.982  0.00  0.00     0.149 HD
ENDBRANCH   6  13
BRANCH   5  18
ATOM     18  N   LIG d   1      -1.535  79.263 117.119  0.00  0.00     0.381 N 
ATOM     19  H   LIG d   1      -2.211  79.989 117.253  0.00  0.00    -0.090 HD
ATOM     20  H   LIG d   1      -0.792  79.625 116.547  0.00  0.00    -0.090 HD
ATOM     21  H   LIG d   1      -1.174  78.969 117.999  0.00  0.00    -0.090 HD
ENDBRANCH   5  18
BRANCH   3  22
ATOM     22  C   LIG d   1      -0.857  74.822 115.459  0.00  0.00     0.382 C 
ATOM     23  O   LIG d   1      -0.601  74.852 114.231  0.00  0.00    -0.241 OA
ATOM     24  O   LIG d   1      -0.356  73.929 116.168  0.00  0.00    -0.241 OA
ENDBRANCH   3  22
TORSDOF 7
ENDMDL
MODEL 9
REMARK VINA RESULT:      -4.7      2.209      4.168
REMARK  7 active torsions:
REMARK  status: ('A' for Active; 'I' for Inactive)
REMARK    1  A    between atoms: C_2  and  C_3 
REMARK    2  A    between atoms: C_3  and  O_6 
REMARK    3  A    between atoms: C_3  and  C_4 
REMARK    4  A    between atoms: C_7  and  O_6 
REMARK    5  A    between atoms: C_9  and  C_10 
REMARK    6  A    between atoms: N_15  and  C_14 
REMARK    7  A    between atoms: N_20  and  C_19 
REMARK       I    between atoms: C_22  and  N_20 
ROOT
ATOM      1  C   LIG d   1      -5.896  77.507 117.096  0.00  0.00     0.161 C 
ATOM      2  C   LIG d   1      -6.659  78.621 117.484  0.00  0.00     0.016 C 
ATOM      3  C   LIG d   1      -8.068  78.598 117.602  0.00  0.00     0.038 C 
ATOM      4  C   LIG d   1      -8.801  77.408 117.485  0.00  0.00     0.028 C 
ATOM      5  C   LIG d   1      -8.127  76.365 116.599  0.00  0.00    -0.047 C 
ATOM      6  C   LIG d   1      -6.669  76.172 117.073  0.00  0.00     0.091 C 
ENDROOT
BRANCH   1   7
ATOM      7  O   LIG d   1      -4.730  77.397 117.937  0.00  0.00    -0.368 OA
BRANCH   7   8
ATOM      8  C   LIG d   1      -3.450  77.479 117.264  0.00  0.00     0.119 C 
BRANCH   8   9
ATOM      9  C   LIG d   1      -2.633  76.236 117.668  0.00  0.00     0.028 C 
ATOM     10  C   LIG d   1      -2.102  75.462 116.450  0.00  0.00     0.006 C 
ENDBRANCH   8   9
BRANCH   8  11
ATOM     11  C   LIG d   1      -2.636  78.678 117.760  0.00  0.00     0.028 C 
ATOM     12  C   LIG d   1      -3.243  79.334 119.011  0.00  0.00     0.006 C 
ENDBRANCH   8  11
ENDBRANCH   7   8
ENDBRANCH   1   7
BRANCH   6  13
ATOM     13  N   LIG d   1      -5.912  75.230 116.207  0.00  0.00    -0.311 N 
ATOM     14  C   LIG d   1      -5.623  75.478 114.931  0.00  0.00     0.210 C 
ATOM     15  C   LIG d   1      -4.852  74.365 114.214  0.00  0.00     0.109 C 
ATOM     16  O   LIG d   1      -5.904  76.528 114.333  0.00  0.00    -0.276 OA
ATOM     17  H   LIG d   1      -5.618  74.366 116.620  0.00  0.00     0.149 HD
ENDBRANCH   6  13
BRANCH   5  18
ATOM     18  N   LIG d   1      -8.929  75.129 116.676  0.00  0.00     0.381 N 
ATOM     19  H   LIG d   1      -9.173  74.943 117.628  0.00  0.00    -0.090 HD
ATOM     20  H   LIG d   1      -8.377  74.362 116.335  0.00  0.00    -0.090 HD
ATOM     21  H   LIG d   1      -9.755  75.224 116.126  0.00  0.00    -0.090 HD
ENDBRANCH   5  18
BRANCH   3  22
ATOM     22  C   LIG d   1      -8.761  79.782 117.800  0.00  0.00     0.382 C 
ATOM     23  O   LIG d   1      -9.917  79.758 118.288  0.00  0.00    -0.241 OA
ATOM     24  O   LIG d   1      -8.263  80.871 117.456  0.00  0.00    -0.241 OA
ENDBRANCH   3  22
TORSDOF 7
ENDMDL
