MODEL 1
REMARK VINA RESULT:      -5.6      0.000      0.000
REMARK  7 active torsions:
REMARK  status: ('A' for Active; 'I' for Inactive)
REMARK    1  A    between atoms: C_2  and  C_3 
REMARK    2  A    between atoms: C_3  and  O_6 
REMARK    3  A    between atoms: C_3  and  C_4 
REMARK    4  A    between atoms: C_7  and  O_6 
REMARK    5  A    between atoms: C_9  and  C_10 
REMARK    6  A    between atoms: N_15  and  C_14 
REMARK    7  A    between atoms: N_20  and  C_19 
REMARK       I    between atoms: C_22  and  N_20 
ROOT
ATOM      1  C   LIG d   1      -2.626  75.001 115.140  0.00  0.00     0.161 C 
ATOM      2  C   LIG d   1      -2.202  74.389 116.331  0.00  0.00     0.016 C 
ATOM      3  C   LIG d   1      -1.224  74.946 117.187  0.00  0.00     0.038 C 
ATOM      4  C   LIG d   1      -0.711  76.236 116.985  0.00  0.00     0.028 C 
ATOM      5  C   LIG d   1      -0.736  76.677 115.526  0.00  0.00    -0.047 C 
ATOM      6  C   LIG d   1      -2.159  76.461 114.961  0.00  0.00     0.091 C 
ENDROOT
BRANCH   1   7
ATOM      7  O   LIG d   1      -4.061  74.918 115.032  0.00  0.00    -0.368 OA
BRANCH   7   8
ATOM      8  C   LIG d   1      -4.774  74.595 116.252  0.00  0.00     0.119 C 
BRANCH   8   9
ATOM      9  C   LIG d   1      -5.869  73.572 115.890  0.00  0.00     0.028 C 
ATOM     10  C   LIG d   1      -6.743  73.196 117.099  0.00  0.00     0.006 C 
ENDBRANCH   8   9
BRANCH   8  11
ATOM     11  C   LIG d   1      -5.522  75.813 116.800  0.00  0.00     0.028 C 
ATOM     12  C   LIG d   1      -4.893  76.369 118.087  0.00  0.00     0.006 C 
ENDBRANCH   8  11
ENDBRANCH   7   8
ENDBRANCH   1   7
BRANCH   6  13
ATOM     13  N   LIG d   1      -2.250  76.788 113.514  0.00  0.00    -0.311 N 
ATOM     14  C   LIG d   1      -2.625  77.980 113.055  0.00  0.00     0.210 C 
ATOM     15  C   LIG d   1      -2.671  78.100 111.528  0.00  0.00     0.109 C 
ATOM     16  O   LIG d   1      -2.893  78.960 113.766  0.00  0.00    -0.276 OA
ATOM     17  H   LIG d   1      -2.020  76.060 112.866  0.00  0.00     0.149 HD
ENDBRANCH   6  13
BRANCH   5  18
ATOM     18  N   LIG d   1      -0.303  78.086 115.478  0.00  0.00     0.381 N 
ATOM     19  H   LIG d   1       0.653  78.137 115.189  0.00  0.00    -0.090 HD
ATOM     20  H   LIG d   1      -0.375  78.479 116.400  0.00  0.00    -0.090 HD
ATOM     21  H   LIG d   1      -0.877  78.598 114.845  0.00  0.00    -0.090 HD
ENDBRANCH   5  18
BRANCH   3  22
ATOM     22  C   LIG d   1      -0.721  74.193 118.237  0.00  0.00     0.382 C 
ATOM     23  O   LIG d   1      -0.136  74.761 119.191  0.00  0.00    -0.241 OA
ATOM     24  O   LIG d   1      -0.806  72.951 118.221  0.00  0.00    -0.241 OA
ENDBRANCH   3  22
TORSDOF 7
ENDMDL
MODEL 2
REMARK VINA RESULT:      -5.4      1.737      4.845
REMARK  7 active torsions:
REMARK  status: ('A' for Active; 'I' for Inactive)
REMARK    1  A    between atoms: C_2  and  C_3 
REMARK    2  A    between atoms: C_3  and  O_6 
REMARK    3  A    between atoms: C_3  and  C_4 
REMARK    4  A    between atoms: C_7  and  O_6 
REMARK    5  A    between atoms: C_9  and  C_10 
REMARK    6  A    between atoms: N_15  and  C_14 
REMARK    7  A    between atoms: N_20  and  C_19 
REMARK       I    between atoms: C_22  and  N_20 
ROOT
ATOM      1  C   LIG d   1      -3.429  75.966 115.176  0.00  0.00     0.161 C 
ATOM      2  C   LIG d   1      -3.743  76.656 113.993  0.00  0.00     0.016 C 
ATOM      3  C   LIG d   1      -2.775  77.035 113.034  0.00  0.00     0.038 C 
ATOM      4  C   LIG d   1      -1.440  76.614 113.122  0.00  0.00     0.028 C 
ATOM      5  C   LIG d   1      -0.981  76.347 114.551  0.00  0.00    -0.047 C 
ATOM      6  C   LIG d   1      -1.995  75.401 115.235  0.00  0.00     0.091 C 
ENDROOT
BRANCH   1   7
ATOM      7  O   LIG d   1      -4.391  74.915 115.398  0.00  0.00    -0.368 OA
BRANCH   7   8
ATOM      8  C   LIG d   1      -5.477  75.225 116.305  0.00  0.00     0.119 C 
BRANCH   8   9
ATOM      9  C   LIG d   1      -5.914  73.907 116.972  0.00  0.00     0.028 C 
ATOM     10  C   LIG d   1      -6.156  72.784 115.950  0.00  0.00     0.006 C 
ENDBRANCH   8   9
BRANCH   8  11
ATOM     11  C   LIG d   1      -6.710  75.726 115.548  0.00  0.00     0.028 C 
ATOM     12  C   LIG d   1      -7.947  75.865 116.449  0.00  0.00     0.006 C 
ENDBRANCH   8  11
ENDBRANCH   7   8
ENDBRANCH   1   7
BRANCH   6  13
ATOM     13  N   LIG d   1      -1.666  75.155 116.663  0.00  0.00    -0.311 N 
ATOM     14  C   LIG d   1      -0.963  74.105 117.084  0.00  0.00     0.210 C 
ATOM     15  C   LIG d   1      -0.755  74.031 118.600  0.00  0.00     0.109 C 
ATOM     16  O   LIG d   1      -0.465  73.245 116.342  0.00  0.00    -0.276 OA
ATOM     17  H   LIG d   1      -2.005  75.821 117.330  0.00  0.00     0.149 HD
ENDBRANCH   6  13
BRANCH   5  18
ATOM     18  N   LIG d   1       0.381  75.785 114.485  0.00  0.00     0.381 N 
ATOM     19  H   LIG d   1       0.796  76.008 113.602  0.00  0.00    -0.090 HD
ATOM     20  H   LIG d   1       0.324  74.785 114.563  0.00  0.00    -0.090 HD
ATOM     21  H   LIG d   1       0.938  76.153 115.225  0.00  0.00    -0.090 HD
ENDBRANCH   5  18
BRANCH   3  22
ATOM     22  C   LIG d   1      -3.133  77.878 111.994  0.00  0.00     0.382 C 
ATOM     23  O   LIG d   1      -4.245  77.740 111.428  0.00  0.00    -0.241 OA
ATOM     24  O   LIG d   1      -2.341  78.747 111.583  0.00  0.00    -0.241 OA
ENDBRANCH   3  22
TORSDOF 7
ENDMDL
MODEL 3
REMARK VINA RESULT:      -5.3     10.104     12.646
REMARK  7 active torsions:
REMARK  status: ('A' for Active; 'I' for Inactive)
REMARK    1  A    between atoms: C_2  and  C_3 
REMARK    2  A    between atoms: C_3  and  O_6 
REMARK    3  A    between atoms: C_3  and  C_4 
REMARK    4  A    between atoms: C_7  and  O_6 
REMARK    5  A    between atoms: C_9  and  C_10 
REMARK    6  A    between atoms: N_15  and  C_14 
REMARK    7  A    between atoms: N_20  and  C_19 
REMARK       I    between atoms: C_22  and  N_20 
ROOT
ATOM      1  C   LIG d   1       1.951  86.759 114.340  0.00  0.00     0.161 C 
ATOM      2  C   LIG d   1       2.864  87.816 114.187  0.00  0.00     0.016 C 
ATOM      3  C   LIG d   1       3.742  87.932 113.085  0.00  0.00     0.038 C 
ATOM      4  C   LIG d   1       3.661  87.073 111.979  0.00  0.00     0.028 C 
ATOM      5  C   LIG d   1       3.100  85.696 112.321  0.00  0.00    -0.047 C 
ATOM      6  C   LIG d   1       1.771  85.873 113.090  0.00  0.00     0.091 C 
ENDROOT
BRANCH   1   7
ATOM      7  O   LIG d   1       0.677  87.273 114.778  0.00  0.00    -0.368 OA
BRANCH   7   8
ATOM      8  C   LIG d   1       0.367  87.095 116.182  0.00  0.00     0.119 C 
BRANCH   8   9
ATOM      9  C   LIG d   1      -0.917  86.247 116.268  0.00  0.00     0.028 C 
ATOM     10  C   LIG d   1      -0.698  84.926 117.025  0.00  0.00     0.006 C 
ENDBRANCH   8   9
BRANCH   8  11
ATOM     11  C   LIG d   1       0.017  88.429 116.848  0.00  0.00     0.028 C 
ATOM     12  C   LIG d   1       0.869  88.713 118.095  0.00  0.00     0.006 C 
ENDBRANCH   8  11
ENDBRANCH   7   8
ENDBRANCH   1   7
BRANCH   6  13
ATOM     13  N   LIG d   1       1.198  84.577 113.536  0.00  0.00    -0.311 N 
ATOM     14  C   LIG d   1      -0.069  84.223 113.323  0.00  0.00     0.210 C 
ATOM     15  C   LIG d   1      -0.460  82.852 113.883  0.00  0.00     0.109 C 
ATOM     16  O   LIG d   1      -0.896  84.900 112.695  0.00  0.00    -0.276 OA
ATOM     17  H   LIG d   1       1.808  83.952 114.026  0.00  0.00     0.149 HD
ENDBRANCH   6  13
BRANCH   5  18
ATOM     18  N   LIG d   1       2.942  84.953 111.056  0.00  0.00     0.381 N 
ATOM     19  H   LIG d   1       2.480  85.529 110.380  0.00  0.00    -0.090 HD
ATOM     20  H   LIG d   1       2.370  84.144 111.224  0.00  0.00    -0.090 HD
ATOM     21  H   LIG d   1       3.834  84.673 110.711  0.00  0.00    -0.090 HD
ENDBRANCH   5  18
BRANCH   3  22
ATOM     22  C   LIG d   1       4.742  88.892 113.101  0.00  0.00     0.382 C 
ATOM     23  O   LIG d   1       4.551  89.986 113.686  0.00  0.00    -0.241 OA
ATOM     24  O   LIG d   1       5.815  88.697 112.500  0.00  0.00    -0.241 OA
ENDBRANCH   3  22
TORSDOF 7
ENDMDL
MODEL 4
REMARK VINA RESULT:      -4.8      8.105     10.327
REMARK  7 active torsions:
REMARK  status: ('A' for Active; 'I' for Inactive)
REMARK    1  A    between atoms: C_2  and  C_3 
REMARK    2  A    between atoms: C_3  and  O_6 
REMARK    3  A    between atoms: C_3  and  C_4 
REMARK    4  A    between atoms: C_7  and  O_6 
REMARK    5  A    between atoms: C_9  and  C_10 
REMARK    6  A    between atoms: N_15  and  C_14 
REMARK    7  A    between atoms: N_20  and  C_19 
REMARK       I    between atoms: C_22  and  N_20 
ROOT
ATOM      1  C   LIG d   1       0.283  84.909 112.753  0.00  0.00     0.161 C 
ATOM      2  C   LIG d   1      -0.557  83.794 112.602  0.00  0.00     0.016 C 
ATOM      3  C   LIG d   1      -0.125  82.562 112.058  0.00  0.00     0.038 C 
ATOM      4  C   LIG d   1       1.224  82.314 111.766  0.00  0.00     0.028 C 
ATOM      5  C   LIG d   1       2.013  83.574 111.429  0.00  0.00    -0.047 C 
ATOM      6  C   LIG d   1       1.784  84.622 112.543  0.00  0.00     0.091 C 
ENDROOT
BRANCH   1   7
ATOM      7  O   LIG d   1       0.065  85.515 114.043  0.00  0.00    -0.368 OA
BRANCH   7   8
ATOM      8  C   LIG d   1      -0.882  84.843 114.910  0.00  0.00     0.119 C 
BRANCH   8   9
ATOM      9  C   LIG d   1      -1.921  85.889 115.359  0.00  0.00     0.028 C 
ATOM     10  C   LIG d   1      -1.863  86.162 116.871  0.00  0.00     0.006 C 
ENDBRANCH   8   9
BRANCH   8  11
ATOM     11  C   LIG d   1      -0.211  84.359 116.199  0.00  0.00     0.028 C 
ATOM     12  C   LIG d   1       0.209  82.882 116.133  0.00  0.00     0.006 C 
ENDBRANCH   8  11
ENDBRANCH   7   8
ENDBRANCH   1   7
BRANCH   6  13
ATOM     13  N   LIG d   1       2.453  85.916 112.250  0.00  0.00    -0.311 N 
ATOM     14  C   LIG d   1       3.303  86.508 113.087  0.00  0.00     0.210 C 
ATOM     15  C   LIG d   1       3.865  87.847 112.599  0.00  0.00     0.109 C 
ATOM     16  O   LIG d   1       3.670  86.036 114.174  0.00  0.00    -0.276 OA
ATOM     17  H   LIG d   1       2.237  86.354 111.376  0.00  0.00     0.149 HD
ENDBRANCH   6  13
BRANCH   5  18
ATOM     18  N   LIG d   1       3.429  83.188 111.281  0.00  0.00     0.381 N 
ATOM     19  H   LIG d   1       3.808  82.942 112.174  0.00  0.00    -0.090 HD
ATOM     20  H   LIG d   1       3.945  83.973 110.925  0.00  0.00    -0.090 HD
ATOM     21  H   LIG d   1       3.509  82.417 110.655  0.00  0.00    -0.090 HD
ENDBRANCH   5  18
BRANCH   3  22
ATOM     22  C   LIG d   1      -1.055  81.577 111.764  0.00  0.00     0.382 C 
ATOM     23  O   LIG d   1      -0.725  80.593 111.058  0.00  0.00    -0.241 OA
ATOM     24  O   LIG d   1      -2.232  81.681 112.159  0.00  0.00    -0.241 OA
ENDBRANCH   3  22
TORSDOF 7
ENDMDL
MODEL 5
REMARK VINA RESULT:      -4.6      2.134      4.648
REMARK  7 active torsions:
REMARK  status: ('A' for Active; 'I' for Inactive)
REMARK    1  A    between atoms: C_2  and  C_3 
REMARK    2  A    between atoms: C_3  and  O_6 
REMARK    3  A    between atoms: C_3  and  C_4 
REMARK    4  A    between atoms: C_7  and  O_6 
REMARK    5  A    between atoms: C_9  and  C_10 
REMARK    6  A    between atoms: N_15  and  C_14 
REMARK    7  A    between atoms: N_20  and  C_19 
REMARK       I    between atoms: C_22  and  N_20 
ROOT
ATOM      1  C   LIG d   1      -2.031  77.167 115.024  0.00  0.00     0.161 C 
ATOM      2  C   LIG d   1      -0.826  77.162 115.747  0.00  0.00     0.016 C 
ATOM      3  C   LIG d   1      -0.542  76.239 116.780  0.00  0.00     0.038 C 
ATOM      4  C   LIG d   1      -1.388  75.155 117.059  0.00  0.00     0.028 C 
ATOM      5  C   LIG d   1      -2.847  75.416 116.697  0.00  0.00    -0.047 C 
ATOM      6  C   LIG d   1      -2.919  75.924 115.239  0.00  0.00     0.091 C 
ENDROOT
BRANCH   1   7
ATOM      7  O   LIG d   1      -1.757  77.352 113.621  0.00  0.00    -0.368 OA
BRANCH   7   8
ATOM      8  C   LIG d   1      -2.503  78.403 112.960  0.00  0.00     0.119 C 
BRANCH   8   9
ATOM      9  C   LIG d   1      -2.572  78.049 111.461  0.00  0.00     0.028 C 
ATOM     10  C   LIG d   1      -1.554  76.966 111.067  0.00  0.00     0.006 C 
ENDBRANCH   8   9
BRANCH   8  11
ATOM     11  C   LIG d   1      -1.760  79.740 113.026  0.00  0.00     0.028 C 
ATOM     12  C   LIG d   1      -2.660  80.940 112.693  0.00  0.00     0.006 C 
ENDBRANCH   8  11
ENDBRANCH   7   8
ENDBRANCH   1   7
BRANCH   6  13
ATOM     13  N   LIG d   1      -4.302  76.284 114.832  0.00  0.00    -0.311 N 
ATOM     14  C   LIG d   1      -5.161  75.414 114.303  0.00  0.00     0.210 C 
ATOM     15  C   LIG d   1      -6.529  75.997 113.936  0.00  0.00     0.109 C 
ATOM     16  O   LIG d   1      -4.930  74.207 114.133  0.00  0.00    -0.276 OA
ATOM     17  H   LIG d   1      -4.583  77.236 114.964  0.00  0.00     0.149 HD
ENDBRANCH   6  13
BRANCH   5  18
ATOM     18  N   LIG d   1      -3.591  74.161 116.910  0.00  0.00     0.381 N 
ATOM     19  H   LIG d   1      -3.587  73.618 116.069  0.00  0.00    -0.090 HD
ATOM     20  H   LIG d   1      -4.544  74.382 117.139  0.00  0.00    -0.090 HD
ATOM     21  H   LIG d   1      -3.176  73.640 117.651  0.00  0.00    -0.090 HD
ENDBRANCH   5  18
BRANCH   3  22
ATOM     22  C   LIG d   1       0.581  76.418 117.573  0.00  0.00     0.382 C 
ATOM     23  O   LIG d   1       0.644  75.876 118.703  0.00  0.00    -0.241 OA
ATOM     24  O   LIG d   1       1.513  77.151 117.191  0.00  0.00    -0.241 OA
ENDBRANCH   3  22
TORSDOF 7
ENDMDL
MODEL 6
REMARK VINA RESULT:      -4.5     11.854     14.204
REMARK  7 active torsions:
REMARK  status: ('A' for Active; 'I' for Inactive)
REMARK    1  A    between atoms: C_2  and  C_3 
REMARK    2  A    between atoms: C_3  and  O_6 
REMARK    3  A    between atoms: C_3  and  C_4 
REMARK    4  A    between atoms: C_7  and  O_6 
REMARK    5  A    between atoms: C_9  and  C_10 
REMARK    6  A    between atoms: N_15  and  C_14 
REMARK    7  A    between atoms: N_20  and  C_19 
REMARK       I    between atoms: C_22  and  N_20 
ROOT
ATOM      1  C   LIG d   1       3.013  88.164 114.865  0.00  0.00     0.161 C 
ATOM      2  C   LIG d   1       2.555  87.339 113.824  0.00  0.00     0.016 C 
ATOM      3  C   LIG d   1       3.226  87.204 112.586  0.00  0.00     0.038 C 
ATOM      4  C   LIG d   1       4.488  87.773 112.361  0.00  0.00     0.028 C 
ATOM      5  C   LIG d   1       4.748  89.022 113.197  0.00  0.00    -0.047 C 
ATOM      6  C   LIG d   1       4.446  88.705 114.679  0.00  0.00     0.091 C 
ENDROOT
BRANCH   1   7
ATOM      7  O   LIG d   1       2.898  87.472 116.124  0.00  0.00    -0.368 OA
BRANCH   7   8
ATOM      8  C   LIG d   1       2.381  86.119 116.062  0.00  0.00     0.119 C 
BRANCH   8   9
ATOM      9  C   LIG d   1       1.077  86.085 116.882  0.00  0.00     0.028 C 
ATOM     10  C   LIG d   1      -0.169  85.910 115.997  0.00  0.00     0.006 C 
ENDBRANCH   8   9
BRANCH   8  11
ATOM     11  C   LIG d   1       3.323  85.131 116.756  0.00  0.00     0.028 C 
ATOM     12  C   LIG d   1       4.754  85.179 116.198  0.00  0.00     0.006 C 
ENDBRANCH   8  11
ENDBRANCH   7   8
ENDBRANCH   1   7
BRANCH   6  13
ATOM     13  N   LIG d   1       4.594  89.897 115.555  0.00  0.00    -0.311 N 
ATOM     14  C   LIG d   1       5.383  89.926 116.627  0.00  0.00     0.210 C 
ATOM     15  C   LIG d   1       5.374  91.247 117.402  0.00  0.00     0.109 C 
ATOM     16  O   LIG d   1       6.115  88.993 116.992  0.00  0.00    -0.276 OA
ATOM     17  H   LIG d   1       4.060  90.709 115.314  0.00  0.00     0.149 HD
ENDBRANCH   6  13
BRANCH   5  18
ATOM     18  N   LIG d   1       6.147  89.429 112.966  0.00  0.00     0.381 N 
ATOM     19  H   LIG d   1       6.375  89.325 111.997  0.00  0.00    -0.090 HD
ATOM     20  H   LIG d   1       6.752  88.830 113.499  0.00  0.00    -0.090 HD
ATOM     21  H   LIG d   1       6.276  90.377 113.245  0.00  0.00    -0.090 HD
ENDBRANCH   5  18
BRANCH   3  22
ATOM     22  C   LIG d   1       2.613  86.526 111.543  0.00  0.00     0.382 C 
ATOM     23  O   LIG d   1       3.155  85.506 111.055  0.00  0.00    -0.241 OA
ATOM     24  O   LIG d   1       1.547  86.948 111.055  0.00  0.00    -0.241 OA
ENDBRANCH   3  22
TORSDOF 7
ENDMDL
MODEL 7
REMARK VINA RESULT:      -4.5      3.453      6.108
REMARK  7 active torsions:
REMARK  status: ('A' for Active; 'I' for Inactive)
REMARK    1  A    between atoms: C_2  and  C_3 
REMARK    2  A    between atoms: C_3  and  O_6 
REMARK    3  A    between atoms: C_3  and  C_4 
REMARK    4  A    between atoms: C_7  and  O_6 
REMARK    5  A    between atoms: C_9  and  C_10 
REMARK    6  A    between atoms: N_15  and  C_14 
REMARK    7  A    between atoms: N_20  and  C_19 
REMARK       I    between atoms: C_22  and  N_20 
ROOT
ATOM      1  C   LIG d   1      -6.428  74.545 118.274  0.00  0.00     0.161 C 
ATOM      2  C   LIG d   1      -7.705  75.046 118.574  0.00  0.00     0.016 C 
ATOM      3  C   LIG d   1      -8.280  76.157 117.915  0.00  0.00     0.038 C 
ATOM      4  C   LIG d   1      -7.672  76.753 116.799  0.00  0.00     0.028 C 
ATOM      5  C   LIG d   1      -6.155  76.602 116.783  0.00  0.00    -0.047 C 
ATOM      6  C   LIG d   1      -5.797  75.112 116.985  0.00  0.00     0.091 C 
ENDROOT
BRANCH   1   7
ATOM      7  O   LIG d   1      -6.468  73.105 118.220  0.00  0.00    -0.368 OA
BRANCH   7   8
ATOM      8  C   LIG d   1      -7.746  72.515 117.877  0.00  0.00     0.119 C 
BRANCH   8   9
ATOM      9  C   LIG d   1      -7.914  71.243 118.731  0.00  0.00     0.028 C 
ATOM     10  C   LIG d   1      -8.671  70.132 117.986  0.00  0.00     0.006 C 
ENDBRANCH   8   9
BRANCH   8  11
ATOM     11  C   LIG d   1      -7.766  72.034 116.424  0.00  0.00     0.028 C 
ATOM     12  C   LIG d   1      -6.357  71.846 115.839  0.00  0.00     0.006 C 
ENDBRANCH   8  11
ENDBRANCH   7   8
ENDBRANCH   1   7
BRANCH   6  13
ATOM     13  N   LIG d   1      -4.330  74.888 117.066  0.00  0.00    -0.311 N 
ATOM     14  C   LIG d   1      -3.567  74.632 116.005  0.00  0.00     0.210 C 
ATOM     15  C   LIG d   1      -2.083  74.413 116.312  0.00  0.00     0.109 C 
ATOM     16  O   LIG d   1      -3.974  74.598 114.834  0.00  0.00    -0.276 OA
ATOM     17  H   LIG d   1      -3.912  74.928 117.975  0.00  0.00     0.149 HD
ENDBRANCH   6  13
BRANCH   5  18
ATOM     18  N   LIG d   1      -5.667  77.145 115.502  0.00  0.00     0.381 N 
ATOM     19  H   LIG d   1      -5.156  77.990 115.665  0.00  0.00    -0.090 HD
ATOM     20  H   LIG d   1      -6.456  77.361 114.918  0.00  0.00    -0.090 HD
ATOM     21  H   LIG d   1      -5.082  76.478 115.049  0.00  0.00    -0.090 HD
ENDBRANCH   5  18
BRANCH   3  22
ATOM     22  C   LIG d   1      -9.457  76.709 118.397  0.00  0.00     0.382 C 
ATOM     23  O   LIG d   1     -10.556  76.382 117.888  0.00  0.00    -0.241 OA
ATOM     24  O   LIG d   1      -9.430  77.562 119.303  0.00  0.00    -0.241 OA
ENDBRANCH   3  22
TORSDOF 7
ENDMDL
MODEL 8
REMARK VINA RESULT:      -4.4     14.263     16.512
REMARK  7 active torsions:
REMARK  status: ('A' for Active; 'I' for Inactive)
REMARK    1  A    between atoms: C_2  and  C_3 
REMARK    2  A    between atoms: C_3  and  O_6 
REMARK    3  A    between atoms: C_3  and  C_4 
REMARK    4  A    between atoms: C_7  and  O_6 
REMARK    5  A    between atoms: C_9  and  C_10 
REMARK    6  A    between atoms: N_15  and  C_14 
REMARK    7  A    between atoms: N_20  and  C_19 
REMARK       I    between atoms: C_22  and  N_20 
ROOT
ATOM      1  C   LIG d   1      13.732  78.547 114.967  0.00  0.00     0.161 C 
ATOM      2  C   LIG d   1      12.661  79.015 115.746  0.00  0.00     0.016 C 
ATOM      3  C   LIG d   1      11.505  79.616 115.198  0.00  0.00     0.038 C 
ATOM      4  C   LIG d   1      11.274  79.654 113.815  0.00  0.00     0.028 C 
ATOM      5  C   LIG d   1      12.554  79.650 112.986  0.00  0.00    -0.047 C 
ATOM      6  C   LIG d   1      13.449  78.479 113.452  0.00  0.00     0.091 C 
ENDROOT
BRANCH   1   7
ATOM      7  O   LIG d   1      14.166  77.262 115.454  0.00  0.00    -0.368 OA
BRANCH   7   8
ATOM      8  C   LIG d   1      13.565  76.105 114.822  0.00  0.00     0.119 C 
BRANCH   8   9
ATOM      9  C   LIG d   1      12.370  75.671 115.692  0.00  0.00     0.028 C 
ATOM     10  C   LIG d   1      11.035  75.734 114.930  0.00  0.00     0.006 C 
ENDBRANCH   8   9
BRANCH   8  11
ATOM     11  C   LIG d   1      14.523  74.909 114.823  0.00  0.00     0.028 C 
ATOM     12  C   LIG d   1      15.843  75.203 114.094  0.00  0.00     0.006 C 
ENDBRANCH   8  11
ENDBRANCH   7   8
ENDBRANCH   1   7
BRANCH   6  13
ATOM     13  N   LIG d   1      14.759  78.453 112.750  0.00  0.00    -0.311 N 
ATOM     14  C   LIG d   1      14.986  77.741 111.647  0.00  0.00     0.210 C 
ATOM     15  C   LIG d   1      16.412  77.840 111.096  0.00  0.00     0.109 C 
ATOM     16  O   LIG d   1      14.133  77.063 111.055  0.00  0.00    -0.276 OA
ATOM     17  H   LIG d   1      15.499  79.000 113.145  0.00  0.00     0.149 HD
ENDBRANCH   6  13
BRANCH   5  18
ATOM     18  N   LIG d   1      12.166  79.551 111.566  0.00  0.00     0.381 N 
ATOM     19  H   LIG d   1      12.170  78.593 111.280  0.00  0.00    -0.090 HD
ATOM     20  H   LIG d   1      12.838  80.050 111.010  0.00  0.00    -0.090 HD
ATOM     21  H   LIG d   1      11.259  79.942 111.433  0.00  0.00    -0.090 HD
ENDBRANCH   5  18
BRANCH   3  22
ATOM     22  C   LIG d   1      10.583  80.224 116.036  0.00  0.00     0.382 C 
ATOM     23  O   LIG d   1      10.923  80.577 117.191  0.00  0.00    -0.241 OA
ATOM     24  O   LIG d   1       9.404  80.384 115.669  0.00  0.00    -0.241 OA
ENDBRANCH   3  22
TORSDOF 7
ENDMDL
MODEL 9
REMARK VINA RESULT:      -4.4     12.544     15.105
REMARK  7 active torsions:
REMARK  status: ('A' for Active; 'I' for Inactive)
REMARK    1  A    between atoms: C_2  and  C_3 
REMARK    2  A    between atoms: C_3  and  O_6 
REMARK    3  A    between atoms: C_3  and  C_4 
REMARK    4  A    between atoms: C_7  and  O_6 
REMARK    5  A    between atoms: C_9  and  C_10 
REMARK    6  A    between atoms: N_15  and  C_14 
REMARK    7  A    between atoms: N_20  and  C_19 
REMARK       I    between atoms: C_22  and  N_20 
ROOT
ATOM      1  C   LIG d   1      11.110  78.953 114.613  0.00  0.00     0.161 C 
ATOM      2  C   LIG d   1       9.809  79.181 115.093  0.00  0.00     0.016 C 
ATOM      3  C   LIG d   1       8.930  78.144 115.481  0.00  0.00     0.038 C 
ATOM      4  C   LIG d   1       9.349  76.807 115.558  0.00  0.00     0.028 C 
ATOM      5  C   LIG d   1      10.492  76.474 114.605  0.00  0.00    -0.047 C 
ATOM      6  C   LIG d   1      11.623  77.510 114.796  0.00  0.00     0.091 C 
ENDROOT
BRANCH   1   7
ATOM      7  O   LIG d   1      12.024  79.890 115.216  0.00  0.00    -0.368 OA
BRANCH   7   8
ATOM      8  C   LIG d   1      12.433  79.597 116.575  0.00  0.00     0.119 C 
BRANCH   8   9
ATOM      9  C   LIG d   1      11.998  80.784 117.456  0.00  0.00     0.028 C 
ATOM     10  C   LIG d   1      10.867  80.409 118.429  0.00  0.00     0.006 C 
ENDBRANCH   8   9
BRANCH   8  11
ATOM     11  C   LIG d   1      13.959  79.539 116.698  0.00  0.00     0.028 C 
ATOM     12  C   LIG d   1      14.677  80.054 115.441  0.00  0.00     0.006 C 
ENDBRANCH   8  11
ENDBRANCH   7   8
ENDBRANCH   1   7
BRANCH   6  13
ATOM     13  N   LIG d   1      12.744  77.307 113.842  0.00  0.00    -0.311 N 
ATOM     14  C   LIG d   1      13.863  76.654 114.153  0.00  0.00     0.210 C 
ATOM     15  C   LIG d   1      14.901  76.576 113.029  0.00  0.00     0.109 C 
ATOM     16  O   LIG d   1      14.081  76.105 115.244  0.00  0.00    -0.276 OA
ATOM     17  H   LIG d   1      12.638  77.693 112.924  0.00  0.00     0.149 HD
ENDBRANCH   6  13
BRANCH   5  18
ATOM     18  N   LIG d   1      10.919  75.091 114.888  0.00  0.00     0.381 N 
ATOM     19  H   LIG d   1      10.312  74.681 115.569  0.00  0.00    -0.090 HD
ATOM     20  H   LIG d   1      11.850  75.110 115.266  0.00  0.00    -0.090 HD
ATOM     21  H   LIG d   1      10.904  74.551 114.051  0.00  0.00    -0.090 HD
ENDBRANCH   5  18
BRANCH   3  22
ATOM     22  C   LIG d   1       7.603  78.436 115.758  0.00  0.00     0.382 C 
ATOM     23  O   LIG d   1       7.296  78.988 116.842  0.00  0.00    -0.241 OA
ATOM     24  O   LIG d   1       6.705  78.113 114.958  0.00  0.00    -0.241 OA
ENDBRANCH   3  22
TORSDOF 7
ENDMDL
