MODEL 1
REMARK VINA RESULT:      -5.6      0.000      0.000
REMARK  7 active torsions:
REMARK  status: ('A' for Active; 'I' for Inactive)
REMARK    1  A    between atoms: C_2  and  C_3 
REMARK    2  A    between atoms: C_3  and  O_6 
REMARK    3  A    between atoms: C_3  and  C_4 
REMARK    4  A    between atoms: C_7  and  O_6 
REMARK    5  A    between atoms: C_9  and  C_10 
REMARK    6  A    between atoms: N_15  and  C_14 
REMARK    7  A    between atoms: N_20  and  C_19 
REMARK       I    between atoms: C_22  and  N_20 
ROOT
ATOM      1  C   LIG d   1      -4.489  75.286 116.158  0.00  0.00     0.161 C 
ATOM      2  C   LIG d   1      -4.028  76.607 116.287  0.00  0.00     0.016 C 
ATOM      3  C   LIG d   1      -4.818  77.660 116.804  0.00  0.00     0.038 C 
ATOM      4  C   LIG d   1      -6.080  77.430 117.371  0.00  0.00     0.028 C 
ATOM      5  C   LIG d   1      -6.785  76.203 116.804  0.00  0.00    -0.047 C 
ATOM      6  C   LIG d   1      -5.824  74.995 116.874  0.00  0.00     0.091 C 
ENDROOT
BRANCH   1   7
ATOM      7  O   LIG d   1      -3.471  74.368 116.602  0.00  0.00    -0.368 OA
BRANCH   7   8
ATOM      8  C   LIG d   1      -2.192  74.954 116.951  0.00  0.00     0.119 C 
BRANCH   8   9
ATOM      9  C   LIG d   1      -1.111  74.229 116.126  0.00  0.00     0.028 C 
ATOM     10  C   LIG d   1      -0.553  75.104 114.991  0.00  0.00     0.006 C 
ENDBRANCH   8   9
BRANCH   8  11
ATOM     11  C   LIG d   1      -1.836  74.682 118.415  0.00  0.00     0.028 C 
ATOM     12  C   LIG d   1      -1.229  73.287 118.632  0.00  0.00     0.006 C 
ENDBRANCH   8  11
ENDBRANCH   7   8
ENDBRANCH   1   7
BRANCH   6  13
ATOM     13  N   LIG d   1      -6.405  73.772 116.262  0.00  0.00    -0.311 N 
ATOM     14  C   LIG d   1      -7.206  72.933 116.918  0.00  0.00     0.210 C 
ATOM     15  C   LIG d   1      -7.678  71.723 116.106  0.00  0.00     0.109 C 
ATOM     16  O   LIG d   1      -7.594  73.093 118.085  0.00  0.00    -0.276 OA
ATOM     17  H   LIG d   1      -6.167  73.582 115.308  0.00  0.00     0.149 HD
ENDBRANCH   6  13
BRANCH   5  18
ATOM     18  N   LIG d   1      -8.024  76.003 117.579  0.00  0.00     0.381 N 
ATOM     19  H   LIG d   1      -7.811  75.970 118.555  0.00  0.00    -0.090 HD
ATOM     20  H   LIG d   1      -8.434  75.124 117.315  0.00  0.00    -0.090 HD
ATOM     21  H   LIG d   1      -8.664  76.744 117.396  0.00  0.00    -0.090 HD
ENDBRANCH   5  18
BRANCH   3  22
ATOM     22  C   LIG d   1      -4.361  78.967 116.719  0.00  0.00     0.382 C 
ATOM     23  O   LIG d   1      -3.657  79.323 115.744  0.00  0.00    -0.241 OA
ATOM     24  O   LIG d   1      -4.607  79.782 117.628  0.00  0.00    -0.241 OA
ENDBRANCH   3  22
TORSDOF 7
ENDMDL
MODEL 2
REMARK VINA RESULT:      -5.4      1.692      4.989
REMARK  7 active torsions:
REMARK  status: ('A' for Active; 'I' for Inactive)
REMARK    1  A    between atoms: C_2  and  C_3 
REMARK    2  A    between atoms: C_3  and  O_6 
REMARK    3  A    between atoms: C_3  and  C_4 
REMARK    4  A    between atoms: C_7  and  O_6 
REMARK    5  A    between atoms: C_9  and  C_10 
REMARK    6  A    between atoms: N_15  and  C_14 
REMARK    7  A    between atoms: N_20  and  C_19 
REMARK       I    between atoms: C_22  and  N_20 
ROOT
ATOM      1  C   LIG d   1      -5.549  74.897 116.742  0.00  0.00     0.161 C 
ATOM      2  C   LIG d   1      -6.333  73.776 116.424  0.00  0.00     0.016 C 
ATOM      3  C   LIG d   1      -7.684  73.635 116.817  0.00  0.00     0.038 C 
ATOM      4  C   LIG d   1      -8.392  74.681 117.429  0.00  0.00     0.028 C 
ATOM      5  C   LIG d   1      -7.501  75.635 118.217  0.00  0.00    -0.047 C 
ATOM      6  C   LIG d   1      -6.335  76.096 117.312  0.00  0.00     0.091 C 
ENDROOT
BRANCH   1   7
ATOM      7  O   LIG d   1      -4.786  75.302 115.588  0.00  0.00    -0.368 OA
BRANCH   7   8
ATOM      8  C   LIG d   1      -3.414  74.839 115.537  0.00  0.00     0.119 C 
BRANCH   8   9
ATOM      9  C   LIG d   1      -2.881  74.808 116.982  0.00  0.00     0.028 C 
ATOM     10  C   LIG d   1      -1.418  74.342 117.059  0.00  0.00     0.006 C 
ENDBRANCH   8   9
BRANCH   8  11
ATOM     11  C   LIG d   1      -2.517  75.834 114.795  0.00  0.00     0.028 C 
ATOM     12  C   LIG d   1      -3.026  77.281 114.892  0.00  0.00     0.006 C 
ENDBRANCH   8  11
ENDBRANCH   7   8
ENDBRANCH   1   7
BRANCH   6  13
ATOM     13  N   LIG d   1      -5.369  76.967 118.031  0.00  0.00    -0.311 N 
ATOM     14  C   LIG d   1      -5.130  78.233 117.693  0.00  0.00     0.210 C 
ATOM     15  C   LIG d   1      -4.082  78.945 118.554  0.00  0.00     0.109 C 
ATOM     16  O   LIG d   1      -5.710  78.843 116.783  0.00  0.00    -0.276 OA
ATOM     17  H   LIG d   1      -4.877  76.561 118.803  0.00  0.00     0.149 HD
ENDBRANCH   6  13
BRANCH   5  18
ATOM     18  N   LIG d   1      -8.346  76.750 118.684  0.00  0.00     0.381 N 
ATOM     19  H   LIG d   1      -8.028  77.608 118.281  0.00  0.00    -0.090 HD
ATOM     20  H   LIG d   1      -8.265  76.822 119.683  0.00  0.00    -0.090 HD
ATOM     21  H   LIG d   1      -9.296  76.587 118.432  0.00  0.00    -0.090 HD
ENDBRANCH   5  18
BRANCH   3  22
ATOM     22  C   LIG d   1      -8.330  72.422 116.634  0.00  0.00     0.382 C 
ATOM     23  O   LIG d   1      -7.857  71.573 115.841  0.00  0.00    -0.241 OA
ATOM     24  O   LIG d   1      -9.404  72.183 117.219  0.00  0.00    -0.241 OA
ENDBRANCH   3  22
TORSDOF 7
ENDMDL
MODEL 3
REMARK VINA RESULT:      -5.3     12.831     15.563
REMARK  7 active torsions:
REMARK  status: ('A' for Active; 'I' for Inactive)
REMARK    1  A    between atoms: C_2  and  C_3 
REMARK    2  A    between atoms: C_3  and  O_6 
REMARK    3  A    between atoms: C_3  and  C_4 
REMARK    4  A    between atoms: C_7  and  O_6 
REMARK    5  A    between atoms: C_9  and  C_10 
REMARK    6  A    between atoms: N_15  and  C_14 
REMARK    7  A    between atoms: N_20  and  C_19 
REMARK       I    between atoms: C_22  and  N_20 
ROOT
ATOM      1  C   LIG d   1       2.851  88.197 114.976  0.00  0.00     0.161 C 
ATOM      2  C   LIG d   1       2.841  89.332 115.805  0.00  0.00     0.016 C 
ATOM      3  C   LIG d   1       3.764  90.396 115.679  0.00  0.00     0.038 C 
ATOM      4  C   LIG d   1       4.671  90.468 114.611  0.00  0.00     0.028 C 
ATOM      5  C   LIG d   1       5.052  89.104 114.047  0.00  0.00    -0.047 C 
ATOM      6  C   LIG d   1       3.763  88.310 113.736  0.00  0.00     0.091 C 
ENDROOT
BRANCH   1   7
ATOM      7  O   LIG d   1       1.505  87.869 114.580  0.00  0.00    -0.368 OA
BRANCH   7   8
ATOM      8  C   LIG d   1       0.798  86.937 115.435  0.00  0.00     0.119 C 
BRANCH   8   9
ATOM      9  C   LIG d   1       1.794  85.832 115.839  0.00  0.00     0.028 C 
ATOM     10  C   LIG d   1       1.092  84.590 116.412  0.00  0.00     0.006 C 
ENDBRANCH   8   9
BRANCH   8  11
ATOM     11  C   LIG d   1      -0.318  86.217 114.672  0.00  0.00     0.028 C 
ATOM     12  C   LIG d   1      -0.027  86.091 113.169  0.00  0.00     0.006 C 
ENDBRANCH   8  11
ENDBRANCH   7   8
ENDBRANCH   1   7
BRANCH   6  13
ATOM     13  N   LIG d   1       4.046  86.932 113.259  0.00  0.00    -0.311 N 
ATOM     14  C   LIG d   1       3.560  86.434 112.123  0.00  0.00     0.210 C 
ATOM     15  C   LIG d   1       3.959  84.985 111.829  0.00  0.00     0.109 C 
ATOM     16  O   LIG d   1       2.862  87.066 111.316  0.00  0.00    -0.276 OA
ATOM     17  H   LIG d   1       4.630  86.360 113.838  0.00  0.00     0.149 HD
ENDBRANCH   6  13
BRANCH   5  18
ATOM     18  N   LIG d   1       5.892  89.333 112.856  0.00  0.00     0.381 N 
ATOM     19  H   LIG d   1       6.544  90.069 113.038  0.00  0.00    -0.090 HD
ATOM     20  H   LIG d   1       5.302  89.615 112.092  0.00  0.00    -0.090 HD
ATOM     21  H   LIG d   1       6.380  88.498 112.617  0.00  0.00    -0.090 HD
ENDBRANCH   5  18
BRANCH   3  22
ATOM     22  C   LIG d   1       3.811  91.383 116.651  0.00  0.00     0.382 C 
ATOM     23  O   LIG d   1       3.217  92.473 116.467  0.00  0.00    -0.241 OA
ATOM     24  O   LIG d   1       4.476  91.215 117.690  0.00  0.00    -0.241 OA
ENDBRANCH   3  22
TORSDOF 7
ENDMDL
MODEL 4
REMARK VINA RESULT:      -5.3      2.736      5.179
REMARK  7 active torsions:
REMARK  status: ('A' for Active; 'I' for Inactive)
REMARK    1  A    between atoms: C_2  and  C_3 
REMARK    2  A    between atoms: C_3  and  O_6 
REMARK    3  A    between atoms: C_3  and  C_4 
REMARK    4  A    between atoms: C_7  and  O_6 
REMARK    5  A    between atoms: C_9  and  C_10 
REMARK    6  A    between atoms: N_15  and  C_14 
REMARK    7  A    between atoms: N_20  and  C_19 
REMARK       I    between atoms: C_22  and  N_20 
ROOT
ATOM      1  C   LIG d   1      -3.067  77.256 117.274  0.00  0.00     0.161 C 
ATOM      2  C   LIG d   1      -3.289  78.338 116.406  0.00  0.00     0.016 C 
ATOM      3  C   LIG d   1      -2.452  78.638 115.307  0.00  0.00     0.038 C 
ATOM      4  C   LIG d   1      -1.415  77.781 114.909  0.00  0.00     0.028 C 
ATOM      5  C   LIG d   1      -0.843  76.951 116.053  0.00  0.00    -0.047 C 
ATOM      6  C   LIG d   1      -2.005  76.246 116.791  0.00  0.00     0.091 C 
ENDROOT
BRANCH   1   7
ATOM      7  O   LIG d   1      -4.312  76.582 117.545  0.00  0.00    -0.368 OA
BRANCH   7   8
ATOM      8  C   LIG d   1      -5.252  76.514 116.444  0.00  0.00     0.119 C 
BRANCH   8   9
ATOM      9  C   LIG d   1      -6.670  76.513 117.046  0.00  0.00     0.028 C 
ATOM     10  C   LIG d   1      -7.239  75.092 117.205  0.00  0.00     0.006 C 
ENDBRANCH   8   9
BRANCH   8  11
ATOM     11  C   LIG d   1      -5.130  75.187 115.689  0.00  0.00     0.028 C 
ATOM     12  C   LIG d   1      -4.930  75.378 114.177  0.00  0.00     0.006 C 
ENDBRANCH   8  11
ENDBRANCH   7   8
ENDBRANCH   1   7
BRANCH   6  13
ATOM     13  N   LIG d   1      -1.541  75.479 117.976  0.00  0.00    -0.311 N 
ATOM     14  C   LIG d   1      -1.242  74.182 117.939  0.00  0.00     0.210 C 
ATOM     15  C   LIG d   1      -0.802  73.581 119.278  0.00  0.00     0.109 C 
ATOM     16  O   LIG d   1      -1.268  73.479 116.917  0.00  0.00    -0.276 OA
ATOM     17  H   LIG d   1      -1.461  75.979 118.840  0.00  0.00     0.149 HD
ENDBRANCH   6  13
BRANCH   5  18
ATOM     18  N   LIG d   1       0.131  76.006 115.474  0.00  0.00     0.381 N 
ATOM     19  H   LIG d   1       1.011  76.465 115.345  0.00  0.00    -0.090 HD
ATOM     20  H   LIG d   1      -0.203  75.705 114.576  0.00  0.00    -0.090 HD
ATOM     21  H   LIG d   1       0.243  75.221 116.076  0.00  0.00    -0.090 HD
ENDBRANCH   5  18
BRANCH   3  22
ATOM     22  C   LIG d   1      -2.626  79.828 114.616  0.00  0.00     0.382 C 
ATOM     23  O   LIG d   1      -3.458  80.673 115.023  0.00  0.00    -0.241 OA
ATOM     24  O   LIG d   1      -1.992  80.047 113.567  0.00  0.00    -0.241 OA
ENDBRANCH   3  22
TORSDOF 7
ENDMDL
MODEL 5
REMARK VINA RESULT:      -5.2      2.738      5.386
REMARK  7 active torsions:
REMARK  status: ('A' for Active; 'I' for Inactive)
REMARK    1  A    between atoms: C_2  and  C_3 
REMARK    2  A    between atoms: C_3  and  O_6 
REMARK    3  A    between atoms: C_3  and  C_4 
REMARK    4  A    between atoms: C_7  and  O_6 
REMARK    5  A    between atoms: C_9  and  C_10 
REMARK    6  A    between atoms: N_15  and  C_14 
REMARK    7  A    between atoms: N_20  and  C_19 
REMARK       I    between atoms: C_22  and  N_20 
ROOT
ATOM      1  C   LIG d   1      -5.978  76.695 117.178  0.00  0.00     0.161 C 
ATOM      2  C   LIG d   1      -6.572  75.429 117.041  0.00  0.00     0.016 C 
ATOM      3  C   LIG d   1      -7.883  75.133 117.482  0.00  0.00     0.038 C 
ATOM      4  C   LIG d   1      -8.748  76.130 117.957  0.00  0.00     0.028 C 
ATOM      5  C   LIG d   1      -8.021  77.316 118.581  0.00  0.00    -0.047 C 
ATOM      6  C   LIG d   1      -6.946  77.823 117.592  0.00  0.00     0.091 C 
ENDROOT
BRANCH   1   7
ATOM      7  O   LIG d   1      -5.291  77.047 115.961  0.00  0.00    -0.368 OA
BRANCH   7   8
ATOM      8  C   LIG d   1      -4.012  76.401 115.741  0.00  0.00     0.119 C 
BRANCH   8   9
ATOM      9  C   LIG d   1      -2.996  77.500 115.374  0.00  0.00     0.028 C 
ATOM     10  C   LIG d   1      -1.748  76.935 114.676  0.00  0.00     0.006 C 
ENDBRANCH   8   9
BRANCH   8  11
ATOM     11  C   LIG d   1      -4.060  75.470 114.526  0.00  0.00     0.028 C 
ATOM     12  C   LIG d   1      -5.336  75.648 113.689  0.00  0.00     0.006 C 
ENDBRANCH   8  11
ENDBRANCH   7   8
ENDBRANCH   1   7
BRANCH   6  13
ATOM     13  N   LIG d   1      -6.132  78.929 118.159  0.00  0.00    -0.311 N 
ATOM     14  C   LIG d   1      -6.444  80.216 118.018  0.00  0.00     0.210 C 
ATOM     15  C   LIG d   1      -5.459  81.195 118.663  0.00  0.00     0.109 C 
ATOM     16  O   LIG d   1      -7.461  80.638 117.447  0.00  0.00    -0.276 OA
ATOM     17  H   LIG d   1      -5.306  78.675 118.665  0.00  0.00     0.149 HD
ENDBRANCH   6  13
BRANCH   5  18
ATOM     18  N   LIG d   1      -9.034  78.338 118.907  0.00  0.00     0.381 N 
ATOM     19  H   LIG d   1      -9.684  77.970 119.573  0.00  0.00    -0.090 HD
ATOM     20  H   LIG d   1      -9.539  78.573 118.071  0.00  0.00    -0.090 HD
ATOM     21  H   LIG d   1      -8.592  79.150 119.277  0.00  0.00    -0.090 HD
ENDBRANCH   5  18
BRANCH   3  22
ATOM     22  C   LIG d   1      -8.325  73.819 117.487  0.00  0.00     0.382 C 
ATOM     23  O   LIG d   1      -9.503  73.553 117.146  0.00  0.00    -0.241 OA
ATOM     24  O   LIG d   1      -7.575  72.901 117.870  0.00  0.00    -0.241 OA
ENDBRANCH   3  22
TORSDOF 7
ENDMDL
MODEL 6
REMARK VINA RESULT:      -5.1      2.846      5.000
REMARK  7 active torsions:
REMARK  status: ('A' for Active; 'I' for Inactive)
REMARK    1  A    between atoms: C_2  and  C_3 
REMARK    2  A    between atoms: C_3  and  O_6 
REMARK    3  A    between atoms: C_3  and  C_4 
REMARK    4  A    between atoms: C_7  and  O_6 
REMARK    5  A    between atoms: C_9  and  C_10 
REMARK    6  A    between atoms: N_15  and  C_14 
REMARK    7  A    between atoms: N_20  and  C_19 
REMARK       I    between atoms: C_22  and  N_20 
ROOT
ATOM      1  C   LIG d   1      -4.526  77.729 116.679  0.00  0.00     0.161 C 
ATOM      2  C   LIG d   1      -5.328  78.806 117.091  0.00  0.00     0.016 C 
ATOM      3  C   LIG d   1      -4.906  80.155 117.041  0.00  0.00     0.038 C 
ATOM      4  C   LIG d   1      -3.700  80.532 116.431  0.00  0.00     0.028 C 
ATOM      5  C   LIG d   1      -2.639  79.438 116.459  0.00  0.00    -0.047 C 
ATOM      6  C   LIG d   1      -3.251  78.130 115.908  0.00  0.00     0.091 C 
ENDROOT
BRANCH   1   7
ATOM      7  O   LIG d   1      -5.311  76.804 115.903  0.00  0.00    -0.368 OA
BRANCH   7   8
ATOM      8  C   LIG d   1      -5.632  75.545 116.544  0.00  0.00     0.119 C 
BRANCH   8   9
ATOM      9  C   LIG d   1      -5.542  74.442 115.471  0.00  0.00     0.028 C 
ATOM     10  C   LIG d   1      -5.242  75.008 114.073  0.00  0.00     0.006 C 
ENDBRANCH   8   9
BRANCH   8  11
ATOM     11  C   LIG d   1      -7.084  75.520 117.030  0.00  0.00     0.028 C 
ATOM     12  C   LIG d   1      -7.561  74.110 117.413  0.00  0.00     0.006 C 
ENDBRANCH   8  11
ENDBRANCH   7   8
ENDBRANCH   1   7
BRANCH   6  13
ATOM     13  N   LIG d   1      -2.304  76.987 115.979  0.00  0.00    -0.311 N 
ATOM     14  C   LIG d   1      -1.860  76.335 114.905  0.00  0.00     0.210 C 
ATOM     15  C   LIG d   1      -0.906  75.174 115.203  0.00  0.00     0.109 C 
ATOM     16  O   LIG d   1      -2.141  76.628 113.733  0.00  0.00    -0.276 OA
ATOM     17  H   LIG d   1      -2.000  76.702 116.889  0.00  0.00     0.149 HD
ENDBRANCH   6  13
BRANCH   5  18
ATOM     18  N   LIG d   1      -1.486  79.914 115.671  0.00  0.00     0.381 N 
ATOM     19  H   LIG d   1      -0.914  79.138 115.405  0.00  0.00    -0.090 HD
ATOM     20  H   LIG d   1      -0.936  80.532 116.241  0.00  0.00    -0.090 HD
ATOM     21  H   LIG d   1      -1.805  80.396 114.859  0.00  0.00    -0.090 HD
ENDBRANCH   5  18
BRANCH   3  22
ATOM     22  C   LIG d   1      -5.676  81.139 117.642  0.00  0.00     0.382 C 
ATOM     23  O   LIG d   1      -6.693  81.584 117.057  0.00  0.00    -0.241 OA
ATOM     24  O   LIG d   1      -5.342  81.619 118.742  0.00  0.00    -0.241 OA
ENDBRANCH   3  22
TORSDOF 7
ENDMDL
MODEL 7
REMARK VINA RESULT:      -5.0      3.634      6.018
REMARK  7 active torsions:
REMARK  status: ('A' for Active; 'I' for Inactive)
REMARK    1  A    between atoms: C_2  and  C_3 
REMARK    2  A    between atoms: C_3  and  O_6 
REMARK    3  A    between atoms: C_3  and  C_4 
REMARK    4  A    between atoms: C_7  and  O_6 
REMARK    5  A    between atoms: C_9  and  C_10 
REMARK    6  A    between atoms: N_15  and  C_14 
REMARK    7  A    between atoms: N_20  and  C_19 
REMARK       I    between atoms: C_22  and  N_20 
ROOT
ATOM      1  C   LIG d   1      -2.924  79.575 115.563  0.00  0.00     0.161 C 
ATOM      2  C   LIG d   1      -2.743  80.803 114.907  0.00  0.00     0.016 C 
ATOM      3  C   LIG d   1      -2.244  80.915 113.589  0.00  0.00     0.038 C 
ATOM      4  C   LIG d   1      -2.034  79.790 112.778  0.00  0.00     0.028 C 
ATOM      5  C   LIG d   1      -1.723  78.523 113.568  0.00  0.00    -0.047 C 
ATOM      6  C   LIG d   1      -2.805  78.333 114.655  0.00  0.00     0.091 C 
ENDROOT
BRANCH   1   7
ATOM      7  O   LIG d   1      -4.190  79.571 116.253  0.00  0.00    -0.368 OA
BRANCH   7   8
ATOM      8  C   LIG d   1      -4.127  79.534 117.700  0.00  0.00     0.119 C 
BRANCH   8   9
ATOM      9  C   LIG d   1      -5.361  78.758 118.198  0.00  0.00     0.028 C 
ATOM     10  C   LIG d   1      -5.769  77.627 117.238  0.00  0.00     0.006 C 
ENDBRANCH   8   9
BRANCH   8  11
ATOM     11  C   LIG d   1      -4.261  80.937 118.300  0.00  0.00     0.028 C 
ATOM     12  C   LIG d   1      -2.923  81.501 118.803  0.00  0.00     0.006 C 
ENDBRANCH   8  11
ENDBRANCH   7   8
ENDBRANCH   1   7
BRANCH   6  13
ATOM     13  N   LIG d   1      -2.531  77.162 115.529  0.00  0.00    -0.311 N 
ATOM     14  C   LIG d   1      -2.992  75.937 115.279  0.00  0.00     0.210 C 
ATOM     15  C   LIG d   1      -2.609  74.878 116.318  0.00  0.00     0.109 C 
ATOM     16  O   LIG d   1      -3.655  75.621 114.280  0.00  0.00    -0.276 OA
ATOM     17  H   LIG d   1      -1.974  77.322 116.345  0.00  0.00     0.149 HD
ENDBRANCH   6  13
BRANCH   5  18
ATOM     18  N   LIG d   1      -1.663  77.404 112.609  0.00  0.00     0.381 N 
ATOM     19  H   LIG d   1      -1.272  76.598 113.054  0.00  0.00    -0.090 HD
ATOM     20  H   LIG d   1      -1.066  77.663 111.844  0.00  0.00    -0.090 HD
ATOM     21  H   LIG d   1      -2.577  77.195 112.271  0.00  0.00    -0.090 HD
ENDBRANCH   5  18
BRANCH   3  22
ATOM     22  C   LIG d   1      -1.913  82.163 113.083  0.00  0.00     0.382 C 
ATOM     23  O   LIG d   1      -1.960  83.173 113.825  0.00  0.00    -0.241 OA
ATOM     24  O   LIG d   1      -1.610  82.298 111.882  0.00  0.00    -0.241 OA
ENDBRANCH   3  22
TORSDOF 7
ENDMDL
MODEL 8
REMARK VINA RESULT:      -4.9      4.087      6.443
REMARK  7 active torsions:
REMARK  status: ('A' for Active; 'I' for Inactive)
REMARK    1  A    between atoms: C_2  and  C_3 
REMARK    2  A    between atoms: C_3  and  O_6 
REMARK    3  A    between atoms: C_3  and  C_4 
REMARK    4  A    between atoms: C_7  and  O_6 
REMARK    5  A    between atoms: C_9  and  C_10 
REMARK    6  A    between atoms: N_15  and  C_14 
REMARK    7  A    between atoms: N_20  and  C_19 
REMARK       I    between atoms: C_22  and  N_20 
ROOT
ATOM      1  C   LIG d   1      -1.509  79.643 115.377  0.00  0.00     0.161 C 
ATOM      2  C   LIG d   1      -1.485  80.927 114.807  0.00  0.00     0.016 C 
ATOM      3  C   LIG d   1      -1.853  81.190 113.468  0.00  0.00     0.038 C 
ATOM      4  C   LIG d   1      -2.419  80.204 112.646  0.00  0.00     0.028 C 
ATOM      5  C   LIG d   1      -1.991  78.788 113.018  0.00  0.00    -0.047 C 
ATOM      6  C   LIG d   1      -2.229  78.573 114.530  0.00  0.00     0.091 C 
ENDROOT
BRANCH   1   7
ATOM      7  O   LIG d   1      -2.083  79.706 116.698  0.00  0.00    -0.368 OA
BRANCH   7   8
ATOM      8  C   LIG d   1      -3.040  80.769 116.927  0.00  0.00     0.119 C 
BRANCH   8   9
ATOM      9  C   LIG d   1      -2.764  81.346 118.329  0.00  0.00     0.028 C 
ATOM     10  C   LIG d   1      -1.397  82.045 118.417  0.00  0.00     0.006 C 
ENDBRANCH   8   9
BRANCH   8  11
ATOM     11  C   LIG d   1      -4.471  80.227 116.987  0.00  0.00     0.028 C 
ATOM     12  C   LIG d   1      -5.493  81.289 117.424  0.00  0.00     0.006 C 
ENDBRANCH   8  11
ENDBRANCH   7   8
ENDBRANCH   1   7
BRANCH   6  13
ATOM     13  N   LIG d   1      -1.759  77.241 114.994  0.00  0.00    -0.311 N 
ATOM     14  C   LIG d   1      -2.535  76.159 115.023  0.00  0.00     0.210 C 
ATOM     15  C   LIG d   1      -1.858  74.892 115.555  0.00  0.00     0.109 C 
ATOM     16  O   LIG d   1      -3.710  76.121 114.628  0.00  0.00    -0.276 OA
ATOM     17  H   LIG d   1      -0.809  77.175 115.303  0.00  0.00     0.149 HD
ENDBRANCH   6  13
BRANCH   5  18
ATOM     18  N   LIG d   1      -2.760  77.854 112.173  0.00  0.00     0.381 N 
ATOM     19  H   LIG d   1      -3.512  77.460 112.702  0.00  0.00    -0.090 HD
ATOM     20  H   LIG d   1      -2.154  77.107 111.881  0.00  0.00    -0.090 HD
ATOM     21  H   LIG d   1      -3.119  78.332 111.376  0.00  0.00    -0.090 HD
ENDBRANCH   5  18
BRANCH   3  22
ATOM     22  C   LIG d   1      -1.619  82.444 112.925  0.00  0.00     0.382 C 
ATOM     23  O   LIG d   1      -1.361  82.560 111.702  0.00  0.00    -0.241 OA
ATOM     24  O   LIG d   1      -1.617  83.457 113.651  0.00  0.00    -0.241 OA
ENDBRANCH   3  22
TORSDOF 7
ENDMDL
MODEL 9
REMARK VINA RESULT:      -4.9     12.027     14.614
REMARK  7 active torsions:
REMARK  status: ('A' for Active; 'I' for Inactive)
REMARK    1  A    between atoms: C_2  and  C_3 
REMARK    2  A    between atoms: C_3  and  O_6 
REMARK    3  A    between atoms: C_3  and  C_4 
REMARK    4  A    between atoms: C_7  and  O_6 
REMARK    5  A    between atoms: C_9  and  C_10 
REMARK    6  A    between atoms: N_15  and  C_14 
REMARK    7  A    between atoms: N_20  and  C_19 
REMARK       I    between atoms: C_22  and  N_20 
ROOT
ATOM      1  C   LIG d   1       2.677  86.580 114.569  0.00  0.00     0.161 C 
ATOM      2  C   LIG d   1       2.768  87.915 114.141  0.00  0.00     0.016 C 
ATOM      3  C   LIG d   1       3.859  88.759 114.451  0.00  0.00     0.038 C 
ATOM      4  C   LIG d   1       5.012  88.277 115.087  0.00  0.00     0.028 C 
ATOM      5  C   LIG d   1       4.752  87.068 115.979  0.00  0.00    -0.047 C 
ATOM      6  C   LIG d   1       3.977  86.004 115.168  0.00  0.00     0.091 C 
ENDROOT
BRANCH   1   7
ATOM      7  O   LIG d   1       2.215  85.750 113.485  0.00  0.00    -0.368 OA
BRANCH   7   8
ATOM      8  C   LIG d   1       1.534  86.434 112.404  0.00  0.00     0.119 C 
BRANCH   8   9
ATOM      9  C   LIG d   1       0.117  85.837 112.299  0.00  0.00     0.028 C 
ATOM     10  C   LIG d   1      -0.786  86.634 111.342  0.00  0.00     0.006 C 
ENDBRANCH   8   9
BRANCH   8  11
ATOM     11  C   LIG d   1       2.197  86.144 111.055  0.00  0.00     0.028 C 
ATOM     12  C   LIG d   1       3.674  85.742 111.192  0.00  0.00     0.006 C 
ENDBRANCH   8  11
ENDBRANCH   7   8
ENDBRANCH   1   7
BRANCH   6  13
ATOM     13  N   LIG d   1       3.608  84.822 115.991  0.00  0.00    -0.311 N 
ATOM     14  C   LIG d   1       4.367  83.733 116.092  0.00  0.00     0.210 C 
ATOM     15  C   LIG d   1       3.791  82.623 116.977  0.00  0.00     0.109 C 
ATOM     16  O   LIG d   1       5.479  83.594 115.560  0.00  0.00    -0.276 OA
ATOM     17  H   LIG d   1       2.736  84.863 116.482  0.00  0.00     0.149 HD
ENDBRANCH   6  13
BRANCH   5  18
ATOM     18  N   LIG d   1       6.057  86.585 116.468  0.00  0.00     0.381 N 
ATOM     19  H   LIG d   1       6.794  87.107 116.038  0.00  0.00    -0.090 HD
ATOM     20  H   LIG d   1       6.163  85.619 116.212  0.00  0.00    -0.090 HD
ATOM     21  H   LIG d   1       6.107  86.681 117.459  0.00  0.00    -0.090 HD
ENDBRANCH   5  18
BRANCH   3  22
ATOM     22  C   LIG d   1       3.785  90.113 114.159  0.00  0.00     0.382 C 
ATOM     23  O   LIG d   1       3.430  90.927 115.046  0.00  0.00    -0.241 OA
ATOM     24  O   LIG d   1       4.025  90.525 113.009  0.00  0.00    -0.241 OA
ENDBRANCH   3  22
TORSDOF 7
ENDMDL
