MODEL 1
REMARK VINA RESULT:      -5.9      0.000      0.000
REMARK  7 active torsions:
REMARK  status: ('A' for Active; 'I' for Inactive)
REMARK    1  A    between atoms: C_2  and  C_3 
REMARK    2  A    between atoms: C_3  and  O_6 
REMARK    3  A    between atoms: C_3  and  C_4 
REMARK    4  A    between atoms: C_7  and  O_6 
REMARK    5  A    between atoms: C_9  and  C_10 
REMARK    6  A    between atoms: N_15  and  C_14 
REMARK    7  A    between atoms: N_20  and  C_19 
REMARK       I    between atoms: C_22  and  N_20 
ROOT
ATOM      1  C   LIG d   1      -3.157  77.548 114.198  0.00  0.00     0.161 C 
ATOM      2  C   LIG d   1      -3.214  78.785 113.534  0.00  0.00     0.016 C 
ATOM      3  C   LIG d   1      -2.093  79.631 113.368  0.00  0.00     0.038 C 
ATOM      4  C   LIG d   1      -0.799  79.226 113.726  0.00  0.00     0.028 C 
ATOM      5  C   LIG d   1      -0.775  78.201 114.855  0.00  0.00    -0.047 C 
ATOM      6  C   LIG d   1      -1.731  77.040 114.498  0.00  0.00     0.091 C 
ENDROOT
BRANCH   1   7
ATOM      7  O   LIG d   1      -3.896  76.559 113.454  0.00  0.00    -0.368 OA
BRANCH   7   8
ATOM      8  C   LIG d   1      -5.076  76.024 114.102  0.00  0.00     0.119 C 
BRANCH   8   9
ATOM      9  C   LIG d   1      -5.003  74.488 114.001  0.00  0.00     0.028 C 
ATOM     10  C   LIG d   1      -5.720  73.789 115.168  0.00  0.00     0.006 C 
ENDBRANCH   8   9
BRANCH   8  11
ATOM     11  C   LIG d   1      -6.351  76.420 113.352  0.00  0.00     0.028 C 
ATOM     12  C   LIG d   1      -6.088  76.790 111.883  0.00  0.00     0.006 C 
ENDBRANCH   8  11
ENDBRANCH   7   8
ENDBRANCH   1   7
BRANCH   6  13
ATOM     13  N   LIG d   1      -1.832  76.033 115.587  0.00  0.00    -0.311 N 
ATOM     14  C   LIG d   1      -1.122  74.907 115.612  0.00  0.00     0.210 C 
ATOM     15  C   LIG d   1      -1.393  73.998 116.815  0.00  0.00     0.109 C 
ATOM     16  O   LIG d   1      -0.270  74.589 114.769  0.00  0.00    -0.276 OA
ATOM     17  H   LIG d   1      -2.477  76.226 116.328  0.00  0.00     0.149 HD
ENDBRANCH   6  13
BRANCH   5  18
ATOM     18  N   LIG d   1       0.623  77.765 115.032  0.00  0.00     0.381 N 
ATOM     19  H   LIG d   1       1.172  78.524 115.384  0.00  0.00    -0.090 HD
ATOM     20  H   LIG d   1       0.995  77.495 114.138  0.00  0.00    -0.090 HD
ATOM     21  H   LIG d   1       0.662  76.995 115.663  0.00  0.00    -0.090 HD
ENDBRANCH   5  18
BRANCH   3  22
ATOM     22  C   LIG d   1      -2.269  80.915 112.875  0.00  0.00     0.382 C 
ATOM     23  O   LIG d   1      -1.303  81.525 112.355  0.00  0.00    -0.241 OA
ATOM     24  O   LIG d   1      -3.370  81.488 112.982  0.00  0.00    -0.241 OA
ENDBRANCH   3  22
TORSDOF 7
ENDMDL
MODEL 2
REMARK VINA RESULT:      -5.6      8.176     10.780
REMARK  7 active torsions:
REMARK  status: ('A' for Active; 'I' for Inactive)
REMARK    1  A    between atoms: C_2  and  C_3 
REMARK    2  A    between atoms: C_3  and  O_6 
REMARK    3  A    between atoms: C_3  and  C_4 
REMARK    4  A    between atoms: C_7  and  O_6 
REMARK    5  A    between atoms: C_9  and  C_10 
REMARK    6  A    between atoms: N_15  and  C_14 
REMARK    7  A    between atoms: N_20  and  C_19 
REMARK       I    between atoms: C_22  and  N_20 
ROOT
ATOM      1  C   LIG d   1       2.653  84.931 113.507  0.00  0.00     0.161 C 
ATOM      2  C   LIG d   1       1.314  84.713 113.141  0.00  0.00     0.016 C 
ATOM      3  C   LIG d   1       0.501  85.700 112.539  0.00  0.00     0.038 C 
ATOM      4  C   LIG d   1       1.020  86.935 112.122  0.00  0.00     0.028 C 
ATOM      5  C   LIG d   1       2.235  87.385 112.928  0.00  0.00    -0.047 C 
ATOM      6  C   LIG d   1       3.268  86.236 112.959  0.00  0.00     0.091 C 
ENDROOT
BRANCH   1   7
ATOM      7  O   LIG d   1       3.456  83.798 113.123  0.00  0.00    -0.368 OA
BRANCH   7   8
ATOM      8  C   LIG d   1       3.365  83.394 111.734  0.00  0.00     0.119 C 
BRANCH   8   9
ATOM      9  C   LIG d   1       2.905  81.924 111.709  0.00  0.00     0.028 C 
ATOM     10  C   LIG d   1       1.518  81.754 111.065  0.00  0.00     0.006 C 
ENDBRANCH   8   9
BRANCH   8  11
ATOM     11  C   LIG d   1       4.741  83.400 111.061  0.00  0.00     0.028 C 
ATOM     12  C   LIG d   1       5.893  83.190 112.057  0.00  0.00     0.006 C 
ENDBRANCH   8  11
ENDBRANCH   7   8
ENDBRANCH   1   7
BRANCH   6  13
ATOM     13  N   LIG d   1       4.452  86.561 113.798  0.00  0.00    -0.311 N 
ATOM     14  C   LIG d   1       5.525  87.201 113.335  0.00  0.00     0.210 C 
ATOM     15  C   LIG d   1       6.641  87.418 114.361  0.00  0.00     0.109 C 
ATOM     16  O   LIG d   1       5.645  87.636 112.180  0.00  0.00    -0.276 OA
ATOM     17  H   LIG d   1       4.426  86.272 114.756  0.00  0.00     0.149 HD
ENDBRANCH   6  13
BRANCH   5  18
ATOM     18  N   LIG d   1       2.755  88.614 112.300  0.00  0.00     0.381 N 
ATOM     19  H   LIG d   1       3.232  89.167 112.984  0.00  0.00    -0.090 HD
ATOM     20  H   LIG d   1       1.983  89.149 111.944  0.00  0.00    -0.090 HD
ATOM     21  H   LIG d   1       3.378  88.381 111.558  0.00  0.00    -0.090 HD
ENDBRANCH   5  18
BRANCH   3  22
ATOM     22  C   LIG d   1      -0.858  85.471 112.385  0.00  0.00     0.382 C 
ATOM     23  O   LIG d   1      -1.635  86.432 112.170  0.00  0.00    -0.241 OA
ATOM     24  O   LIG d   1      -1.322  84.321 112.501  0.00  0.00    -0.241 OA
ENDBRANCH   3  22
TORSDOF 7
ENDMDL
MODEL 3
REMARK VINA RESULT:      -5.3     15.415     18.396
REMARK  7 active torsions:
REMARK  status: ('A' for Active; 'I' for Inactive)
REMARK    1  A    between atoms: C_2  and  C_3 
REMARK    2  A    between atoms: C_3  and  O_6 
REMARK    3  A    between atoms: C_3  and  C_4 
REMARK    4  A    between atoms: C_7  and  O_6 
REMARK    5  A    between atoms: C_9  and  C_10 
REMARK    6  A    between atoms: N_15  and  C_14 
REMARK    7  A    between atoms: N_20  and  C_19 
REMARK       I    between atoms: C_22  and  N_20 
ROOT
ATOM      1  C   LIG d   1     -16.301  65.078 114.185  0.00  0.00     0.161 C 
ATOM      2  C   LIG d   1     -15.823  66.071 113.313  0.00  0.00     0.016 C 
ATOM      3  C   LIG d   1     -15.183  67.251 113.755  0.00  0.00     0.038 C 
ATOM      4  C   LIG d   1     -14.839  67.449 115.101  0.00  0.00     0.028 C 
ATOM      5  C   LIG d   1     -15.749  66.708 116.074  0.00  0.00    -0.047 C 
ATOM      6  C   LIG d   1     -15.836  65.224 115.649  0.00  0.00     0.091 C 
ENDROOT
BRANCH   1   7
ATOM      7  O   LIG d   1     -15.955  63.774 113.677  0.00  0.00    -0.368 OA
BRANCH   7   8
ATOM      8  C   LIG d   1     -17.058  62.958 113.211  0.00  0.00     0.119 C 
BRANCH   8   9
ATOM      9  C   LIG d   1     -18.334  63.817 113.288  0.00  0.00     0.028 C 
ATOM     10  C   LIG d   1     -19.068  63.900 111.939  0.00  0.00     0.006 C 
ENDBRANCH   8   9
BRANCH   8  11
ATOM     11  C   LIG d   1     -17.309  61.774 114.149  0.00  0.00     0.028 C 
ATOM     12  C   LIG d   1     -17.596  60.466 113.394  0.00  0.00     0.006 C 
ENDBRANCH   8  11
ENDBRANCH   7   8
ENDBRANCH   1   7
BRANCH   6  13
ATOM     13  N   LIG d   1     -16.774  64.445 116.498  0.00  0.00    -0.311 N 
ATOM     14  C   LIG d   1     -16.408  63.379 117.208  0.00  0.00     0.210 C 
ATOM     15  C   LIG d   1     -17.536  62.710 117.999  0.00  0.00     0.109 C 
ATOM     16  O   LIG d   1     -15.249  62.943 117.281  0.00  0.00    -0.276 OA
ATOM     17  H   LIG d   1     -17.728  64.748 116.521  0.00  0.00     0.149 HD
ENDBRANCH   6  13
BRANCH   5  18
ATOM     18  N   LIG d   1     -15.196  66.890 117.429  0.00  0.00     0.381 N 
ATOM     19  H   LIG d   1     -14.321  66.410 117.504  0.00  0.00    -0.090 HD
ATOM     20  H   LIG d   1     -15.832  66.491 118.096  0.00  0.00    -0.090 HD
ATOM     21  H   LIG d   1     -15.069  67.860 117.618  0.00  0.00    -0.090 HD
ENDBRANCH   5  18
BRANCH   3  22
ATOM     22  C   LIG d   1     -14.915  68.267 112.850  0.00  0.00     0.382 C 
ATOM     23  O   LIG d   1     -15.346  68.190 111.675  0.00  0.00    -0.241 OA
ATOM     24  O   LIG d   1     -14.210  69.239 113.183  0.00  0.00    -0.241 OA
ENDBRANCH   3  22
TORSDOF 7
ENDMDL
MODEL 4
REMARK VINA RESULT:      -5.2     16.526     20.109
REMARK  7 active torsions:
REMARK  status: ('A' for Active; 'I' for Inactive)
REMARK    1  A    between atoms: C_2  and  C_3 
REMARK    2  A    between atoms: C_3  and  O_6 
REMARK    3  A    between atoms: C_3  and  C_4 
REMARK    4  A    between atoms: C_7  and  O_6 
REMARK    5  A    between atoms: C_9  and  C_10 
REMARK    6  A    between atoms: N_15  and  C_14 
REMARK    7  A    between atoms: N_20  and  C_19 
REMARK       I    between atoms: C_22  and  N_20 
ROOT
ATOM      1  C   LIG d   1     -16.420  63.442 115.762  0.00  0.00     0.161 C 
ATOM      2  C   LIG d   1     -16.796  62.187 115.255  0.00  0.00     0.016 C 
ATOM      3  C   LIG d   1     -17.216  61.981 113.921  0.00  0.00     0.038 C 
ATOM      4  C   LIG d   1     -17.144  62.996 112.955  0.00  0.00     0.028 C 
ATOM      5  C   LIG d   1     -17.249  64.400 113.543  0.00  0.00    -0.047 C 
ATOM      6  C   LIG d   1     -16.228  64.540 114.695  0.00  0.00     0.091 C 
ENDROOT
BRANCH   1   7
ATOM      7  O   LIG d   1     -15.229  63.308 116.563  0.00  0.00    -0.368 OA
BRANCH   7   8
ATOM      8  C   LIG d   1     -15.430  62.924 117.945  0.00  0.00     0.119 C 
BRANCH   8   9
ATOM      9  C   LIG d   1     -14.612  63.896 118.819  0.00  0.00     0.028 C 
ATOM     10  C   LIG d   1     -15.053  65.358 118.641  0.00  0.00     0.006 C 
ENDBRANCH   8   9
BRANCH   8  11
ATOM     11  C   LIG d   1     -14.849  61.536 118.229  0.00  0.00     0.028 C 
ATOM     12  C   LIG d   1     -15.820  60.630 119.001  0.00  0.00     0.006 C 
ENDBRANCH   8  11
ENDBRANCH   7   8
ENDBRANCH   1   7
BRANCH   6  13
ATOM     13  N   LIG d   1     -16.323  65.855 115.380  0.00  0.00    -0.311 N 
ATOM     14  C   LIG d   1     -15.574  66.907 115.055  0.00  0.00     0.210 C 
ATOM     15  C   LIG d   1     -15.817  68.161 115.901  0.00  0.00     0.109 C 
ATOM     16  O   LIG d   1     -14.754  66.931 114.124  0.00  0.00    -0.276 OA
ATOM     17  H   LIG d   1     -16.985  65.933 116.127  0.00  0.00     0.149 HD
ENDBRANCH   6  13
BRANCH   5  18
ATOM     18  N   LIG d   1     -17.020  65.360 112.447  0.00  0.00     0.381 N 
ATOM     19  H   LIG d   1     -16.889  66.278 112.823  0.00  0.00    -0.090 HD
ATOM     20  H   LIG d   1     -17.831  65.375 111.853  0.00  0.00    -0.090 HD
ATOM     21  H   LIG d   1     -16.218  65.092 111.920  0.00  0.00    -0.090 HD
ENDBRANCH   5  18
BRANCH   3  22
ATOM     22  C   LIG d   1     -17.754  60.758 113.551  0.00  0.00     0.382 C 
ATOM     23  O   LIG d   1     -17.041  59.725 113.580  0.00  0.00    -0.241 OA
ATOM     24  O   LIG d   1     -18.929  60.681 113.146  0.00  0.00    -0.241 OA
ENDBRANCH   3  22
TORSDOF 7
ENDMDL
MODEL 5
REMARK VINA RESULT:      -5.0      2.047      5.309
REMARK  7 active torsions:
REMARK  status: ('A' for Active; 'I' for Inactive)
REMARK    1  A    between atoms: C_2  and  C_3 
REMARK    2  A    between atoms: C_3  and  O_6 
REMARK    3  A    between atoms: C_3  and  C_4 
REMARK    4  A    between atoms: C_7  and  O_6 
REMARK    5  A    between atoms: C_9  and  C_10 
REMARK    6  A    between atoms: N_15  and  C_14 
REMARK    7  A    between atoms: N_20  and  C_19 
REMARK       I    between atoms: C_22  and  N_20 
ROOT
ATOM      1  C   LIG d   1      -2.646  75.221 115.542  0.00  0.00     0.161 C 
ATOM      2  C   LIG d   1      -2.294  74.360 116.595  0.00  0.00     0.016 C 
ATOM      3  C   LIG d   1      -1.133  74.531 117.384  0.00  0.00     0.038 C 
ATOM      4  C   LIG d   1      -0.321  75.669 117.271  0.00  0.00     0.028 C 
ATOM      5  C   LIG d   1      -0.358  76.305 115.886  0.00  0.00    -0.047 C 
ATOM      6  C   LIG d   1      -1.831  76.530 115.477  0.00  0.00     0.091 C 
ENDROOT
BRANCH   1   7
ATOM      7  O   LIG d   1      -4.057  75.512 115.601  0.00  0.00    -0.368 OA
BRANCH   7   8
ATOM      8  C   LIG d   1      -4.774  75.447 114.343  0.00  0.00     0.119 C 
BRANCH   8   9
ATOM      9  C   LIG d   1      -6.022  76.340 114.475  0.00  0.00     0.028 C 
ATOM     10  C   LIG d   1      -6.080  77.073 115.826  0.00  0.00     0.006 C 
ENDBRANCH   8   9
BRANCH   8  11
ATOM     11  C   LIG d   1      -5.310  74.036 114.081  0.00  0.00     0.028 C 
ATOM     12  C   LIG d   1      -5.880  73.371 115.343  0.00  0.00     0.006 C 
ENDBRANCH   8  11
ENDBRANCH   7   8
ENDBRANCH   1   7
BRANCH   6  13
ATOM     13  N   LIG d   1      -1.960  77.072 114.099  0.00  0.00    -0.311 N 
ATOM     14  C   LIG d   1      -2.646  78.175 113.806  0.00  0.00     0.210 C 
ATOM     15  C   LIG d   1      -2.669  78.548 112.320  0.00  0.00     0.109 C 
ATOM     16  O   LIG d   1      -3.210  78.899 114.640  0.00  0.00    -0.276 OA
ATOM     17  H   LIG d   1      -1.507  76.564 113.365  0.00  0.00     0.149 HD
ENDBRANCH   6  13
BRANCH   5  18
ATOM     18  N   LIG d   1       0.423  77.555 115.948  0.00  0.00     0.381 N 
ATOM     19  H   LIG d   1       1.392  77.357 115.798  0.00  0.00    -0.090 HD
ATOM     20  H   LIG d   1       0.321  77.956 116.864  0.00  0.00    -0.090 HD
ATOM     21  H   LIG d   1       0.096  78.196 115.259  0.00  0.00    -0.090 HD
ENDBRANCH   5  18
BRANCH   3  22
ATOM     22  C   LIG d   1      -0.754  73.536 118.272  0.00  0.00     0.382 C 
ATOM     23  O   LIG d   1       0.126  73.768 119.136  0.00  0.00    -0.241 OA
ATOM     24  O   LIG d   1      -1.249  72.396 118.193  0.00  0.00    -0.241 OA
ENDBRANCH   3  22
TORSDOF 7
ENDMDL
MODEL 6
REMARK VINA RESULT:      -4.8     21.954     24.371
REMARK  7 active torsions:
REMARK  status: ('A' for Active; 'I' for Inactive)
REMARK    1  A    between atoms: C_2  and  C_3 
REMARK    2  A    between atoms: C_3  and  O_6 
REMARK    3  A    between atoms: C_3  and  C_4 
REMARK    4  A    between atoms: C_7  and  O_6 
REMARK    5  A    between atoms: C_9  and  C_10 
REMARK    6  A    between atoms: N_15  and  C_14 
REMARK    7  A    between atoms: N_20  and  C_19 
REMARK       I    between atoms: C_22  and  N_20 
ROOT
ATOM      1  C   LIG d   1     -25.911  85.230 113.787  0.00  0.00     0.161 C 
ATOM      2  C   LIG d   1     -24.869  86.167 113.883  0.00  0.00     0.016 C 
ATOM      3  C   LIG d   1     -23.518  85.859 113.605  0.00  0.00     0.038 C 
ATOM      4  C   LIG d   1     -23.135  84.623 113.063  0.00  0.00     0.028 C 
ATOM      5  C   LIG d   1     -24.081  83.484 113.426  0.00  0.00    -0.047 C 
ATOM      6  C   LIG d   1     -25.529  83.907 113.090  0.00  0.00     0.091 C 
ENDROOT
BRANCH   1   7
ATOM      7  O   LIG d   1     -27.049  85.829 113.135  0.00  0.00    -0.368 OA
BRANCH   7   8
ATOM      8  C   LIG d   1     -27.082  85.728 111.690  0.00  0.00     0.119 C 
BRANCH   8   9
ATOM      9  C   LIG d   1     -26.980  87.158 111.124  0.00  0.00     0.028 C 
ATOM     10  C   LIG d   1     -27.453  88.222 112.129  0.00  0.00     0.006 C 
ENDBRANCH   8   9
BRANCH   8  11
ATOM     11  C   LIG d   1     -28.430  85.193 111.200  0.00  0.00     0.028 C 
ATOM     12  C   LIG d   1     -29.406  84.894 112.348  0.00  0.00     0.006 C 
ENDBRANCH   8  11
ENDBRANCH   7   8
ENDBRANCH   1   7
BRANCH   6  13
ATOM     13  N   LIG d   1     -26.527  82.882 113.492  0.00  0.00    -0.311 N 
ATOM     14  C   LIG d   1     -27.000  81.954 112.662  0.00  0.00     0.210 C 
ATOM     15  C   LIG d   1     -28.036  81.006 113.274  0.00  0.00     0.109 C 
ATOM     16  O   LIG d   1     -26.634  81.804 111.486  0.00  0.00    -0.276 OA
ATOM     17  H   LIG d   1     -26.855  82.911 114.438  0.00  0.00     0.149 HD
ENDBRANCH   6  13
BRANCH   5  18
ATOM     18  N   LIG d   1     -23.642  82.287 112.684  0.00  0.00     0.381 N 
ATOM     19  H   LIG d   1     -23.541  81.516 113.314  0.00  0.00    -0.090 HD
ATOM     20  H   LIG d   1     -22.746  82.472 112.268  0.00  0.00    -0.090 HD
ATOM     21  H   LIG d   1     -24.305  82.062 111.976  0.00  0.00    -0.090 HD
ENDBRANCH   5  18
BRANCH   3  22
ATOM     22  C   LIG d   1     -22.527  86.781 113.908  0.00  0.00     0.382 C 
ATOM     23  O   LIG d   1     -22.734  87.661 114.778  0.00  0.00    -0.241 OA
ATOM     24  O   LIG d   1     -21.444  86.770 113.292  0.00  0.00    -0.241 OA
ENDBRANCH   3  22
TORSDOF 7
ENDMDL
MODEL 7
REMARK VINA RESULT:      -4.7      8.546     11.360
REMARK  7 active torsions:
REMARK  status: ('A' for Active; 'I' for Inactive)
REMARK    1  A    between atoms: C_2  and  C_3 
REMARK    2  A    between atoms: C_3  and  O_6 
REMARK    3  A    between atoms: C_3  and  C_4 
REMARK    4  A    between atoms: C_7  and  O_6 
REMARK    5  A    between atoms: C_9  and  C_10 
REMARK    6  A    between atoms: N_15  and  C_14 
REMARK    7  A    between atoms: N_20  and  C_19 
REMARK       I    between atoms: C_22  and  N_20 
ROOT
ATOM      1  C   LIG d   1       3.117  85.416 114.327  0.00  0.00     0.161 C 
ATOM      2  C   LIG d   1       2.084  84.576 113.879  0.00  0.00     0.016 C 
ATOM      3  C   LIG d   1       1.099  84.981 112.950  0.00  0.00     0.038 C 
ATOM      4  C   LIG d   1       1.168  86.216 112.287  0.00  0.00     0.028 C 
ATOM      5  C   LIG d   1       1.905  87.289 113.080  0.00  0.00    -0.047 C 
ATOM      6  C   LIG d   1       3.274  86.729 113.531  0.00  0.00     0.091 C 
ENDROOT
BRANCH   1   7
ATOM      7  O   LIG d   1       4.362  84.691 114.348  0.00  0.00    -0.368 OA
BRANCH   7   8
ATOM      8  C   LIG d   1       4.419  83.497 113.530  0.00  0.00     0.119 C 
BRANCH   8   9
ATOM      9  C   LIG d   1       5.103  82.396 114.364  0.00  0.00     0.028 C 
ATOM     10  C   LIG d   1       5.766  82.951 115.636  0.00  0.00     0.006 C 
ENDBRANCH   8   9
BRANCH   8  11
ATOM     11  C   LIG d   1       5.321  83.700 112.309  0.00  0.00     0.028 C 
ATOM     12  C   LIG d   1       4.540  84.126 111.055  0.00  0.00     0.006 C 
ENDBRANCH   8  11
ENDBRANCH   7   8
ENDBRANCH   1   7
BRANCH   6  13
ATOM     13  N   LIG d   1       4.024  87.686 114.385  0.00  0.00    -0.311 N 
ATOM     14  C   LIG d   1       4.800  88.652 113.897  0.00  0.00     0.210 C 
ATOM     15  C   LIG d   1       5.499  89.515 114.952  0.00  0.00     0.109 C 
ATOM     16  O   LIG d   1       4.950  88.897 112.690  0.00  0.00    -0.276 OA
ATOM     17  H   LIG d   1       3.935  87.579 115.377  0.00  0.00     0.149 HD
ENDBRANCH   6  13
BRANCH   5  18
ATOM     18  N   LIG d   1       2.024  88.479 112.217  0.00  0.00     0.381 N 
ATOM     19  H   LIG d   1       1.154  88.974 112.201  0.00  0.00    -0.090 HD
ATOM     20  H   LIG d   1       2.234  88.182 111.281  0.00  0.00    -0.090 HD
ATOM     21  H   LIG d   1       2.747  89.075 112.555  0.00  0.00    -0.090 HD
ENDBRANCH   5  18
BRANCH   3  22
ATOM     22  C   LIG d   1       0.006  84.163 112.705  0.00  0.00     0.382 C 
ATOM     23  O   LIG d   1      -1.127  84.669 112.522  0.00  0.00    -0.241 OA
ATOM     24  O   LIG d   1       0.132  82.924 112.710  0.00  0.00    -0.241 OA
ENDBRANCH   3  22
TORSDOF 7
ENDMDL
MODEL 8
REMARK VINA RESULT:      -4.7      1.997      2.606
REMARK  7 active torsions:
REMARK  status: ('A' for Active; 'I' for Inactive)
REMARK    1  A    between atoms: C_2  and  C_3 
REMARK    2  A    between atoms: C_3  and  O_6 
REMARK    3  A    between atoms: C_3  and  C_4 
REMARK    4  A    between atoms: C_7  and  O_6 
REMARK    5  A    between atoms: C_9  and  C_10 
REMARK    6  A    between atoms: N_15  and  C_14 
REMARK    7  A    between atoms: N_20  and  C_19 
REMARK       I    between atoms: C_22  and  N_20 
ROOT
ATOM      1  C   LIG d   1      -2.440  76.886 116.779  0.00  0.00     0.161 C 
ATOM      2  C   LIG d   1      -2.515  78.056 116.004  0.00  0.00     0.016 C 
ATOM      3  C   LIG d   1      -1.470  78.498 115.161  0.00  0.00     0.038 C 
ATOM      4  C   LIG d   1      -0.331  77.715 114.918  0.00  0.00     0.028 C 
ATOM      5  C   LIG d   1       0.011  76.771 116.066  0.00  0.00    -0.047 C 
ATOM      6  C   LIG d   1      -1.251  75.962 116.443  0.00  0.00     0.091 C 
ENDROOT
BRANCH   1   7
ATOM      7  O   LIG d   1      -3.681  76.159 116.688  0.00  0.00    -0.368 OA
BRANCH   7   8
ATOM      8  C   LIG d   1      -4.260  76.050 115.364  0.00  0.00     0.119 C 
BRANCH   8   9
ATOM      9  C   LIG d   1      -5.784  76.228 115.509  0.00  0.00     0.028 C 
ATOM     10  C   LIG d   1      -6.180  76.808 116.877  0.00  0.00     0.006 C 
ENDBRANCH   8   9
BRANCH   8  11
ATOM     11  C   LIG d   1      -4.069  74.645 114.786  0.00  0.00     0.028 C 
ATOM     12  C   LIG d   1      -5.362  74.063 114.193  0.00  0.00     0.006 C 
ENDBRANCH   8  11
ENDBRANCH   7   8
ENDBRANCH   1   7
BRANCH   6  13
ATOM     13  N   LIG d   1      -1.027  75.074 117.613  0.00  0.00    -0.311 N 
ATOM     14  C   LIG d   1      -0.716  73.783 117.505  0.00  0.00     0.210 C 
ATOM     15  C   LIG d   1      -0.547  73.046 118.837  0.00  0.00     0.109 C 
ATOM     16  O   LIG d   1      -0.534  73.187 116.433  0.00  0.00    -0.276 OA
ATOM     17  H   LIG d   1      -1.124  75.484 118.522  0.00  0.00     0.149 HD
ENDBRANCH   6  13
BRANCH   5  18
ATOM     18  N   LIG d   1       1.132  75.921 115.624  0.00  0.00     0.381 N 
ATOM     19  H   LIG d   1       1.038  75.714 114.650  0.00  0.00    -0.090 HD
ATOM     20  H   LIG d   1       1.104  75.055 116.134  0.00  0.00    -0.090 HD
ATOM     21  H   LIG d   1       1.998  76.385 115.790  0.00  0.00    -0.090 HD
ENDBRANCH   5  18
BRANCH   3  22
ATOM     22  C   LIG d   1      -1.541  79.755 114.580  0.00  0.00     0.382 C 
ATOM     23  O   LIG d   1      -2.634  80.178 114.132  0.00  0.00    -0.241 OA
ATOM     24  O   LIG d   1      -0.517  80.454 114.459  0.00  0.00    -0.241 OA
ENDBRANCH   3  22
TORSDOF 7
ENDMDL
MODEL 9
REMARK VINA RESULT:      -4.6      2.488      6.193
REMARK  7 active torsions:
REMARK  status: ('A' for Active; 'I' for Inactive)
REMARK    1  A    between atoms: C_2  and  C_3 
REMARK    2  A    between atoms: C_3  and  O_6 
REMARK    3  A    between atoms: C_3  and  C_4 
REMARK    4  A    between atoms: C_7  and  O_6 
REMARK    5  A    between atoms: C_9  and  C_10 
REMARK    6  A    between atoms: N_15  and  C_14 
REMARK    7  A    between atoms: N_20  and  C_19 
REMARK       I    between atoms: C_22  and  N_20 
ROOT
ATOM      1  C   LIG d   1      -3.372  75.609 115.167  0.00  0.00     0.161 C 
ATOM      2  C   LIG d   1      -4.104  74.454 115.489  0.00  0.00     0.016 C 
ATOM      3  C   LIG d   1      -5.324  74.107 114.866  0.00  0.00     0.038 C 
ATOM      4  C   LIG d   1      -5.823  74.818 113.764  0.00  0.00     0.028 C 
ATOM      5  C   LIG d   1      -5.379  76.277 113.734  0.00  0.00    -0.047 C 
ATOM      6  C   LIG d   1      -3.843  76.338 113.890  0.00  0.00     0.091 C 
ENDROOT
BRANCH   1   7
ATOM      7  O   LIG d   1      -1.970  75.289 115.072  0.00  0.00    -0.368 OA
BRANCH   7   8
ATOM      8  C   LIG d   1      -1.521  74.153 115.852  0.00  0.00     0.119 C 
BRANCH   8   9
ATOM      9  C   LIG d   1      -1.136  74.675 117.250  0.00  0.00     0.028 C 
ATOM     10  C   LIG d   1      -1.387  73.635 118.355  0.00  0.00     0.006 C 
ENDBRANCH   8   9
BRANCH   8  11
ATOM     11  C   LIG d   1      -0.236  73.553 115.275  0.00  0.00     0.028 C 
ATOM     12  C   LIG d   1       0.645  74.596 114.570  0.00  0.00     0.006 C 
ENDBRANCH   8  11
ENDBRANCH   7   8
ENDBRANCH   1   7
BRANCH   6  13
ATOM     13  N   LIG d   1      -3.334  77.733 113.956  0.00  0.00    -0.311 N 
ATOM     14  C   LIG d   1      -2.372  78.200 113.163  0.00  0.00     0.210 C 
ATOM     15  C   LIG d   1      -1.983  79.661 113.409  0.00  0.00     0.109 C 
ATOM     16  O   LIG d   1      -1.825  77.553 112.257  0.00  0.00    -0.276 OA
ATOM     17  H   LIG d   1      -3.744  78.336 114.642  0.00  0.00     0.149 HD
ENDBRANCH   6  13
BRANCH   5  18
ATOM     18  N   LIG d   1      -5.855  76.861 112.465  0.00  0.00     0.381 N 
ATOM     19  H   LIG d   1      -5.099  77.325 112.002  0.00  0.00    -0.090 HD
ATOM     20  H   LIG d   1      -6.566  77.542 112.667  0.00  0.00    -0.090 HD
ATOM     21  H   LIG d   1      -6.226  76.147 111.879  0.00  0.00    -0.090 HD
ENDBRANCH   5  18
BRANCH   3  22
ATOM     22  C   LIG d   1      -6.081  73.061 115.371  0.00  0.00     0.382 C 
ATOM     23  O   LIG d   1      -6.027  71.930 114.829  0.00  0.00    -0.241 OA
ATOM     24  O   LIG d   1      -6.849  73.244 116.334  0.00  0.00    -0.241 OA
ENDBRANCH   3  22
TORSDOF 7
ENDMDL
