MODEL 1
REMARK VINA RESULT:      -5.5      0.000      0.000
REMARK  7 active torsions:
REMARK  status: ('A' for Active; 'I' for Inactive)
REMARK    1  A    between atoms: C_2  and  C_3 
REMARK    2  A    between atoms: C_3  and  O_6 
REMARK    3  A    between atoms: C_3  and  C_4 
REMARK    4  A    between atoms: C_7  and  O_6 
REMARK    5  A    between atoms: C_9  and  C_10 
REMARK    6  A    between atoms: N_15  and  C_14 
REMARK    7  A    between atoms: N_20  and  C_19 
REMARK       I    between atoms: C_22  and  N_20 
ROOT
ATOM      1  C   LIG d   1      -2.172  77.571 116.114  0.00  0.00     0.161 C 
ATOM      2  C   LIG d   1      -2.632  78.441 115.111  0.00  0.00     0.016 C 
ATOM      3  C   LIG d   1      -2.174  78.398 113.774  0.00  0.00     0.038 C 
ATOM      4  C   LIG d   1      -1.330  77.378 113.311  0.00  0.00     0.028 C 
ATOM      5  C   LIG d   1      -0.447  76.781 114.402  0.00  0.00    -0.047 C 
ATOM      6  C   LIG d   1      -1.335  76.380 115.603  0.00  0.00     0.091 C 
ENDROOT
BRANCH   1   7
ATOM      7  O   LIG d   1      -3.285  77.101 116.900  0.00  0.00    -0.368 OA
BRANCH   7   8
ATOM      8  C   LIG d   1      -4.540  76.940 116.196  0.00  0.00     0.119 C 
BRANCH   8   9
ATOM      9  C   LIG d   1      -5.670  77.328 117.169  0.00  0.00     0.028 C 
ATOM     10  C   LIG d   1      -5.490  78.743 117.743  0.00  0.00     0.006 C 
ENDBRANCH   8   9
BRANCH   8  11
ATOM     11  C   LIG d   1      -4.797  75.472 115.841  0.00  0.00     0.028 C 
ATOM     12  C   LIG d   1      -5.144  75.270 114.358  0.00  0.00     0.006 C 
ENDBRANCH   8  11
ENDBRANCH   7   8
ENDBRANCH   1   7
BRANCH   6  13
ATOM     13  N   LIG d   1      -0.540  75.865 116.748  0.00  0.00    -0.311 N 
ATOM     14  C   LIG d   1      -0.837  74.743 117.401  0.00  0.00     0.210 C 
ATOM     15  C   LIG d   1       0.100  74.404 118.564  0.00  0.00     0.109 C 
ATOM     16  O   LIG d   1      -1.769  73.980 117.107  0.00  0.00    -0.276 OA
ATOM     17  H   LIG d   1       0.253  76.406 117.034  0.00  0.00     0.149 HD
ENDBRANCH   6  13
BRANCH   5  18
ATOM     18  N   LIG d   1       0.279  75.640 113.814  0.00  0.00     0.381 N 
ATOM     19  H   LIG d   1      -0.222  75.293 113.020  0.00  0.00    -0.090 HD
ATOM     20  H   LIG d   1       0.337  74.905 114.496  0.00  0.00    -0.090 HD
ATOM     21  H   LIG d   1       1.194  75.923 113.540  0.00  0.00    -0.090 HD
ENDBRANCH   5  18
BRANCH   3  22
ATOM     22  C   LIG d   1      -2.530  79.409 112.893  0.00  0.00     0.382 C 
ATOM     23  O   LIG d   1      -3.347  80.292 113.249  0.00  0.00    -0.241 OA
ATOM     24  O   LIG d   1      -2.078  79.423 111.732  0.00  0.00    -0.241 OA
ENDBRANCH   3  22
TORSDOF 7
ENDMDL
MODEL 2
REMARK VINA RESULT:      -5.4      2.483      4.830
REMARK  7 active torsions:
REMARK  status: ('A' for Active; 'I' for Inactive)
REMARK    1  A    between atoms: C_2  and  C_3 
REMARK    2  A    between atoms: C_3  and  O_6 
REMARK    3  A    between atoms: C_3  and  C_4 
REMARK    4  A    between atoms: C_7  and  O_6 
REMARK    5  A    between atoms: C_9  and  C_10 
REMARK    6  A    between atoms: N_15  and  C_14 
REMARK    7  A    between atoms: N_20  and  C_19 
REMARK       I    between atoms: C_22  and  N_20 
ROOT
ATOM      1  C   LIG d   1      -2.874  77.810 115.030  0.00  0.00     0.161 C 
ATOM      2  C   LIG d   1      -1.531  78.171 115.230  0.00  0.00     0.016 C 
ATOM      3  C   LIG d   1      -0.591  77.341 115.882  0.00  0.00     0.038 C 
ATOM      4  C   LIG d   1      -0.895  76.021 116.247  0.00  0.00     0.028 C 
ATOM      5  C   LIG d   1      -2.379  75.795 116.520  0.00  0.00    -0.047 C 
ATOM      6  C   LIG d   1      -3.196  76.330 115.322  0.00  0.00     0.091 C 
ENDROOT
BRANCH   1   7
ATOM      7  O   LIG d   1      -3.278  78.156 113.690  0.00  0.00    -0.368 OA
BRANCH   7   8
ATOM      8  C   LIG d   1      -2.333  78.939 112.921  0.00  0.00     0.119 C 
BRANCH   8   9
ATOM      9  C   LIG d   1      -2.867  80.383 112.861  0.00  0.00     0.028 C 
ATOM     10  C   LIG d   1      -1.760  81.407 112.558  0.00  0.00     0.006 C 
ENDBRANCH   8   9
BRANCH   8  11
ATOM     11  C   LIG d   1      -2.274  78.468 111.464  0.00  0.00     0.028 C 
ATOM     12  C   LIG d   1      -1.177  77.419 111.222  0.00  0.00     0.006 C 
ENDBRANCH   8  11
ENDBRANCH   7   8
ENDBRANCH   1   7
BRANCH   6  13
ATOM     13  N   LIG d   1      -4.662  76.224 115.544  0.00  0.00    -0.311 N 
ATOM     14  C   LIG d   1      -5.493  75.635 114.686  0.00  0.00     0.210 C 
ATOM     15  C   LIG d   1      -6.968  75.653 115.097  0.00  0.00     0.109 C 
ATOM     16  O   LIG d   1      -5.144  75.070 113.638  0.00  0.00    -0.276 OA
ATOM     17  H   LIG d   1      -5.027  76.628 116.384  0.00  0.00     0.149 HD
ENDBRANCH   6  13
BRANCH   5  18
ATOM     18  N   LIG d   1      -2.574  74.351 116.754  0.00  0.00     0.381 N 
ATOM     19  H   LIG d   1      -1.878  73.831 116.259  0.00  0.00    -0.090 HD
ATOM     20  H   LIG d   1      -3.477  74.084 116.404  0.00  0.00    -0.090 HD
ATOM     21  H   LIG d   1      -2.516  74.153 117.729  0.00  0.00    -0.090 HD
ENDBRANCH   5  18
BRANCH   3  22
ATOM     22  C   LIG d   1       0.659  77.844 116.211  0.00  0.00     0.382 C 
ATOM     23  O   LIG d   1       1.559  77.070 116.616  0.00  0.00    -0.241 OA
ATOM     24  O   LIG d   1       0.883  79.067 116.150  0.00  0.00    -0.241 OA
ENDBRANCH   3  22
TORSDOF 7
ENDMDL
MODEL 3
REMARK VINA RESULT:      -5.4      1.726      5.067
REMARK  7 active torsions:
REMARK  status: ('A' for Active; 'I' for Inactive)
REMARK    1  A    between atoms: C_2  and  C_3 
REMARK    2  A    between atoms: C_3  and  O_6 
REMARK    3  A    between atoms: C_3  and  C_4 
REMARK    4  A    between atoms: C_7  and  O_6 
REMARK    5  A    between atoms: C_9  and  C_10 
REMARK    6  A    between atoms: N_15  and  C_14 
REMARK    7  A    between atoms: N_20  and  C_19 
REMARK       I    between atoms: C_22  and  N_20 
ROOT
ATOM      1  C   LIG d   1      -1.732  75.703 114.705  0.00  0.00     0.161 C 
ATOM      2  C   LIG d   1      -1.461  74.946 115.858  0.00  0.00     0.016 C 
ATOM      3  C   LIG d   1      -0.529  75.341 116.845  0.00  0.00     0.038 C 
ATOM      4  C   LIG d   1       0.088  76.600 116.822  0.00  0.00     0.028 C 
ATOM      5  C   LIG d   1       0.225  77.182 115.419  0.00  0.00    -0.047 C 
ATOM      6  C   LIG d   1      -1.152  77.132 114.718  0.00  0.00     0.091 C 
ENDROOT
BRANCH   1   7
ATOM      7  O   LIG d   1      -3.154  75.741 114.470  0.00  0.00    -0.368 OA
BRANCH   7   8
ATOM      8  C   LIG d   1      -3.997  75.566 115.635  0.00  0.00     0.119 C 
BRANCH   8   9
ATOM      9  C   LIG d   1      -5.285  74.858 115.172  0.00  0.00     0.028 C 
ATOM     10  C   LIG d   1      -6.050  75.666 114.109  0.00  0.00     0.006 C 
ENDBRANCH   8   9
BRANCH   8  11
ATOM     11  C   LIG d   1      -4.456  76.915 116.198  0.00  0.00     0.028 C 
ATOM     12  C   LIG d   1      -3.849  77.222 117.576  0.00  0.00     0.006 C 
ENDBRANCH   8  11
ENDBRANCH   7   8
ENDBRANCH   1   7
BRANCH   6  13
ATOM     13  N   LIG d   1      -1.088  77.605 113.311  0.00  0.00    -0.311 N 
ATOM     14  C   LIG d   1      -1.404  78.844 112.938  0.00  0.00     0.210 C 
ATOM     15  C   LIG d   1      -1.289  79.117 111.435  0.00  0.00     0.109 C 
ATOM     16  O   LIG d   1      -1.737  79.752 113.714  0.00  0.00    -0.276 OA
ATOM     17  H   LIG d   1      -0.798  76.941 112.619  0.00  0.00     0.149 HD
ENDBRANCH   6  13
BRANCH   5  18
ATOM     18  N   LIG d   1       0.756  78.551 115.554  0.00  0.00     0.381 N 
ATOM     19  H   LIG d   1       0.000  79.199 115.658  0.00  0.00    -0.090 HD
ATOM     20  H   LIG d   1       1.262  78.788 114.719  0.00  0.00    -0.090 HD
ATOM     21  H   LIG d   1       1.361  78.606 116.344  0.00  0.00    -0.090 HD
ENDBRANCH   5  18
BRANCH   3  22
ATOM     22  C   LIG d   1      -0.176  74.453 117.850  0.00  0.00     0.382 C 
ATOM     23  O   LIG d   1      -0.840  73.402 118.020  0.00  0.00    -0.241 OA
ATOM     24  O   LIG d   1       0.771  74.711 118.618  0.00  0.00    -0.241 OA
ENDBRANCH   3  22
TORSDOF 7
ENDMDL
MODEL 4
REMARK VINA RESULT:      -5.2     22.380     24.668
REMARK  7 active torsions:
REMARK  status: ('A' for Active; 'I' for Inactive)
REMARK    1  A    between atoms: C_2  and  C_3 
REMARK    2  A    between atoms: C_3  and  O_6 
REMARK    3  A    between atoms: C_3  and  C_4 
REMARK    4  A    between atoms: C_7  and  O_6 
REMARK    5  A    between atoms: C_9  and  C_10 
REMARK    6  A    between atoms: N_15  and  C_14 
REMARK    7  A    between atoms: N_20  and  C_19 
REMARK       I    between atoms: C_22  and  N_20 
ROOT
ATOM      1  C   LIG d   1     -25.656  85.478 113.948  0.00  0.00     0.161 C 
ATOM      2  C   LIG d   1     -24.524  86.302 114.066  0.00  0.00     0.016 C 
ATOM      3  C   LIG d   1     -23.208  85.858 113.802  0.00  0.00     0.038 C 
ATOM      4  C   LIG d   1     -22.948  84.594 113.252  0.00  0.00     0.028 C 
ATOM      5  C   LIG d   1     -24.012  83.555 113.593  0.00  0.00    -0.047 C 
ATOM      6  C   LIG d   1     -25.404  84.129 113.243  0.00  0.00     0.091 C 
ENDROOT
BRANCH   1   7
ATOM      7  O   LIG d   1     -26.717  86.198 113.289  0.00  0.00    -0.368 OA
BRANCH   7   8
ATOM      8  C   LIG d   1     -26.723  86.139 111.841  0.00  0.00     0.119 C 
BRANCH   8   9
ATOM      9  C   LIG d   1     -26.439  87.561 111.319  0.00  0.00     0.028 C 
ATOM     10  C   LIG d   1     -26.982  88.651 112.260  0.00  0.00     0.006 C 
ENDBRANCH   8   9
BRANCH   8  11
ATOM     11  C   LIG d   1     -28.111  85.780 111.303  0.00  0.00     0.028 C 
ATOM     12  C   LIG d   1     -29.127  85.492 112.420  0.00  0.00     0.006 C 
ENDBRANCH   8  11
ENDBRANCH   7   8
ENDBRANCH   1   7
BRANCH   6  13
ATOM     13  N   LIG d   1     -26.508  83.210 113.623  0.00  0.00    -0.311 N 
ATOM     14  C   LIG d   1     -27.072  82.351 112.775  0.00  0.00     0.210 C 
ATOM     15  C   LIG d   1     -28.207  81.510 113.367  0.00  0.00     0.109 C 
ATOM     16  O   LIG d   1     -26.717  82.183 111.599  0.00  0.00    -0.276 OA
ATOM     17  H   LIG d   1     -26.836  83.257 114.568  0.00  0.00     0.149 HD
ENDBRANCH   6  13
BRANCH   5  18
ATOM     18  N   LIG d   1     -23.689  82.325 112.845  0.00  0.00     0.381 N 
ATOM     19  H   LIG d   1     -24.530  81.824 112.639  0.00  0.00    -0.090 HD
ATOM     20  H   LIG d   1     -23.105  81.741 113.417  0.00  0.00    -0.090 HD
ATOM     21  H   LIG d   1     -23.216  82.555 111.999  0.00  0.00    -0.090 HD
ENDBRANCH   5  18
BRANCH   3  22
ATOM     22  C   LIG d   1     -22.131  86.669 114.126  0.00  0.00     0.382 C 
ATOM     23  O   LIG d   1     -22.280  87.614 114.938  0.00  0.00    -0.241 OA
ATOM     24  O   LIG d   1     -21.024  86.496 113.582  0.00  0.00    -0.241 OA
ENDBRANCH   3  22
TORSDOF 7
ENDMDL
MODEL 5
REMARK VINA RESULT:      -5.1      2.292      4.286
REMARK  7 active torsions:
REMARK  status: ('A' for Active; 'I' for Inactive)
REMARK    1  A    between atoms: C_2  and  C_3 
REMARK    2  A    between atoms: C_3  and  O_6 
REMARK    3  A    between atoms: C_3  and  C_4 
REMARK    4  A    between atoms: C_7  and  O_6 
REMARK    5  A    between atoms: C_9  and  C_10 
REMARK    6  A    between atoms: N_15  and  C_14 
REMARK    7  A    between atoms: N_20  and  C_19 
REMARK       I    between atoms: C_22  and  N_20 
ROOT
ATOM      1  C   LIG d   1      -2.459  76.964 114.613  0.00  0.00     0.161 C 
ATOM      2  C   LIG d   1      -3.808  76.719 114.307  0.00  0.00     0.016 C 
ATOM      3  C   LIG d   1      -4.602  75.769 114.991  0.00  0.00     0.038 C 
ATOM      4  C   LIG d   1      -4.138  75.103 116.136  0.00  0.00     0.028 C 
ATOM      5  C   LIG d   1      -2.622  74.947 116.174  0.00  0.00    -0.047 C 
ATOM      6  C   LIG d   1      -1.969  76.327 115.930  0.00  0.00     0.091 C 
ENDROOT
BRANCH   1   7
ATOM      7  O   LIG d   1      -2.210  78.383 114.620  0.00  0.00    -0.368 OA
BRANCH   7   8
ATOM      8  C   LIG d   1      -1.724  78.951 113.379  0.00  0.00     0.119 C 
BRANCH   8   9
ATOM      9  C   LIG d   1      -2.890  79.729 112.738  0.00  0.00     0.028 C 
ATOM     10  C   LIG d   1      -2.741  81.250 112.901  0.00  0.00     0.006 C 
ENDBRANCH   8   9
BRANCH   8  11
ATOM     11  C   LIG d   1      -1.363  77.857 112.370  0.00  0.00     0.028 C 
ATOM     12  C   LIG d   1      -2.194  77.938 111.080  0.00  0.00     0.006 C 
ENDBRANCH   8  11
ENDBRANCH   7   8
ENDBRANCH   1   7
BRANCH   6  13
ATOM     13  N   LIG d   1      -0.486  76.249 115.868  0.00  0.00    -0.311 N 
ATOM     14  C   LIG d   1       0.303  76.442 116.923  0.00  0.00     0.210 C 
ATOM     15  C   LIG d   1       1.804  76.336 116.636  0.00  0.00     0.109 C 
ATOM     16  O   LIG d   1      -0.098  76.658 118.077  0.00  0.00    -0.276 OA
ATOM     17  H   LIG d   1      -0.077  76.047 114.977  0.00  0.00     0.149 HD
ENDBRANCH   6  13
BRANCH   5  18
ATOM     18  N   LIG d   1      -2.267  74.361 117.480  0.00  0.00     0.381 N 
ATOM     19  H   LIG d   1      -1.508  74.872 117.885  0.00  0.00    -0.090 HD
ATOM     20  H   LIG d   1      -1.968  73.412 117.341  0.00  0.00    -0.090 HD
ATOM     21  H   LIG d   1      -3.055  74.383 118.089  0.00  0.00    -0.090 HD
ENDBRANCH   5  18
BRANCH   3  22
ATOM     22  C   LIG d   1      -5.861  75.448 114.507  0.00  0.00     0.382 C 
ATOM     23  O   LIG d   1      -6.417  76.194 113.666  0.00  0.00    -0.241 OA
ATOM     24  O   LIG d   1      -6.465  74.446 114.933  0.00  0.00    -0.241 OA
ENDBRANCH   3  22
TORSDOF 7
ENDMDL
MODEL 6
REMARK VINA RESULT:      -5.0      8.515     10.887
REMARK  7 active torsions:
REMARK  status: ('A' for Active; 'I' for Inactive)
REMARK    1  A    between atoms: C_2  and  C_3 
REMARK    2  A    between atoms: C_3  and  O_6 
REMARK    3  A    between atoms: C_3  and  C_4 
REMARK    4  A    between atoms: C_7  and  O_6 
REMARK    5  A    between atoms: C_9  and  C_10 
REMARK    6  A    between atoms: N_15  and  C_14 
REMARK    7  A    between atoms: N_20  and  C_19 
REMARK       I    between atoms: C_22  and  N_20 
ROOT
ATOM      1  C   LIG d   1       2.799  85.030 114.013  0.00  0.00     0.161 C 
ATOM      2  C   LIG d   1       1.646  84.297 113.685  0.00  0.00     0.016 C 
ATOM      3  C   LIG d   1       0.729  84.696 112.685  0.00  0.00     0.038 C 
ATOM      4  C   LIG d   1       0.985  85.783 111.835  0.00  0.00     0.028 C 
ATOM      5  C   LIG d   1       1.884  86.843 112.462  0.00  0.00    -0.047 C 
ATOM      6  C   LIG d   1       3.152  86.158 113.021  0.00  0.00     0.091 C 
ENDROOT
BRANCH   1   7
ATOM      7  O   LIG d   1       3.917  84.134 114.172  0.00  0.00    -0.368 OA
BRANCH   7   8
ATOM      8  C   LIG d   1       3.796  82.842 113.528  0.00  0.00     0.119 C 
BRANCH   8   9
ATOM      9  C   LIG d   1       4.150  81.768 114.575  0.00  0.00     0.028 C 
ATOM     10  C   LIG d   1       2.947  81.389 115.456  0.00  0.00     0.006 C 
ENDBRANCH   8   9
BRANCH   8  11
ATOM     11  C   LIG d   1       4.831  82.676 112.412  0.00  0.00     0.028 C 
ATOM     12  C   LIG d   1       4.334  83.202 111.056  0.00  0.00     0.006 C 
ENDBRANCH   8  11
ENDBRANCH   7   8
ENDBRANCH   1   7
BRANCH   6  13
ATOM     13  N   LIG d   1       4.047  87.112 113.726  0.00  0.00    -0.311 N 
ATOM     14  C   LIG d   1       5.050  87.754 113.130  0.00  0.00     0.210 C 
ATOM     15  C   LIG d   1       5.862  88.677 114.044  0.00  0.00     0.109 C 
ATOM     16  O   LIG d   1       5.325  87.671 111.923  0.00  0.00    -0.276 OA
ATOM     17  H   LIG d   1       3.876  87.263 114.701  0.00  0.00     0.149 HD
ENDBRANCH   6  13
BRANCH   5  18
ATOM     18  N   LIG d   1       2.180  87.847 111.422  0.00  0.00     0.381 N 
ATOM     19  H   LIG d   1       1.969  88.762 111.766  0.00  0.00    -0.090 HD
ATOM     20  H   LIG d   1       1.599  87.668 110.623  0.00  0.00    -0.090 HD
ATOM     21  H   LIG d   1       3.140  87.795 111.162  0.00  0.00    -0.090 HD
ENDBRANCH   5  18
BRANCH   3  22
ATOM     22  C   LIG d   1      -0.479  84.027 112.553  0.00  0.00     0.382 C 
ATOM     23  O   LIG d   1      -1.456  84.598 112.012  0.00  0.00    -0.241 OA
ATOM     24  O   LIG d   1      -0.616  82.876 113.009  0.00  0.00    -0.241 OA
ENDBRANCH   3  22
TORSDOF 7
ENDMDL
MODEL 7
REMARK VINA RESULT:      -4.9      1.817      4.918
REMARK  7 active torsions:
REMARK  status: ('A' for Active; 'I' for Inactive)
REMARK    1  A    between atoms: C_2  and  C_3 
REMARK    2  A    between atoms: C_3  and  O_6 
REMARK    3  A    between atoms: C_3  and  C_4 
REMARK    4  A    between atoms: C_7  and  O_6 
REMARK    5  A    between atoms: C_9  and  C_10 
REMARK    6  A    between atoms: N_15  and  C_14 
REMARK    7  A    between atoms: N_20  and  C_19 
REMARK       I    between atoms: C_22  and  N_20 
ROOT
ATOM      1  C   LIG d   1      -3.557  75.991 115.483  0.00  0.00     0.161 C 
ATOM      2  C   LIG d   1      -3.209  75.317 116.665  0.00  0.00     0.016 C 
ATOM      3  C   LIG d   1      -1.878  75.181 117.120  0.00  0.00     0.038 C 
ATOM      4  C   LIG d   1      -0.810  75.844 116.498  0.00  0.00     0.028 C 
ATOM      5  C   LIG d   1      -1.048  76.118 115.017  0.00  0.00    -0.047 C 
ATOM      6  C   LIG d   1      -2.417  76.816 114.849  0.00  0.00     0.091 C 
ENDROOT
BRANCH   1   7
ATOM      7  O   LIG d   1      -4.709  76.826 115.717  0.00  0.00    -0.368 OA
BRANCH   7   8
ATOM      8  C   LIG d   1      -5.966  76.339 115.187  0.00  0.00     0.119 C 
BRANCH   8   9
ATOM      9  C   LIG d   1      -6.487  75.256 116.152  0.00  0.00     0.028 C 
ATOM     10  C   LIG d   1      -8.010  75.330 116.350  0.00  0.00     0.006 C 
ENDBRANCH   8   9
BRANCH   8  11
ATOM     11  C   LIG d   1      -5.768  75.626 113.846  0.00  0.00     0.028 C 
ATOM     12  C   LIG d   1      -6.468  76.342 112.681  0.00  0.00     0.006 C 
ENDBRANCH   8  11
ENDBRANCH   7   8
ENDBRANCH   1   7
BRANCH   6  13
ATOM     13  N   LIG d   1      -2.766  77.045 113.423  0.00  0.00    -0.311 N 
ATOM     14  C   LIG d   1      -2.419  78.141 112.750  0.00  0.00     0.210 C 
ATOM     15  C   LIG d   1      -2.897  78.184 111.295  0.00  0.00     0.109 C 
ATOM     16  O   LIG d   1      -1.734  79.066 113.210  0.00  0.00    -0.276 OA
ATOM     17  H   LIG d   1      -3.294  76.330 112.963  0.00  0.00     0.149 HD
ENDBRANCH   6  13
BRANCH   5  18
ATOM     18  N   LIG d   1       0.080  76.933 114.528  0.00  0.00     0.381 N 
ATOM     19  H   LIG d   1       0.856  76.341 114.308  0.00  0.00    -0.090 HD
ATOM     20  H   LIG d   1       0.363  77.567 115.255  0.00  0.00    -0.090 HD
ATOM     21  H   LIG d   1      -0.195  77.446 113.719  0.00  0.00    -0.090 HD
ENDBRANCH   5  18
BRANCH   3  22
ATOM     22  C   LIG d   1      -1.599  74.341 118.188  0.00  0.00     0.382 C 
ATOM     23  O   LIG d   1      -0.863  73.338 118.021  0.00  0.00    -0.241 OA
ATOM     24  O   LIG d   1      -2.109  74.548 119.305  0.00  0.00    -0.241 OA
ENDBRANCH   3  22
TORSDOF 7
ENDMDL
MODEL 8
REMARK VINA RESULT:      -4.8     10.216     12.562
REMARK  7 active torsions:
REMARK  status: ('A' for Active; 'I' for Inactive)
REMARK    1  A    between atoms: C_2  and  C_3 
REMARK    2  A    between atoms: C_3  and  O_6 
REMARK    3  A    between atoms: C_3  and  C_4 
REMARK    4  A    between atoms: C_7  and  O_6 
REMARK    5  A    between atoms: C_9  and  C_10 
REMARK    6  A    between atoms: N_15  and  C_14 
REMARK    7  A    between atoms: N_20  and  C_19 
REMARK       I    between atoms: C_22  and  N_20 
ROOT
ATOM      1  C   LIG d   1       2.595  86.950 114.684  0.00  0.00     0.161 C 
ATOM      2  C   LIG d   1       1.450  86.696 115.457  0.00  0.00     0.016 C 
ATOM      3  C   LIG d   1       1.024  87.533 116.514  0.00  0.00     0.038 C 
ATOM      4  C   LIG d   1       1.634  88.770 116.772  0.00  0.00     0.028 C 
ATOM      5  C   LIG d   1       3.097  88.825 116.346  0.00  0.00    -0.047 C 
ATOM      6  C   LIG d   1       3.210  88.352 114.878  0.00  0.00     0.091 C 
ENDROOT
BRANCH   1   7
ATOM      7  O   LIG d   1       2.304  86.719 113.291  0.00  0.00    -0.368 OA
BRANCH   7   8
ATOM      8  C   LIG d   1       2.052  85.344 112.911  0.00  0.00     0.119 C 
BRANCH   8   9
ATOM      9  C   LIG d   1       3.264  84.861 112.091  0.00  0.00     0.028 C 
ATOM     10  C   LIG d   1       3.931  86.001 111.303  0.00  0.00     0.006 C 
ENDBRANCH   8   9
BRANCH   8  11
ATOM     11  C   LIG d   1       0.853  85.238 111.965  0.00  0.00     0.028 C 
ATOM     12  C   LIG d   1      -0.495  85.334 112.698  0.00  0.00     0.006 C 
ENDBRANCH   8  11
ENDBRANCH   7   8
ENDBRANCH   1   7
BRANCH   6  13
ATOM     13  N   LIG d   1       4.618  88.295 114.408  0.00  0.00    -0.311 N 
ATOM     14  C   LIG d   1       5.052  88.920 113.315  0.00  0.00     0.210 C 
ATOM     15  C   LIG d   1       6.536  88.713 112.998  0.00  0.00     0.109 C 
ATOM     16  O   LIG d   1       4.356  89.653 112.596  0.00  0.00    -0.276 OA
ATOM     17  H   LIG d   1       5.258  87.748 114.950  0.00  0.00     0.149 HD
ENDBRANCH   6  13
BRANCH   5  18
ATOM     18  N   LIG d   1       3.568  90.208 116.545  0.00  0.00     0.381 N 
ATOM     19  H   LIG d   1       4.117  90.262 117.380  0.00  0.00    -0.090 HD
ATOM     20  H   LIG d   1       2.771  90.811 116.652  0.00  0.00    -0.090 HD
ATOM     21  H   LIG d   1       4.111  90.500 115.762  0.00  0.00    -0.090 HD
ENDBRANCH   5  18
BRANCH   3  22
ATOM     22  C   LIG d   1       0.001  87.116 117.351  0.00  0.00     0.382 C 
ATOM     23  O   LIG d   1       0.215  86.224 118.207  0.00  0.00    -0.241 OA
ATOM     24  O   LIG d   1      -1.146  87.589 117.232  0.00  0.00    -0.241 OA
ENDBRANCH   3  22
TORSDOF 7
ENDMDL
MODEL 9
REMARK VINA RESULT:      -4.7     11.458     12.985
REMARK  7 active torsions:
REMARK  status: ('A' for Active; 'I' for Inactive)
REMARK    1  A    between atoms: C_2  and  C_3 
REMARK    2  A    between atoms: C_3  and  O_6 
REMARK    3  A    between atoms: C_3  and  C_4 
REMARK    4  A    between atoms: C_7  and  O_6 
REMARK    5  A    between atoms: C_9  and  C_10 
REMARK    6  A    between atoms: N_15  and  C_14 
REMARK    7  A    between atoms: N_20  and  C_19 
REMARK       I    between atoms: C_22  and  N_20 
ROOT
ATOM      1  C   LIG d   1       3.801  88.471 115.185  0.00  0.00     0.161 C 
ATOM      2  C   LIG d   1       2.993  87.939 114.167  0.00  0.00     0.016 C 
ATOM      3  C   LIG d   1       3.437  87.754 112.837  0.00  0.00     0.038 C 
ATOM      4  C   LIG d   1       4.777  87.948 112.470  0.00  0.00     0.028 C 
ATOM      5  C   LIG d   1       5.504  88.963 113.345  0.00  0.00    -0.047 C 
ATOM      6  C   LIG d   1       5.298  88.584 114.830  0.00  0.00     0.091 C 
ENDROOT
BRANCH   1   7
ATOM      7  O   LIG d   1       3.630  87.705 116.394  0.00  0.00    -0.368 OA
BRANCH   7   8
ATOM      8  C   LIG d   1       2.791  86.528 116.290  0.00  0.00     0.119 C 
BRANCH   8   9
ATOM      9  C   LIG d   1       1.684  86.652 117.355  0.00  0.00     0.028 C 
ATOM     10  C   LIG d   1       0.339  87.093 116.754  0.00  0.00     0.006 C 
ENDBRANCH   8   9
BRANCH   8  11
ATOM     11  C   LIG d   1       3.565  85.258 116.656  0.00  0.00     0.028 C 
ATOM     12  C   LIG d   1       3.265  84.084 115.710  0.00  0.00     0.006 C 
ENDBRANCH   8  11
ENDBRANCH   7   8
ENDBRANCH   1   7
BRANCH   6  13
ATOM     13  N   LIG d   1       5.907  89.574 115.757  0.00  0.00    -0.311 N 
ATOM     14  C   LIG d   1       6.864  89.267 116.630  0.00  0.00     0.210 C 
ATOM     15  C   LIG d   1       7.338  90.432 117.506  0.00  0.00     0.109 C 
ATOM     16  O   LIG d   1       7.390  88.149 116.741  0.00  0.00    -0.276 OA
ATOM     17  H   LIG d   1       5.561  90.513 115.713  0.00  0.00     0.149 HD
ENDBRANCH   6  13
BRANCH   5  18
ATOM     18  N   LIG d   1       6.923  88.966 112.941  0.00  0.00     0.381 N 
ATOM     19  H   LIG d   1       7.018  89.393 112.041  0.00  0.00    -0.090 HD
ATOM     20  H   LIG d   1       7.244  88.016 112.875  0.00  0.00    -0.090 HD
ATOM     21  H   LIG d   1       7.468  89.463 113.611  0.00  0.00    -0.090 HD
ENDBRANCH   5  18
BRANCH   3  22
ATOM     22  C   LIG d   1       2.527  87.408 111.850  0.00  0.00     0.382 C 
ATOM     23  O   LIG d   1       2.786  86.468 111.061  0.00  0.00    -0.241 OA
ATOM     24  O   LIG d   1       1.470  88.052 111.711  0.00  0.00    -0.241 OA
ENDBRANCH   3  22
TORSDOF 7
ENDMDL
