MODEL 1
REMARK VINA RESULT:      -5.6      0.000      0.000
REMARK  7 active torsions:
REMARK  status: ('A' for Active; 'I' for Inactive)
REMARK    1  A    between atoms: C_2  and  C_3 
REMARK    2  A    between atoms: C_3  and  O_6 
REMARK    3  A    between atoms: C_3  and  C_4 
REMARK    4  A    between atoms: C_7  and  O_6 
REMARK    5  A    between atoms: C_9  and  C_10 
REMARK    6  A    between atoms: N_15  and  C_14 
REMARK    7  A    between atoms: N_20  and  C_19 
REMARK       I    between atoms: C_22  and  N_20 
ROOT
ATOM      1  C   LIG d   1      -6.977  76.778 117.064  0.00  0.00     0.161 C 
ATOM      2  C   LIG d   1      -6.778  78.159 117.229  0.00  0.00     0.016 C 
ATOM      3  C   LIG d   1      -7.750  79.024 117.783  0.00  0.00     0.038 C 
ATOM      4  C   LIG d   1      -8.937  78.539 118.352  0.00  0.00     0.028 C 
ATOM      5  C   LIG d   1      -9.399  77.215 117.753  0.00  0.00    -0.047 C 
ATOM      6  C   LIG d   1      -8.222  76.213 117.781  0.00  0.00     0.091 C 
ENDROOT
BRANCH   1   7
ATOM      7  O   LIG d   1      -5.795  76.062 117.473  0.00  0.00    -0.368 OA
BRANCH   7   8
ATOM      8  C   LIG d   1      -4.783  75.869 116.455  0.00  0.00     0.119 C 
BRANCH   8   9
ATOM      9  C   LIG d   1      -5.407  75.010 115.338  0.00  0.00     0.028 C 
ATOM     10  C   LIG d   1      -5.204  75.625 113.943  0.00  0.00     0.006 C 
ENDBRANCH   8   9
BRANCH   8  11
ATOM     11  C   LIG d   1      -3.606  75.047 116.989  0.00  0.00     0.028 C 
ATOM     12  C   LIG d   1      -2.303  75.296 116.212  0.00  0.00     0.006 C 
ENDBRANCH   8  11
ENDBRANCH   7   8
ENDBRANCH   1   7
BRANCH   6  13
ATOM     13  N   LIG d   1      -8.563  74.919 117.136  0.00  0.00    -0.311 N 
ATOM     14  C   LIG d   1      -9.060  73.877 117.800  0.00  0.00     0.210 C 
ATOM     15  C   LIG d   1      -9.323  72.632 116.948  0.00  0.00     0.109 C 
ATOM     16  O   LIG d   1      -9.337  73.876 119.009  0.00  0.00    -0.276 OA
ATOM     17  H   LIG d   1      -8.399  74.843 116.151  0.00  0.00     0.149 HD
ENDBRANCH   6  13
BRANCH   5  18
ATOM     18  N   LIG d   1     -10.566  76.757 118.530  0.00  0.00     0.381 N 
ATOM     19  H   LIG d   1     -11.018  77.541 118.955  0.00  0.00    -0.090 HD
ATOM     20  H   LIG d   1     -10.250  76.142 119.259  0.00  0.00    -0.090 HD
ATOM     21  H   LIG d   1     -11.205  76.278 117.934  0.00  0.00    -0.090 HD
ENDBRANCH   5  18
BRANCH   3  22
ATOM     22  C   LIG d   1      -7.555  80.396 117.735  0.00  0.00     0.382 C 
ATOM     23  O   LIG d   1      -7.364  81.040 118.795  0.00  0.00    -0.241 OA
ATOM     24  O   LIG d   1      -7.613  81.005 116.650  0.00  0.00    -0.241 OA
ENDBRANCH   3  22
TORSDOF 7
ENDMDL
MODEL 2
REMARK VINA RESULT:      -5.5     13.192     14.923
REMARK  7 active torsions:
REMARK  status: ('A' for Active; 'I' for Inactive)
REMARK    1  A    between atoms: C_2  and  C_3 
REMARK    2  A    between atoms: C_3  and  O_6 
REMARK    3  A    between atoms: C_3  and  C_4 
REMARK    4  A    between atoms: C_7  and  O_6 
REMARK    5  A    between atoms: C_9  and  C_10 
REMARK    6  A    between atoms: N_15  and  C_14 
REMARK    7  A    between atoms: N_20  and  C_19 
REMARK       I    between atoms: C_22  and  N_20 
ROOT
ATOM      1  C   LIG d   1       2.595  86.471 114.411  0.00  0.00     0.161 C 
ATOM      2  C   LIG d   1       3.221  87.688 114.092  0.00  0.00     0.016 C 
ATOM      3  C   LIG d   1       4.399  88.147 114.725  0.00  0.00     0.038 C 
ATOM      4  C   LIG d   1       5.120  87.343 115.620  0.00  0.00     0.028 C 
ATOM      5  C   LIG d   1       4.255  86.319 116.347  0.00  0.00    -0.047 C 
ATOM      6  C   LIG d   1       3.429  85.530 115.305  0.00  0.00     0.091 C 
ENDROOT
BRANCH   1   7
ATOM      7  O   LIG d   1       2.201  85.794 113.201  0.00  0.00    -0.368 OA
BRANCH   7   8
ATOM      8  C   LIG d   1       2.599  86.424 111.959  0.00  0.00     0.119 C 
BRANCH   8   9
ATOM      9  C   LIG d   1       1.317  86.702 111.150  0.00  0.00     0.028 C 
ATOM     10  C   LIG d   1       0.079  86.023 111.760  0.00  0.00     0.006 C 
ENDBRANCH   8   9
BRANCH   8  11
ATOM     11  C   LIG d   1       3.427  85.472 111.091  0.00  0.00     0.028 C 
ATOM     12  C   LIG d   1       3.567  84.072 111.710  0.00  0.00     0.006 C 
ENDBRANCH   8  11
ENDBRANCH   7   8
ENDBRANCH   1   7
BRANCH   6  13
ATOM     13  N   LIG d   1       2.493  84.565 115.937  0.00  0.00    -0.311 N 
ATOM     14  C   LIG d   1       2.801  83.290 116.169  0.00  0.00     0.210 C 
ATOM     15  C   LIG d   1       1.684  82.461 116.811  0.00  0.00     0.109 C 
ATOM     16  O   LIG d   1       3.904  82.775 115.933  0.00  0.00    -0.276 OA
ATOM     17  H   LIG d   1       1.586  84.906 116.189  0.00  0.00     0.149 HD
ENDBRANCH   6  13
BRANCH   5  18
ATOM     18  N   LIG d   1       5.154  85.460 117.142  0.00  0.00     0.381 N 
ATOM     19  H   LIG d   1       6.097  85.573 116.826  0.00  0.00    -0.090 HD
ATOM     20  H   LIG d   1       4.889  84.500 117.007  0.00  0.00    -0.090 HD
ATOM     21  H   LIG d   1       5.088  85.699 118.107  0.00  0.00    -0.090 HD
ENDBRANCH   5  18
BRANCH   3  22
ATOM     22  C   LIG d   1       4.844  89.439 114.494  0.00  0.00     0.382 C 
ATOM     23  O   LIG d   1       4.648  89.981 113.380  0.00  0.00    -0.241 OA
ATOM     24  O   LIG d   1       5.480  90.055 115.372  0.00  0.00    -0.241 OA
ENDBRANCH   3  22
TORSDOF 7
ENDMDL
MODEL 3
REMARK VINA RESULT:      -5.5      1.522      4.616
REMARK  7 active torsions:
REMARK  status: ('A' for Active; 'I' for Inactive)
REMARK    1  A    between atoms: C_2  and  C_3 
REMARK    2  A    between atoms: C_3  and  O_6 
REMARK    3  A    between atoms: C_3  and  C_4 
REMARK    4  A    between atoms: C_7  and  O_6 
REMARK    5  A    between atoms: C_9  and  C_10 
REMARK    6  A    between atoms: N_15  and  C_14 
REMARK    7  A    between atoms: N_20  and  C_19 
REMARK       I    between atoms: C_22  and  N_20 
ROOT
ATOM      1  C   LIG d   1      -7.067  76.484 117.093  0.00  0.00     0.161 C 
ATOM      2  C   LIG d   1      -7.645  75.211 116.953  0.00  0.00     0.016 C 
ATOM      3  C   LIG d   1      -8.967  74.908 117.353  0.00  0.00     0.038 C 
ATOM      4  C   LIG d   1      -9.857  75.903 117.784  0.00  0.00     0.028 C 
ATOM      5  C   LIG d   1      -9.163  77.104 118.417  0.00  0.00    -0.047 C 
ATOM      6  C   LIG d   1      -8.059  77.608 117.458  0.00  0.00     0.091 C 
ENDROOT
BRANCH   1   7
ATOM      7  O   LIG d   1      -6.342  76.825 115.895  0.00  0.00    -0.368 OA
BRANCH   7   8
ATOM      8  C   LIG d   1      -4.903  76.935 116.030  0.00  0.00     0.119 C 
BRANCH   8   9
ATOM      9  C   LIG d   1      -4.268  75.942 115.037  0.00  0.00     0.028 C 
ATOM     10  C   LIG d   1      -5.252  75.497 113.942  0.00  0.00     0.006 C 
ENDBRANCH   8   9
BRANCH   8  11
ATOM     11  C   LIG d   1      -4.437  76.477 117.415  0.00  0.00     0.028 C 
ATOM     12  C   LIG d   1      -3.592  75.194 117.366  0.00  0.00     0.006 C 
ENDBRANCH   8  11
ENDBRANCH   7   8
ENDBRANCH   1   7
BRANCH   6  13
ATOM     13  N   LIG d   1      -7.274  78.729 118.037  0.00  0.00    -0.311 N 
ATOM     14  C   LIG d   1      -7.524  80.011 117.774  0.00  0.00     0.210 C 
ATOM     15  C   LIG d   1      -6.583  81.007 118.459  0.00  0.00     0.109 C 
ATOM     16  O   LIG d   1      -8.456  80.419 117.065  0.00  0.00    -0.276 OA
ATOM     17  H   LIG d   1      -6.519  78.490 118.649  0.00  0.00     0.149 HD
ENDBRANCH   6  13
BRANCH   5  18
ATOM     18  N   LIG d   1     -10.195  78.121 118.694  0.00  0.00     0.381 N 
ATOM     19  H   LIG d   1      -9.800  79.036 118.610  0.00  0.00    -0.090 HD
ATOM     20  H   LIG d   1     -10.522  78.003 119.637  0.00  0.00    -0.090 HD
ATOM     21  H   LIG d   1     -10.954  78.019 118.057  0.00  0.00    -0.090 HD
ENDBRANCH   5  18
BRANCH   3  22
ATOM     22  C   LIG d   1      -9.397  73.590 117.361  0.00  0.00     0.382 C 
ATOM     23  O   LIG d   1      -9.386  72.933 118.430  0.00  0.00    -0.241 OA
ATOM     24  O   LIG d   1      -9.756  73.036 116.304  0.00  0.00    -0.241 OA
ENDBRANCH   3  22
TORSDOF 7
ENDMDL
MODEL 4
REMARK VINA RESULT:      -5.5      2.401      5.599
REMARK  7 active torsions:
REMARK  status: ('A' for Active; 'I' for Inactive)
REMARK    1  A    between atoms: C_2  and  C_3 
REMARK    2  A    between atoms: C_3  and  O_6 
REMARK    3  A    between atoms: C_3  and  C_4 
REMARK    4  A    between atoms: C_7  and  O_6 
REMARK    5  A    between atoms: C_9  and  C_10 
REMARK    6  A    between atoms: N_15  and  C_14 
REMARK    7  A    between atoms: N_20  and  C_19 
REMARK       I    between atoms: C_22  and  N_20 
ROOT
ATOM      1  C   LIG d   1      -7.052  76.478 116.946  0.00  0.00     0.161 C 
ATOM      2  C   LIG d   1      -6.451  75.941 115.795  0.00  0.00     0.016 C 
ATOM      3  C   LIG d   1      -5.160  76.306 115.349  0.00  0.00     0.038 C 
ATOM      4  C   LIG d   1      -4.317  77.127 116.112  0.00  0.00     0.028 C 
ATOM      5  C   LIG d   1      -5.070  78.089 117.025  0.00  0.00    -0.047 C 
ATOM      6  C   LIG d   1      -6.104  77.290 117.852  0.00  0.00     0.091 C 
ENDROOT
BRANCH   1   7
ATOM      7  O   LIG d   1      -7.688  75.427 117.700  0.00  0.00    -0.368 OA
BRANCH   7   8
ATOM      8  C   LIG d   1      -8.977  74.981 117.211  0.00  0.00     0.119 C 
BRANCH   8   9
ATOM      9  C   LIG d   1     -10.030  76.004 117.681  0.00  0.00     0.028 C 
ATOM     10  C   LIG d   1     -10.008  76.210 119.205  0.00  0.00     0.006 C 
ENDBRANCH   8   9
BRANCH   8  11
ATOM     11  C   LIG d   1      -9.388  73.653 117.852  0.00  0.00     0.028 C 
ATOM     12  C   LIG d   1      -9.411  72.489 116.848  0.00  0.00     0.006 C 
ENDBRANCH   8  11
ENDBRANCH   7   8
ENDBRANCH   1   7
BRANCH   6  13
ATOM     13  N   LIG d   1      -6.943  78.167 118.710  0.00  0.00    -0.311 N 
ATOM     14  C   LIG d   1      -7.611  79.222 118.248  0.00  0.00     0.210 C 
ATOM     15  C   LIG d   1      -8.399  80.002 119.305  0.00  0.00     0.109 C 
ATOM     16  O   LIG d   1      -7.653  79.567 117.057  0.00  0.00    -0.276 OA
ATOM     17  H   LIG d   1      -6.990  77.941 119.684  0.00  0.00     0.149 HD
ENDBRANCH   6  13
BRANCH   5  18
ATOM     18  N   LIG d   1      -4.073  78.784 117.861  0.00  0.00     0.381 N 
ATOM     19  H   LIG d   1      -4.441  78.923 118.781  0.00  0.00    -0.090 HD
ATOM     20  H   LIG d   1      -3.882  79.684 117.458  0.00  0.00    -0.090 HD
ATOM     21  H   LIG d   1      -3.235  78.248 117.908  0.00  0.00    -0.090 HD
ENDBRANCH   5  18
BRANCH   3  22
ATOM     22  C   LIG d   1      -4.717  75.881 114.106  0.00  0.00     0.382 C 
ATOM     23  O   LIG d   1      -4.040  76.652 113.384  0.00  0.00    -0.241 OA
ATOM     24  O   LIG d   1      -5.023  74.752 113.678  0.00  0.00    -0.241 OA
ENDBRANCH   3  22
TORSDOF 7
ENDMDL
MODEL 5
REMARK VINA RESULT:      -4.9     17.090     20.217
REMARK  7 active torsions:
REMARK  status: ('A' for Active; 'I' for Inactive)
REMARK    1  A    between atoms: C_2  and  C_3 
REMARK    2  A    between atoms: C_3  and  O_6 
REMARK    3  A    between atoms: C_3  and  C_4 
REMARK    4  A    between atoms: C_7  and  O_6 
REMARK    5  A    between atoms: C_9  and  C_10 
REMARK    6  A    between atoms: N_15  and  C_14 
REMARK    7  A    between atoms: N_20  and  C_19 
REMARK       I    between atoms: C_22  and  N_20 
ROOT
ATOM      1  C   LIG d   1      11.926  76.109 114.424  0.00  0.00     0.161 C 
ATOM      2  C   LIG d   1      10.565  76.456 114.431  0.00  0.00     0.016 C 
ATOM      3  C   LIG d   1      10.085  77.732 114.056  0.00  0.00     0.038 C 
ATOM      4  C   LIG d   1      10.927  78.706 113.499  0.00  0.00     0.028 C 
ATOM      5  C   LIG d   1      12.380  78.577 113.944  0.00  0.00    -0.047 C 
ATOM      6  C   LIG d   1      12.848  77.123 113.714  0.00  0.00     0.091 C 
ENDROOT
BRANCH   1   7
ATOM      7  O   LIG d   1      12.092  74.796 113.853  0.00  0.00    -0.368 OA
BRANCH   7   8
ATOM      8  C   LIG d   1      12.096  73.690 114.789  0.00  0.00     0.119 C 
BRANCH   8   9
ATOM      9  C   LIG d   1      13.341  73.845 115.684  0.00  0.00     0.028 C 
ATOM     10  C   LIG d   1      12.996  73.809 117.182  0.00  0.00     0.006 C 
ENDBRANCH   8   9
BRANCH   8  11
ATOM     11  C   LIG d   1      12.278  72.351 114.069  0.00  0.00     0.028 C 
ATOM     12  C   LIG d   1      13.562  72.297 113.226  0.00  0.00     0.006 C 
ENDBRANCH   8  11
ENDBRANCH   7   8
ENDBRANCH   1   7
BRANCH   6  13
ATOM     13  N   LIG d   1      14.233  76.889 114.201  0.00  0.00    -0.311 N 
ATOM     14  C   LIG d   1      15.312  77.014 113.430  0.00  0.00     0.210 C 
ATOM     15  C   LIG d   1      16.642  76.708 114.125  0.00  0.00     0.109 C 
ATOM     16  O   LIG d   1      15.296  77.381 112.245  0.00  0.00    -0.276 OA
ATOM     17  H   LIG d   1      14.340  76.618 115.158  0.00  0.00     0.149 HD
ENDBRANCH   6  13
BRANCH   5  18
ATOM     18  N   LIG d   1      13.168  79.566 113.184  0.00  0.00     0.381 N 
ATOM     19  H   LIG d   1      14.138  79.324 113.219  0.00  0.00    -0.090 HD
ATOM     20  H   LIG d   1      13.052  80.469 113.609  0.00  0.00    -0.090 HD
ATOM     21  H   LIG d   1      12.859  79.593 112.238  0.00  0.00    -0.090 HD
ENDBRANCH   5  18
BRANCH   3  22
ATOM     22  C   LIG d   1       8.755  78.057 114.274  0.00  0.00     0.382 C 
ATOM     23  O   LIG d   1       8.458  79.142 114.829  0.00  0.00    -0.241 OA
ATOM     24  O   LIG d   1       7.850  77.260 113.962  0.00  0.00    -0.241 OA
ENDBRANCH   3  22
TORSDOF 7
ENDMDL
MODEL 6
REMARK VINA RESULT:      -4.8      1.421      2.092
REMARK  7 active torsions:
REMARK  status: ('A' for Active; 'I' for Inactive)
REMARK    1  A    between atoms: C_2  and  C_3 
REMARK    2  A    between atoms: C_3  and  O_6 
REMARK    3  A    between atoms: C_3  and  C_4 
REMARK    4  A    between atoms: C_7  and  O_6 
REMARK    5  A    between atoms: C_9  and  C_10 
REMARK    6  A    between atoms: N_15  and  C_14 
REMARK    7  A    between atoms: N_20  and  C_19 
REMARK       I    between atoms: C_22  and  N_20 
ROOT
ATOM      1  C   LIG d   1      -7.215  77.623 117.687  0.00  0.00     0.161 C 
ATOM      2  C   LIG d   1      -7.238  79.001 117.415  0.00  0.00     0.016 C 
ATOM      3  C   LIG d   1      -8.329  79.840 117.738  0.00  0.00     0.038 C 
ATOM      4  C   LIG d   1      -9.417  79.382 118.496  0.00  0.00     0.028 C 
ATOM      5  C   LIG d   1      -9.668  77.884 118.353  0.00  0.00    -0.047 C 
ATOM      6  C   LIG d   1      -8.345  77.127 118.613  0.00  0.00     0.091 C 
ENDROOT
BRANCH   1   7
ATOM      7  O   LIG d   1      -5.929  77.252 118.222  0.00  0.00    -0.368 OA
BRANCH   7   8
ATOM      8  C   LIG d   1      -5.180  76.272 117.462  0.00  0.00     0.119 C 
BRANCH   8   9
ATOM      9  C   LIG d   1      -3.692  76.447 117.820  0.00  0.00     0.028 C 
ATOM     10  C   LIG d   1      -3.033  75.127 118.254  0.00  0.00     0.006 C 
ENDBRANCH   8   9
BRANCH   8  11
ATOM     11  C   LIG d   1      -5.271  76.546 115.958  0.00  0.00     0.028 C 
ATOM     12  C   LIG d   1      -5.298  75.259 115.118  0.00  0.00     0.006 C 
ENDBRANCH   8  11
ENDBRANCH   7   8
ENDBRANCH   1   7
BRANCH   6  13
ATOM     13  N   LIG d   1      -8.482  75.661 118.410  0.00  0.00    -0.311 N 
ATOM     14  C   LIG d   1      -8.692  75.102 117.220  0.00  0.00     0.210 C 
ATOM     15  C   LIG d   1      -8.823  73.576 117.236  0.00  0.00     0.109 C 
ATOM     16  O   LIG d   1      -8.749  75.722 116.147  0.00  0.00    -0.276 OA
ATOM     17  H   LIG d   1      -8.417  75.080 119.223  0.00  0.00     0.149 HD
ENDBRANCH   6  13
BRANCH   5  18
ATOM     18  N   LIG d   1     -10.738  77.519 119.300  0.00  0.00     0.381 N 
ATOM     19  H   LIG d   1     -10.356  76.984 120.054  0.00  0.00    -0.090 HD
ATOM     20  H   LIG d   1     -11.415  76.951 118.822  0.00  0.00    -0.090 HD
ATOM     21  H   LIG d   1     -11.175  78.341 119.654  0.00  0.00    -0.090 HD
ENDBRANCH   5  18
BRANCH   3  22
ATOM     22  C   LIG d   1      -8.357  81.143 117.267  0.00  0.00     0.382 C 
ATOM     23  O   LIG d   1      -9.357  81.868 117.487  0.00  0.00    -0.241 OA
ATOM     24  O   LIG d   1      -7.414  81.589 116.586  0.00  0.00    -0.241 OA
ENDBRANCH   3  22
TORSDOF 7
ENDMDL
MODEL 7
REMARK VINA RESULT:      -4.6      4.257      6.329
REMARK  7 active torsions:
REMARK  status: ('A' for Active; 'I' for Inactive)
REMARK    1  A    between atoms: C_2  and  C_3 
REMARK    2  A    between atoms: C_3  and  O_6 
REMARK    3  A    between atoms: C_3  and  C_4 
REMARK    4  A    between atoms: C_7  and  O_6 
REMARK    5  A    between atoms: C_9  and  C_10 
REMARK    6  A    between atoms: N_15  and  C_14 
REMARK    7  A    between atoms: N_20  and  C_19 
REMARK       I    between atoms: C_22  and  N_20 
ROOT
ATOM      1  C   LIG d   1      -1.719  77.182 114.858  0.00  0.00     0.161 C 
ATOM      2  C   LIG d   1      -0.517  77.839 115.170  0.00  0.00     0.016 C 
ATOM      3  C   LIG d   1      -0.344  78.637 116.324  0.00  0.00     0.038 C 
ATOM      4  C   LIG d   1      -1.321  78.712 117.328  0.00  0.00     0.028 C 
ATOM      5  C   LIG d   1      -2.737  78.474 116.814  0.00  0.00    -0.047 C 
ATOM      6  C   LIG d   1      -2.760  77.162 115.997  0.00  0.00     0.091 C 
ENDROOT
BRANCH   1   7
ATOM      7  O   LIG d   1      -1.441  75.841 114.409  0.00  0.00    -0.368 OA
BRANCH   7   8
ATOM      8  C   LIG d   1      -0.232  75.234 114.925  0.00  0.00     0.119 C 
BRANCH   8   9
ATOM      9  C   LIG d   1       0.464  74.517 113.752  0.00  0.00     0.028 C 
ATOM     10  C   LIG d   1       0.162  73.009 113.724  0.00  0.00     0.006 C 
ENDBRANCH   8   9
BRANCH   8  11
ATOM     11  C   LIG d   1      -0.551  74.133 115.942  0.00  0.00     0.028 C 
ATOM     12  C   LIG d   1      -0.464  74.622 117.396  0.00  0.00     0.006 C 
ENDBRANCH   8  11
ENDBRANCH   7   8
ENDBRANCH   1   7
BRANCH   6  13
ATOM     13  N   LIG d   1      -4.089  76.897 115.387  0.00  0.00    -0.311 N 
ATOM     14  C   LIG d   1      -5.031  76.160 115.973  0.00  0.00     0.210 C 
ATOM     15  C   LIG d   1      -6.321  75.996 115.163  0.00  0.00     0.109 C 
ATOM     16  O   LIG d   1      -4.932  75.652 117.100  0.00  0.00    -0.276 OA
ATOM     17  H   LIG d   1      -4.265  77.297 114.486  0.00  0.00     0.149 HD
ENDBRANCH   6  13
BRANCH   5  18
ATOM     18  N   LIG d   1      -3.636  78.443 117.983  0.00  0.00     0.381 N 
ATOM     19  H   LIG d   1      -4.400  77.822 117.806  0.00  0.00    -0.090 HD
ATOM     20  H   LIG d   1      -4.008  79.365 118.131  0.00  0.00    -0.090 HD
ATOM     21  H   LIG d   1      -3.135  78.145 118.790  0.00  0.00    -0.090 HD
ENDBRANCH   5  18
BRANCH   3  22
ATOM     22  C   LIG d   1       0.803  79.405 116.462  0.00  0.00     0.382 C 
ATOM     23  O   LIG d   1       1.528  79.270 117.477  0.00  0.00    -0.241 OA
ATOM     24  O   LIG d   1       1.097  80.261 115.607  0.00  0.00    -0.241 OA
ENDBRANCH   3  22
TORSDOF 7
ENDMDL
MODEL 8
REMARK VINA RESULT:      -4.5      2.395      4.860
REMARK  7 active torsions:
REMARK  status: ('A' for Active; 'I' for Inactive)
REMARK    1  A    between atoms: C_2  and  C_3 
REMARK    2  A    between atoms: C_3  and  O_6 
REMARK    3  A    between atoms: C_3  and  C_4 
REMARK    4  A    between atoms: C_7  and  O_6 
REMARK    5  A    between atoms: C_9  and  C_10 
REMARK    6  A    between atoms: N_15  and  C_14 
REMARK    7  A    between atoms: N_20  and  C_19 
REMARK       I    between atoms: C_22  and  N_20 
ROOT
ATOM      1  C   LIG d   1      -7.684  75.378 117.182  0.00  0.00     0.161 C 
ATOM      2  C   LIG d   1      -6.749  75.301 116.136  0.00  0.00     0.016 C 
ATOM      3  C   LIG d   1      -5.750  76.277 115.912  0.00  0.00     0.038 C 
ATOM      4  C   LIG d   1      -5.523  77.326 116.816  0.00  0.00     0.028 C 
ATOM      5  C   LIG d   1      -6.764  77.723 117.608  0.00  0.00    -0.047 C 
ATOM      6  C   LIG d   1      -7.380  76.456 118.243  0.00  0.00     0.091 C 
ENDROOT
BRANCH   1   7
ATOM      7  O   LIG d   1      -7.825  74.087 117.807  0.00  0.00    -0.368 OA
BRANCH   7   8
ATOM      8  C   LIG d   1      -9.145  73.492 117.749  0.00  0.00     0.119 C 
BRANCH   8   9
ATOM      9  C   LIG d   1      -9.514  73.045 119.177  0.00  0.00     0.028 C 
ATOM     10  C   LIG d   1      -9.620  71.516 119.305  0.00  0.00     0.006 C 
ENDBRANCH   8   9
BRANCH   8  11
ATOM     11  C   LIG d   1      -9.142  72.210 116.911  0.00  0.00     0.028 C 
ATOM     12  C   LIG d   1      -7.739  71.825 116.415  0.00  0.00     0.006 C 
ENDBRANCH   8  11
ENDBRANCH   7   8
ENDBRANCH   1   7
BRANCH   6  13
ATOM     13  N   LIG d   1      -8.646  76.744 118.967  0.00  0.00    -0.311 N 
ATOM     14  C   LIG d   1      -9.824  76.875 118.359  0.00  0.00     0.210 C 
ATOM     15  C   LIG d   1     -11.000  77.191 119.289  0.00  0.00     0.109 C 
ATOM     16  O   LIG d   1     -10.013  76.729 117.142  0.00  0.00    -0.276 OA
ATOM     17  H   LIG d   1      -8.590  76.847 119.961  0.00  0.00     0.149 HD
ENDBRANCH   6  13
BRANCH   5  18
ATOM     18  N   LIG d   1      -6.352  78.729 118.605  0.00  0.00     0.381 N 
ATOM     19  H   LIG d   1      -5.507  78.436 119.053  0.00  0.00    -0.090 HD
ATOM     20  H   LIG d   1      -7.070  78.805 119.305  0.00  0.00    -0.090 HD
ATOM     21  H   LIG d   1      -6.215  79.611 118.164  0.00  0.00    -0.090 HD
ENDBRANCH   5  18
BRANCH   3  22
ATOM     22  C   LIG d   1      -4.993  76.231 114.752  0.00  0.00     0.382 C 
ATOM     23  O   LIG d   1      -5.329  75.469 113.813  0.00  0.00    -0.241 OA
ATOM     24  O   LIG d   1      -3.953  76.909 114.649  0.00  0.00    -0.241 OA
ENDBRANCH   3  22
TORSDOF 7
ENDMDL
MODEL 9
REMARK VINA RESULT:      -4.5     16.438     19.613
REMARK  7 active torsions:
REMARK  status: ('A' for Active; 'I' for Inactive)
REMARK    1  A    between atoms: C_2  and  C_3 
REMARK    2  A    between atoms: C_3  and  O_6 
REMARK    3  A    between atoms: C_3  and  C_4 
REMARK    4  A    between atoms: C_7  and  O_6 
REMARK    5  A    between atoms: C_9  and  C_10 
REMARK    6  A    between atoms: N_15  and  C_14 
REMARK    7  A    between atoms: N_20  and  C_19 
REMARK       I    between atoms: C_22  and  N_20 
ROOT
ATOM      1  C   LIG d   1      11.796  76.241 113.906  0.00  0.00     0.161 C 
ATOM      2  C   LIG d   1      10.666  77.060 113.740  0.00  0.00     0.016 C 
ATOM      3  C   LIG d   1       9.680  77.237 114.738  0.00  0.00     0.038 C 
ATOM      4  C   LIG d   1       9.836  76.723 116.034  0.00  0.00     0.028 C 
ATOM      5  C   LIG d   1      10.711  75.476 116.089  0.00  0.00    -0.047 C 
ATOM      6  C   LIG d   1      12.039  75.761 115.352  0.00  0.00     0.091 C 
ENDROOT
BRANCH   1   7
ATOM      7  O   LIG d   1      12.965  76.913 113.398  0.00  0.00    -0.368 OA
BRANCH   7   8
ATOM      8  C   LIG d   1      12.841  78.342 113.194  0.00  0.00     0.119 C 
BRANCH   8   9
ATOM      9  C   LIG d   1      13.506  78.677 111.845  0.00  0.00     0.028 C 
ATOM     10  C   LIG d   1      14.933  78.114 111.738  0.00  0.00     0.006 C 
ENDBRANCH   8   9
BRANCH   8  11
ATOM     11  C   LIG d   1      13.636  79.126 114.243  0.00  0.00     0.028 C 
ATOM     12  C   LIG d   1      12.777  79.556 115.442  0.00  0.00     0.006 C 
ENDBRANCH   8  11
ENDBRANCH   7   8
ENDBRANCH   1   7
BRANCH   6  13
ATOM     13  N   LIG d   1      12.919  74.565 115.287  0.00  0.00    -0.311 N 
ATOM     14  C   LIG d   1      14.160  74.541 115.772  0.00  0.00     0.210 C 
ATOM     15  C   LIG d   1      14.902  73.214 115.583  0.00  0.00     0.109 C 
ATOM     16  O   LIG d   1      14.705  75.482 116.368  0.00  0.00    -0.276 OA
ATOM     17  H   LIG d   1      12.546  73.747 114.847  0.00  0.00     0.149 HD
ENDBRANCH   6  13
BRANCH   5  18
ATOM     18  N   LIG d   1      10.901  75.128 117.510  0.00  0.00     0.381 N 
ATOM     19  H   LIG d   1      10.948  74.134 117.612  0.00  0.00    -0.090 HD
ATOM     20  H   LIG d   1      10.112  75.462 118.035  0.00  0.00    -0.090 HD
ATOM     21  H   LIG d   1      11.738  75.544 117.854  0.00  0.00    -0.090 HD
ENDBRANCH   5  18
BRANCH   3  22
ATOM     22  C   LIG d   1       8.503  77.903 114.430  0.00  0.00     0.382 C 
ATOM     23  O   LIG d   1       8.428  79.146 114.583  0.00  0.00    -0.241 OA
ATOM     24  O   LIG d   1       7.502  77.271 114.043  0.00  0.00    -0.241 OA
ENDBRANCH   3  22
TORSDOF 7
ENDMDL
