MODEL 1
REMARK VINA RESULT:      -5.7      0.000      0.000
REMARK  7 active torsions:
REMARK  status: ('A' for Active; 'I' for Inactive)
REMARK    1  A    between atoms: C_2  and  C_3 
REMARK    2  A    between atoms: C_3  and  O_6 
REMARK    3  A    between atoms: C_3  and  C_4 
REMARK    4  A    between atoms: C_7  and  O_6 
REMARK    5  A    between atoms: C_9  and  C_10 
REMARK    6  A    between atoms: N_15  and  C_14 
REMARK    7  A    between atoms: N_20  and  C_19 
REMARK       I    between atoms: C_22  and  N_20 
ROOT
ATOM      1  C   LIG d   1      -2.898  77.012 115.694  0.00  0.00     0.161 C 
ATOM      2  C   LIG d   1      -3.249  77.582 114.459  0.00  0.00     0.016 C 
ATOM      3  C   LIG d   1      -2.366  77.655 113.357  0.00  0.00     0.038 C 
ATOM      4  C   LIG d   1      -1.114  77.023 113.367  0.00  0.00     0.028 C 
ATOM      5  C   LIG d   1      -0.522  76.873 114.765  0.00  0.00    -0.047 C 
ATOM      6  C   LIG d   1      -1.575  76.218 115.688  0.00  0.00     0.091 C 
ENDROOT
BRANCH   1   7
ATOM      7  O   LIG d   1      -3.977  76.184 116.174  0.00  0.00    -0.368 OA
BRANCH   7   8
ATOM      8  C   LIG d   1      -5.298  76.508 115.677  0.00  0.00     0.119 C 
BRANCH   8   9
ATOM      9  C   LIG d   1      -6.105  77.093 116.852  0.00  0.00     0.028 C 
ATOM     10  C   LIG d   1      -7.539  76.541 116.912  0.00  0.00     0.006 C 
ENDBRANCH   8   9
BRANCH   8  11
ATOM     11  C   LIG d   1      -6.057  75.247 115.252  0.00  0.00     0.028 C 
ATOM     12  C   LIG d   1      -5.263  74.377 114.265  0.00  0.00     0.006 C 
ENDBRANCH   8  11
ENDBRANCH   7   8
ENDBRANCH   1   7
BRANCH   6  13
ATOM     13  N   LIG d   1      -1.108  76.112 117.095  0.00  0.00    -0.311 N 
ATOM     14  C   LIG d   1      -1.051  74.961 117.763  0.00  0.00     0.210 C 
ATOM     15  C   LIG d   1      -0.559  75.077 119.209  0.00  0.00     0.109 C 
ATOM     16  O   LIG d   1      -1.332  73.851 117.286  0.00  0.00    -0.276 OA
ATOM     17  H   LIG d   1      -0.831  76.960 117.549  0.00  0.00     0.149 HD
ENDBRANCH   6  13
BRANCH   5  18
ATOM     18  N   LIG d   1       0.714  76.078 114.642  0.00  0.00     0.381 N 
ATOM     19  H   LIG d   1       1.509  76.684 114.652  0.00  0.00    -0.090 HD
ATOM     20  H   LIG d   1       0.701  75.589 113.764  0.00  0.00    -0.090 HD
ATOM     21  H   LIG d   1       0.776  75.426 115.393  0.00  0.00    -0.090 HD
ENDBRANCH   5  18
BRANCH   3  22
ATOM     22  C   LIG d   1      -2.719  78.401 112.243  0.00  0.00     0.382 C 
ATOM     23  O   LIG d   1      -3.716  78.071 111.557  0.00  0.00    -0.241 OA
ATOM     24  O   LIG d   1      -2.025  79.373 111.889  0.00  0.00    -0.241 OA
ENDBRANCH   3  22
TORSDOF 7
ENDMDL
MODEL 2
REMARK VINA RESULT:      -5.5      1.272      1.915
REMARK  7 active torsions:
REMARK  status: ('A' for Active; 'I' for Inactive)
REMARK    1  A    between atoms: C_2  and  C_3 
REMARK    2  A    between atoms: C_3  and  O_6 
REMARK    3  A    between atoms: C_3  and  C_4 
REMARK    4  A    between atoms: C_7  and  O_6 
REMARK    5  A    between atoms: C_9  and  C_10 
REMARK    6  A    between atoms: N_15  and  C_14 
REMARK    7  A    between atoms: N_20  and  C_19 
REMARK       I    between atoms: C_22  and  N_20 
ROOT
ATOM      1  C   LIG d   1      -3.231  76.830 114.864  0.00  0.00     0.161 C 
ATOM      2  C   LIG d   1      -3.294  77.836 113.886  0.00  0.00     0.016 C 
ATOM      3  C   LIG d   1      -2.165  78.564 113.445  0.00  0.00     0.038 C 
ATOM      4  C   LIG d   1      -0.863  78.229 113.846  0.00  0.00     0.028 C 
ATOM      5  C   LIG d   1      -0.806  77.554 115.212  0.00  0.00    -0.047 C 
ATOM      6  C   LIG d   1      -1.804  76.374 115.232  0.00  0.00     0.091 C 
ENDROOT
BRANCH   1   7
ATOM      7  O   LIG d   1      -4.028  75.701 114.455  0.00  0.00    -0.368 OA
BRANCH   7   8
ATOM      8  C   LIG d   1      -5.073  75.293 115.371  0.00  0.00     0.119 C 
BRANCH   8   9
ATOM      9  C   LIG d   1      -5.570  73.905 114.919  0.00  0.00     0.028 C 
ATOM     10  C   LIG d   1      -6.802  73.436 115.711  0.00  0.00     0.006 C 
ENDBRANCH   8   9
BRANCH   8  11
ATOM     11  C   LIG d   1      -6.294  76.212 115.270  0.00  0.00     0.028 C 
ATOM     12  C   LIG d   1      -6.508  77.060 116.534  0.00  0.00     0.006 C 
ENDBRANCH   8  11
ENDBRANCH   7   8
ENDBRANCH   1   7
BRANCH   6  13
ATOM     13  N   LIG d   1      -1.872  75.711 116.560  0.00  0.00    -0.311 N 
ATOM     14  C   LIG d   1      -1.520  74.443 116.766  0.00  0.00     0.210 C 
ATOM     15  C   LIG d   1      -1.686  73.951 118.207  0.00  0.00     0.109 C 
ATOM     16  O   LIG d   1      -1.055  73.688 115.898  0.00  0.00    -0.276 OA
ATOM     17  H   LIG d   1      -2.209  76.259 117.327  0.00  0.00     0.149 HD
ENDBRANCH   6  13
BRANCH   5  18
ATOM     18  N   LIG d   1       0.590  77.135 115.444  0.00  0.00     0.381 N 
ATOM     19  H   LIG d   1       1.129  77.915 115.762  0.00  0.00    -0.090 HD
ATOM     20  H   LIG d   1       0.981  76.813 114.576  0.00  0.00    -0.090 HD
ATOM     21  H   LIG d   1       0.618  76.404 116.121  0.00  0.00    -0.090 HD
ENDBRANCH   5  18
BRANCH   3  22
ATOM     22  C   LIG d   1      -2.337  79.668 112.623  0.00  0.00     0.382 C 
ATOM     23  O   LIG d   1      -1.610  79.815 111.611  0.00  0.00    -0.241 OA
ATOM     24  O   LIG d   1      -3.179  80.541 112.905  0.00  0.00    -0.241 OA
ENDBRANCH   3  22
TORSDOF 7
ENDMDL
MODEL 3
REMARK VINA RESULT:      -5.5      1.627      4.828
REMARK  7 active torsions:
REMARK  status: ('A' for Active; 'I' for Inactive)
REMARK    1  A    between atoms: C_2  and  C_3 
REMARK    2  A    between atoms: C_3  and  O_6 
REMARK    3  A    between atoms: C_3  and  C_4 
REMARK    4  A    between atoms: C_7  and  O_6 
REMARK    5  A    between atoms: C_9  and  C_10 
REMARK    6  A    between atoms: N_15  and  C_14 
REMARK    7  A    between atoms: N_20  and  C_19 
REMARK       I    between atoms: C_22  and  N_20 
ROOT
ATOM      1  C   LIG d   1      -3.325  76.180 115.082  0.00  0.00     0.161 C 
ATOM      2  C   LIG d   1      -3.223  75.418 116.258  0.00  0.00     0.016 C 
ATOM      3  C   LIG d   1      -2.058  75.374 117.058  0.00  0.00     0.038 C 
ATOM      4  C   LIG d   1      -0.960  76.212 116.815  0.00  0.00     0.028 C 
ATOM      5  C   LIG d   1      -0.823  76.624 115.353  0.00  0.00    -0.047 C 
ATOM      6  C   LIG d   1      -2.177  77.187 114.862  0.00  0.00     0.091 C 
ENDROOT
BRANCH   1   7
ATOM      7  O   LIG d   1      -4.597  76.856 115.047  0.00  0.00    -0.368 OA
BRANCH   7   8
ATOM      8  C   LIG d   1      -5.519  76.536 116.117  0.00  0.00     0.119 C 
BRANCH   8   9
ATOM      9  C   LIG d   1      -6.795  75.959 115.473  0.00  0.00     0.028 C 
ATOM     10  C   LIG d   1      -7.985  75.934 116.447  0.00  0.00     0.006 C 
ENDBRANCH   8   9
BRANCH   8  11
ATOM     11  C   LIG d   1      -5.974  77.797 116.858  0.00  0.00     0.028 C 
ATOM     12  C   LIG d   1      -5.018  78.199 117.992  0.00  0.00     0.006 C 
ENDBRANCH   8  11
ENDBRANCH   7   8
ENDBRANCH   1   7
BRANCH   6  13
ATOM     13  N   LIG d   1      -2.155  77.536 113.417  0.00  0.00    -0.311 N 
ATOM     14  C   LIG d   1      -1.878  78.756 112.962  0.00  0.00     0.210 C 
ATOM     15  C   LIG d   1      -1.929  78.905 111.438  0.00  0.00     0.109 C 
ATOM     16  O   LIG d   1      -1.563  79.722 113.674  0.00  0.00    -0.276 OA
ATOM     17  H   LIG d   1      -2.368  76.804 112.768  0.00  0.00     0.149 HD
ENDBRANCH   6  13
BRANCH   5  18
ATOM     18  N   LIG d   1       0.276  77.603 115.266  0.00  0.00     0.381 N 
ATOM     19  H   LIG d   1       1.092  77.165 114.887  0.00  0.00    -0.090 HD
ATOM     20  H   LIG d   1       0.495  77.929 116.192  0.00  0.00    -0.090 HD
ATOM     21  H   LIG d   1       0.005  78.371 114.692  0.00  0.00    -0.090 HD
ENDBRANCH   5  18
BRANCH   3  22
ATOM     22  C   LIG d   1      -1.968  74.453 118.091  0.00  0.00     0.382 C 
ATOM     23  O   LIG d   1      -2.043  74.839 119.282  0.00  0.00    -0.241 OA
ATOM     24  O   LIG d   1      -1.770  73.248 117.848  0.00  0.00    -0.241 OA
ENDBRANCH   3  22
TORSDOF 7
ENDMDL
MODEL 4
REMARK VINA RESULT:      -5.0      9.937     11.927
REMARK  7 active torsions:
REMARK  status: ('A' for Active; 'I' for Inactive)
REMARK    1  A    between atoms: C_2  and  C_3 
REMARK    2  A    between atoms: C_3  and  O_6 
REMARK    3  A    between atoms: C_3  and  C_4 
REMARK    4  A    between atoms: C_7  and  O_6 
REMARK    5  A    between atoms: C_9  and  C_10 
REMARK    6  A    between atoms: N_15  and  C_14 
REMARK    7  A    between atoms: N_20  and  C_19 
REMARK       I    between atoms: C_22  and  N_20 
ROOT
ATOM      1  C   LIG d   1       2.415  86.706 112.921  0.00  0.00     0.161 C 
ATOM      2  C   LIG d   1       2.527  88.103 112.831  0.00  0.00     0.016 C 
ATOM      3  C   LIG d   1       3.277  88.884 113.741  0.00  0.00     0.038 C 
ATOM      4  C   LIG d   1       4.095  88.300 114.720  0.00  0.00     0.028 C 
ATOM      5  C   LIG d   1       3.618  86.922 115.165  0.00  0.00    -0.047 C 
ATOM      6  C   LIG d   1       3.391  86.042 113.915  0.00  0.00     0.091 C 
ENDROOT
BRANCH   1   7
ATOM      7  O   LIG d   1       2.558  86.120 111.612  0.00  0.00    -0.368 OA
BRANCH   7   8
ATOM      8  C   LIG d   1       1.369  85.507 111.055  0.00  0.00     0.119 C 
BRANCH   8   9
ATOM      9  C   LIG d   1       0.181  85.899 111.955  0.00  0.00     0.028 C 
ATOM     10  C   LIG d   1      -0.846  86.777 111.221  0.00  0.00     0.006 C 
ENDBRANCH   8   9
BRANCH   8  11
ATOM     11  C   LIG d   1       1.444  83.979 111.127  0.00  0.00     0.028 C 
ATOM     12  C   LIG d   1       0.352  83.369 112.019  0.00  0.00     0.006 C 
ENDBRANCH   8  11
ENDBRANCH   7   8
ENDBRANCH   1   7
BRANCH   6  13
ATOM     13  N   LIG d   1       2.842  84.703 114.257  0.00  0.00    -0.311 N 
ATOM     14  C   LIG d   1       3.604  83.631 114.467  0.00  0.00     0.210 C 
ATOM     15  C   LIG d   1       2.836  82.345 114.787  0.00  0.00     0.109 C 
ATOM     16  O   LIG d   1       4.844  83.630 114.451  0.00  0.00    -0.276 OA
ATOM     17  H   LIG d   1       1.847  84.621 114.321  0.00  0.00     0.149 HD
ENDBRANCH   6  13
BRANCH   5  18
ATOM     18  N   LIG d   1       4.635  86.373 116.082  0.00  0.00     0.381 N 
ATOM     19  H   LIG d   1       4.522  85.382 116.159  0.00  0.00    -0.090 HD
ATOM     20  H   LIG d   1       4.503  86.778 116.993  0.00  0.00    -0.090 HD
ATOM     21  H   LIG d   1       5.548  86.586 115.745  0.00  0.00    -0.090 HD
ENDBRANCH   5  18
BRANCH   3  22
ATOM     22  C   LIG d   1       3.181  90.267 113.701  0.00  0.00     0.382 C 
ATOM     23  O   LIG d   1       3.045  90.916 114.766  0.00  0.00    -0.241 OA
ATOM     24  O   LIG d   1       3.184  90.869 112.611  0.00  0.00    -0.241 OA
ENDBRANCH   3  22
TORSDOF 7
ENDMDL
MODEL 5
REMARK VINA RESULT:      -4.9     20.218     22.267
REMARK  7 active torsions:
REMARK  status: ('A' for Active; 'I' for Inactive)
REMARK    1  A    between atoms: C_2  and  C_3 
REMARK    2  A    between atoms: C_3  and  O_6 
REMARK    3  A    between atoms: C_3  and  C_4 
REMARK    4  A    between atoms: C_7  and  O_6 
REMARK    5  A    between atoms: C_9  and  C_10 
REMARK    6  A    between atoms: N_15  and  C_14 
REMARK    7  A    between atoms: N_20  and  C_19 
REMARK       I    between atoms: C_22  and  N_20 
ROOT
ATOM      1  C   LIG d   1     -23.279  84.030 115.594  0.00  0.00     0.161 C 
ATOM      2  C   LIG d   1     -22.936  85.365 115.322  0.00  0.00     0.016 C 
ATOM      3  C   LIG d   1     -23.163  85.988 114.074  0.00  0.00     0.038 C 
ATOM      4  C   LIG d   1     -23.891  85.359 113.053  0.00  0.00     0.028 C 
ATOM      5  C   LIG d   1     -23.814  83.837 113.103  0.00  0.00    -0.047 C 
ATOM      6  C   LIG d   1     -24.175  83.363 114.529  0.00  0.00     0.091 C 
ENDROOT
BRANCH   1   7
ATOM      7  O   LIG d   1     -23.894  83.938 116.894  0.00  0.00    -0.368 OA
BRANCH   7   8
ATOM      8  C   LIG d   1     -23.061  83.411 117.957  0.00  0.00     0.119 C 
BRANCH   8   9
ATOM      9  C   LIG d   1     -22.582  84.605 118.805  0.00  0.00     0.028 C 
ATOM     10  C   LIG d   1     -23.671  85.676 118.980  0.00  0.00     0.006 C 
ENDBRANCH   8   9
BRANCH   8  11
ATOM     11  C   LIG d   1     -21.786  82.771 117.401  0.00  0.00     0.028 C 
ATOM     12  C   LIG d   1     -20.956  82.061 118.481  0.00  0.00     0.006 C 
ENDBRANCH   8  11
ENDBRANCH   7   8
ENDBRANCH   1   7
BRANCH   6  13
ATOM     13  N   LIG d   1     -24.042  81.891 114.688  0.00  0.00    -0.311 N 
ATOM     14  C   LIG d   1     -25.055  81.042 114.523  0.00  0.00     0.210 C 
ATOM     15  C   LIG d   1     -24.706  79.568 114.754  0.00  0.00     0.109 C 
ATOM     16  O   LIG d   1     -26.201  81.366 114.177  0.00  0.00    -0.276 OA
ATOM     17  H   LIG d   1     -23.138  81.539 114.937  0.00  0.00     0.149 HD
ENDBRANCH   6  13
BRANCH   5  18
ATOM     18  N   LIG d   1     -24.726  83.310 112.070  0.00  0.00     0.381 N 
ATOM     19  H   LIG d   1     -25.597  83.049 112.489  0.00  0.00    -0.090 HD
ATOM     20  H   LIG d   1     -24.315  82.490 111.660  0.00  0.00    -0.090 HD
ATOM     21  H   LIG d   1     -24.881  84.000 111.368  0.00  0.00    -0.090 HD
ENDBRANCH   5  18
BRANCH   3  22
ATOM     22  C   LIG d   1     -22.624  87.240 113.823  0.00  0.00     0.382 C 
ATOM     23  O   LIG d   1     -21.524  87.342 113.228  0.00  0.00    -0.241 OA
ATOM     24  O   LIG d   1     -23.202  88.269 114.222  0.00  0.00    -0.241 OA
ENDBRANCH   3  22
TORSDOF 7
ENDMDL
MODEL 6
REMARK VINA RESULT:      -4.9     21.039     23.327
REMARK  7 active torsions:
REMARK  status: ('A' for Active; 'I' for Inactive)
REMARK    1  A    between atoms: C_2  and  C_3 
REMARK    2  A    between atoms: C_3  and  O_6 
REMARK    3  A    between atoms: C_3  and  C_4 
REMARK    4  A    between atoms: C_7  and  O_6 
REMARK    5  A    between atoms: C_9  and  C_10 
REMARK    6  A    between atoms: N_15  and  C_14 
REMARK    7  A    between atoms: N_20  and  C_19 
REMARK       I    between atoms: C_22  and  N_20 
ROOT
ATOM      1  C   LIG d   1     -23.655  83.837 113.341  0.00  0.00     0.161 C 
ATOM      2  C   LIG d   1     -22.813  84.926 113.620  0.00  0.00     0.016 C 
ATOM      3  C   LIG d   1     -23.250  86.271 113.604  0.00  0.00     0.038 C 
ATOM      4  C   LIG d   1     -24.603  86.610 113.456  0.00  0.00     0.028 C 
ATOM      5  C   LIG d   1     -25.403  85.576 112.671  0.00  0.00    -0.047 C 
ATOM      6  C   LIG d   1     -25.159  84.179 113.286  0.00  0.00     0.091 C 
ENDROOT
BRANCH   1   7
ATOM      7  O   LIG d   1     -23.416  82.779 114.290  0.00  0.00    -0.368 OA
BRANCH   7   8
ATOM      8  C   LIG d   1     -24.288  82.752 115.447  0.00  0.00     0.119 C 
BRANCH   8   9
ATOM      9  C   LIG d   1     -23.455  83.196 116.665  0.00  0.00     0.028 C 
ATOM     10  C   LIG d   1     -21.979  82.779 116.550  0.00  0.00     0.006 C 
ENDBRANCH   8   9
BRANCH   8  11
ATOM     11  C   LIG d   1     -24.746  81.326 115.767  0.00  0.00     0.028 C 
ATOM     12  C   LIG d   1     -24.530  80.354 114.596  0.00  0.00     0.006 C 
ENDBRANCH   8  11
ENDBRANCH   7   8
ENDBRANCH   1   7
BRANCH   6  13
ATOM     13  N   LIG d   1     -25.839  83.098 112.526  0.00  0.00    -0.311 N 
ATOM     14  C   LIG d   1     -27.034  82.611 112.854  0.00  0.00     0.210 C 
ATOM     15  C   LIG d   1     -27.545  81.486 111.949  0.00  0.00     0.109 C 
ATOM     16  O   LIG d   1     -27.734  83.027 113.790  0.00  0.00    -0.276 OA
ATOM     17  H   LIG d   1     -25.355  82.724 111.733  0.00  0.00     0.149 HD
ENDBRANCH   6  13
BRANCH   5  18
ATOM     18  N   LIG d   1     -26.820  85.985 112.711  0.00  0.00     0.381 N 
ATOM     19  H   LIG d   1     -27.093  86.346 111.819  0.00  0.00    -0.090 HD
ATOM     20  H   LIG d   1     -26.928  86.715 113.393  0.00  0.00    -0.090 HD
ATOM     21  H   LIG d   1     -27.393  85.207 112.952  0.00  0.00    -0.090 HD
ENDBRANCH   5  18
BRANCH   3  22
ATOM     22  C   LIG d   1     -22.321  87.296 113.699  0.00  0.00     0.382 C 
ATOM     23  O   LIG d   1     -21.190  87.169 113.169  0.00  0.00    -0.241 OA
ATOM     24  O   LIG d   1     -22.583  88.328 114.345  0.00  0.00    -0.241 OA
ENDBRANCH   3  22
TORSDOF 7
ENDMDL
MODEL 7
REMARK VINA RESULT:      -4.8     21.993     24.298
REMARK  7 active torsions:
REMARK  status: ('A' for Active; 'I' for Inactive)
REMARK    1  A    between atoms: C_2  and  C_3 
REMARK    2  A    between atoms: C_3  and  O_6 
REMARK    3  A    between atoms: C_3  and  C_4 
REMARK    4  A    between atoms: C_7  and  O_6 
REMARK    5  A    between atoms: C_9  and  C_10 
REMARK    6  A    between atoms: N_15  and  C_14 
REMARK    7  A    between atoms: N_20  and  C_19 
REMARK       I    between atoms: C_22  and  N_20 
ROOT
ATOM      1  C   LIG d   1     -25.604  85.155 114.321  0.00  0.00     0.161 C 
ATOM      2  C   LIG d   1     -24.737  86.257 114.234  0.00  0.00     0.016 C 
ATOM      3  C   LIG d   1     -23.434  86.181 113.691  0.00  0.00     0.038 C 
ATOM      4  C   LIG d   1     -22.962  85.023 113.054  0.00  0.00     0.028 C 
ATOM      5  C   LIG d   1     -23.612  83.742 113.567  0.00  0.00    -0.047 C 
ATOM      6  C   LIG d   1     -25.149  83.910 113.531  0.00  0.00     0.091 C 
ENDROOT
BRANCH   1   7
ATOM      7  O   LIG d   1     -26.932  85.546 113.919  0.00  0.00    -0.368 OA
BRANCH   7   8
ATOM      8  C   LIG d   1     -27.097  85.900 112.524  0.00  0.00     0.119 C 
BRANCH   8   9
ATOM      9  C   LIG d   1     -27.797  87.272 112.475  0.00  0.00     0.028 C 
ATOM     10  C   LIG d   1     -26.936  88.346 111.788  0.00  0.00     0.006 C 
ENDBRANCH   8   9
BRANCH   8  11
ATOM     11  C   LIG d   1     -28.048  84.934 111.812  0.00  0.00     0.028 C 
ATOM     12  C   LIG d   1     -29.014  84.229 112.778  0.00  0.00     0.006 C 
ENDBRANCH   8  11
ENDBRANCH   7   8
ENDBRANCH   1   7
BRANCH   6  13
ATOM     13  N   LIG d   1     -25.861  82.734 114.095  0.00  0.00    -0.311 N 
ATOM     14  C   LIG d   1     -26.328  81.733 113.351  0.00  0.00     0.210 C 
ATOM     15  C   LIG d   1     -27.048  80.629 114.131  0.00  0.00     0.109 C 
ATOM     16  O   LIG d   1     -26.186  81.640 112.123  0.00  0.00    -0.276 OA
ATOM     17  H   LIG d   1     -25.992  82.714 115.088  0.00  0.00     0.149 HD
ENDBRANCH   6  13
BRANCH   5  18
ATOM     18  N   LIG d   1     -23.132  82.631 112.725  0.00  0.00     0.381 N 
ATOM     19  H   LIG d   1     -23.419  81.758 113.121  0.00  0.00    -0.090 HD
ATOM     20  H   LIG d   1     -22.128  82.651 112.702  0.00  0.00    -0.090 HD
ATOM     21  H   LIG d   1     -23.495  82.721 111.802  0.00  0.00    -0.090 HD
ENDBRANCH   5  18
BRANCH   3  22
ATOM     22  C   LIG d   1     -22.573  87.260 113.817  0.00  0.00     0.382 C 
ATOM     23  O   LIG d   1     -22.938  88.284 114.443  0.00  0.00    -0.241 OA
ATOM     24  O   LIG d   1     -21.452  87.241 113.273  0.00  0.00    -0.241 OA
ENDBRANCH   3  22
TORSDOF 7
ENDMDL
MODEL 8
REMARK VINA RESULT:      -4.7      1.970      4.679
REMARK  7 active torsions:
REMARK  status: ('A' for Active; 'I' for Inactive)
REMARK    1  A    between atoms: C_2  and  C_3 
REMARK    2  A    between atoms: C_3  and  O_6 
REMARK    3  A    between atoms: C_3  and  C_4 
REMARK    4  A    between atoms: C_7  and  O_6 
REMARK    5  A    between atoms: C_9  and  C_10 
REMARK    6  A    between atoms: N_15  and  C_14 
REMARK    7  A    between atoms: N_20  and  C_19 
REMARK       I    between atoms: C_22  and  N_20 
ROOT
ATOM      1  C   LIG d   1      -3.354  77.488 115.281  0.00  0.00     0.161 C 
ATOM      2  C   LIG d   1      -3.124  76.185 115.755  0.00  0.00     0.016 C 
ATOM      3  C   LIG d   1      -1.872  75.743 116.238  0.00  0.00     0.038 C 
ATOM      4  C   LIG d   1      -0.795  76.623 116.423  0.00  0.00     0.028 C 
ATOM      5  C   LIG d   1      -0.830  77.827 115.488  0.00  0.00    -0.047 C 
ATOM      6  C   LIG d   1      -2.222  78.493 115.578  0.00  0.00     0.091 C 
ENDROOT
BRANCH   1   7
ATOM      7  O   LIG d   1      -4.608  77.980 115.793  0.00  0.00    -0.368 OA
BRANCH   7   8
ATOM      8  C   LIG d   1      -5.059  77.399 117.042  0.00  0.00     0.119 C 
BRANCH   8   9
ATOM      9  C   LIG d   1      -6.581  77.183 116.929  0.00  0.00     0.028 C 
ATOM     10  C   LIG d   1      -7.377  78.143 117.830  0.00  0.00     0.006 C 
ENDBRANCH   8   9
BRANCH   8  11
ATOM     11  C   LIG d   1      -4.872  78.373 118.209  0.00  0.00     0.028 C 
ATOM     12  C   LIG d   1      -3.589  78.103 119.011  0.00  0.00     0.006 C 
ENDBRANCH   8  11
ENDBRANCH   7   8
ENDBRANCH   1   7
BRANCH   6  13
ATOM     13  N   LIG d   1      -2.369  79.630 114.632  0.00  0.00    -0.311 N 
ATOM     14  C   LIG d   1      -2.289  79.497 113.309  0.00  0.00     0.210 C 
ATOM     15  C   LIG d   1      -2.450  80.799 112.518  0.00  0.00     0.109 C 
ATOM     16  O   LIG d   1      -2.131  78.420 112.715  0.00  0.00    -0.276 OA
ATOM     17  H   LIG d   1      -2.531  80.535 115.028  0.00  0.00     0.149 HD
ENDBRANCH   6  13
BRANCH   5  18
ATOM     18  N   LIG d   1       0.269  78.729 115.881  0.00  0.00     0.381 N 
ATOM     19  H   LIG d   1      -0.090  79.478 116.438  0.00  0.00    -0.090 HD
ATOM     20  H   LIG d   1       0.680  79.121 115.052  0.00  0.00    -0.090 HD
ATOM     21  H   LIG d   1       0.957  78.224 116.395  0.00  0.00    -0.090 HD
ENDBRANCH   5  18
BRANCH   3  22
ATOM     22  C   LIG d   1      -1.675  74.397 116.506  0.00  0.00     0.382 C 
ATOM     23  O   LIG d   1      -0.978  73.699 115.730  0.00  0.00    -0.241 OA
ATOM     24  O   LIG d   1      -2.221  73.861 117.489  0.00  0.00    -0.241 OA
ENDBRANCH   3  22
TORSDOF 7
ENDMDL
MODEL 9
REMARK VINA RESULT:      -4.7     20.836     23.765
REMARK  7 active torsions:
REMARK  status: ('A' for Active; 'I' for Inactive)
REMARK    1  A    between atoms: C_2  and  C_3 
REMARK    2  A    between atoms: C_3  and  O_6 
REMARK    3  A    between atoms: C_3  and  C_4 
REMARK    4  A    between atoms: C_7  and  O_6 
REMARK    5  A    between atoms: C_9  and  C_10 
REMARK    6  A    between atoms: N_15  and  C_14 
REMARK    7  A    between atoms: N_20  and  C_19 
REMARK       I    between atoms: C_22  and  N_20 
ROOT
ATOM      1  C   LIG d   1     -25.190  84.942 115.316  0.00  0.00     0.161 C 
ATOM      2  C   LIG d   1     -24.185  84.815 116.290  0.00  0.00     0.016 C 
ATOM      3  C   LIG d   1     -22.985  84.098 116.081  0.00  0.00     0.038 C 
ATOM      4  C   LIG d   1     -22.639  83.582 114.823  0.00  0.00     0.028 C 
ATOM      5  C   LIG d   1     -23.846  83.251 113.951  0.00  0.00    -0.047 C 
ATOM      6  C   LIG d   1     -24.781  84.481 113.901  0.00  0.00     0.091 C 
ENDROOT
BRANCH   1   7
ATOM      7  O   LIG d   1     -25.667  86.302 115.281  0.00  0.00    -0.368 OA
BRANCH   7   8
ATOM      8  C   LIG d   1     -25.154  87.130 114.209  0.00  0.00     0.119 C 
BRANCH   8   9
ATOM      9  C   LIG d   1     -23.987  87.957 114.781  0.00  0.00     0.028 C 
ATOM     10  C   LIG d   1     -22.639  87.595 114.135  0.00  0.00     0.006 C 
ENDBRANCH   8   9
BRANCH   8  11
ATOM     11  C   LIG d   1     -26.194  88.158 113.753  0.00  0.00     0.028 C 
ATOM     12  C   LIG d   1     -26.569  88.008 112.270  0.00  0.00     0.006 C 
ENDBRANCH   8  11
ENDBRANCH   7   8
ENDBRANCH   1   7
BRANCH   6  13
ATOM     13  N   LIG d   1     -26.028  84.214 113.138  0.00  0.00    -0.311 N 
ATOM     14  C   LIG d   1     -26.164  84.482 111.840  0.00  0.00     0.210 C 
ATOM     15  C   LIG d   1     -27.539  84.148 111.252  0.00  0.00     0.109 C 
ATOM     16  O   LIG d   1     -25.267  84.935 111.113  0.00  0.00    -0.276 OA
ATOM     17  H   LIG d   1     -26.796  83.818 113.643  0.00  0.00     0.149 HD
ENDBRANCH   6  13
BRANCH   5  18
ATOM     18  N   LIG d   1     -23.341  82.855 112.623  0.00  0.00     0.381 N 
ATOM     19  H   LIG d   1     -22.731  83.564 112.267  0.00  0.00    -0.090 HD
ATOM     20  H   LIG d   1     -24.118  82.764 111.993  0.00  0.00    -0.090 HD
ATOM     21  H   LIG d   1     -22.853  81.989 112.688  0.00  0.00    -0.090 HD
ENDBRANCH   5  18
BRANCH   3  22
ATOM     22  C   LIG d   1     -22.134  83.856 117.148  0.00  0.00     0.382 C 
ATOM     23  O   LIG d   1     -21.211  83.013 117.036  0.00  0.00    -0.241 OA
ATOM     24  O   LIG d   1     -22.305  84.437 118.237  0.00  0.00    -0.241 OA
ENDBRANCH   3  22
TORSDOF 7
ENDMDL
