MODEL 1
REMARK VINA RESULT:      -5.9      0.000      0.000
REMARK  7 active torsions:
REMARK  status: ('A' for Active; 'I' for Inactive)
REMARK    1  A    between atoms: C_2  and  C_3 
REMARK    2  A    between atoms: C_3  and  O_6 
REMARK    3  A    between atoms: C_3  and  C_4 
REMARK    4  A    between atoms: C_7  and  O_6 
REMARK    5  A    between atoms: C_9  and  C_10 
REMARK    6  A    between atoms: N_15  and  C_14 
REMARK    7  A    between atoms: N_20  and  C_19 
REMARK       I    between atoms: C_22  and  N_20 
ROOT
ATOM      1  C   LIG d   1      -7.492  76.169 117.593  0.00  0.00     0.161 C 
ATOM      2  C   LIG d   1      -8.797  76.514 117.983  0.00  0.00     0.016 C 
ATOM      3  C   LIG d   1      -9.217  77.847 118.200  0.00  0.00     0.038 C 
ATOM      4  C   LIG d   1      -8.396  78.942 117.894  0.00  0.00     0.028 C 
ATOM      5  C   LIG d   1      -6.907  78.626 117.980  0.00  0.00    -0.047 C 
ATOM      6  C   LIG d   1      -6.615  77.357 117.147  0.00  0.00     0.091 C 
ENDROOT
BRANCH   1   7
ATOM      7  O   LIG d   1      -7.541  75.165 116.560  0.00  0.00    -0.368 OA
BRANCH   7   8
ATOM      8  C   LIG d   1      -6.918  73.896 116.874  0.00  0.00     0.119 C 
BRANCH   8   9
ATOM      9  C   LIG d   1      -6.380  73.305 115.556  0.00  0.00     0.028 C 
ATOM     10  C   LIG d   1      -5.642  74.350 114.703  0.00  0.00     0.006 C 
ENDBRANCH   8   9
BRANCH   8  11
ATOM     11  C   LIG d   1      -7.946  72.881 117.383  0.00  0.00     0.028 C 
ATOM     12  C   LIG d   1      -8.352  71.855 116.313  0.00  0.00     0.006 C 
ENDBRANCH   8  11
ENDBRANCH   7   8
ENDBRANCH   1   7
BRANCH   6  13
ATOM     13  N   LIG d   1      -5.195  76.929 117.245  0.00  0.00    -0.311 N 
ATOM     14  C   LIG d   1      -4.258  77.290 116.370  0.00  0.00     0.210 C 
ATOM     15  C   LIG d   1      -2.862  76.722 116.646  0.00  0.00     0.109 C 
ATOM     16  O   LIG d   1      -4.443  78.054 115.411  0.00  0.00    -0.276 OA
ATOM     17  H   LIG d   1      -4.950  76.333 118.012  0.00  0.00     0.149 HD
ENDBRANCH   6  13
BRANCH   5  18
ATOM     18  N   LIG d   1      -6.171  79.812 117.504  0.00  0.00     0.381 N 
ATOM     19  H   LIG d   1      -5.565  79.555 116.750  0.00  0.00    -0.090 HD
ATOM     20  H   LIG d   1      -5.606  80.167 118.255  0.00  0.00    -0.090 HD
ATOM     21  H   LIG d   1      -6.812  80.512 117.201  0.00  0.00    -0.090 HD
ENDBRANCH   5  18
BRANCH   3  22
ATOM     22  C   LIG d   1     -10.458  78.092 118.768  0.00  0.00     0.382 C 
ATOM     23  O   LIG d   1     -11.360  77.222 118.703  0.00  0.00    -0.241 OA
ATOM     24  O   LIG d   1     -10.702  79.190 119.304  0.00  0.00    -0.241 OA
ENDBRANCH   3  22
TORSDOF 7
ENDMDL
MODEL 2
REMARK VINA RESULT:      -5.6      2.252      5.133
REMARK  7 active torsions:
REMARK  status: ('A' for Active; 'I' for Inactive)
REMARK    1  A    between atoms: C_2  and  C_3 
REMARK    2  A    between atoms: C_3  and  O_6 
REMARK    3  A    between atoms: C_3  and  C_4 
REMARK    4  A    between atoms: C_7  and  O_6 
REMARK    5  A    between atoms: C_9  and  C_10 
REMARK    6  A    between atoms: N_15  and  C_14 
REMARK    7  A    between atoms: N_20  and  C_19 
REMARK       I    between atoms: C_22  and  N_20 
ROOT
ATOM      1  C   LIG d   1      -5.579  75.890 116.141  0.00  0.00     0.161 C 
ATOM      2  C   LIG d   1      -5.981  74.605 115.740  0.00  0.00     0.016 C 
ATOM      3  C   LIG d   1      -7.177  73.992 116.178  0.00  0.00     0.038 C 
ATOM      4  C   LIG d   1      -8.133  74.687 116.934  0.00  0.00     0.028 C 
ATOM      5  C   LIG d   1      -7.538  75.809 117.779  0.00  0.00    -0.047 C 
ATOM      6  C   LIG d   1      -6.662  76.707 116.876  0.00  0.00     0.091 C 
ENDROOT
BRANCH   1   7
ATOM      7  O   LIG d   1      -5.083  76.624 115.004  0.00  0.00    -0.368 OA
BRANCH   7   8
ATOM      8  C   LIG d   1      -3.643  76.746 114.902  0.00  0.00     0.119 C 
BRANCH   8   9
ATOM      9  C   LIG d   1      -3.320  78.237 114.682  0.00  0.00     0.028 C 
ATOM     10  C   LIG d   1      -2.979  78.964 115.993  0.00  0.00     0.006 C 
ENDBRANCH   8   9
BRANCH   8  11
ATOM     11  C   LIG d   1      -3.109  76.027 113.660  0.00  0.00     0.028 C 
ATOM     12  C   LIG d   1      -1.583  75.848 113.686  0.00  0.00     0.006 C 
ENDBRANCH   8  11
ENDBRANCH   7   8
ENDBRANCH   1   7
BRANCH   6  13
ATOM     13  N   LIG d   1      -5.975  77.780 117.640  0.00  0.00    -0.311 N 
ATOM     14  C   LIG d   1      -6.463  79.012 117.774  0.00  0.00     0.210 C 
ATOM     15  C   LIG d   1      -5.585  79.971 118.585  0.00  0.00     0.109 C 
ATOM     16  O   LIG d   1      -7.554  79.393 117.324  0.00  0.00    -0.276 OA
ATOM     17  H   LIG d   1      -5.098  77.548 118.064  0.00  0.00     0.149 HD
ENDBRANCH   6  13
BRANCH   5  18
ATOM     18  N   LIG d   1      -8.658  76.536 118.406  0.00  0.00     0.381 N 
ATOM     19  H   LIG d   1      -8.400  77.491 118.556  0.00  0.00    -0.090 HD
ATOM     20  H   LIG d   1      -8.858  76.119 119.297  0.00  0.00    -0.090 HD
ATOM     21  H   LIG d   1      -9.464  76.491 117.821  0.00  0.00    -0.090 HD
ENDBRANCH   5  18
BRANCH   3  22
ATOM     22  C   LIG d   1      -7.408  72.654 115.894  0.00  0.00     0.382 C 
ATOM     23  O   LIG d   1      -6.549  71.989 115.267  0.00  0.00    -0.241 OA
ATOM     24  O   LIG d   1      -8.484  72.116 116.217  0.00  0.00    -0.241 OA
ENDBRANCH   3  22
TORSDOF 7
ENDMDL
MODEL 3
REMARK VINA RESULT:      -5.5      2.591      4.721
REMARK  7 active torsions:
REMARK  status: ('A' for Active; 'I' for Inactive)
REMARK    1  A    between atoms: C_2  and  C_3 
REMARK    2  A    between atoms: C_3  and  O_6 
REMARK    3  A    between atoms: C_3  and  C_4 
REMARK    4  A    between atoms: C_7  and  O_6 
REMARK    5  A    between atoms: C_9  and  C_10 
REMARK    6  A    between atoms: N_15  and  C_14 
REMARK    7  A    between atoms: N_20  and  C_19 
REMARK       I    between atoms: C_22  and  N_20 
ROOT
ATOM      1  C   LIG d   1      -6.325  75.844 116.051  0.00  0.00     0.161 C 
ATOM      2  C   LIG d   1      -6.062  77.209 116.258  0.00  0.00     0.016 C 
ATOM      3  C   LIG d   1      -6.619  77.956 117.322  0.00  0.00     0.038 C 
ATOM      4  C   LIG d   1      -7.363  77.348 118.344  0.00  0.00     0.028 C 
ATOM      5  C   LIG d   1      -8.070  76.071 117.903  0.00  0.00    -0.047 C 
ATOM      6  C   LIG d   1      -7.044  75.139 117.220  0.00  0.00     0.091 C 
ENDROOT
BRANCH   1   7
ATOM      7  O   LIG d   1      -5.101  75.155 115.727  0.00  0.00    -0.368 OA
BRANCH   7   8
ATOM      8  C   LIG d   1      -3.961  75.993 115.414  0.00  0.00     0.119 C 
BRANCH   8   9
ATOM      9  C   LIG d   1      -3.585  75.733 113.942  0.00  0.00     0.028 C 
ATOM     10  C   LIG d   1      -2.074  75.864 113.690  0.00  0.00     0.006 C 
ENDBRANCH   8   9
BRANCH   8  11
ATOM     11  C   LIG d   1      -2.729  75.584 116.225  0.00  0.00     0.028 C 
ATOM     12  C   LIG d   1      -2.547  76.426 117.498  0.00  0.00     0.006 C 
ENDBRANCH   8  11
ENDBRANCH   7   8
ENDBRANCH   1   7
BRANCH   6  13
ATOM     13  N   LIG d   1      -7.670  73.903 116.682  0.00  0.00    -0.311 N 
ATOM     14  C   LIG d   1      -7.799  72.780 117.387  0.00  0.00     0.210 C 
ATOM     15  C   LIG d   1      -8.456  71.618 116.636  0.00  0.00     0.109 C 
ATOM     16  O   LIG d   1      -7.460  72.647 118.572  0.00  0.00    -0.276 OA
ATOM     17  H   LIG d   1      -8.002  73.933 115.738  0.00  0.00     0.149 HD
ENDBRANCH   6  13
BRANCH   5  18
ATOM     18  N   LIG d   1      -8.692  75.470 119.098  0.00  0.00     0.381 N 
ATOM     19  H   LIG d   1      -8.129  74.712 119.427  0.00  0.00    -0.090 HD
ATOM     20  H   LIG d   1      -9.594  75.106 118.846  0.00  0.00    -0.090 HD
ATOM     21  H   LIG d   1      -8.790  76.156 119.813  0.00  0.00    -0.090 HD
ENDBRANCH   5  18
BRANCH   3  22
ATOM     22  C   LIG d   1      -6.468  79.334 117.347  0.00  0.00     0.382 C 
ATOM     23  O   LIG d   1      -7.478  80.076 117.295  0.00  0.00    -0.241 OA
ATOM     24  O   LIG d   1      -5.332  79.844 117.377  0.00  0.00    -0.241 OA
ENDBRANCH   3  22
TORSDOF 7
ENDMDL
MODEL 4
REMARK VINA RESULT:      -5.3      3.480      6.249
REMARK  7 active torsions:
REMARK  status: ('A' for Active; 'I' for Inactive)
REMARK    1  A    between atoms: C_2  and  C_3 
REMARK    2  A    between atoms: C_3  and  O_6 
REMARK    3  A    between atoms: C_3  and  C_4 
REMARK    4  A    between atoms: C_7  and  O_6 
REMARK    5  A    between atoms: C_9  and  C_10 
REMARK    6  A    between atoms: N_15  and  C_14 
REMARK    7  A    between atoms: N_20  and  C_19 
REMARK       I    between atoms: C_22  and  N_20 
ROOT
ATOM      1  C   LIG d   1      -3.174  77.727 116.445  0.00  0.00     0.161 C 
ATOM      2  C   LIG d   1      -3.500  78.463 115.293  0.00  0.00     0.016 C 
ATOM      3  C   LIG d   1      -2.801  78.343 114.070  0.00  0.00     0.038 C 
ATOM      4  C   LIG d   1      -1.819  77.361 113.870  0.00  0.00     0.028 C 
ATOM      5  C   LIG d   1      -1.114  76.940 115.155  0.00  0.00    -0.047 C 
ATOM      6  C   LIG d   1      -2.178  76.572 116.214  0.00  0.00     0.091 C 
ENDROOT
BRANCH   1   7
ATOM      7  O   LIG d   1      -4.378  77.234 117.066  0.00  0.00    -0.368 OA
BRANCH   7   8
ATOM      8  C   LIG d   1      -5.513  77.037 116.188  0.00  0.00     0.119 C 
BRANCH   8   9
ATOM      9  C   LIG d   1      -6.781  77.416 116.979  0.00  0.00     0.028 C 
ATOM     10  C   LIG d   1      -7.835  76.297 116.968  0.00  0.00     0.006 C 
ENDBRANCH   8   9
BRANCH   8  11
ATOM     11  C   LIG d   1      -5.688  75.560 115.826  0.00  0.00     0.028 C 
ATOM     12  C   LIG d   1      -5.269  75.247 114.380  0.00  0.00     0.006 C 
ENDBRANCH   8  11
ENDBRANCH   7   8
ENDBRANCH   1   7
BRANCH   6  13
ATOM     13  N   LIG d   1      -1.575  76.229 117.528  0.00  0.00    -0.311 N 
ATOM     14  C   LIG d   1      -1.288  74.983 117.901  0.00  0.00     0.210 C 
ATOM     15  C   LIG d   1      -0.690  74.849 119.305  0.00  0.00     0.109 C 
ATOM     16  O   LIG d   1      -1.444  73.979 117.190  0.00  0.00    -0.276 OA
ATOM     17  H   LIG d   1      -1.387  76.987 118.156  0.00  0.00     0.149 HD
ENDBRANCH   6  13
BRANCH   5  18
ATOM     18  N   LIG d   1      -0.216  75.818 114.823  0.00  0.00     0.381 N 
ATOM     19  H   LIG d   1       0.622  75.882 115.367  0.00  0.00    -0.090 HD
ATOM     20  H   LIG d   1       0.034  75.877 113.852  0.00  0.00    -0.090 HD
ATOM     21  H   LIG d   1      -0.672  74.951 115.004  0.00  0.00    -0.090 HD
ENDBRANCH   5  18
BRANCH   3  22
ATOM     22  C   LIG d   1      -3.056  79.238 113.042  0.00  0.00     0.382 C 
ATOM     23  O   LIG d   1      -2.759  78.937 111.861  0.00  0.00    -0.241 OA
ATOM     24  O   LIG d   1      -3.539  80.360 113.287  0.00  0.00    -0.241 OA
ENDBRANCH   3  22
TORSDOF 7
ENDMDL
MODEL 5
REMARK VINA RESULT:      -5.2      1.790      4.867
REMARK  7 active torsions:
REMARK  status: ('A' for Active; 'I' for Inactive)
REMARK    1  A    between atoms: C_2  and  C_3 
REMARK    2  A    between atoms: C_3  and  O_6 
REMARK    3  A    between atoms: C_3  and  C_4 
REMARK    4  A    between atoms: C_7  and  O_6 
REMARK    5  A    between atoms: C_9  and  C_10 
REMARK    6  A    between atoms: N_15  and  C_14 
REMARK    7  A    between atoms: N_20  and  C_19 
REMARK       I    between atoms: C_22  and  N_20 
ROOT
ATOM      1  C   LIG d   1      -7.354  75.937 115.630  0.00  0.00     0.161 C 
ATOM      2  C   LIG d   1      -6.242  75.718 114.799  0.00  0.00     0.016 C 
ATOM      3  C   LIG d   1      -4.997  76.362 114.979  0.00  0.00     0.038 C 
ATOM      4  C   LIG d   1      -4.731  77.161 116.101  0.00  0.00     0.028 C 
ATOM      5  C   LIG d   1      -5.978  77.810 116.692  0.00  0.00    -0.047 C 
ATOM      6  C   LIG d   1      -7.049  76.719 116.924  0.00  0.00     0.091 C 
ENDROOT
BRANCH   1   7
ATOM      7  O   LIG d   1      -7.985  74.679 115.942  0.00  0.00    -0.368 OA
BRANCH   7   8
ATOM      8  C   LIG d   1      -7.160  73.703 116.623  0.00  0.00     0.119 C 
BRANCH   8   9
ATOM      9  C   LIG d   1      -7.134  72.431 115.753  0.00  0.00     0.028 C 
ATOM     10  C   LIG d   1      -5.852  72.321 114.911  0.00  0.00     0.006 C 
ENDBRANCH   8   9
BRANCH   8  11
ATOM     11  C   LIG d   1      -7.787  73.273 117.952  0.00  0.00     0.028 C 
ATOM     12  C   LIG d   1      -7.965  71.750 118.062  0.00  0.00     0.006 C 
ENDBRANCH   8  11
ENDBRANCH   7   8
ENDBRANCH   1   7
BRANCH   6  13
ATOM     13  N   LIG d   1      -8.331  77.281 117.423  0.00  0.00    -0.311 N 
ATOM     14  C   LIG d   1      -8.936  76.856 118.530  0.00  0.00     0.210 C 
ATOM     15  C   LIG d   1     -10.260  77.557 118.854  0.00  0.00     0.109 C 
ATOM     16  O   LIG d   1      -8.487  75.988 119.293  0.00  0.00    -0.276 OA
ATOM     17  H   LIG d   1      -8.750  78.012 116.881  0.00  0.00     0.149 HD
ENDBRANCH   6  13
BRANCH   5  18
ATOM     18  N   LIG d   1      -5.576  78.499 117.933  0.00  0.00     0.381 N 
ATOM     19  H   LIG d   1      -6.374  78.934 118.352  0.00  0.00    -0.090 HD
ATOM     20  H   LIG d   1      -4.909  79.216 117.705  0.00  0.00    -0.090 HD
ATOM     21  H   LIG d   1      -5.171  77.848 118.569  0.00  0.00    -0.090 HD
ENDBRANCH   5  18
BRANCH   3  22
ATOM     22  C   LIG d   1      -4.014  76.242 114.008  0.00  0.00     0.382 C 
ATOM     23  O   LIG d   1      -3.976  77.052 113.050  0.00  0.00    -0.241 OA
ATOM     24  O   LIG d   1      -3.192  75.307 114.053  0.00  0.00    -0.241 OA
ENDBRANCH   3  22
TORSDOF 7
ENDMDL
MODEL 6
REMARK VINA RESULT:      -5.2      2.496      6.883
REMARK  7 active torsions:
REMARK  status: ('A' for Active; 'I' for Inactive)
REMARK    1  A    between atoms: C_2  and  C_3 
REMARK    2  A    between atoms: C_3  and  O_6 
REMARK    3  A    between atoms: C_3  and  C_4 
REMARK    4  A    between atoms: C_7  and  O_6 
REMARK    5  A    between atoms: C_9  and  C_10 
REMARK    6  A    between atoms: N_15  and  C_14 
REMARK    7  A    between atoms: N_20  and  C_19 
REMARK       I    between atoms: C_22  and  N_20 
ROOT
ATOM      1  C   LIG d   1      -4.794  77.599 116.149  0.00  0.00     0.161 C 
ATOM      2  C   LIG d   1      -3.775  77.720 115.190  0.00  0.00     0.016 C 
ATOM      3  C   LIG d   1      -3.472  76.714 114.244  0.00  0.00     0.038 C 
ATOM      4  C   LIG d   1      -4.273  75.572 114.095  0.00  0.00     0.028 C 
ATOM      5  C   LIG d   1      -5.004  75.173 115.373  0.00  0.00    -0.047 C 
ATOM      6  C   LIG d   1      -5.750  76.408 115.930  0.00  0.00     0.091 C 
ENDROOT
BRANCH   1   7
ATOM      7  O   LIG d   1      -5.539  78.831 116.229  0.00  0.00    -0.368 OA
BRANCH   7   8
ATOM      8  C   LIG d   1      -5.562  79.477 117.526  0.00  0.00     0.119 C 
BRANCH   8   9
ATOM      9  C   LIG d   1      -6.811  80.379 117.570  0.00  0.00     0.028 C 
ATOM     10  C   LIG d   1      -8.082  79.604 117.955  0.00  0.00     0.006 C 
ENDBRANCH   8   9
BRANCH   8  11
ATOM     11  C   LIG d   1      -4.372  80.425 117.697  0.00  0.00     0.028 C 
ATOM     12  C   LIG d   1      -4.402  81.605 116.713  0.00  0.00     0.006 C 
ENDBRANCH   8  11
ENDBRANCH   7   8
ENDBRANCH   1   7
BRANCH   6  13
ATOM     13  N   LIG d   1      -6.423  76.127 117.225  0.00  0.00    -0.311 N 
ATOM     14  C   LIG d   1      -7.703  75.775 117.325  0.00  0.00     0.210 C 
ATOM     15  C   LIG d   1      -8.203  75.552 118.756  0.00  0.00     0.109 C 
ATOM     16  O   LIG d   1      -8.465  75.596 116.362  0.00  0.00    -0.276 OA
ATOM     17  H   LIG d   1      -5.870  76.218 118.055  0.00  0.00     0.149 HD
ENDBRANCH   6  13
BRANCH   5  18
ATOM     18  N   LIG d   1      -5.905  74.054 115.041  0.00  0.00     0.381 N 
ATOM     19  H   LIG d   1      -5.422  73.387 114.474  0.00  0.00    -0.090 HD
ATOM     20  H   LIG d   1      -6.684  74.410 114.515  0.00  0.00    -0.090 HD
ATOM     21  H   LIG d   1      -6.230  73.619 115.876  0.00  0.00    -0.090 HD
ENDBRANCH   5  18
BRANCH   3  22
ATOM     22  C   LIG d   1      -2.333  76.826 113.461  0.00  0.00     0.382 C 
ATOM     23  O   LIG d   1      -1.658  75.805 113.187  0.00  0.00    -0.241 OA
ATOM     24  O   LIG d   1      -1.948  77.942 113.063  0.00  0.00    -0.241 OA
ENDBRANCH   3  22
TORSDOF 7
ENDMDL
MODEL 7
REMARK VINA RESULT:      -5.1      7.733     10.770
REMARK  7 active torsions:
REMARK  status: ('A' for Active; 'I' for Inactive)
REMARK    1  A    between atoms: C_2  and  C_3 
REMARK    2  A    between atoms: C_3  and  O_6 
REMARK    3  A    between atoms: C_3  and  C_4 
REMARK    4  A    between atoms: C_7  and  O_6 
REMARK    5  A    between atoms: C_9  and  C_10 
REMARK    6  A    between atoms: N_15  and  C_14 
REMARK    7  A    between atoms: N_20  and  C_19 
REMARK       I    between atoms: C_22  and  N_20 
ROOT
ATOM      1  C   LIG d   1      -1.513  82.938 112.701  0.00  0.00     0.161 C 
ATOM      2  C   LIG d   1      -2.402  81.885 112.975  0.00  0.00     0.016 C 
ATOM      3  C   LIG d   1      -2.093  80.525 112.742  0.00  0.00     0.038 C 
ATOM      4  C   LIG d   1      -0.808  80.112 112.356  0.00  0.00     0.028 C 
ATOM      5  C   LIG d   1      -0.036  81.177 111.585  0.00  0.00    -0.047 C 
ATOM      6  C   LIG d   1      -0.068  82.499 112.385  0.00  0.00     0.091 C 
ENDROOT
BRANCH   1   7
ATOM      7  O   LIG d   1      -1.523  83.882 113.791  0.00  0.00    -0.368 OA
BRANCH   7   8
ATOM      8  C   LIG d   1      -0.709  83.539 114.939  0.00  0.00     0.119 C 
BRANCH   8   9
ATOM      9  C   LIG d   1      -1.663  83.111 116.071  0.00  0.00     0.028 C 
ATOM     10  C   LIG d   1      -0.911  82.551 117.291  0.00  0.00     0.006 C 
ENDBRANCH   8   9
BRANCH   8  11
ATOM     11  C   LIG d   1       0.038  84.762 115.478  0.00  0.00     0.028 C 
ATOM     12  C   LIG d   1      -0.019  85.964 114.522  0.00  0.00     0.006 C 
ENDBRANCH   8  11
ENDBRANCH   7   8
ENDBRANCH   1   7
BRANCH   6  13
ATOM     13  N   LIG d   1       0.593  83.616 111.662  0.00  0.00    -0.311 N 
ATOM     14  C   LIG d   1       1.844  84.007 111.902  0.00  0.00     0.210 C 
ATOM     15  C   LIG d   1       2.324  85.191 111.057  0.00  0.00     0.109 C 
ATOM     16  O   LIG d   1       2.611  83.464 112.711  0.00  0.00    -0.276 OA
ATOM     17  H   LIG d   1       0.053  84.092 110.966  0.00  0.00     0.149 HD
ENDBRANCH   6  13
BRANCH   5  18
ATOM     18  N   LIG d   1       1.331  80.666 111.367  0.00  0.00     0.381 N 
ATOM     19  H   LIG d   1       1.803  81.238 110.696  0.00  0.00    -0.090 HD
ATOM     20  H   LIG d   1       1.274  79.732 111.001  0.00  0.00    -0.090 HD
ATOM     21  H   LIG d   1       1.835  80.664 112.226  0.00  0.00    -0.090 HD
ENDBRANCH   5  18
BRANCH   3  22
ATOM     22  C   LIG d   1      -3.087  79.565 112.855  0.00  0.00     0.382 C 
ATOM     23  O   LIG d   1      -3.514  78.981 111.830  0.00  0.00    -0.241 OA
ATOM     24  O   LIG d   1      -3.593  79.308 113.963  0.00  0.00    -0.241 OA
ENDBRANCH   3  22
TORSDOF 7
ENDMDL
MODEL 8
REMARK VINA RESULT:      -4.9      2.235      5.038
REMARK  7 active torsions:
REMARK  status: ('A' for Active; 'I' for Inactive)
REMARK    1  A    between atoms: C_2  and  C_3 
REMARK    2  A    between atoms: C_3  and  O_6 
REMARK    3  A    between atoms: C_3  and  C_4 
REMARK    4  A    between atoms: C_7  and  O_6 
REMARK    5  A    between atoms: C_9  and  C_10 
REMARK    6  A    between atoms: N_15  and  C_14 
REMARK    7  A    between atoms: N_20  and  C_19 
REMARK       I    between atoms: C_22  and  N_20 
ROOT
ATOM      1  C   LIG d   1      -5.633  76.407 116.186  0.00  0.00     0.161 C 
ATOM      2  C   LIG d   1      -4.874  76.358 115.005  0.00  0.00     0.016 C 
ATOM      3  C   LIG d   1      -3.766  77.201 114.756  0.00  0.00     0.038 C 
ATOM      4  C   LIG d   1      -3.248  78.054 115.742  0.00  0.00     0.028 C 
ATOM      5  C   LIG d   1      -4.287  78.500 116.765  0.00  0.00    -0.047 C 
ATOM      6  C   LIG d   1      -5.015  77.254 117.318  0.00  0.00     0.091 C 
ENDROOT
BRANCH   1   7
ATOM      7  O   LIG d   1      -5.902  75.069 116.650  0.00  0.00    -0.368 OA
BRANCH   7   8
ATOM      8  C   LIG d   1      -6.979  74.367 115.982  0.00  0.00     0.119 C 
BRANCH   8   9
ATOM      9  C   LIG d   1      -8.233  74.490 116.869  0.00  0.00     0.028 C 
ATOM     10  C   LIG d   1      -7.884  74.669 118.356  0.00  0.00     0.006 C 
ENDBRANCH   8   9
BRANCH   8  11
ATOM     11  C   LIG d   1      -6.692  72.865 115.890  0.00  0.00     0.028 C 
ATOM     12  C   LIG d   1      -7.954  72.006 116.070  0.00  0.00     0.006 C 
ENDBRANCH   8  11
ENDBRANCH   7   8
ENDBRANCH   1   7
BRANCH   6  13
ATOM     13  N   LIG d   1      -6.106  77.607 118.263  0.00  0.00    -0.311 N 
ATOM     14  C   LIG d   1      -6.911  78.654 118.094  0.00  0.00     0.210 C 
ATOM     15  C   LIG d   1      -7.957  78.850 119.197  0.00  0.00     0.109 C 
ATOM     16  O   LIG d   1      -6.880  79.421 117.120  0.00  0.00    -0.276 OA
ATOM     17  H   LIG d   1      -6.222  77.020 119.065  0.00  0.00     0.149 HD
ENDBRANCH   6  13
BRANCH   5  18
ATOM     18  N   LIG d   1      -3.583  79.269 117.809  0.00  0.00     0.381 N 
ATOM     19  H   LIG d   1      -2.630  78.972 117.864  0.00  0.00    -0.090 HD
ATOM     20  H   LIG d   1      -4.021  79.091 118.695  0.00  0.00    -0.090 HD
ATOM     21  H   LIG d   1      -3.624  80.243 117.601  0.00  0.00    -0.090 HD
ENDBRANCH   5  18
BRANCH   3  22
ATOM     22  C   LIG d   1      -3.191  77.226 113.495  0.00  0.00     0.382 C 
ATOM     23  O   LIG d   1      -2.324  76.373 113.185  0.00  0.00    -0.241 OA
ATOM     24  O   LIG d   1      -3.495  78.116 112.679  0.00  0.00    -0.241 OA
ENDBRANCH   3  22
TORSDOF 7
ENDMDL
MODEL 9
REMARK VINA RESULT:      -4.7      5.346      7.189
REMARK  7 active torsions:
REMARK  status: ('A' for Active; 'I' for Inactive)
REMARK    1  A    between atoms: C_2  and  C_3 
REMARK    2  A    between atoms: C_3  and  O_6 
REMARK    3  A    between atoms: C_3  and  C_4 
REMARK    4  A    between atoms: C_7  and  O_6 
REMARK    5  A    between atoms: C_9  and  C_10 
REMARK    6  A    between atoms: N_15  and  C_14 
REMARK    7  A    between atoms: N_20  and  C_19 
REMARK       I    between atoms: C_22  and  N_20 
ROOT
ATOM      1  C   LIG d   1      -2.785  79.172 115.480  0.00  0.00     0.161 C 
ATOM      2  C   LIG d   1      -3.122  80.064 114.448  0.00  0.00     0.016 C 
ATOM      3  C   LIG d   1      -2.185  80.911 113.815  0.00  0.00     0.038 C 
ATOM      4  C   LIG d   1      -0.808  80.815 114.068  0.00  0.00     0.028 C 
ATOM      5  C   LIG d   1      -0.485  80.284 115.460  0.00  0.00    -0.047 C 
ATOM      6  C   LIG d   1      -1.270  78.973 115.693  0.00  0.00     0.091 C 
ENDROOT
BRANCH   1   7
ATOM      7  O   LIG d   1      -3.431  77.903 115.259  0.00  0.00    -0.368 OA
BRANCH   7   8
ATOM      8  C   LIG d   1      -2.942  77.125 114.138  0.00  0.00     0.119 C 
BRANCH   8   9
ATOM      9  C   LIG d   1      -4.169  76.621 113.354  0.00  0.00     0.028 C 
ATOM     10  C   LIG d   1      -4.661  75.251 113.851  0.00  0.00     0.006 C 
ENDBRANCH   8   9
BRANCH   8  11
ATOM     11  C   LIG d   1      -2.216  75.863 114.610  0.00  0.00     0.028 C 
ATOM     12  C   LIG d   1      -0.949  75.563 113.793  0.00  0.00     0.006 C 
ENDBRANCH   8  11
ENDBRANCH   7   8
ENDBRANCH   1   7
BRANCH   6  13
ATOM     13  N   LIG d   1      -1.076  78.431 117.063  0.00  0.00    -0.311 N 
ATOM     14  C   LIG d   1      -0.169  77.503 117.363  0.00  0.00     0.210 C 
ATOM     15  C   LIG d   1      -0.148  77.069 118.832  0.00  0.00     0.109 C 
ATOM     16  O   LIG d   1       0.643  77.021 116.558  0.00  0.00    -0.276 OA
ATOM     17  H   LIG d   1      -1.671  78.789 117.784  0.00  0.00     0.149 HD
ENDBRANCH   6  13
BRANCH   5  18
ATOM     18  N   LIG d   1       0.977  80.104 115.540  0.00  0.00     0.381 N 
ATOM     19  H   LIG d   1       1.392  80.299 114.651  0.00  0.00    -0.090 HD
ATOM     20  H   LIG d   1       1.175  79.147 115.776  0.00  0.00    -0.090 HD
ATOM     21  H   LIG d   1       1.358  80.710 116.233  0.00  0.00    -0.090 HD
ENDBRANCH   5  18
BRANCH   3  22
ATOM     22  C   LIG d   1      -2.627  81.897 112.945  0.00  0.00     0.382 C 
ATOM     23  O   LIG d   1      -3.783  81.834 112.461  0.00  0.00    -0.241 OA
ATOM     24  O   LIG d   1      -1.868  82.824 112.602  0.00  0.00    -0.241 OA
ENDBRANCH   3  22
TORSDOF 7
ENDMDL
