MODEL 1
REMARK VINA RESULT:      -5.6      0.000      0.000
REMARK  7 active torsions:
REMARK  status: ('A' for Active; 'I' for Inactive)
REMARK    1  A    between atoms: C_2  and  C_3 
REMARK    2  A    between atoms: C_3  and  O_6 
REMARK    3  A    between atoms: C_3  and  C_4 
REMARK    4  A    between atoms: C_7  and  O_6 
REMARK    5  A    between atoms: C_9  and  C_10 
REMARK    6  A    between atoms: N_15  and  C_14 
REMARK    7  A    between atoms: N_20  and  C_19 
REMARK       I    between atoms: C_22  and  N_20 
ROOT
ATOM      1  C   LIG d   1      -2.978  76.953 114.529  0.00  0.00     0.161 C 
ATOM      2  C   LIG d   1      -3.009  78.110 113.733  0.00  0.00     0.016 C 
ATOM      3  C   LIG d   1      -1.847  78.752 113.247  0.00  0.00     0.038 C 
ATOM      4  C   LIG d   1      -0.571  78.190 113.399  0.00  0.00     0.028 C 
ATOM      5  C   LIG d   1      -0.447  77.291 114.625  0.00  0.00    -0.047 C 
ATOM      6  C   LIG d   1      -1.600  76.262 114.612  0.00  0.00     0.091 C 
ENDROOT
BRANCH   1   7
ATOM      7  O   LIG d   1      -3.979  76.021 114.075  0.00  0.00    -0.368 OA
BRANCH   7   8
ATOM      8  C   LIG d   1      -5.006  75.671 115.035  0.00  0.00     0.119 C 
BRANCH   8   9
ATOM      9  C   LIG d   1      -4.995  74.137 115.185  0.00  0.00     0.028 C 
ATOM     10  C   LIG d   1      -6.300  73.598 115.797  0.00  0.00     0.006 C 
ENDBRANCH   8   9
BRANCH   8  11
ATOM     11  C   LIG d   1      -6.402  76.017 114.508  0.00  0.00     0.028 C 
ATOM     12  C   LIG d   1      -6.382  76.533 113.061  0.00  0.00     0.006 C 
ENDBRANCH   8  11
ENDBRANCH   7   8
ENDBRANCH   1   7
BRANCH   6  13
ATOM     13  N   LIG d   1      -1.603  75.398 115.820  0.00  0.00    -0.311 N 
ATOM     14  C   LIG d   1      -1.062  74.181 115.852  0.00  0.00     0.210 C 
ATOM     15  C   LIG d   1      -1.191  73.451 117.193  0.00  0.00     0.109 C 
ATOM     16  O   LIG d   1      -0.458  73.650 114.908  0.00  0.00    -0.276 OA
ATOM     17  H   LIG d   1      -2.044  75.763 116.642  0.00  0.00     0.149 HD
ENDBRANCH   6  13
BRANCH   5  18
ATOM     18  N   LIG d   1       0.888  76.664 114.585  0.00  0.00     0.381 N 
ATOM     19  H   LIG d   1       1.327  76.745 115.480  0.00  0.00    -0.090 HD
ATOM     20  H   LIG d   1       1.454  77.148 113.910  0.00  0.00    -0.090 HD
ATOM     21  H   LIG d   1       0.806  75.704 114.333  0.00  0.00    -0.090 HD
ENDBRANCH   5  18
BRANCH   3  22
ATOM     22  C   LIG d   1      -1.951  79.992 112.635  0.00  0.00     0.382 C 
ATOM     23  O   LIG d   1      -3.035  80.623 112.679  0.00  0.00    -0.241 OA
ATOM     24  O   LIG d   1      -0.990  80.467 112.002  0.00  0.00    -0.241 OA
ENDBRANCH   3  22
TORSDOF 7
ENDMDL
MODEL 2
REMARK VINA RESULT:      -5.1      2.023      4.974
REMARK  7 active torsions:
REMARK  status: ('A' for Active; 'I' for Inactive)
REMARK    1  A    between atoms: C_2  and  C_3 
REMARK    2  A    between atoms: C_3  and  O_6 
REMARK    3  A    between atoms: C_3  and  C_4 
REMARK    4  A    between atoms: C_7  and  O_6 
REMARK    5  A    between atoms: C_9  and  C_10 
REMARK    6  A    between atoms: N_15  and  C_14 
REMARK    7  A    between atoms: N_20  and  C_19 
REMARK       I    between atoms: C_22  and  N_20 
ROOT
ATOM      1  C   LIG d   1      -2.696  75.128 114.855  0.00  0.00     0.161 C 
ATOM      2  C   LIG d   1      -2.599  74.365 116.031  0.00  0.00     0.016 C 
ATOM      3  C   LIG d   1      -1.540  74.497 116.958  0.00  0.00     0.038 C 
ATOM      4  C   LIG d   1      -0.580  75.514 116.847  0.00  0.00     0.028 C 
ATOM      5  C   LIG d   1      -0.352  75.978 115.412  0.00  0.00    -0.047 C 
ATOM      6  C   LIG d   1      -1.718  76.318 114.772  0.00  0.00     0.091 C 
ENDROOT
BRANCH   1   7
ATOM      7  O   LIG d   1      -4.053  75.581 114.677  0.00  0.00    -0.368 OA
BRANCH   7   8
ATOM      8  C   LIG d   1      -4.877  75.607 115.868  0.00  0.00     0.119 C 
BRANCH   8   9
ATOM      9  C   LIG d   1      -6.274  75.087 115.475  0.00  0.00     0.028 C 
ATOM     10  C   LIG d   1      -7.405  75.971 116.027  0.00  0.00     0.006 C 
ENDBRANCH   8   9
BRANCH   8  11
ATOM     11  C   LIG d   1      -5.101  77.039 116.360  0.00  0.00     0.028 C 
ATOM     12  C   LIG d   1      -4.156  77.430 117.507  0.00  0.00     0.006 C 
ENDBRANCH   8  11
ENDBRANCH   7   8
ENDBRANCH   1   7
BRANCH   6  13
ATOM     13  N   LIG d   1      -1.593  76.700 113.342  0.00  0.00    -0.311 N 
ATOM     14  C   LIG d   1      -2.265  77.710 112.792  0.00  0.00     0.210 C 
ATOM     15  C   LIG d   1      -2.006  77.922 111.297  0.00  0.00     0.109 C 
ATOM     16  O   LIG d   1      -3.027  78.471 113.408  0.00  0.00    -0.276 OA
ATOM     17  H   LIG d   1      -0.973  76.155 112.776  0.00  0.00     0.149 HD
ENDBRANCH   6  13
BRANCH   5  18
ATOM     18  N   LIG d   1       0.568  77.130 115.457  0.00  0.00     0.381 N 
ATOM     19  H   LIG d   1       0.052  77.980 115.349  0.00  0.00    -0.090 HD
ATOM     20  H   LIG d   1       1.219  77.056 114.695  0.00  0.00    -0.090 HD
ATOM     21  H   LIG d   1       1.060  77.140 116.324  0.00  0.00    -0.090 HD
ENDBRANCH   5  18
BRANCH   3  22
ATOM     22  C   LIG d   1      -1.413  73.580 117.990  0.00  0.00     0.382 C 
ATOM     23  O   LIG d   1      -1.811  73.874 119.143  0.00  0.00    -0.241 OA
ATOM     24  O   LIG d   1      -0.863  72.480 117.793  0.00  0.00    -0.241 OA
ENDBRANCH   3  22
TORSDOF 7
ENDMDL
MODEL 3
REMARK VINA RESULT:      -5.1     22.266     24.891
REMARK  7 active torsions:
REMARK  status: ('A' for Active; 'I' for Inactive)
REMARK    1  A    between atoms: C_2  and  C_3 
REMARK    2  A    between atoms: C_3  and  O_6 
REMARK    3  A    between atoms: C_3  and  C_4 
REMARK    4  A    between atoms: C_7  and  O_6 
REMARK    5  A    between atoms: C_9  and  C_10 
REMARK    6  A    between atoms: N_15  and  C_14 
REMARK    7  A    between atoms: N_20  and  C_19 
REMARK       I    between atoms: C_22  and  N_20 
ROOT
ATOM      1  C   LIG d   1     -25.620  85.749 113.109  0.00  0.00     0.161 C 
ATOM      2  C   LIG d   1     -24.554  86.655 113.236  0.00  0.00     0.016 C 
ATOM      3  C   LIG d   1     -23.239  86.266 113.577  0.00  0.00     0.038 C 
ATOM      4  C   LIG d   1     -22.864  84.917 113.668  0.00  0.00     0.028 C 
ATOM      5  C   LIG d   1     -24.017  83.993 114.045  0.00  0.00    -0.047 C 
ATOM      6  C   LIG d   1     -25.207  84.262 113.095  0.00  0.00     0.091 C 
ENDROOT
BRANCH   1   7
ATOM      7  O   LIG d   1     -26.393  86.065 111.934  0.00  0.00    -0.368 OA
BRANCH   7   8
ATOM      8  C   LIG d   1     -27.557  86.902 112.143  0.00  0.00     0.119 C 
BRANCH   8   9
ATOM      9  C   LIG d   1     -28.722  86.282 111.348  0.00  0.00     0.028 C 
ATOM     10  C   LIG d   1     -29.945  87.212 111.277  0.00  0.00     0.006 C 
ENDBRANCH   8   9
BRANCH   8  11
ATOM     11  C   LIG d   1     -27.354  88.297 111.544  0.00  0.00     0.028 C 
ATOM     12  C   LIG d   1     -27.095  89.372 112.611  0.00  0.00     0.006 C 
ENDBRANCH   8  11
ENDBRANCH   7   8
ENDBRANCH   1   7
BRANCH   6  13
ATOM     13  N   LIG d   1     -26.406  83.458 113.448  0.00  0.00    -0.311 N 
ATOM     14  C   LIG d   1     -27.066  82.702 112.571  0.00  0.00     0.210 C 
ATOM     15  C   LIG d   1     -28.287  81.972 113.138  0.00  0.00     0.109 C 
ATOM     16  O   LIG d   1     -26.736  82.542 111.387  0.00  0.00    -0.276 OA
ATOM     17  H   LIG d   1     -26.725  83.505 114.396  0.00  0.00     0.149 HD
ENDBRANCH   6  13
BRANCH   5  18
ATOM     18  N   LIG d   1     -23.519  82.606 113.969  0.00  0.00     0.381 N 
ATOM     19  H   LIG d   1     -23.216  82.305 114.873  0.00  0.00    -0.090 HD
ATOM     20  H   LIG d   1     -22.732  82.577 113.346  0.00  0.00    -0.090 HD
ATOM     21  H   LIG d   1     -24.239  82.003 113.635  0.00  0.00    -0.090 HD
ENDBRANCH   5  18
BRANCH   3  22
ATOM     22  C   LIG d   1     -22.291  87.234 113.871  0.00  0.00     0.382 C 
ATOM     23  O   LIG d   1     -22.599  88.216 114.590  0.00  0.00    -0.241 OA
ATOM     24  O   LIG d   1     -21.144  87.161 113.391  0.00  0.00    -0.241 OA
ENDBRANCH   3  22
TORSDOF 7
ENDMDL
MODEL 4
REMARK VINA RESULT:      -4.9     12.186     14.303
REMARK  7 active torsions:
REMARK  status: ('A' for Active; 'I' for Inactive)
REMARK    1  A    between atoms: C_2  and  C_3 
REMARK    2  A    between atoms: C_3  and  O_6 
REMARK    3  A    between atoms: C_3  and  C_4 
REMARK    4  A    between atoms: C_7  and  O_6 
REMARK    5  A    between atoms: C_9  and  C_10 
REMARK    6  A    between atoms: N_15  and  C_14 
REMARK    7  A    between atoms: N_20  and  C_19 
REMARK       I    between atoms: C_22  and  N_20 
ROOT
ATOM      1  C   LIG d   1      11.102  77.535 115.021  0.00  0.00     0.161 C 
ATOM      2  C   LIG d   1      11.304  78.770 114.382  0.00  0.00     0.016 C 
ATOM      3  C   LIG d   1      12.488  79.099 113.682  0.00  0.00     0.038 C 
ATOM      4  C   LIG d   1      13.496  78.153 113.444  0.00  0.00     0.028 C 
ATOM      5  C   LIG d   1      13.556  77.054 114.499  0.00  0.00    -0.047 C 
ATOM      6  C   LIG d   1      12.144  76.451 114.677  0.00  0.00     0.091 C 
ENDROOT
BRANCH   1   7
ATOM      7  O   LIG d   1       9.770  77.056 114.746  0.00  0.00    -0.368 OA
BRANCH   7   8
ATOM      8  C   LIG d   1       8.931  76.808 115.901  0.00  0.00     0.119 C 
BRANCH   8   9
ATOM      9  C   LIG d   1       7.587  77.521 115.658  0.00  0.00     0.028 C 
ATOM     10  C   LIG d   1       7.770  78.976 115.194  0.00  0.00     0.006 C 
ENDBRANCH   8   9
BRANCH   8  11
ATOM     11  C   LIG d   1       9.512  77.455 117.161  0.00  0.00     0.028 C 
ATOM     12  C   LIG d   1       9.657  76.465 118.327  0.00  0.00     0.006 C 
ENDBRANCH   8  11
ENDBRANCH   7   8
ENDBRANCH   1   7
BRANCH   6  13
ATOM     13  N   LIG d   1      12.097  75.425 115.751  0.00  0.00    -0.311 N 
ATOM     14  C   LIG d   1      12.353  74.134 115.545  0.00  0.00     0.210 C 
ATOM     15  C   LIG d   1      12.229  73.244 116.785  0.00  0.00     0.109 C 
ATOM     16  O   LIG d   1      12.702  73.648 114.459  0.00  0.00    -0.276 OA
ATOM     17  H   LIG d   1      11.852  75.738 116.670  0.00  0.00     0.149 HD
ENDBRANCH   6  13
BRANCH   5  18
ATOM     18  N   LIG d   1      14.556  76.064 114.054  0.00  0.00     0.381 N 
ATOM     19  H   LIG d   1      14.282  75.680 113.172  0.00  0.00    -0.090 HD
ATOM     20  H   LIG d   1      14.594  75.317 114.725  0.00  0.00    -0.090 HD
ATOM     21  H   LIG d   1      15.450  76.495 113.974  0.00  0.00    -0.090 HD
ENDBRANCH   5  18
BRANCH   3  22
ATOM     22  C   LIG d   1      12.689  80.400 113.247  0.00  0.00     0.382 C 
ATOM     23  O   LIG d   1      12.177  80.787 112.169  0.00  0.00    -0.241 OA
ATOM     24  O   LIG d   1      13.413  81.179 113.896  0.00  0.00    -0.241 OA
ENDBRANCH   3  22
TORSDOF 7
ENDMDL
MODEL 5
REMARK VINA RESULT:      -4.5      8.610     11.427
REMARK  7 active torsions:
REMARK  status: ('A' for Active; 'I' for Inactive)
REMARK    1  A    between atoms: C_2  and  C_3 
REMARK    2  A    between atoms: C_3  and  O_6 
REMARK    3  A    between atoms: C_3  and  C_4 
REMARK    4  A    between atoms: C_7  and  O_6 
REMARK    5  A    between atoms: C_9  and  C_10 
REMARK    6  A    between atoms: N_15  and  C_14 
REMARK    7  A    between atoms: N_20  and  C_19 
REMARK       I    between atoms: C_22  and  N_20 
ROOT
ATOM      1  C   LIG d   1       2.524  86.267 114.708  0.00  0.00     0.161 C 
ATOM      2  C   LIG d   1       3.117  87.506 114.416  0.00  0.00     0.016 C 
ATOM      3  C   LIG d   1       4.272  87.990 115.073  0.00  0.00     0.038 C 
ATOM      4  C   LIG d   1       5.005  87.195 115.966  0.00  0.00     0.028 C 
ATOM      5  C   LIG d   1       4.161  86.134 116.665  0.00  0.00    -0.047 C 
ATOM      6  C   LIG d   1       3.373  85.338 115.600  0.00  0.00     0.091 C 
ENDROOT
BRANCH   1   7
ATOM      7  O   LIG d   1       2.167  85.596 113.483  0.00  0.00    -0.368 OA
BRANCH   7   8
ATOM      8  C   LIG d   1       3.266  85.054 112.709  0.00  0.00     0.119 C 
BRANCH   8   9
ATOM      9  C   LIG d   1       3.159  85.635 111.286  0.00  0.00     0.028 C 
ATOM     10  C   LIG d   1       1.847  86.404 111.062  0.00  0.00     0.006 C 
ENDBRANCH   8   9
BRANCH   8  11
ATOM     11  C   LIG d   1       3.134  83.538 112.540  0.00  0.00     0.028 C 
ATOM     12  C   LIG d   1       1.704  83.033 112.786  0.00  0.00     0.006 C 
ENDBRANCH   8  11
ENDBRANCH   7   8
ENDBRANCH   1   7
BRANCH   6  13
ATOM     13  N   LIG d   1       2.458  84.335 116.205  0.00  0.00    -0.311 N 
ATOM     14  C   LIG d   1       2.783  83.055 116.375  0.00  0.00     0.210 C 
ATOM     15  C   LIG d   1       1.686  82.186 116.999  0.00  0.00     0.109 C 
ATOM     16  O   LIG d   1       3.887  82.562 116.099  0.00  0.00    -0.276 OA
ATOM     17  H   LIG d   1       1.552  84.655 116.487  0.00  0.00     0.149 HD
ENDBRANCH   6  13
BRANCH   5  18
ATOM     18  N   LIG d   1       5.074  85.291 117.460  0.00  0.00     0.381 N 
ATOM     19  H   LIG d   1       5.584  85.860 118.107  0.00  0.00    -0.090 HD
ATOM     20  H   LIG d   1       5.732  84.851 116.841  0.00  0.00    -0.090 HD
ATOM     21  H   LIG d   1       4.556  84.598 117.953  0.00  0.00    -0.090 HD
ENDBRANCH   5  18
BRANCH   3  22
ATOM     22  C   LIG d   1       4.682  89.299 114.867  0.00  0.00     0.382 C 
ATOM     23  O   LIG d   1       4.774  90.087 115.839  0.00  0.00    -0.241 OA
ATOM     24  O   LIG d   1       4.918  89.714 113.716  0.00  0.00    -0.241 OA
ENDBRANCH   3  22
TORSDOF 7
ENDMDL
MODEL 6
REMARK VINA RESULT:      -4.5     11.227     14.233
REMARK  7 active torsions:
REMARK  status: ('A' for Active; 'I' for Inactive)
REMARK    1  A    between atoms: C_2  and  C_3 
REMARK    2  A    between atoms: C_3  and  O_6 
REMARK    3  A    between atoms: C_3  and  C_4 
REMARK    4  A    between atoms: C_7  and  O_6 
REMARK    5  A    between atoms: C_9  and  C_10 
REMARK    6  A    between atoms: N_15  and  C_14 
REMARK    7  A    between atoms: N_20  and  C_19 
REMARK       I    between atoms: C_22  and  N_20 
ROOT
ATOM      1  C   LIG d   1       1.019  88.654 117.178  0.00  0.00     0.161 C 
ATOM      2  C   LIG d   1      -0.380  88.540 117.220  0.00  0.00     0.016 C 
ATOM      3  C   LIG d   1      -1.230  89.560 117.705  0.00  0.00     0.038 C 
ATOM      4  C   LIG d   1      -0.744  90.832 118.043  0.00  0.00     0.028 C 
ATOM      5  C   LIG d   1       0.713  90.823 118.494  0.00  0.00    -0.047 C 
ATOM      6  C   LIG d   1       1.560  90.076 117.439  0.00  0.00     0.091 C 
ENDROOT
BRANCH   1   7
ATOM      7  O   LIG d   1       1.513  88.153 115.920  0.00  0.00    -0.368 OA
BRANCH   7   8
ATOM      8  C   LIG d   1       2.083  86.821 115.945  0.00  0.00     0.119 C 
BRANCH   8   9
ATOM      9  C   LIG d   1       3.602  86.964 115.725  0.00  0.00     0.028 C 
ATOM     10  C   LIG d   1       3.953  88.139 114.797  0.00  0.00     0.006 C 
ENDBRANCH   8   9
BRANCH   8  11
ATOM     11  C   LIG d   1       1.581  85.978 114.769  0.00  0.00     0.028 C 
ATOM     12  C   LIG d   1       2.117  84.538 114.796  0.00  0.00     0.006 C 
ENDBRANCH   8  11
ENDBRANCH   7   8
ENDBRANCH   1   7
BRANCH   6  13
ATOM     13  N   LIG d   1       2.985  89.948 117.842  0.00  0.00    -0.311 N 
ATOM     14  C   LIG d   1       3.922  90.835 117.514  0.00  0.00     0.210 C 
ATOM     15  C   LIG d   1       5.331  90.503 118.015  0.00  0.00     0.109 C 
ATOM     16  O   LIG d   1       3.714  91.883 116.883  0.00  0.00    -0.276 OA
ATOM     17  H   LIG d   1       3.235  89.143 118.383  0.00  0.00     0.149 HD
ENDBRANCH   6  13
BRANCH   5  18
ATOM     18  N   LIG d   1       1.130  92.226 118.681  0.00  0.00     0.381 N 
ATOM     19  H   LIG d   1       1.874  92.445 118.050  0.00  0.00    -0.090 HD
ATOM     20  H   LIG d   1       1.468  92.341 119.620  0.00  0.00    -0.090 HD
ATOM     21  H   LIG d   1       0.358  92.835 118.521  0.00  0.00    -0.090 HD
ENDBRANCH   5  18
BRANCH   3  22
ATOM     22  C   LIG d   1      -2.579  89.299 117.894  0.00  0.00     0.382 C 
ATOM     23  O   LIG d   1      -2.943  88.495 118.786  0.00  0.00    -0.241 OA
ATOM     24  O   LIG d   1      -3.433  89.824 117.155  0.00  0.00    -0.241 OA
ENDBRANCH   3  22
TORSDOF 7
ENDMDL
MODEL 7
REMARK VINA RESULT:      -4.5      7.535      9.982
REMARK  7 active torsions:
REMARK  status: ('A' for Active; 'I' for Inactive)
REMARK    1  A    between atoms: C_2  and  C_3 
REMARK    2  A    between atoms: C_3  and  O_6 
REMARK    3  A    between atoms: C_3  and  C_4 
REMARK    4  A    between atoms: C_7  and  O_6 
REMARK    5  A    between atoms: C_9  and  C_10 
REMARK    6  A    between atoms: N_15  and  C_14 
REMARK    7  A    between atoms: N_20  and  C_19 
REMARK       I    between atoms: C_22  and  N_20 
ROOT
ATOM      1  C   LIG d   1       2.065  84.282 114.068  0.00  0.00     0.161 C 
ATOM      2  C   LIG d   1       2.442  85.191 113.066  0.00  0.00     0.016 C 
ATOM      3  C   LIG d   1       2.925  86.492 113.337  0.00  0.00     0.038 C 
ATOM      4  C   LIG d   1       3.207  86.921 114.642  0.00  0.00     0.028 C 
ATOM      5  C   LIG d   1       2.368  86.220 115.705  0.00  0.00    -0.047 C 
ATOM      6  C   LIG d   1       2.472  84.692 115.499  0.00  0.00     0.091 C 
ENDROOT
BRANCH   1   7
ATOM      7  O   LIG d   1       2.579  82.972 113.757  0.00  0.00    -0.368 OA
BRANCH   7   8
ATOM      8  C   LIG d   1       3.009  82.764 112.389  0.00  0.00     0.119 C 
BRANCH   8   9
ATOM      9  C   LIG d   1       2.180  81.599 111.815  0.00  0.00     0.028 C 
ATOM     10  C   LIG d   1       1.508  80.759 112.915  0.00  0.00     0.006 C 
ENDBRANCH   8   9
BRANCH   8  11
ATOM     11  C   LIG d   1       4.466  82.293 112.329  0.00  0.00     0.028 C 
ATOM     12  C   LIG d   1       4.780  81.490 111.057  0.00  0.00     0.006 C 
ENDBRANCH   8  11
ENDBRANCH   7   8
ENDBRANCH   1   7
BRANCH   6  13
ATOM     13  N   LIG d   1       1.613  83.933 116.445  0.00  0.00    -0.311 N 
ATOM     14  C   LIG d   1       2.065  82.942 117.212  0.00  0.00     0.210 C 
ATOM     15  C   LIG d   1       1.008  82.279 118.101  0.00  0.00     0.109 C 
ATOM     16  O   LIG d   1       3.247  82.570 117.264  0.00  0.00    -0.276 OA
ATOM     17  H   LIG d   1       0.646  84.189 116.490  0.00  0.00     0.149 HD
ENDBRANCH   6  13
BRANCH   5  18
ATOM     18  N   LIG d   1       2.861  86.661 117.024  0.00  0.00     0.381 N 
ATOM     19  H   LIG d   1       3.696  87.199 116.911  0.00  0.00    -0.090 HD
ATOM     20  H   LIG d   1       3.080  85.850 117.576  0.00  0.00    -0.090 HD
ATOM     21  H   LIG d   1       2.165  87.206 117.483  0.00  0.00    -0.090 HD
ENDBRANCH   5  18
BRANCH   3  22
ATOM     22  C   LIG d   1       3.091  87.394 112.297  0.00  0.00     0.382 C 
ATOM     23  O   LIG d   1       4.245  87.696 111.908  0.00  0.00    -0.241 OA
ATOM     24  O   LIG d   1       2.104  87.943 111.772  0.00  0.00    -0.241 OA
ENDBRANCH   3  22
TORSDOF 7
ENDMDL
MODEL 8
REMARK VINA RESULT:      -4.4     15.229     19.107
REMARK  7 active torsions:
REMARK  status: ('A' for Active; 'I' for Inactive)
REMARK    1  A    between atoms: C_2  and  C_3 
REMARK    2  A    between atoms: C_3  and  O_6 
REMARK    3  A    between atoms: C_3  and  C_4 
REMARK    4  A    between atoms: C_7  and  O_6 
REMARK    5  A    between atoms: C_9  and  C_10 
REMARK    6  A    between atoms: N_15  and  C_14 
REMARK    7  A    between atoms: N_20  and  C_19 
REMARK       I    between atoms: C_22  and  N_20 
ROOT
ATOM      1  C   LIG d   1     -16.409  64.360 115.381  0.00  0.00     0.161 C 
ATOM      2  C   LIG d   1     -16.710  63.278 116.224  0.00  0.00     0.016 C 
ATOM      3  C   LIG d   1     -16.323  63.219 117.583  0.00  0.00     0.038 C 
ATOM      4  C   LIG d   1     -15.737  64.314 118.235  0.00  0.00     0.028 C 
ATOM      5  C   LIG d   1     -14.962  65.233 117.297  0.00  0.00    -0.047 C 
ATOM      6  C   LIG d   1     -15.867  65.612 116.103  0.00  0.00     0.091 C 
ENDROOT
BRANCH   1   7
ATOM      7  O   LIG d   1     -17.565  64.699 114.590  0.00  0.00    -0.368 OA
BRANCH   7   8
ATOM      8  C   LIG d   1     -18.850  64.324 115.145  0.00  0.00     0.119 C 
BRANCH   8   9
ATOM      9  C   LIG d   1     -19.762  63.921 113.971  0.00  0.00     0.028 C 
ATOM     10  C   LIG d   1     -20.014  65.086 112.998  0.00  0.00     0.006 C 
ENDBRANCH   8   9
BRANCH   8  11
ATOM     11  C   LIG d   1     -19.542  65.520 115.805  0.00  0.00     0.028 C 
ATOM     12  C   LIG d   1     -19.676  65.365 117.328  0.00  0.00     0.006 C 
ENDBRANCH   8  11
ENDBRANCH   7   8
ENDBRANCH   1   7
BRANCH   6  13
ATOM     13  N   LIG d   1     -15.158  66.441 115.094  0.00  0.00    -0.311 N 
ATOM     14  C   LIG d   1     -15.132  67.772 115.127  0.00  0.00     0.210 C 
ATOM     15  C   LIG d   1     -14.361  68.433 113.980  0.00  0.00     0.109 C 
ATOM     16  O   LIG d   1     -15.647  68.468 116.015  0.00  0.00    -0.276 OA
ATOM     17  H   LIG d   1     -14.687  65.957 114.355  0.00  0.00     0.149 HD
ENDBRANCH   6  13
BRANCH   5  18
ATOM     18  N   LIG d   1     -14.521  66.402 118.081  0.00  0.00     0.381 N 
ATOM     19  H   LIG d   1     -13.767  66.141 118.685  0.00  0.00    -0.090 HD
ATOM     20  H   LIG d   1     -15.286  66.718 118.652  0.00  0.00    -0.090 HD
ATOM     21  H   LIG d   1     -14.229  67.133 117.470  0.00  0.00    -0.090 HD
ENDBRANCH   5  18
BRANCH   3  22
ATOM     22  C   LIG d   1     -16.487  62.040 118.294  0.00  0.00     0.382 C 
ATOM     23  O   LIG d   1     -17.639  61.646 118.598  0.00  0.00    -0.241 OA
ATOM     24  O   LIG d   1     -15.496  61.388 118.674  0.00  0.00    -0.241 OA
ENDBRANCH   3  22
TORSDOF 7
ENDMDL
MODEL 9
REMARK VINA RESULT:      -4.4      9.732     11.807
REMARK  7 active torsions:
REMARK  status: ('A' for Active; 'I' for Inactive)
REMARK    1  A    between atoms: C_2  and  C_3 
REMARK    2  A    between atoms: C_3  and  O_6 
REMARK    3  A    between atoms: C_3  and  C_4 
REMARK    4  A    between atoms: C_7  and  O_6 
REMARK    5  A    between atoms: C_9  and  C_10 
REMARK    6  A    between atoms: N_15  and  C_14 
REMARK    7  A    between atoms: N_20  and  C_19 
REMARK       I    between atoms: C_22  and  N_20 
ROOT
ATOM      1  C   LIG d   1       3.238  86.432 115.671  0.00  0.00     0.161 C 
ATOM      2  C   LIG d   1       3.169  87.023 114.399  0.00  0.00     0.016 C 
ATOM      3  C   LIG d   1       2.588  86.388 113.277  0.00  0.00     0.038 C 
ATOM      4  C   LIG d   1       1.896  85.173 113.388  0.00  0.00     0.028 C 
ATOM      5  C   LIG d   1       2.378  84.305 114.546  0.00  0.00    -0.047 C 
ATOM      6  C   LIG d   1       2.390  85.154 115.838  0.00  0.00     0.091 C 
ENDROOT
BRANCH   1   7
ATOM      7  O   LIG d   1       2.887  87.401 116.679  0.00  0.00    -0.368 OA
BRANCH   7   8
ATOM      8  C   LIG d   1       2.452  88.696 116.195  0.00  0.00     0.119 C 
BRANCH   8   9
ATOM      9  C   LIG d   1       3.443  89.747 116.731  0.00  0.00     0.028 C 
ATOM     10  C   LIG d   1       2.744  90.850 117.544  0.00  0.00     0.006 C 
ENDBRANCH   8   9
BRANCH   8  11
ATOM     11  C   LIG d   1       1.092  89.083 116.782  0.00  0.00     0.028 C 
ATOM     12  C   LIG d   1       0.151  87.879 116.950  0.00  0.00     0.006 C 
ENDBRANCH   8  11
ENDBRANCH   7   8
ENDBRANCH   1   7
BRANCH   6  13
ATOM     13  N   LIG d   1       2.929  84.405 117.003  0.00  0.00    -0.311 N 
ATOM     14  C   LIG d   1       2.215  84.134 118.094  0.00  0.00     0.210 C 
ATOM     15  C   LIG d   1       2.968  83.368 119.186  0.00  0.00     0.109 C 
ATOM     16  O   LIG d   1       1.019  84.426 118.248  0.00  0.00    -0.276 OA
ATOM     17  H   LIG d   1       3.882  84.102 116.949  0.00  0.00     0.149 HD
ENDBRANCH   6  13
BRANCH   5  18
ATOM     18  N   LIG d   1       1.483  83.136 114.630  0.00  0.00     0.381 N 
ATOM     19  H   LIG d   1       1.638  82.652 115.491  0.00  0.00    -0.090 HD
ATOM     20  H   LIG d   1       1.694  82.510 113.873  0.00  0.00    -0.090 HD
ATOM     21  H   LIG d   1       0.532  83.430 114.572  0.00  0.00    -0.090 HD
ENDBRANCH   5  18
BRANCH   3  22
ATOM     22  C   LIG d   1       2.731  86.952 112.018  0.00  0.00     0.382 C 
ATOM     23  O   LIG d   1       3.518  86.438 111.186  0.00  0.00    -0.241 OA
ATOM     24  O   LIG d   1       2.117  87.993 111.719  0.00  0.00    -0.241 OA
ENDBRANCH   3  22
TORSDOF 7
ENDMDL
