MODEL 1
REMARK VINA RESULT:      -5.4      0.000      0.000
REMARK  7 active torsions:
REMARK  status: ('A' for Active; 'I' for Inactive)
REMARK    1  A    between atoms: C_2  and  C_3 
REMARK    2  A    between atoms: C_3  and  O_6 
REMARK    3  A    between atoms: C_3  and  C_4 
REMARK    4  A    between atoms: C_7  and  O_6 
REMARK    5  A    between atoms: C_9  and  C_10 
REMARK    6  A    between atoms: N_15  and  C_14 
REMARK    7  A    between atoms: N_20  and  C_19 
REMARK       I    between atoms: C_22  and  N_20 
ROOT
ATOM      1  C   LIG d   1      -7.212  75.590 117.004  0.00  0.00     0.161 C 
ATOM      2  C   LIG d   1      -6.114  75.932 116.197  0.00  0.00     0.016 C 
ATOM      3  C   LIG d   1      -5.418  75.000 115.394  0.00  0.00     0.038 C 
ATOM      4  C   LIG d   1      -5.871  73.683 115.225  0.00  0.00     0.028 C 
ATOM      5  C   LIG d   1      -6.676  73.163 116.411  0.00  0.00    -0.047 C 
ATOM      6  C   LIG d   1      -7.789  74.182 116.748  0.00  0.00     0.091 C 
ENDROOT
BRANCH   1   7
ATOM      7  O   LIG d   1      -8.246  76.586 116.872  0.00  0.00    -0.368 OA
BRANCH   7   8
ATOM      8  C   LIG d   1      -8.515  77.385 118.050  0.00  0.00     0.119 C 
BRANCH   8   9
ATOM      9  C   LIG d   1     -10.043  77.415 118.249  0.00  0.00     0.028 C 
ATOM     10  C   LIG d   1     -10.507  78.652 119.037  0.00  0.00     0.006 C 
ENDBRANCH   8   9
BRANCH   8  11
ATOM     11  C   LIG d   1      -8.105  78.846 117.838  0.00  0.00     0.028 C 
ATOM     12  C   LIG d   1      -6.629  79.105 118.177  0.00  0.00     0.006 C 
ENDBRANCH   8  11
ENDBRANCH   7   8
ENDBRANCH   1   7
BRANCH   6  13
ATOM     13  N   LIG d   1      -8.571  73.790 117.950  0.00  0.00    -0.311 N 
ATOM     14  C   LIG d   1      -9.898  73.678 117.956  0.00  0.00     0.210 C 
ATOM     15  C   LIG d   1     -10.507  73.283 119.305  0.00  0.00     0.109 C 
ATOM     16  O   LIG d   1     -10.626  73.837 116.965  0.00  0.00    -0.276 OA
ATOM     17  H   LIG d   1      -8.057  73.612 118.790  0.00  0.00     0.149 HD
ENDBRANCH   6  13
BRANCH   5  18
ATOM     18  N   LIG d   1      -7.200  71.834 116.045  0.00  0.00     0.381 N 
ATOM     19  H   LIG d   1      -6.530  71.129 116.280  0.00  0.00    -0.090 HD
ATOM     20  H   LIG d   1      -7.352  71.806 115.052  0.00  0.00    -0.090 HD
ATOM     21  H   LIG d   1      -8.057  71.661 116.524  0.00  0.00    -0.090 HD
ENDBRANCH   5  18
BRANCH   3  22
ATOM     22  C   LIG d   1      -4.233  75.373 114.779  0.00  0.00     0.382 C 
ATOM     23  O   LIG d   1      -4.237  76.266 113.898  0.00  0.00    -0.241 OA
ATOM     24  O   LIG d   1      -3.166  74.797 115.063  0.00  0.00    -0.241 OA
ENDBRANCH   3  22
TORSDOF 7
ENDMDL
MODEL 2
REMARK VINA RESULT:      -5.3      2.317      5.181
REMARK  7 active torsions:
REMARK  status: ('A' for Active; 'I' for Inactive)
REMARK    1  A    between atoms: C_2  and  C_3 
REMARK    2  A    between atoms: C_3  and  O_6 
REMARK    3  A    between atoms: C_3  and  C_4 
REMARK    4  A    between atoms: C_7  and  O_6 
REMARK    5  A    between atoms: C_9  and  C_10 
REMARK    6  A    between atoms: N_15  and  C_14 
REMARK    7  A    between atoms: N_20  and  C_19 
REMARK       I    between atoms: C_22  and  N_20 
ROOT
ATOM      1  C   LIG d   1      -7.683  74.545 117.009  0.00  0.00     0.161 C 
ATOM      2  C   LIG d   1      -7.740  73.166 116.747  0.00  0.00     0.016 C 
ATOM      3  C   LIG d   1      -8.787  72.330 117.198  0.00  0.00     0.038 C 
ATOM      4  C   LIG d   1      -9.934  72.847 117.818  0.00  0.00     0.028 C 
ATOM      5  C   LIG d   1      -9.685  74.162 118.550  0.00  0.00    -0.047 C 
ATOM      6  C   LIG d   1      -8.981  75.146 117.588  0.00  0.00     0.091 C 
ENDROOT
BRANCH   1   7
ATOM      7  O   LIG d   1      -7.291  75.253 115.817  0.00  0.00    -0.368 OA
BRANCH   7   8
ATOM      8  C   LIG d   1      -6.044  74.836 115.208  0.00  0.00     0.119 C 
BRANCH   8   9
ATOM      9  C   LIG d   1      -4.904  75.246 116.161  0.00  0.00     0.028 C 
ATOM     10  C   LIG d   1      -3.514  74.931 115.582  0.00  0.00     0.006 C 
ENDBRANCH   8   9
BRANCH   8  11
ATOM     11  C   LIG d   1      -5.778  75.596 113.906  0.00  0.00     0.028 C 
ATOM     12  C   LIG d   1      -7.053  76.199 113.297  0.00  0.00     0.006 C 
ENDBRANCH   8  11
ENDBRANCH   7   8
ENDBRANCH   1   7
BRANCH   6  13
ATOM     13  N   LIG d   1      -8.625  76.429 118.250  0.00  0.00    -0.311 N 
ATOM     14  C   LIG d   1      -9.462  77.461 118.346  0.00  0.00     0.210 C 
ATOM     15  C   LIG d   1      -8.889  78.695 119.049  0.00  0.00     0.109 C 
ATOM     16  O   LIG d   1     -10.635  77.460 117.943  0.00  0.00    -0.276 OA
ATOM     17  H   LIG d   1      -7.703  76.505 118.632  0.00  0.00     0.149 HD
ENDBRANCH   6  13
BRANCH   5  18
ATOM     18  N   LIG d   1     -10.989  74.658 119.031  0.00  0.00     0.381 N 
ATOM     19  H   LIG d   1     -10.974  74.739 120.028  0.00  0.00    -0.090 HD
ATOM     20  H   LIG d   1     -11.701  73.995 118.779  0.00  0.00    -0.090 HD
ATOM     21  H   LIG d   1     -11.189  75.543 118.621  0.00  0.00    -0.090 HD
ENDBRANCH   5  18
BRANCH   3  22
ATOM     22  C   LIG d   1      -8.674  70.954 117.066  0.00  0.00     0.382 C 
ATOM     23  O   LIG d   1      -7.839  70.468 116.265  0.00  0.00    -0.241 OA
ATOM     24  O   LIG d   1      -9.426  70.194 117.704  0.00  0.00    -0.241 OA
ENDBRANCH   3  22
TORSDOF 7
ENDMDL
MODEL 3
REMARK VINA RESULT:      -5.3      3.956      6.344
REMARK  7 active torsions:
REMARK  status: ('A' for Active; 'I' for Inactive)
REMARK    1  A    between atoms: C_2  and  C_3 
REMARK    2  A    between atoms: C_3  and  O_6 
REMARK    3  A    between atoms: C_3  and  C_4 
REMARK    4  A    between atoms: C_7  and  O_6 
REMARK    5  A    between atoms: C_9  and  C_10 
REMARK    6  A    between atoms: N_15  and  C_14 
REMARK    7  A    between atoms: N_20  and  C_19 
REMARK       I    between atoms: C_22  and  N_20 
ROOT
ATOM      1  C   LIG d   1      -3.468  76.412 115.024  0.00  0.00     0.161 C 
ATOM      2  C   LIG d   1      -3.519  77.451 114.080  0.00  0.00     0.016 C 
ATOM      3  C   LIG d   1      -2.367  78.048 113.518  0.00  0.00     0.038 C 
ATOM      4  C   LIG d   1      -1.080  77.540 113.750  0.00  0.00     0.028 C 
ATOM      5  C   LIG d   1      -0.946  76.818 115.086  0.00  0.00    -0.047 C 
ATOM      6  C   LIG d   1      -2.077  75.770 115.206  0.00  0.00     0.091 C 
ENDROOT
BRANCH   1   7
ATOM      7  O   LIG d   1      -4.445  75.404 114.695  0.00  0.00    -0.368 OA
BRANCH   7   8
ATOM      8  C   LIG d   1      -5.498  75.196 115.668  0.00  0.00     0.119 C 
BRANCH   8   9
ATOM      9  C   LIG d   1      -5.572  73.683 115.953  0.00  0.00     0.028 C 
ATOM     10  C   LIG d   1      -6.986  73.230 116.355  0.00  0.00     0.006 C 
ENDBRANCH   8   9
BRANCH   8  11
ATOM     11  C   LIG d   1      -6.869  75.568 115.095  0.00  0.00     0.028 C 
ATOM     12  C   LIG d   1      -6.802  75.990 113.618  0.00  0.00     0.006 C 
ENDBRANCH   8  11
ENDBRANCH   7   8
ENDBRANCH   1   7
BRANCH   6  13
ATOM     13  N   LIG d   1      -2.069  75.077 116.520  0.00  0.00    -0.311 N 
ATOM     14  C   LIG d   1      -1.463  73.909 116.730  0.00  0.00     0.210 C 
ATOM     15  C   LIG d   1      -1.595  73.358 118.153  0.00  0.00     0.109 C 
ATOM     16  O   LIG d   1      -0.802  73.293 115.880  0.00  0.00    -0.276 OA
ATOM     17  H   LIG d   1      -2.556  75.522 117.274  0.00  0.00     0.149 HD
ENDBRANCH   6  13
BRANCH   5  18
ATOM     18  N   LIG d   1       0.402  76.222 115.137  0.00  0.00     0.381 N 
ATOM     19  H   LIG d   1       0.902  76.583 115.925  0.00  0.00    -0.090 HD
ATOM     20  H   LIG d   1       0.902  76.476 114.303  0.00  0.00    -0.090 HD
ATOM     21  H   LIG d   1       0.334  75.230 115.203  0.00  0.00    -0.090 HD
ENDBRANCH   5  18
BRANCH   3  22
ATOM     22  C   LIG d   1      -2.495  79.191 112.743  0.00  0.00     0.382 C 
ATOM     23  O   LIG d   1      -3.423  80.004 112.973  0.00  0.00    -0.241 OA
ATOM     24  O   LIG d   1      -1.720  79.398 111.790  0.00  0.00    -0.241 OA
ENDBRANCH   3  22
TORSDOF 7
ENDMDL
MODEL 4
REMARK VINA RESULT:      -5.3      2.122      5.075
REMARK  7 active torsions:
REMARK  status: ('A' for Active; 'I' for Inactive)
REMARK    1  A    between atoms: C_2  and  C_3 
REMARK    2  A    between atoms: C_3  and  O_6 
REMARK    3  A    between atoms: C_3  and  C_4 
REMARK    4  A    between atoms: C_7  and  O_6 
REMARK    5  A    between atoms: C_9  and  C_10 
REMARK    6  A    between atoms: N_15  and  C_14 
REMARK    7  A    between atoms: N_20  and  C_19 
REMARK       I    between atoms: C_22  and  N_20 
ROOT
ATOM      1  C   LIG d   1      -7.597  75.864 117.196  0.00  0.00     0.161 C 
ATOM      2  C   LIG d   1      -7.855  77.220 117.460  0.00  0.00     0.016 C 
ATOM      3  C   LIG d   1      -9.112  77.703 117.891  0.00  0.00     0.038 C 
ATOM      4  C   LIG d   1     -10.161  76.838 118.235  0.00  0.00     0.028 C 
ATOM      5  C   LIG d   1     -10.108  75.501 117.502  0.00  0.00    -0.047 C 
ATOM      6  C   LIG d   1      -8.697  74.892 117.671  0.00  0.00     0.091 C 
ENDROOT
BRANCH   1   7
ATOM      7  O   LIG d   1      -6.323  75.491 117.755  0.00  0.00    -0.368 OA
BRANCH   7   8
ATOM      8  C   LIG d   1      -5.189  75.552 116.855  0.00  0.00     0.119 C 
BRANCH   8   9
ATOM      9  C   LIG d   1      -5.223  74.283 115.981  0.00  0.00     0.028 C 
ATOM     10  C   LIG d   1      -5.376  74.605 114.485  0.00  0.00     0.006 C 
ENDBRANCH   8   9
BRANCH   8  11
ATOM     11  C   LIG d   1      -3.865  75.481 117.622  0.00  0.00     0.028 C 
ATOM     12  C   LIG d   1      -3.077  74.194 117.331  0.00  0.00     0.006 C 
ENDBRANCH   8  11
ENDBRANCH   7   8
ENDBRANCH   1   7
BRANCH   6  13
ATOM     13  N   LIG d   1      -8.534  73.623 116.915  0.00  0.00    -0.311 N 
ATOM     14  C   LIG d   1      -8.758  72.421 117.443  0.00  0.00     0.210 C 
ATOM     15  C   LIG d   1      -8.510  71.243 116.496  0.00  0.00     0.109 C 
ATOM     16  O   LIG d   1      -9.169  72.220 118.595  0.00  0.00    -0.276 OA
ATOM     17  H   LIG d   1      -8.233  73.695 115.963  0.00  0.00     0.149 HD
ENDBRANCH   6  13
BRANCH   5  18
ATOM     18  N   LIG d   1     -11.176  74.647 118.055  0.00  0.00     0.381 N 
ATOM     19  H   LIG d   1     -11.290  73.834 117.484  0.00  0.00    -0.090 HD
ATOM     20  H   LIG d   1     -12.040  75.161 118.047  0.00  0.00    -0.090 HD
ATOM     21  H   LIG d   1     -10.950  74.379 118.987  0.00  0.00    -0.090 HD
ENDBRANCH   5  18
BRANCH   3  22
ATOM     22  C   LIG d   1      -9.341  79.070 117.945  0.00  0.00     0.382 C 
ATOM     23  O   LIG d   1     -10.500  79.504 118.148  0.00  0.00    -0.241 OA
ATOM     24  O   LIG d   1      -8.411  79.874 117.748  0.00  0.00    -0.241 OA
ENDBRANCH   3  22
TORSDOF 7
ENDMDL
MODEL 5
REMARK VINA RESULT:      -5.2     13.148     15.466
REMARK  7 active torsions:
REMARK  status: ('A' for Active; 'I' for Inactive)
REMARK    1  A    between atoms: C_2  and  C_3 
REMARK    2  A    between atoms: C_3  and  O_6 
REMARK    3  A    between atoms: C_3  and  C_4 
REMARK    4  A    between atoms: C_7  and  O_6 
REMARK    5  A    between atoms: C_9  and  C_10 
REMARK    6  A    between atoms: N_15  and  C_14 
REMARK    7  A    between atoms: N_20  and  C_19 
REMARK       I    between atoms: C_22  and  N_20 
ROOT
ATOM      1  C   LIG d   1       3.242  85.234 113.142  0.00  0.00     0.161 C 
ATOM      2  C   LIG d   1       4.032  86.372 113.378  0.00  0.00     0.016 C 
ATOM      3  C   LIG d   1       3.709  87.659 112.891  0.00  0.00     0.038 C 
ATOM      4  C   LIG d   1       2.486  87.926 112.257  0.00  0.00     0.028 C 
ATOM      5  C   LIG d   1       1.890  86.711 111.554  0.00  0.00    -0.047 C 
ATOM      6  C   LIG d   1       1.849  85.527 112.547  0.00  0.00     0.091 C 
ENDROOT
BRANCH   1   7
ATOM      7  O   LIG d   1       3.118  84.465 114.354  0.00  0.00    -0.368 OA
BRANCH   7   8
ATOM      8  C   LIG d   1       3.151  85.216 115.592  0.00  0.00     0.119 C 
BRANCH   8   9
ATOM      9  C   LIG d   1       4.113  84.488 116.550  0.00  0.00     0.028 C 
ATOM     10  C   LIG d   1       5.222  85.411 117.084  0.00  0.00     0.006 C 
ENDBRANCH   8   9
BRANCH   8  11
ATOM     11  C   LIG d   1       1.790  85.197 116.293  0.00  0.00     0.028 C 
ATOM     12  C   LIG d   1       1.480  86.510 117.030  0.00  0.00     0.006 C 
ENDBRANCH   8  11
ENDBRANCH   7   8
ENDBRANCH   1   7
BRANCH   6  13
ATOM     13  N   LIG d   1       1.357  84.275 111.916  0.00  0.00    -0.311 N 
ATOM     14  C   LIG d   1       0.091  83.868 111.984  0.00  0.00     0.210 C 
ATOM     15  C   LIG d   1      -0.200  82.538 111.280  0.00  0.00     0.109 C 
ATOM     16  O   LIG d   1      -0.826  84.498 112.532  0.00  0.00    -0.276 OA
ATOM     17  H   LIG d   1       2.028  83.718 111.424  0.00  0.00     0.149 HD
ENDBRANCH   6  13
BRANCH   5  18
ATOM     18  N   LIG d   1       0.556  87.095 111.056  0.00  0.00     0.381 N 
ATOM     19  H   LIG d   1       0.595  88.009 110.651  0.00  0.00    -0.090 HD
ATOM     20  H   LIG d   1      -0.085  87.120 111.829  0.00  0.00    -0.090 HD
ATOM     21  H   LIG d   1       0.243  86.436 110.377  0.00  0.00    -0.090 HD
ENDBRANCH   5  18
BRANCH   3  22
ATOM     22  C   LIG d   1       4.632  88.688 113.001  0.00  0.00     0.382 C 
ATOM     23  O   LIG d   1       5.798  88.533 112.564  0.00  0.00    -0.241 OA
ATOM     24  O   LIG d   1       4.327  89.752 113.572  0.00  0.00    -0.241 OA
ENDBRANCH   3  22
TORSDOF 7
ENDMDL
MODEL 6
REMARK VINA RESULT:      -5.0      2.624      6.111
REMARK  7 active torsions:
REMARK  status: ('A' for Active; 'I' for Inactive)
REMARK    1  A    between atoms: C_2  and  C_3 
REMARK    2  A    between atoms: C_3  and  O_6 
REMARK    3  A    between atoms: C_3  and  C_4 
REMARK    4  A    between atoms: C_7  and  O_6 
REMARK    5  A    between atoms: C_9  and  C_10 
REMARK    6  A    between atoms: N_15  and  C_14 
REMARK    7  A    between atoms: N_20  and  C_19 
REMARK       I    between atoms: C_22  and  N_20 
ROOT
ATOM      1  C   LIG d   1      -7.625  76.483 117.343  0.00  0.00     0.161 C 
ATOM      2  C   LIG d   1      -8.417  75.332 117.200  0.00  0.00     0.016 C 
ATOM      3  C   LIG d   1      -9.783  75.277 117.561  0.00  0.00     0.038 C 
ATOM      4  C   LIG d   1     -10.493  76.423 117.951  0.00  0.00     0.028 C 
ATOM      5  C   LIG d   1      -9.613  77.492 118.590  0.00  0.00    -0.047 C 
ATOM      6  C   LIG d   1      -8.410  77.773 117.662  0.00  0.00     0.091 C 
ENDROOT
BRANCH   1   7
ATOM      7  O   LIG d   1      -6.815  76.669 116.164  0.00  0.00    -0.368 OA
BRANCH   7   8
ATOM      8  C   LIG d   1      -5.937  75.571 115.816  0.00  0.00     0.119 C 
BRANCH   8   9
ATOM      9  C   LIG d   1      -4.503  75.986 116.198  0.00  0.00     0.028 C 
ATOM     10  C   LIG d   1      -3.437  75.232 115.385  0.00  0.00     0.006 C 
ENDBRANCH   8   9
BRANCH   8  11
ATOM     11  C   LIG d   1      -5.903  75.343 114.302  0.00  0.00     0.028 C 
ATOM     12  C   LIG d   1      -6.990  76.134 113.556  0.00  0.00     0.006 C 
ENDBRANCH   8  11
ENDBRANCH   7   8
ENDBRANCH   1   7
BRANCH   6  13
ATOM     13  N   LIG d   1      -7.454  78.747 118.251  0.00  0.00    -0.311 N 
ATOM     14  C   LIG d   1      -7.548  80.064 118.076  0.00  0.00     0.210 C 
ATOM     15  C   LIG d   1      -6.449  80.887 118.754  0.00  0.00     0.109 C 
ATOM     16  O   LIG d   1      -8.457  80.631 117.450  0.00  0.00    -0.276 OA
ATOM     17  H   LIG d   1      -6.704  78.375 118.800  0.00  0.00     0.149 HD
ENDBRANCH   6  13
BRANCH   5  18
ATOM     18  N   LIG d   1     -10.455  78.681 118.822  0.00  0.00     0.381 N 
ATOM     19  H   LIG d   1     -11.204  78.450 119.444  0.00  0.00    -0.090 HD
ATOM     20  H   LIG d   1     -10.852  78.974 117.946  0.00  0.00    -0.090 HD
ATOM     21  H   LIG d   1      -9.906  79.417 119.209  0.00  0.00    -0.090 HD
ENDBRANCH   5  18
BRANCH   3  22
ATOM     22  C   LIG d   1     -10.442  74.058 117.572  0.00  0.00     0.382 C 
ATOM     23  O   LIG d   1     -10.021  73.111 116.865  0.00  0.00    -0.241 OA
ATOM     24  O   LIG d   1     -11.479  73.906 118.245  0.00  0.00    -0.241 OA
ENDBRANCH   3  22
TORSDOF 7
ENDMDL
MODEL 7
REMARK VINA RESULT:      -5.0      1.914      4.080
REMARK  7 active torsions:
REMARK  status: ('A' for Active; 'I' for Inactive)
REMARK    1  A    between atoms: C_2  and  C_3 
REMARK    2  A    between atoms: C_3  and  O_6 
REMARK    3  A    between atoms: C_3  and  C_4 
REMARK    4  A    between atoms: C_7  and  O_6 
REMARK    5  A    between atoms: C_9  and  C_10 
REMARK    6  A    between atoms: N_15  and  C_14 
REMARK    7  A    between atoms: N_20  and  C_19 
REMARK       I    between atoms: C_22  and  N_20 
ROOT
ATOM      1  C   LIG d   1      -7.675  74.770 117.052  0.00  0.00     0.161 C 
ATOM      2  C   LIG d   1      -6.794  74.585 115.974  0.00  0.00     0.016 C 
ATOM      3  C   LIG d   1      -5.672  75.411 115.735  0.00  0.00     0.038 C 
ATOM      4  C   LIG d   1      -5.266  76.393 116.651  0.00  0.00     0.028 C 
ATOM      5  C   LIG d   1      -6.411  76.947 117.493  0.00  0.00    -0.047 C 
ATOM      6  C   LIG d   1      -7.186  75.767 118.123  0.00  0.00     0.091 C 
ENDROOT
BRANCH   1   7
ATOM      7  O   LIG d   1      -7.984  73.498 117.655  0.00  0.00    -0.368 OA
BRANCH   7   8
ATOM      8  C   LIG d   1      -9.265  72.920 117.305  0.00  0.00     0.119 C 
BRANCH   8   9
ATOM      9  C   LIG d   1     -10.152  72.962 118.564  0.00  0.00     0.028 C 
ATOM     10  C   LIG d   1     -11.466  73.727 118.331  0.00  0.00     0.006 C 
ENDBRANCH   8   9
BRANCH   8  11
ATOM     11  C   LIG d   1      -9.130  71.436 116.953  0.00  0.00     0.028 C 
ATOM     12  C   LIG d   1      -7.782  71.099 116.296  0.00  0.00     0.006 C 
ENDBRANCH   8  11
ENDBRANCH   7   8
ENDBRANCH   1   7
BRANCH   6  13
ATOM     13  N   LIG d   1      -8.374  76.217 118.895  0.00  0.00    -0.311 N 
ATOM     14  C   LIG d   1      -9.482  76.689 118.326  0.00  0.00     0.210 C 
ATOM     15  C   LIG d   1     -10.580  77.116 119.305  0.00  0.00     0.109 C 
ATOM     16  O   LIG d   1      -9.672  76.764 117.103  0.00  0.00    -0.276 OA
ATOM     17  H   LIG d   1      -8.318  76.161 119.893  0.00  0.00     0.149 HD
ENDBRANCH   6  13
BRANCH   5  18
ATOM     18  N   LIG d   1      -5.828  77.857 118.495  0.00  0.00     0.381 N 
ATOM     19  H   LIG d   1      -5.964  77.483 119.413  0.00  0.00    -0.090 HD
ATOM     20  H   LIG d   1      -6.299  78.743 118.443  0.00  0.00    -0.090 HD
ATOM     21  H   LIG d   1      -4.855  77.979 118.320  0.00  0.00    -0.090 HD
ENDBRANCH   5  18
BRANCH   3  22
ATOM     22  C   LIG d   1      -4.965  75.284 114.549  0.00  0.00     0.382 C 
ATOM     23  O   LIG d   1      -4.054  74.428 114.451  0.00  0.00    -0.241 OA
ATOM     24  O   LIG d   1      -5.197  76.046 113.591  0.00  0.00    -0.241 OA
ENDBRANCH   3  22
TORSDOF 7
ENDMDL
MODEL 8
REMARK VINA RESULT:      -4.7      1.891      4.202
REMARK  7 active torsions:
REMARK  status: ('A' for Active; 'I' for Inactive)
REMARK    1  A    between atoms: C_2  and  C_3 
REMARK    2  A    between atoms: C_3  and  O_6 
REMARK    3  A    between atoms: C_3  and  C_4 
REMARK    4  A    between atoms: C_7  and  O_6 
REMARK    5  A    between atoms: C_9  and  C_10 
REMARK    6  A    between atoms: N_15  and  C_14 
REMARK    7  A    between atoms: N_20  and  C_19 
REMARK       I    between atoms: C_22  and  N_20 
ROOT
ATOM      1  C   LIG d   1      -7.651  74.738 116.976  0.00  0.00     0.161 C 
ATOM      2  C   LIG d   1      -6.742  74.578 115.917  0.00  0.00     0.016 C 
ATOM      3  C   LIG d   1      -5.664  75.461 115.677  0.00  0.00     0.038 C 
ATOM      4  C   LIG d   1      -5.330  76.485 116.576  0.00  0.00     0.028 C 
ATOM      5  C   LIG d   1      -6.519  76.991 117.386  0.00  0.00    -0.047 C 
ATOM      6  C   LIG d   1      -7.237  75.784 118.032  0.00  0.00     0.091 C 
ENDROOT
BRANCH   1   7
ATOM      7  O   LIG d   1      -7.898  73.464 117.604  0.00  0.00    -0.368 OA
BRANCH   7   8
ATOM      8  C   LIG d   1      -9.289  73.095 117.772  0.00  0.00     0.119 C 
BRANCH   8   9
ATOM      9  C   LIG d   1      -9.416  71.598 117.433  0.00  0.00     0.028 C 
ATOM     10  C   LIG d   1      -8.313  71.118 116.475  0.00  0.00     0.006 C 
ENDBRANCH   8   9
BRANCH   8  11
ATOM     11  C   LIG d   1     -10.184  73.818 116.760  0.00  0.00     0.028 C 
ATOM     12  C   LIG d   1     -11.416  74.466 117.410  0.00  0.00     0.006 C 
ENDBRANCH   8  11
ENDBRANCH   7   8
ENDBRANCH   1   7
BRANCH   6  13
ATOM     13  N   LIG d   1      -8.462  76.184 118.773  0.00  0.00    -0.311 N 
ATOM     14  C   LIG d   1      -9.264  77.174 118.385  0.00  0.00     0.210 C 
ATOM     15  C   LIG d   1     -10.461  77.434 119.305  0.00  0.00     0.109 C 
ATOM     16  O   LIG d   1      -9.115  77.840 117.350  0.00  0.00    -0.276 OA
ATOM     17  H   LIG d   1      -8.675  75.675 119.609  0.00  0.00     0.149 HD
ENDBRANCH   6  13
BRANCH   5  18
ATOM     18  N   LIG d   1      -6.005  77.956 118.377  0.00  0.00     0.381 N 
ATOM     19  H   LIG d   1      -6.735  78.584 118.649  0.00  0.00    -0.090 HD
ATOM     20  H   LIG d   1      -5.268  78.493 117.955  0.00  0.00    -0.090 HD
ATOM     21  H   LIG d   1      -5.658  77.472 119.176  0.00  0.00    -0.090 HD
ENDBRANCH   5  18
BRANCH   3  22
ATOM     22  C   LIG d   1      -4.931  75.348 114.506  0.00  0.00     0.382 C 
ATOM     23  O   LIG d   1      -3.835  74.738 114.509  0.00  0.00    -0.241 OA
ATOM     24  O   LIG d   1      -5.330  75.887 113.456  0.00  0.00    -0.241 OA
ENDBRANCH   3  22
TORSDOF 7
ENDMDL
MODEL 9
REMARK VINA RESULT:      -4.6     11.993     14.893
REMARK  7 active torsions:
REMARK  status: ('A' for Active; 'I' for Inactive)
REMARK    1  A    between atoms: C_2  and  C_3 
REMARK    2  A    between atoms: C_3  and  O_6 
REMARK    3  A    between atoms: C_3  and  C_4 
REMARK    4  A    between atoms: C_7  and  O_6 
REMARK    5  A    between atoms: C_9  and  C_10 
REMARK    6  A    between atoms: N_15  and  C_14 
REMARK    7  A    between atoms: N_20  and  C_19 
REMARK       I    between atoms: C_22  and  N_20 
ROOT
ATOM      1  C   LIG d   1     -16.291  64.510 115.583  0.00  0.00     0.161 C 
ATOM      2  C   LIG d   1     -17.091  65.025 114.550  0.00  0.00     0.016 C 
ATOM      3  C   LIG d   1     -18.305  64.430 114.135  0.00  0.00     0.038 C 
ATOM      4  C   LIG d   1     -18.881  63.358 114.832  0.00  0.00     0.028 C 
ATOM      5  C   LIG d   1     -17.860  62.493 115.565  0.00  0.00    -0.047 C 
ATOM      6  C   LIG d   1     -16.958  63.405 116.428  0.00  0.00     0.091 C 
ENDROOT
BRANCH   1   7
ATOM      7  O   LIG d   1     -15.836  65.583 116.430  0.00  0.00    -0.368 OA
BRANCH   7   8
ATOM      8  C   LIG d   1     -16.662  66.774 116.449  0.00  0.00     0.119 C 
BRANCH   8   9
ATOM      9  C   LIG d   1     -15.718  67.992 116.446  0.00  0.00     0.028 C 
ATOM     10  C   LIG d   1     -14.958  68.142 115.118  0.00  0.00     0.006 C 
ENDBRANCH   8   9
BRANCH   8  11
ATOM     11  C   LIG d   1     -17.457  66.880 117.754  0.00  0.00     0.028 C 
ATOM     12  C   LIG d   1     -17.299  68.247 118.439  0.00  0.00     0.006 C 
ENDBRANCH   8  11
ENDBRANCH   7   8
ENDBRANCH   1   7
BRANCH   6  13
ATOM     13  N   LIG d   1     -15.878  62.648 117.114  0.00  0.00    -0.311 N 
ATOM     14  C   LIG d   1     -15.619  62.758 118.416  0.00  0.00     0.210 C 
ATOM     15  C   LIG d   1     -14.449  61.904 118.916  0.00  0.00     0.109 C 
ATOM     16  O   LIG d   1     -16.267  63.456 119.210  0.00  0.00    -0.276 OA
ATOM     17  H   LIG d   1     -15.323  62.034 116.550  0.00  0.00     0.149 HD
ENDBRANCH   6  13
BRANCH   5  18
ATOM     18  N   LIG d   1     -18.606  61.499 116.359  0.00  0.00     0.381 N 
ATOM     19  H   LIG d   1     -19.589  61.664 116.271  0.00  0.00    -0.090 HD
ATOM     20  H   LIG d   1     -18.355  61.601 117.327  0.00  0.00    -0.090 HD
ATOM     21  H   LIG d   1     -18.387  60.579 116.047  0.00  0.00    -0.090 HD
ENDBRANCH   5  18
BRANCH   3  22
ATOM     22  C   LIG d   1     -18.935  64.884 112.987  0.00  0.00     0.382 C 
ATOM     23  O   LIG d   1     -18.262  65.405 112.066  0.00  0.00    -0.241 OA
ATOM     24  O   LIG d   1     -20.175  64.819 112.879  0.00  0.00    -0.241 OA
ENDBRANCH   3  22
TORSDOF 7
ENDMDL
