MODEL 1
REMARK VINA RESULT:      -5.4      0.000      0.000
REMARK  7 active torsions:
REMARK  status: ('A' for Active; 'I' for Inactive)
REMARK    1  A    between atoms: C_2  and  C_3 
REMARK    2  A    between atoms: C_3  and  O_6 
REMARK    3  A    between atoms: C_3  and  C_4 
REMARK    4  A    between atoms: C_7  and  O_6 
REMARK    5  A    between atoms: C_9  and  C_10 
REMARK    6  A    between atoms: N_15  and  C_14 
REMARK    7  A    between atoms: N_20  and  C_19 
REMARK       I    between atoms: C_22  and  N_20 
ROOT
ATOM      1  C   LIG d   1      -7.344  76.815 117.695  0.00  0.00     0.161 C 
ATOM      2  C   LIG d   1      -8.078  75.618 117.704  0.00  0.00     0.016 C 
ATOM      3  C   LIG d   1      -9.438  75.542 118.085  0.00  0.00     0.038 C 
ATOM      4  C   LIG d   1     -10.202  76.690 118.340  0.00  0.00     0.028 C 
ATOM      5  C   LIG d   1      -9.373  77.872 118.833  0.00  0.00    -0.047 C 
ATOM      6  C   LIG d   1      -8.190  78.094 117.863  0.00  0.00     0.091 C 
ENDROOT
BRANCH   1   7
ATOM      7  O   LIG d   1      -6.551  76.893 116.494  0.00  0.00    -0.368 OA
BRANCH   7   8
ATOM      8  C   LIG d   1      -6.191  75.629 115.885  0.00  0.00     0.119 C 
BRANCH   8   9
ATOM      9  C   LIG d   1      -4.679  75.425 116.100  0.00  0.00     0.028 C 
ATOM     10  C   LIG d   1      -4.372  74.579 117.347  0.00  0.00     0.006 C 
ENDBRANCH   8   9
BRANCH   8  11
ATOM     11  C   LIG d   1      -6.383  75.668 114.366  0.00  0.00     0.028 C 
ATOM     12  C   LIG d   1      -5.322  74.852 113.610  0.00  0.00     0.006 C 
ENDBRANCH   8  11
ENDBRANCH   7   8
ENDBRANCH   1   7
BRANCH   6  13
ATOM     13  N   LIG d   1      -7.281  79.178 118.318  0.00  0.00    -0.311 N 
ATOM     14  C   LIG d   1      -7.355  80.432 117.874  0.00  0.00     0.210 C 
ATOM     15  C   LIG d   1      -6.309  81.387 118.457  0.00  0.00     0.109 C 
ATOM     16  O   LIG d   1      -8.207  80.850 117.076  0.00  0.00    -0.276 OA
ATOM     17  H   LIG d   1      -6.579  78.934 118.989  0.00  0.00     0.149 HD
ENDBRANCH   6  13
BRANCH   5  18
ATOM     18  N   LIG d   1     -10.271  79.038 118.926  0.00  0.00     0.381 N 
ATOM     19  H   LIG d   1      -9.785  79.864 118.640  0.00  0.00    -0.090 HD
ATOM     20  H   LIG d   1     -10.554  79.154 119.883  0.00  0.00    -0.090 HD
ATOM     21  H   LIG d   1     -11.072  78.899 118.350  0.00  0.00    -0.090 HD
ENDBRANCH   5  18
BRANCH   3  22
ATOM     22  C   LIG d   1     -10.036  74.302 118.252  0.00  0.00     0.382 C 
ATOM     23  O   LIG d   1      -9.341  73.308 118.573  0.00  0.00    -0.241 OA
ATOM     24  O   LIG d   1     -11.255  74.156 118.043  0.00  0.00    -0.241 OA
ENDBRANCH   3  22
TORSDOF 7
ENDMDL
MODEL 2
REMARK VINA RESULT:      -5.3      4.489      7.680
REMARK  7 active torsions:
REMARK  status: ('A' for Active; 'I' for Inactive)
REMARK    1  A    between atoms: C_2  and  C_3 
REMARK    2  A    between atoms: C_3  and  O_6 
REMARK    3  A    between atoms: C_3  and  C_4 
REMARK    4  A    between atoms: C_7  and  O_6 
REMARK    5  A    between atoms: C_9  and  C_10 
REMARK    6  A    between atoms: N_15  and  C_14 
REMARK    7  A    between atoms: N_20  and  C_19 
REMARK       I    between atoms: C_22  and  N_20 
ROOT
ATOM      1  C   LIG d   1      -3.322  76.482 115.818  0.00  0.00     0.161 C 
ATOM      2  C   LIG d   1      -3.575  77.269 114.682  0.00  0.00     0.016 C 
ATOM      3  C   LIG d   1      -2.593  77.570 113.709  0.00  0.00     0.038 C 
ATOM      4  C   LIG d   1      -1.323  76.975 113.729  0.00  0.00     0.028 C 
ATOM      5  C   LIG d   1      -0.863  76.575 115.127  0.00  0.00    -0.047 C 
ATOM      6  C   LIG d   1      -1.973  75.733 115.798  0.00  0.00     0.091 C 
ENDROOT
BRANCH   1   7
ATOM      7  O   LIG d   1      -4.406  75.555 116.021  0.00  0.00    -0.368 OA
BRANCH   7   8
ATOM      8  C   LIG d   1      -5.614  75.811 115.263  0.00  0.00     0.119 C 
BRANCH   8   9
ATOM      9  C   LIG d   1      -6.731  76.145 116.270  0.00  0.00     0.028 C 
ATOM     10  C   LIG d   1      -7.146  74.926 117.112  0.00  0.00     0.006 C 
ENDBRANCH   8   9
BRANCH   8  11
ATOM     11  C   LIG d   1      -6.090  74.552 114.532  0.00  0.00     0.028 C 
ATOM     12  C   LIG d   1      -5.153  74.137 113.387  0.00  0.00     0.006 C 
ENDBRANCH   8  11
ENDBRANCH   7   8
ENDBRANCH   1   7
BRANCH   6  13
ATOM     13  N   LIG d   1      -1.639  75.371 117.200  0.00  0.00    -0.311 N 
ATOM     14  C   LIG d   1      -1.138  74.188 117.553  0.00  0.00     0.210 C 
ATOM     15  C   LIG d   1      -0.885  74.015 119.054  0.00  0.00     0.109 C 
ATOM     16  O   LIG d   1      -0.850  73.278 116.761  0.00  0.00    -0.276 OA
ATOM     17  H   LIG d   1      -1.813  76.062 117.904  0.00  0.00     0.149 HD
ENDBRANCH   6  13
BRANCH   5  18
ATOM     18  N   LIG d   1       0.411  75.845 114.985  0.00  0.00     0.381 N 
ATOM     19  H   LIG d   1       0.449  75.098 115.649  0.00  0.00    -0.090 HD
ATOM     20  H   LIG d   1       1.169  76.475 115.176  0.00  0.00    -0.090 HD
ATOM     21  H   LIG d   1       0.495  75.482 114.061  0.00  0.00    -0.090 HD
ENDBRANCH   5  18
BRANCH   3  22
ATOM     22  C   LIG d   1      -2.867  78.507 112.724  0.00  0.00     0.382 C 
ATOM     23  O   LIG d   1      -3.010  78.141 111.533  0.00  0.00    -0.241 OA
ATOM     24  O   LIG d   1      -2.928  79.719 113.005  0.00  0.00    -0.241 OA
ENDBRANCH   3  22
TORSDOF 7
ENDMDL
MODEL 3
REMARK VINA RESULT:      -4.9     12.463     15.736
REMARK  7 active torsions:
REMARK  status: ('A' for Active; 'I' for Inactive)
REMARK    1  A    between atoms: C_2  and  C_3 
REMARK    2  A    between atoms: C_3  and  O_6 
REMARK    3  A    between atoms: C_3  and  C_4 
REMARK    4  A    between atoms: C_7  and  O_6 
REMARK    5  A    between atoms: C_9  and  C_10 
REMARK    6  A    between atoms: N_15  and  C_14 
REMARK    7  A    between atoms: N_20  and  C_19 
REMARK       I    between atoms: C_22  and  N_20 
ROOT
ATOM      1  C   LIG d   1     -16.947  65.459 113.878  0.00  0.00     0.161 C 
ATOM      2  C   LIG d   1     -16.521  66.406 112.931  0.00  0.00     0.016 C 
ATOM      3  C   LIG d   1     -15.509  67.359 113.187  0.00  0.00     0.038 C 
ATOM      4  C   LIG d   1     -14.744  67.332 114.362  0.00  0.00     0.028 C 
ATOM      5  C   LIG d   1     -15.478  66.715 115.548  0.00  0.00    -0.047 C 
ATOM      6  C   LIG d   1     -16.048  65.342 115.126  0.00  0.00     0.091 C 
ENDROOT
BRANCH   1   7
ATOM      7  O   LIG d   1     -17.098  64.172 113.247  0.00  0.00    -0.368 OA
BRANCH   7   8
ATOM      8  C   LIG d   1     -18.452  63.783 112.907  0.00  0.00     0.119 C 
BRANCH   8   9
ATOM      9  C   LIG d   1     -19.408  64.643 113.756  0.00  0.00     0.028 C 
ATOM     10  C   LIG d   1     -20.531  65.276 112.918  0.00  0.00     0.006 C 
ENDBRANCH   8   9
BRANCH   8  11
ATOM     11  C   LIG d   1     -18.736  62.335 113.317  0.00  0.00     0.028 C 
ATOM     12  C   LIG d   1     -19.410  62.227 114.694  0.00  0.00     0.006 C 
ENDBRANCH   8  11
ENDBRANCH   7   8
ENDBRANCH   1   7
BRANCH   6  13
ATOM     13  N   LIG d   1     -16.853  64.708 116.202  0.00  0.00    -0.311 N 
ATOM     14  C   LIG d   1     -16.323  63.974 117.179  0.00  0.00     0.210 C 
ATOM     15  C   LIG d   1     -17.333  63.395 118.175  0.00  0.00     0.109 C 
ATOM     16  O   LIG d   1     -15.109  63.774 117.334  0.00  0.00    -0.276 OA
ATOM     17  H   LIG d   1     -17.845  64.845 116.171  0.00  0.00     0.149 HD
ENDBRANCH   6  13
BRANCH   5  18
ATOM     18  N   LIG d   1     -14.521  66.625 116.667  0.00  0.00     0.381 N 
ATOM     19  H   LIG d   1     -14.655  67.395 117.291  0.00  0.00    -0.090 HD
ATOM     20  H   LIG d   1     -13.587  66.676 116.300  0.00  0.00    -0.090 HD
ATOM     21  H   LIG d   1     -14.647  65.766 117.155  0.00  0.00    -0.090 HD
ENDBRANCH   5  18
BRANCH   3  22
ATOM     22  C   LIG d   1     -15.280  68.379 112.275  0.00  0.00     0.382 C 
ATOM     23  O   LIG d   1     -15.503  68.191 111.055  0.00  0.00    -0.241 OA
ATOM     24  O   LIG d   1     -14.812  69.470 112.653  0.00  0.00    -0.241 OA
ENDBRANCH   3  22
TORSDOF 7
ENDMDL
MODEL 4
REMARK VINA RESULT:      -4.9     18.765     21.498
REMARK  7 active torsions:
REMARK  status: ('A' for Active; 'I' for Inactive)
REMARK    1  A    between atoms: C_2  and  C_3 
REMARK    2  A    between atoms: C_3  and  O_6 
REMARK    3  A    between atoms: C_3  and  C_4 
REMARK    4  A    between atoms: C_7  and  O_6 
REMARK    5  A    between atoms: C_9  and  C_10 
REMARK    6  A    between atoms: N_15  and  C_14 
REMARK    7  A    between atoms: N_20  and  C_19 
REMARK       I    between atoms: C_22  and  N_20 
ROOT
ATOM      1  C   LIG d   1      -0.107  57.840 116.450  0.00  0.00     0.161 C 
ATOM      2  C   LIG d   1      -0.981  58.884 116.796  0.00  0.00     0.016 C 
ATOM      3  C   LIG d   1      -2.294  58.672 117.274  0.00  0.00     0.038 C 
ATOM      4  C   LIG d   1      -2.774  57.391 117.583  0.00  0.00     0.028 C 
ATOM      5  C   LIG d   1      -2.107  56.283 116.774  0.00  0.00    -0.047 C 
ATOM      6  C   LIG d   1      -0.572  56.435 116.885  0.00  0.00     0.091 C 
ENDROOT
BRANCH   1   7
ATOM      7  O   LIG d   1       1.211  58.114 116.967  0.00  0.00    -0.368 OA
BRANCH   7   8
ATOM      8  C   LIG d   1       1.501  57.584 118.284  0.00  0.00     0.119 C 
BRANCH   8   9
ATOM      9  C   LIG d   1       1.238  58.709 119.304  0.00  0.00     0.028 C 
ATOM     10  C   LIG d   1       2.112  59.949 119.048  0.00  0.00     0.006 C 
ENDBRANCH   8   9
BRANCH   8  11
ATOM     11  C   LIG d   1       2.986  57.242 118.432  0.00  0.00     0.028 C 
ATOM     12  C   LIG d   1       3.225  55.768 118.794  0.00  0.00     0.006 C 
ENDBRANCH   8  11
ENDBRANCH   7   8
ENDBRANCH   1   7
BRANCH   6  13
ATOM     13  N   LIG d   1       0.157  55.442 116.055  0.00  0.00    -0.311 N 
ATOM     14  C   LIG d   1       0.652  54.304 116.539  0.00  0.00     0.210 C 
ATOM     15  C   LIG d   1       1.387  53.431 115.516  0.00  0.00     0.109 C 
ATOM     16  O   LIG d   1       0.526  53.920 117.711  0.00  0.00    -0.276 OA
ATOM     17  H   LIG d   1       0.278  55.659 115.085  0.00  0.00     0.149 HD
ENDBRANCH   6  13
BRANCH   5  18
ATOM     18  N   LIG d   1      -2.600  54.994 117.293  0.00  0.00     0.381 N 
ATOM     19  H   LIG d   1      -3.557  55.083 117.569  0.00  0.00    -0.090 HD
ATOM     20  H   LIG d   1      -2.061  54.742 118.104  0.00  0.00    -0.090 HD
ATOM     21  H   LIG d   1      -2.511  54.289 116.595  0.00  0.00    -0.090 HD
ENDBRANCH   5  18
BRANCH   3  22
ATOM     22  C   LIG d   1      -3.158  59.749 117.409  0.00  0.00     0.382 C 
ATOM     23  O   LIG d   1      -4.229  59.780 116.756  0.00  0.00    -0.241 OA
ATOM     24  O   LIG d   1      -2.859  60.710 118.142  0.00  0.00    -0.241 OA
ENDBRANCH   3  22
TORSDOF 7
ENDMDL
MODEL 5
REMARK VINA RESULT:      -4.8      6.327      9.888
REMARK  7 active torsions:
REMARK  status: ('A' for Active; 'I' for Inactive)
REMARK    1  A    between atoms: C_2  and  C_3 
REMARK    2  A    between atoms: C_3  and  O_6 
REMARK    3  A    between atoms: C_3  and  C_4 
REMARK    4  A    between atoms: C_7  and  O_6 
REMARK    5  A    between atoms: C_9  and  C_10 
REMARK    6  A    between atoms: N_15  and  C_14 
REMARK    7  A    between atoms: N_20  and  C_19 
REMARK       I    between atoms: C_22  and  N_20 
ROOT
ATOM      1  C   LIG d   1      -2.498  81.110 114.272  0.00  0.00     0.161 C 
ATOM      2  C   LIG d   1      -2.091  82.405 113.911  0.00  0.00     0.016 C 
ATOM      3  C   LIG d   1      -1.363  82.693 112.733  0.00  0.00     0.038 C 
ATOM      4  C   LIG d   1      -1.121  81.718 111.755  0.00  0.00     0.028 C 
ATOM      5  C   LIG d   1      -1.072  80.299 112.312  0.00  0.00    -0.047 C 
ATOM      6  C   LIG d   1      -2.339  80.050 113.162  0.00  0.00     0.091 C 
ENDROOT
BRANCH   1   7
ATOM      7  O   LIG d   1      -3.858  81.139 114.746  0.00  0.00    -0.368 OA
BRANCH   7   8
ATOM      8  C   LIG d   1      -4.063  80.729 116.121  0.00  0.00     0.119 C 
BRANCH   8   9
ATOM      9  C   LIG d   1      -5.060  81.718 116.755  0.00  0.00     0.028 C 
ATOM     10  C   LIG d   1      -6.342  81.026 117.245  0.00  0.00     0.006 C 
ENDBRANCH   8   9
BRANCH   8  11
ATOM     11  C   LIG d   1      -2.777  80.868 116.941  0.00  0.00     0.028 C 
ATOM     12  C   LIG d   1      -2.762  82.130 117.817  0.00  0.00     0.006 C 
ENDBRANCH   8  11
ENDBRANCH   7   8
ENDBRANCH   1   7
BRANCH   6  13
ATOM     13  N   LIG d   1      -2.331  78.714 113.813  0.00  0.00    -0.311 N 
ATOM     14  C   LIG d   1      -2.913  77.638 113.287  0.00  0.00     0.210 C 
ATOM     15  C   LIG d   1      -2.804  76.365 114.132  0.00  0.00     0.109 C 
ATOM     16  O   LIG d   1      -3.482  77.609 112.185  0.00  0.00    -0.276 OA
ATOM     17  H   LIG d   1      -1.865  78.640 114.696  0.00  0.00     0.149 HD
ENDBRANCH   6  13
BRANCH   5  18
ATOM     18  N   LIG d   1      -0.952  79.375 111.169  0.00  0.00     0.381 N 
ATOM     19  H   LIG d   1      -0.001  79.080 111.070  0.00  0.00    -0.090 HD
ATOM     20  H   LIG d   1      -1.221  79.858 110.330  0.00  0.00    -0.090 HD
ATOM     21  H   LIG d   1      -1.540  78.583 111.307  0.00  0.00    -0.090 HD
ENDBRANCH   5  18
BRANCH   3  22
ATOM     22  C   LIG d   1      -0.834  83.961 112.545  0.00  0.00     0.382 C 
ATOM     23  O   LIG d   1      -1.214  84.661 111.576  0.00  0.00    -0.241 OA
ATOM     24  O   LIG d   1       0.051  84.395 113.306  0.00  0.00    -0.241 OA
ENDBRANCH   3  22
TORSDOF 7
ENDMDL
MODEL 6
REMARK VINA RESULT:      -4.8      9.171     11.882
REMARK  7 active torsions:
REMARK  status: ('A' for Active; 'I' for Inactive)
REMARK    1  A    between atoms: C_2  and  C_3 
REMARK    2  A    between atoms: C_3  and  O_6 
REMARK    3  A    between atoms: C_3  and  C_4 
REMARK    4  A    between atoms: C_7  and  O_6 
REMARK    5  A    between atoms: C_9  and  C_10 
REMARK    6  A    between atoms: N_15  and  C_14 
REMARK    7  A    between atoms: N_20  and  C_19 
REMARK       I    between atoms: C_22  and  N_20 
ROOT
ATOM      1  C   LIG d   1      -0.286  83.555 113.071  0.00  0.00     0.161 C 
ATOM      2  C   LIG d   1      -1.468  82.796 113.074  0.00  0.00     0.016 C 
ATOM      3  C   LIG d   1      -1.580  81.528 112.460  0.00  0.00     0.038 C 
ATOM      4  C   LIG d   1      -0.466  80.860 111.929  0.00  0.00     0.028 C 
ATOM      5  C   LIG d   1       0.636  81.803 111.457  0.00  0.00    -0.047 C 
ATOM      6  C   LIG d   1       0.969  82.795 112.594  0.00  0.00     0.091 C 
ENDROOT
BRANCH   1   7
ATOM      7  O   LIG d   1      -0.064  84.117 114.380  0.00  0.00    -0.368 OA
BRANCH   7   8
ATOM      8  C   LIG d   1      -0.647  85.422 114.621  0.00  0.00     0.119 C 
BRANCH   8   9
ATOM      9  C   LIG d   1       0.415  86.278 115.338  0.00  0.00     0.028 C 
ATOM     10  C   LIG d   1       1.802  85.614 115.338  0.00  0.00     0.006 C 
ENDBRANCH   8   9
BRANCH   8  11
ATOM     11  C   LIG d   1      -1.824  85.334 115.596  0.00  0.00     0.028 C 
ATOM     12  C   LIG d   1      -1.609  84.285 116.698  0.00  0.00     0.006 C 
ENDBRANCH   8  11
ENDBRANCH   7   8
ENDBRANCH   1   7
BRANCH   6  13
ATOM     13  N   LIG d   1       1.979  83.806 112.186  0.00  0.00    -0.311 N 
ATOM     14  C   LIG d   1       3.284  83.673 112.416  0.00  0.00     0.210 C 
ATOM     15  C   LIG d   1       4.148  84.841 111.931  0.00  0.00     0.109 C 
ATOM     16  O   LIG d   1       3.811  82.685 112.947  0.00  0.00    -0.276 OA
ATOM     17  H   LIG d   1       1.641  84.626 111.721  0.00  0.00     0.149 HD
ENDBRANCH   6  13
BRANCH   5  18
ATOM     18  N   LIG d   1       1.789  80.974 111.056  0.00  0.00     0.381 N 
ATOM     19  H   LIG d   1       2.640  81.471 111.231  0.00  0.00    -0.090 HD
ATOM     20  H   LIG d   1       1.729  80.789 110.070  0.00  0.00    -0.090 HD
ATOM     21  H   LIG d   1       1.786  80.117 111.563  0.00  0.00    -0.090 HD
ENDBRANCH   5  18
BRANCH   3  22
ATOM     22  C   LIG d   1      -2.825  80.930 112.338  0.00  0.00     0.382 C 
ATOM     23  O   LIG d   1      -3.862  81.637 112.341  0.00  0.00    -0.241 OA
ATOM     24  O   LIG d   1      -2.928  79.691 112.270  0.00  0.00    -0.241 OA
ENDBRANCH   3  22
TORSDOF 7
ENDMDL
MODEL 7
REMARK VINA RESULT:      -4.7      5.965      8.346
REMARK  7 active torsions:
REMARK  status: ('A' for Active; 'I' for Inactive)
REMARK    1  A    between atoms: C_2  and  C_3 
REMARK    2  A    between atoms: C_3  and  O_6 
REMARK    3  A    between atoms: C_3  and  C_4 
REMARK    4  A    between atoms: C_7  and  O_6 
REMARK    5  A    between atoms: C_9  and  C_10 
REMARK    6  A    between atoms: N_15  and  C_14 
REMARK    7  A    between atoms: N_20  and  C_19 
REMARK       I    between atoms: C_22  and  N_20 
ROOT
ATOM      1  C   LIG d   1      -2.516  78.252 114.416  0.00  0.00     0.161 C 
ATOM      2  C   LIG d   1      -2.852  79.164 113.401  0.00  0.00     0.016 C 
ATOM      3  C   LIG d   1      -2.084  80.312 113.100  0.00  0.00     0.038 C 
ATOM      4  C   LIG d   1      -0.837  80.547 113.698  0.00  0.00     0.028 C 
ATOM      5  C   LIG d   1      -0.703  79.924 115.084  0.00  0.00    -0.047 C 
ATOM      6  C   LIG d   1      -1.101  78.433 115.004  0.00  0.00     0.091 C 
ENDROOT
BRANCH   1   7
ATOM      7  O   LIG d   1      -2.692  76.903 113.939  0.00  0.00    -0.368 OA
BRANCH   7   8
ATOM      8  C   LIG d   1      -3.755  76.141 114.562  0.00  0.00     0.119 C 
BRANCH   8   9
ATOM      9  C   LIG d   1      -3.126  74.861 115.145  0.00  0.00     0.028 C 
ATOM     10  C   LIG d   1      -1.962  74.337 114.289  0.00  0.00     0.006 C 
ENDBRANCH   8   9
BRANCH   8  11
ATOM     11  C   LIG d   1      -4.774  75.657 113.527  0.00  0.00     0.028 C 
ATOM     12  C   LIG d   1      -5.665  74.521 114.054  0.00  0.00     0.006 C 
ENDBRANCH   8  11
ENDBRANCH   7   8
ENDBRANCH   1   7
BRANCH   6  13
ATOM     13  N   LIG d   1      -1.078  77.768 116.333  0.00  0.00    -0.311 N 
ATOM     14  C   LIG d   1      -0.290  76.734 116.623  0.00  0.00     0.210 C 
ATOM     15  C   LIG d   1      -0.439  76.187 118.046  0.00  0.00     0.109 C 
ATOM     16  O   LIG d   1       0.541  76.240 115.847  0.00  0.00    -0.276 OA
ATOM     17  H   LIG d   1      -1.699  78.126 117.033  0.00  0.00     0.149 HD
ENDBRANCH   6  13
BRANCH   5  18
ATOM     18  N   LIG d   1       0.688  80.129 115.531  0.00  0.00     0.381 N 
ATOM     19  H   LIG d   1       1.024  81.010 115.200  0.00  0.00    -0.090 HD
ATOM     20  H   LIG d   1       1.265  79.404 115.141  0.00  0.00    -0.090 HD
ATOM     21  H   LIG d   1       0.734  80.100 116.526  0.00  0.00    -0.090 HD
ENDBRANCH   5  18
BRANCH   3  22
ATOM     22  C   LIG d   1      -2.582  81.260 112.220  0.00  0.00     0.382 C 
ATOM     23  O   LIG d   1      -1.801  81.874 111.453  0.00  0.00    -0.241 OA
ATOM     24  O   LIG d   1      -3.795  81.542 112.214  0.00  0.00    -0.241 OA
ENDBRANCH   3  22
TORSDOF 7
ENDMDL
MODEL 8
REMARK VINA RESULT:      -4.7     13.181     16.397
REMARK  7 active torsions:
REMARK  status: ('A' for Active; 'I' for Inactive)
REMARK    1  A    between atoms: C_2  and  C_3 
REMARK    2  A    between atoms: C_3  and  O_6 
REMARK    3  A    between atoms: C_3  and  C_4 
REMARK    4  A    between atoms: C_7  and  O_6 
REMARK    5  A    between atoms: C_9  and  C_10 
REMARK    6  A    between atoms: N_15  and  C_14 
REMARK    7  A    between atoms: N_20  and  C_19 
REMARK       I    between atoms: C_22  and  N_20 
ROOT
ATOM      1  C   LIG d   1     -17.343  64.020 116.088  0.00  0.00     0.161 C 
ATOM      2  C   LIG d   1     -16.369  64.546 116.953  0.00  0.00     0.016 C 
ATOM      3  C   LIG d   1     -15.462  65.563 116.578  0.00  0.00     0.038 C 
ATOM      4  C   LIG d   1     -15.567  66.234 115.350  0.00  0.00     0.028 C 
ATOM      5  C   LIG d   1     -16.212  65.393 114.253  0.00  0.00    -0.047 C 
ATOM      6  C   LIG d   1     -17.545  64.816 114.781  0.00  0.00     0.091 C 
ENDROOT
BRANCH   1   7
ATOM      7  O   LIG d   1     -18.595  63.879 116.788  0.00  0.00    -0.368 OA
BRANCH   7   8
ATOM      8  C   LIG d   1     -19.516  64.992 116.675  0.00  0.00     0.119 C 
BRANCH   8   9
ATOM      9  C   LIG d   1     -19.584  65.678 118.053  0.00  0.00     0.028 C 
ATOM     10  C   LIG d   1     -18.913  67.062 118.053  0.00  0.00     0.006 C 
ENDBRANCH   8   9
BRANCH   8  11
ATOM     11  C   LIG d   1     -20.942  64.508 116.392  0.00  0.00     0.028 C 
ATOM     12  C   LIG d   1     -21.001  63.022 116.004  0.00  0.00     0.006 C 
ENDBRANCH   8  11
ENDBRANCH   7   8
ENDBRANCH   1   7
BRANCH   6  13
ATOM     13  N   LIG d   1     -18.200  63.912 113.800  0.00  0.00    -0.311 N 
ATOM     14  C   LIG d   1     -19.189  64.296 112.996  0.00  0.00     0.210 C 
ATOM     15  C   LIG d   1     -19.736  63.201 112.074  0.00  0.00     0.109 C 
ATOM     16  O   LIG d   1     -19.645  65.448 112.936  0.00  0.00    -0.276 OA
ATOM     17  H   LIG d   1     -17.871  62.967 113.760  0.00  0.00     0.149 HD
ENDBRANCH   6  13
BRANCH   5  18
ATOM     18  N   LIG d   1     -16.384  66.258 113.071  0.00  0.00     0.381 N 
ATOM     19  H   LIG d   1     -15.491  66.471 112.675  0.00  0.00    -0.090 HD
ATOM     20  H   LIG d   1     -16.815  67.119 113.359  0.00  0.00    -0.090 HD
ATOM     21  H   LIG d   1     -16.955  65.801 112.395  0.00  0.00    -0.090 HD
ENDBRANCH   5  18
BRANCH   3  22
ATOM     22  C   LIG d   1     -14.411  65.892 117.420  0.00  0.00     0.382 C 
ATOM     23  O   LIG d   1     -13.469  66.605 116.998  0.00  0.00    -0.241 OA
ATOM     24  O   LIG d   1     -14.370  65.446 118.583  0.00  0.00    -0.241 OA
ENDBRANCH   3  22
TORSDOF 7
ENDMDL
MODEL 9
REMARK VINA RESULT:      -4.6     11.424     15.166
REMARK  7 active torsions:
REMARK  status: ('A' for Active; 'I' for Inactive)
REMARK    1  A    between atoms: C_2  and  C_3 
REMARK    2  A    between atoms: C_3  and  O_6 
REMARK    3  A    between atoms: C_3  and  C_4 
REMARK    4  A    between atoms: C_7  and  O_6 
REMARK    5  A    between atoms: C_9  and  C_10 
REMARK    6  A    between atoms: N_15  and  C_14 
REMARK    7  A    between atoms: N_20  and  C_19 
REMARK       I    between atoms: C_22  and  N_20 
ROOT
ATOM      1  C   LIG d   1       1.982  86.106 113.855  0.00  0.00     0.161 C 
ATOM      2  C   LIG d   1       2.614  87.352 113.707  0.00  0.00     0.016 C 
ATOM      3  C   LIG d   1       3.631  87.600 112.756  0.00  0.00     0.038 C 
ATOM      4  C   LIG d   1       3.982  86.655 111.781  0.00  0.00     0.028 C 
ATOM      5  C   LIG d   1       3.727  85.215 112.214  0.00  0.00    -0.047 C 
ATOM      6  C   LIG d   1       2.273  85.095 112.726  0.00  0.00     0.091 C 
ENDROOT
BRANCH   1   7
ATOM      7  O   LIG d   1       0.561  86.294 114.005  0.00  0.00    -0.368 OA
BRANCH   7   8
ATOM      8  C   LIG d   1      -0.023  85.785 115.229  0.00  0.00     0.119 C 
BRANCH   8   9
ATOM      9  C   LIG d   1      -1.418  85.231 114.881  0.00  0.00     0.028 C 
ATOM     10  C   LIG d   1      -1.628  83.799 115.404  0.00  0.00     0.006 C 
ENDBRANCH   8   9
BRANCH   8  11
ATOM     11  C   LIG d   1      -0.274  86.911 116.237  0.00  0.00     0.028 C 
ATOM     12  C   LIG d   1       0.377  86.644 117.603  0.00  0.00     0.006 C 
ENDBRANCH   8  11
ENDBRANCH   7   8
ENDBRANCH   1   7
BRANCH   6  13
ATOM     13  N   LIG d   1       1.967  83.737 113.248  0.00  0.00    -0.311 N 
ATOM     14  C   LIG d   1       0.956  82.993 112.804  0.00  0.00     0.210 C 
ATOM     15  C   LIG d   1       0.804  81.632 113.492  0.00  0.00     0.109 C 
ATOM     16  O   LIG d   1       0.190  83.316 111.884  0.00  0.00    -0.276 OA
ATOM     17  H   LIG d   1       2.558  83.384 113.975  0.00  0.00     0.149 HD
ENDBRANCH   6  13
BRANCH   5  18
ATOM     18  N   LIG d   1       4.006  84.345 111.056  0.00  0.00     0.381 N 
ATOM     19  H   LIG d   1       3.147  83.996 110.680  0.00  0.00    -0.090 HD
ATOM     20  H   LIG d   1       4.557  83.563 111.362  0.00  0.00    -0.090 HD
ATOM     21  H   LIG d   1       4.500  84.856 110.357  0.00  0.00    -0.090 HD
ENDBRANCH   5  18
BRANCH   3  22
ATOM     22  C   LIG d   1       4.337  88.793 112.801  0.00  0.00     0.382 C 
ATOM     23  O   LIG d   1       3.739  89.866 113.056  0.00  0.00    -0.241 OA
ATOM     24  O   LIG d   1       5.556  88.815 112.547  0.00  0.00    -0.241 OA
ENDBRANCH   3  22
TORSDOF 7
ENDMDL
