MODEL 1
REMARK VINA RESULT:      -5.7      0.000      0.000
REMARK  7 active torsions:
REMARK  status: ('A' for Active; 'I' for Inactive)
REMARK    1  A    between atoms: C_2  and  C_3 
REMARK    2  A    between atoms: C_3  and  O_6 
REMARK    3  A    between atoms: C_3  and  C_4 
REMARK    4  A    between atoms: C_7  and  O_6 
REMARK    5  A    between atoms: C_9  and  C_10 
REMARK    6  A    between atoms: N_15  and  C_14 
REMARK    7  A    between atoms: N_20  and  C_19 
REMARK       I    between atoms: C_22  and  N_20 
ROOT
ATOM      1  C   LIG d   1      -5.395  91.182 117.674  0.00  0.00     0.161 C 
ATOM      2  C   LIG d   1      -4.729  90.154 116.987  0.00  0.00     0.016 C 
ATOM      3  C   LIG d   1      -4.985  89.828 115.635  0.00  0.00     0.038 C 
ATOM      4  C   LIG d   1      -5.823  90.612 114.829  0.00  0.00     0.028 C 
ATOM      5  C   LIG d   1      -6.900  91.353 115.615  0.00  0.00    -0.047 C 
ATOM      6  C   LIG d   1      -6.232  92.120 116.779  0.00  0.00     0.091 C 
ENDROOT
BRANCH   1   7
ATOM      7  O   LIG d   1      -4.450  91.943 118.451  0.00  0.00    -0.368 OA
BRANCH   7   8
ATOM      8  C   LIG d   1      -3.383  92.584 117.709  0.00  0.00     0.119 C 
BRANCH   8   9
ATOM      9  C   LIG d   1      -2.060  92.266 118.432  0.00  0.00     0.028 C 
ATOM     10  C   LIG d   1      -1.224  91.211 117.689  0.00  0.00     0.006 C 
ENDBRANCH   8   9
BRANCH   8  11
ATOM     11  C   LIG d   1      -3.513  94.109 117.752  0.00  0.00     0.028 C 
ATOM     12  C   LIG d   1      -4.228  94.611 119.017  0.00  0.00     0.006 C 
ENDBRANCH   8  11
ENDBRANCH   7   8
ENDBRANCH   1   7
BRANCH   6  13
ATOM     13  N   LIG d   1      -7.224  92.804 117.650  0.00  0.00    -0.311 N 
ATOM     14  C   LIG d   1      -7.554  94.088 117.518  0.00  0.00     0.210 C 
ATOM     15  C   LIG d   1      -8.582  94.599 118.531  0.00  0.00     0.109 C 
ATOM     16  O   LIG d   1      -7.116  94.843 116.637  0.00  0.00    -0.276 OA
ATOM     17  H   LIG d   1      -7.652  92.257 118.371  0.00  0.00     0.149 HD
ENDBRANCH   6  13
BRANCH   5  18
ATOM     18  N   LIG d   1      -7.612  92.236 114.673  0.00  0.00     0.381 N 
ATOM     19  H   LIG d   1      -8.047  91.689 113.958  0.00  0.00    -0.090 HD
ATOM     20  H   LIG d   1      -6.946  92.851 114.238  0.00  0.00    -0.090 HD
ATOM     21  H   LIG d   1      -8.300  92.769 115.159  0.00  0.00    -0.090 HD
ENDBRANCH   5  18
BRANCH   3  22
ATOM     22  C   LIG d   1      -4.429  88.682 115.087  0.00  0.00     0.382 C 
ATOM     23  O   LIG d   1      -4.672  88.375 113.895  0.00  0.00    -0.241 OA
ATOM     24  O   LIG d   1      -3.724  87.927 115.783  0.00  0.00    -0.241 OA
ENDBRANCH   3  22
TORSDOF 7
ENDMDL
MODEL 2
REMARK VINA RESULT:      -5.6      0.947      1.970
REMARK  7 active torsions:
REMARK  status: ('A' for Active; 'I' for Inactive)
REMARK    1  A    between atoms: C_2  and  C_3 
REMARK    2  A    between atoms: C_3  and  O_6 
REMARK    3  A    between atoms: C_3  and  C_4 
REMARK    4  A    between atoms: C_7  and  O_6 
REMARK    5  A    between atoms: C_9  and  C_10 
REMARK    6  A    between atoms: N_15  and  C_14 
REMARK    7  A    between atoms: N_20  and  C_19 
REMARK       I    between atoms: C_22  and  N_20 
ROOT
ATOM      1  C   LIG d   1      -4.836  90.890 116.779  0.00  0.00     0.161 C 
ATOM      2  C   LIG d   1      -4.241  89.786 116.146  0.00  0.00     0.016 C 
ATOM      3  C   LIG d   1      -4.749  89.202 114.963  0.00  0.00     0.038 C 
ATOM      4  C   LIG d   1      -5.807  89.779 114.245  0.00  0.00     0.028 C 
ATOM      5  C   LIG d   1      -6.753  90.598 115.116  0.00  0.00    -0.047 C 
ATOM      6  C   LIG d   1      -5.926  91.602 115.950  0.00  0.00     0.091 C 
ENDROOT
BRANCH   1   7
ATOM      7  O   LIG d   1      -3.820  91.829 117.182  0.00  0.00    -0.368 OA
BRANCH   7   8
ATOM      8  C   LIG d   1      -3.619  91.979 118.609  0.00  0.00     0.119 C 
BRANCH   8   9
ATOM      9  C   LIG d   1      -3.965  93.435 118.975  0.00  0.00     0.028 C 
ATOM     10  C   LIG d   1      -3.709  94.409 117.812  0.00  0.00     0.006 C 
ENDBRANCH   8   9
BRANCH   8  11
ATOM     11  C   LIG d   1      -2.145  91.805 118.986  0.00  0.00     0.028 C 
ATOM     12  C   LIG d   1      -1.259  91.454 117.780  0.00  0.00     0.006 C 
ENDBRANCH   8  11
ENDBRANCH   7   8
ENDBRANCH   1   7
BRANCH   6  13
ATOM     13  N   LIG d   1      -6.767  92.385 116.892  0.00  0.00    -0.311 N 
ATOM     14  C   LIG d   1      -7.204  93.617 116.634  0.00  0.00     0.210 C 
ATOM     15  C   LIG d   1      -8.040  94.253 117.749  0.00  0.00     0.109 C 
ATOM     16  O   LIG d   1      -7.004  94.231 115.575  0.00  0.00    -0.276 OA
ATOM     17  H   LIG d   1      -7.003  91.951 117.763  0.00  0.00     0.149 HD
ENDBRANCH   6  13
BRANCH   5  18
ATOM     18  N   LIG d   1      -7.726  91.254 114.221  0.00  0.00     0.381 N 
ATOM     19  H   LIG d   1      -7.719  92.242 114.379  0.00  0.00    -0.090 HD
ATOM     20  H   LIG d   1      -8.646  90.907 114.432  0.00  0.00    -0.090 HD
ATOM     21  H   LIG d   1      -7.500  91.060 113.271  0.00  0.00    -0.090 HD
ENDBRANCH   5  18
BRANCH   3  22
ATOM     22  C   LIG d   1      -4.221  88.003 114.508  0.00  0.00     0.382 C 
ATOM     23  O   LIG d   1      -3.437  87.347 115.235  0.00  0.00    -0.241 OA
ATOM     24  O   LIG d   1      -4.484  87.591 113.362  0.00  0.00    -0.241 OA
ENDBRANCH   3  22
TORSDOF 7
ENDMDL
MODEL 3
REMARK VINA RESULT:      -5.0     14.538     16.546
REMARK  7 active torsions:
REMARK  status: ('A' for Active; 'I' for Inactive)
REMARK    1  A    between atoms: C_2  and  C_3 
REMARK    2  A    between atoms: C_3  and  O_6 
REMARK    3  A    between atoms: C_3  and  C_4 
REMARK    4  A    between atoms: C_7  and  O_6 
REMARK    5  A    between atoms: C_9  and  C_10 
REMARK    6  A    between atoms: N_15  and  C_14 
REMARK    7  A    between atoms: N_20  and  C_19 
REMARK       I    between atoms: C_22  and  N_20 
ROOT
ATOM      1  C   LIG d   1      -2.710  76.014 115.135  0.00  0.00     0.161 C 
ATOM      2  C   LIG d   1      -2.686  75.247 116.312  0.00  0.00     0.016 C 
ATOM      3  C   LIG d   1      -1.525  75.061 117.096  0.00  0.00     0.038 C 
ATOM      4  C   LIG d   1      -0.335  75.758 116.836  0.00  0.00     0.028 C 
ATOM      5  C   LIG d   1      -0.170  76.149 115.371  0.00  0.00    -0.047 C 
ATOM      6  C   LIG d   1      -1.451  76.872 114.897  0.00  0.00     0.091 C 
ENDROOT
BRANCH   1   7
ATOM      7  O   LIG d   1      -3.891  76.840 115.114  0.00  0.00    -0.368 OA
BRANCH   7   8
ATOM      8  C   LIG d   1      -5.045  76.321 115.820  0.00  0.00     0.119 C 
BRANCH   8   9
ATOM      9  C   LIG d   1      -5.859  75.478 114.818  0.00  0.00     0.028 C 
ATOM     10  C   LIG d   1      -6.277  74.117 115.400  0.00  0.00     0.006 C 
ENDBRANCH   8   9
BRANCH   8  11
ATOM     11  C   LIG d   1      -5.984  77.448 116.258  0.00  0.00     0.028 C 
ATOM     12  C   LIG d   1      -6.184  77.499 117.781  0.00  0.00     0.006 C 
ENDBRANCH   8  11
ENDBRANCH   7   8
ENDBRANCH   1   7
BRANCH   6  13
ATOM     13  N   LIG d   1      -1.406  77.214 113.451  0.00  0.00    -0.311 N 
ATOM     14  C   LIG d   1      -1.041  78.410 112.991  0.00  0.00     0.210 C 
ATOM     15  C   LIG d   1      -1.084  78.557 111.467  0.00  0.00     0.109 C 
ATOM     16  O   LIG d   1      -0.655  79.352 113.699  0.00  0.00    -0.276 OA
ATOM     17  H   LIG d   1      -1.673  76.498 112.804  0.00  0.00     0.149 HD
ENDBRANCH   6  13
BRANCH   5  18
ATOM     18  N   LIG d   1       1.040  76.986 115.267  0.00  0.00     0.381 N 
ATOM     19  H   LIG d   1       0.783  77.953 115.261  0.00  0.00    -0.090 HD
ATOM     20  H   LIG d   1       1.506  76.778 114.402  0.00  0.00    -0.090 HD
ATOM     21  H   LIG d   1       1.649  76.802 116.034  0.00  0.00    -0.090 HD
ENDBRANCH   5  18
BRANCH   3  22
ATOM     22  C   LIG d   1      -1.534  74.138 118.130  0.00  0.00     0.382 C 
ATOM     23  O   LIG d   1      -1.399  72.916 117.881  0.00  0.00    -0.241 OA
ATOM     24  O   LIG d   1      -1.722  74.508 119.305  0.00  0.00    -0.241 OA
ENDBRANCH   3  22
TORSDOF 7
ENDMDL
MODEL 4
REMARK VINA RESULT:      -5.0      7.732     10.494
REMARK  7 active torsions:
REMARK  status: ('A' for Active; 'I' for Inactive)
REMARK    1  A    between atoms: C_2  and  C_3 
REMARK    2  A    between atoms: C_3  and  O_6 
REMARK    3  A    between atoms: C_3  and  C_4 
REMARK    4  A    between atoms: C_7  and  O_6 
REMARK    5  A    between atoms: C_9  and  C_10 
REMARK    6  A    between atoms: N_15  and  C_14 
REMARK    7  A    between atoms: N_20  and  C_19 
REMARK       I    between atoms: C_22  and  N_20 
ROOT
ATOM      1  C   LIG d   1       2.072  86.814 114.183  0.00  0.00     0.161 C 
ATOM      2  C   LIG d   1       2.819  87.970 113.899  0.00  0.00     0.016 C 
ATOM      3  C   LIG d   1       3.651  88.099 112.763  0.00  0.00     0.038 C 
ATOM      4  C   LIG d   1       3.674  87.132 111.747  0.00  0.00     0.028 C 
ATOM      5  C   LIG d   1       3.324  85.731 112.237  0.00  0.00    -0.047 C 
ATOM      6  C   LIG d   1       1.999  85.792 113.029  0.00  0.00     0.091 C 
ENDROOT
BRANCH   1   7
ATOM      7  O   LIG d   1       0.746  87.183 114.611  0.00  0.00    -0.368 OA
BRANCH   7   8
ATOM      8  C   LIG d   1       0.383  86.800 115.961  0.00  0.00     0.119 C 
BRANCH   8   9
ATOM      9  C   LIG d   1      -0.966  86.060 115.885  0.00  0.00     0.028 C 
ATOM     10  C   LIG d   1      -1.574  86.091 114.472  0.00  0.00     0.006 C 
ENDBRANCH   8   9
BRANCH   8  11
ATOM     11  C   LIG d   1       0.122  88.029 116.837  0.00  0.00     0.028 C 
ATOM     12  C   LIG d   1      -1.135  87.883 117.709  0.00  0.00     0.006 C 
ENDBRANCH   8  11
ENDBRANCH   7   8
ENDBRANCH   1   7
BRANCH   6  13
ATOM     13  N   LIG d   1       1.627  84.478 113.616  0.00  0.00    -0.311 N 
ATOM     14  C   LIG d   1       0.781  83.629 113.036  0.00  0.00     0.210 C 
ATOM     15  C   LIG d   1       0.520  82.339 113.819  0.00  0.00     0.109 C 
ATOM     16  O   LIG d   1       0.245  83.808 111.931  0.00  0.00    -0.276 OA
ATOM     17  H   LIG d   1       2.040  84.239 114.496  0.00  0.00     0.149 HD
ENDBRANCH   6  13
BRANCH   5  18
ATOM     18  N   LIG d   1       3.251  84.851 111.055  0.00  0.00     0.381 N 
ATOM     19  H   LIG d   1       2.504  85.146 110.459  0.00  0.00    -0.090 HD
ATOM     20  H   LIG d   1       3.061  83.913 111.360  0.00  0.00    -0.090 HD
ATOM     21  H   LIG d   1       4.113  84.877 110.556  0.00  0.00    -0.090 HD
ENDBRANCH   5  18
BRANCH   3  22
ATOM     22  C   LIG d   1       4.501  89.189 112.654  0.00  0.00     0.382 C 
ATOM     23  O   LIG d   1       4.120  90.322 113.036  0.00  0.00    -0.241 OA
ATOM     24  O   LIG d   1       5.628  89.062 112.138  0.00  0.00    -0.241 OA
ENDBRANCH   3  22
TORSDOF 7
ENDMDL
MODEL 5
REMARK VINA RESULT:      -4.9     18.881     21.290
REMARK  7 active torsions:
REMARK  status: ('A' for Active; 'I' for Inactive)
REMARK    1  A    between atoms: C_2  and  C_3 
REMARK    2  A    between atoms: C_3  and  O_6 
REMARK    3  A    between atoms: C_3  and  C_4 
REMARK    4  A    between atoms: C_7  and  O_6 
REMARK    5  A    between atoms: C_9  and  C_10 
REMARK    6  A    between atoms: N_15  and  C_14 
REMARK    7  A    between atoms: N_20  and  C_19 
REMARK       I    between atoms: C_22  and  N_20 
ROOT
ATOM      1  C   LIG d   1      10.372  78.773 114.704  0.00  0.00     0.161 C 
ATOM      2  C   LIG d   1       9.046  78.943 115.137  0.00  0.00     0.016 C 
ATOM      3  C   LIG d   1       8.208  77.869 115.517  0.00  0.00     0.038 C 
ATOM      4  C   LIG d   1       8.691  76.557 115.633  0.00  0.00     0.028 C 
ATOM      5  C   LIG d   1       9.879  76.266 114.723  0.00  0.00    -0.047 C 
ATOM      6  C   LIG d   1      10.950  77.361 114.930  0.00  0.00     0.091 C 
ENDROOT
BRANCH   1   7
ATOM      7  O   LIG d   1      11.218  79.766 115.318  0.00  0.00    -0.368 OA
BRANCH   7   8
ATOM      8  C   LIG d   1      11.385  81.003 114.584  0.00  0.00     0.119 C 
BRANCH   8   9
ATOM      9  C   LIG d   1      11.668  80.636 113.115  0.00  0.00     0.028 C 
ATOM     10  C   LIG d   1      11.086  81.664 112.130  0.00  0.00     0.006 C 
ENDBRANCH   8   9
BRANCH   8  11
ATOM     11  C   LIG d   1      12.625  81.768 115.056  0.00  0.00     0.028 C 
ATOM     12  C   LIG d   1      13.934  81.174 114.514  0.00  0.00     0.006 C 
ENDBRANCH   8  11
ENDBRANCH   7   8
ENDBRANCH   1   7
BRANCH   6  13
ATOM     13  N   LIG d   1      12.111  77.198 114.016  0.00  0.00    -0.311 N 
ATOM     14  C   LIG d   1      13.377  77.329 114.409  0.00  0.00     0.210 C 
ATOM     15  C   LIG d   1      14.420  77.141 113.302  0.00  0.00     0.109 C 
ATOM     16  O   LIG d   1      13.737  77.551 115.575  0.00  0.00    -0.276 OA
ATOM     17  H   LIG d   1      11.911  76.986 113.058  0.00  0.00     0.149 HD
ENDBRANCH   6  13
BRANCH   5  18
ATOM     18  N   LIG d   1      10.366  74.912 115.046  0.00  0.00     0.381 N 
ATOM     19  H   LIG d   1      10.969  74.950 115.843  0.00  0.00    -0.090 HD
ATOM     20  H   LIG d   1      10.896  74.563 114.267  0.00  0.00    -0.090 HD
ATOM     21  H   LIG d   1       9.596  74.307 115.230  0.00  0.00    -0.090 HD
ENDBRANCH   5  18
BRANCH   3  22
ATOM     22  C   LIG d   1       6.860  78.098 115.746  0.00  0.00     0.382 C 
ATOM     23  O   LIG d   1       6.435  79.272 115.865  0.00  0.00    -0.241 OA
ATOM     24  O   LIG d   1       6.071  77.144 115.880  0.00  0.00    -0.241 OA
ENDBRANCH   3  22
TORSDOF 7
ENDMDL
MODEL 6
REMARK VINA RESULT:      -4.6     12.619     15.017
REMARK  7 active torsions:
REMARK  status: ('A' for Active; 'I' for Inactive)
REMARK    1  A    between atoms: C_2  and  C_3 
REMARK    2  A    between atoms: C_3  and  O_6 
REMARK    3  A    between atoms: C_3  and  C_4 
REMARK    4  A    between atoms: C_7  and  O_6 
REMARK    5  A    between atoms: C_9  and  C_10 
REMARK    6  A    between atoms: N_15  and  C_14 
REMARK    7  A    between atoms: N_20  and  C_19 
REMARK       I    between atoms: C_22  and  N_20 
ROOT
ATOM      1  C   LIG d   1       0.026  78.747 114.394  0.00  0.00     0.161 C 
ATOM      2  C   LIG d   1      -0.146  80.050 113.897  0.00  0.00     0.016 C 
ATOM      3  C   LIG d   1      -0.784  80.337 112.669  0.00  0.00     0.038 C 
ATOM      4  C   LIG d   1      -1.432  79.343 111.920  0.00  0.00     0.028 C 
ATOM      5  C   LIG d   1      -0.847  77.950 112.129  0.00  0.00    -0.047 C 
ATOM      6  C   LIG d   1      -0.772  77.659 113.645  0.00  0.00     0.091 C 
ENDROOT
BRANCH   1   7
ATOM      7  O   LIG d   1      -0.283  78.716 115.801  0.00  0.00    -0.368 OA
BRANCH   7   8
ATOM      8  C   LIG d   1       0.840  78.521 116.696  0.00  0.00     0.119 C 
BRANCH   8   9
ATOM      9  C   LIG d   1       0.501  77.329 117.611  0.00  0.00     0.028 C 
ATOM     10  C   LIG d   1       1.625  76.281 117.650  0.00  0.00     0.006 C 
ENDBRANCH   8   9
BRANCH   8  11
ATOM     11  C   LIG d   1       1.017  79.717 117.637  0.00  0.00     0.028 C 
ATOM     12  C   LIG d   1      -0.175  80.687 117.598  0.00  0.00     0.006 C 
ENDBRANCH   8  11
ENDBRANCH   7   8
ENDBRANCH   1   7
BRANCH   6  13
ATOM     13  N   LIG d   1      -0.134  76.350 113.940  0.00  0.00    -0.311 N 
ATOM     14  C   LIG d   1      -0.689  75.423 114.718  0.00  0.00     0.210 C 
ATOM     15  C   LIG d   1       0.146  74.153 114.908  0.00  0.00     0.109 C 
ATOM     16  O   LIG d   1      -1.809  75.518 115.243  0.00  0.00    -0.276 OA
ATOM     17  H   LIG d   1       0.763  76.177 113.529  0.00  0.00     0.149 HD
ENDBRANCH   6  13
BRANCH   5  18
ATOM     18  N   LIG d   1      -1.702  76.994 111.398  0.00  0.00     0.381 N 
ATOM     19  H   LIG d   1      -1.140  76.256 111.024  0.00  0.00    -0.090 HD
ATOM     20  H   LIG d   1      -2.144  77.473 110.634  0.00  0.00    -0.090 HD
ATOM     21  H   LIG d   1      -2.393  76.619 112.010  0.00  0.00    -0.090 HD
ENDBRANCH   5  18
BRANCH   3  22
ATOM     22  C   LIG d   1      -0.743  81.625 112.157  0.00  0.00     0.382 C 
ATOM     23  O   LIG d   1       0.360  82.160 111.891  0.00  0.00    -0.241 OA
ATOM     24  O   LIG d   1      -1.794  82.276 112.001  0.00  0.00    -0.241 OA
ENDBRANCH   3  22
TORSDOF 7
ENDMDL
MODEL 7
REMARK VINA RESULT:      -4.6     18.831     21.684
REMARK  7 active torsions:
REMARK  status: ('A' for Active; 'I' for Inactive)
REMARK    1  A    between atoms: C_2  and  C_3 
REMARK    2  A    between atoms: C_3  and  O_6 
REMARK    3  A    between atoms: C_3  and  C_4 
REMARK    4  A    between atoms: C_7  and  O_6 
REMARK    5  A    between atoms: C_9  and  C_10 
REMARK    6  A    between atoms: N_15  and  C_14 
REMARK    7  A    between atoms: N_20  and  C_19 
REMARK       I    between atoms: C_22  and  N_20 
ROOT
ATOM      1  C   LIG d   1      11.582  79.394 115.134  0.00  0.00     0.161 C 
ATOM      2  C   LIG d   1      10.882  80.533 114.703  0.00  0.00     0.016 C 
ATOM      3  C   LIG d   1      11.058  81.118 113.428  0.00  0.00     0.038 C 
ATOM      4  C   LIG d   1      11.840  80.511 112.435  0.00  0.00     0.028 C 
ATOM      5  C   LIG d   1      12.958  79.637 112.995  0.00  0.00    -0.047 C 
ATOM      6  C   LIG d   1      12.357  78.653 114.025  0.00  0.00     0.091 C 
ENDROOT
BRANCH   1   7
ATOM      7  O   LIG d   1      10.680  78.491 115.804  0.00  0.00    -0.368 OA
BRANCH   7   8
ATOM      8  C   LIG d   1       9.453  78.177 115.101  0.00  0.00     0.119 C 
BRANCH   8   9
ATOM      9  C   LIG d   1       8.280  78.616 115.998  0.00  0.00     0.028 C 
ATOM     10  C   LIG d   1       6.957  78.730 115.221  0.00  0.00     0.006 C 
ENDBRANCH   8   9
BRANCH   8  11
ATOM     11  C   LIG d   1       9.284  76.665 114.923  0.00  0.00     0.028 C 
ATOM     12  C   LIG d   1       9.559  75.879 116.214  0.00  0.00     0.006 C 
ENDBRANCH   8  11
ENDBRANCH   7   8
ENDBRANCH   1   7
BRANCH   6  13
ATOM     13  N   LIG d   1      13.395  77.817 114.683  0.00  0.00    -0.311 N 
ATOM     14  C   LIG d   1      13.368  76.486 114.691  0.00  0.00     0.210 C 
ATOM     15  C   LIG d   1      14.524  75.820 115.443  0.00  0.00     0.109 C 
ATOM     16  O   LIG d   1      12.513  75.793 114.119  0.00  0.00    -0.276 OA
ATOM     17  H   LIG d   1      14.143  78.298 115.144  0.00  0.00     0.149 HD
ENDBRANCH   6  13
BRANCH   5  18
ATOM     18  N   LIG d   1      13.605  78.958 111.857  0.00  0.00     0.381 N 
ATOM     19  H   LIG d   1      13.063  78.163 111.583  0.00  0.00    -0.090 HD
ATOM     20  H   LIG d   1      14.513  78.637 112.143  0.00  0.00    -0.090 HD
ATOM     21  H   LIG d   1      13.695  79.588 111.090  0.00  0.00    -0.090 HD
ENDBRANCH   5  18
BRANCH   3  22
ATOM     22  C   LIG d   1      10.478  82.347 113.150  0.00  0.00     0.382 C 
ATOM     23  O   LIG d   1       9.936  83.007 114.069  0.00  0.00    -0.241 OA
ATOM     24  O   LIG d   1      10.450  82.782 111.984  0.00  0.00    -0.241 OA
ENDBRANCH   3  22
TORSDOF 7
ENDMDL
MODEL 8
REMARK VINA RESULT:      -4.5      8.384     10.791
REMARK  7 active torsions:
REMARK  status: ('A' for Active; 'I' for Inactive)
REMARK    1  A    between atoms: C_2  and  C_3 
REMARK    2  A    between atoms: C_3  and  O_6 
REMARK    3  A    between atoms: C_3  and  C_4 
REMARK    4  A    between atoms: C_7  and  O_6 
REMARK    5  A    between atoms: C_9  and  C_10 
REMARK    6  A    between atoms: N_15  and  C_14 
REMARK    7  A    between atoms: N_20  and  C_19 
REMARK       I    between atoms: C_22  and  N_20 
ROOT
ATOM      1  C   LIG d   1       3.009  88.107 115.008  0.00  0.00     0.161 C 
ATOM      2  C   LIG d   1       3.246  89.041 116.030  0.00  0.00     0.016 C 
ATOM      3  C   LIG d   1       4.222  90.060 115.943  0.00  0.00     0.038 C 
ATOM      4  C   LIG d   1       4.929  90.310 114.758  0.00  0.00     0.028 C 
ATOM      5  C   LIG d   1       5.083  89.077 113.873  0.00  0.00    -0.047 C 
ATOM      6  C   LIG d   1       3.694  88.433 113.664  0.00  0.00     0.091 C 
ENDROOT
BRANCH   1   7
ATOM      7  O   LIG d   1       1.590  87.937 114.819  0.00  0.00    -0.368 OA
BRANCH   7   8
ATOM      8  C   LIG d   1       1.053  86.636 115.162  0.00  0.00     0.119 C 
BRANCH   8   9
ATOM      9  C   LIG d   1      -0.142  86.368 114.226  0.00  0.00     0.028 C 
ATOM     10  C   LIG d   1       0.204  85.378 113.102  0.00  0.00     0.006 C 
ENDBRANCH   8   9
BRANCH   8  11
ATOM     11  C   LIG d   1       0.469  86.630 116.578  0.00  0.00     0.028 C 
ATOM     12  C   LIG d   1      -0.995  86.164 116.616  0.00  0.00     0.006 C 
ENDBRANCH   8  11
ENDBRANCH   7   8
ENDBRANCH   1   7
BRANCH   6  13
ATOM     13  N   LIG d   1       3.766  87.173 112.879  0.00  0.00    -0.311 N 
ATOM     14  C   LIG d   1       3.197  87.020 111.684  0.00  0.00     0.210 C 
ATOM     15  C   LIG d   1       3.376  85.634 111.056  0.00  0.00     0.109 C 
ATOM     16  O   LIG d   1       2.589  87.910 111.071  0.00  0.00    -0.276 OA
ATOM     17  H   LIG d   1       4.267  86.409 113.288  0.00  0.00     0.149 HD
ENDBRANCH   6  13
BRANCH   5  18
ATOM     18  N   LIG d   1       5.716  89.510 112.613  0.00  0.00     0.381 N 
ATOM     19  H   LIG d   1       6.301  88.779 112.260  0.00  0.00    -0.090 HD
ATOM     20  H   LIG d   1       6.291  90.313 112.797  0.00  0.00    -0.090 HD
ATOM     21  H   LIG d   1       5.017  89.739 111.942  0.00  0.00    -0.090 HD
ENDBRANCH   5  18
BRANCH   3  22
ATOM     22  C   LIG d   1       4.527  90.817 117.064  0.00  0.00     0.382 C 
ATOM     23  O   LIG d   1       5.659  91.347 117.174  0.00  0.00    -0.241 OA
ATOM     24  O   LIG d   1       3.700  90.940 117.988  0.00  0.00    -0.241 OA
ENDBRANCH   3  22
TORSDOF 7
ENDMDL
MODEL 9
REMARK VINA RESULT:      -4.5     10.285     12.024
REMARK  7 active torsions:
REMARK  status: ('A' for Active; 'I' for Inactive)
REMARK    1  A    between atoms: C_2  and  C_3 
REMARK    2  A    between atoms: C_3  and  O_6 
REMARK    3  A    between atoms: C_3  and  C_4 
REMARK    4  A    between atoms: C_7  and  O_6 
REMARK    5  A    between atoms: C_9  and  C_10 
REMARK    6  A    between atoms: N_15  and  C_14 
REMARK    7  A    between atoms: N_20  and  C_19 
REMARK       I    between atoms: C_22  and  N_20 
ROOT
ATOM      1  C   LIG d   1       1.999  85.148 113.181  0.00  0.00     0.161 C 
ATOM      2  C   LIG d   1       2.582  86.250 112.534  0.00  0.00     0.016 C 
ATOM      3  C   LIG d   1       3.407  87.192 113.190  0.00  0.00     0.038 C 
ATOM      4  C   LIG d   1       3.830  87.011 114.515  0.00  0.00     0.028 C 
ATOM      5  C   LIG d   1       2.861  86.183 115.353  0.00  0.00    -0.047 C 
ATOM      6  C   LIG d   1       2.540  84.872 114.600  0.00  0.00     0.091 C 
ENDROOT
BRANCH   1   7
ATOM      7  O   LIG d   1       2.129  83.973 112.358  0.00  0.00    -0.368 OA
BRANCH   7   8
ATOM      8  C   LIG d   1       1.024  83.696 111.463  0.00  0.00     0.119 C 
BRANCH   8   9
ATOM      9  C   LIG d   1      -0.279  83.928 112.252  0.00  0.00     0.028 C 
ATOM     10  C   LIG d   1      -0.841  82.629 112.854  0.00  0.00     0.006 C 
ENDBRANCH   8   9
BRANCH   8  11
ATOM     11  C   LIG d   1       0.993  82.220 111.055  0.00  0.00     0.028 C 
ATOM     12  C   LIG d   1       2.387  81.572 111.060  0.00  0.00     0.006 C 
ENDBRANCH   8  11
ENDBRANCH   7   8
ENDBRANCH   1   7
BRANCH   6  13
ATOM     13  N   LIG d   1       1.533  84.042 115.311  0.00  0.00    -0.311 N 
ATOM     14  C   LIG d   1       1.766  82.796 115.719  0.00  0.00     0.210 C 
ATOM     15  C   LIG d   1       0.585  82.111 116.415  0.00  0.00     0.109 C 
ATOM     16  O   LIG d   1       2.849  82.203 115.598  0.00  0.00    -0.276 OA
ATOM     17  H   LIG d   1       0.637  84.456 115.478  0.00  0.00     0.149 HD
ENDBRANCH   6  13
BRANCH   5  18
ATOM     18  N   LIG d   1       3.490  85.956 116.668  0.00  0.00     0.381 N 
ATOM     19  H   LIG d   1       3.302  86.731 117.272  0.00  0.00    -0.090 HD
ATOM     20  H   LIG d   1       4.485  85.887 116.544  0.00  0.00    -0.090 HD
ATOM     21  H   LIG d   1       3.139  85.117 117.073  0.00  0.00    -0.090 HD
ENDBRANCH   5  18
BRANCH   3  22
ATOM     22  C   LIG d   1       3.784  88.353 112.531  0.00  0.00     0.382 C 
ATOM     23  O   LIG d   1       3.039  89.362 112.562  0.00  0.00    -0.241 OA
ATOM     24  O   LIG d   1       4.839  88.389 111.870  0.00  0.00    -0.241 OA
ENDBRANCH   3  22
TORSDOF 7
ENDMDL
