MODEL 1
REMARK VINA RESULT:      -6.3      0.000      0.000
REMARK  7 active torsions:
REMARK  status: ('A' for Active; 'I' for Inactive)
REMARK    1  A    between atoms: C_2  and  C_3 
REMARK    2  A    between atoms: C_3  and  O_6 
REMARK    3  A    between atoms: C_3  and  C_4 
REMARK    4  A    between atoms: C_7  and  O_6 
REMARK    5  A    between atoms: C_9  and  C_10 
REMARK    6  A    between atoms: N_15  and  C_14 
REMARK    7  A    between atoms: N_20  and  C_19 
REMARK       I    between atoms: C_22  and  N_20 
ROOT
ATOM      1  C   LIG d   1      -6.221  75.126 116.191  0.00  0.00     0.161 C 
ATOM      2  C   LIG d   1      -5.034  74.500 115.777  0.00  0.00     0.016 C 
ATOM      3  C   LIG d   1      -3.756  75.093 115.902  0.00  0.00     0.038 C 
ATOM      4  C   LIG d   1      -3.563  76.299 116.593  0.00  0.00     0.028 C 
ATOM      5  C   LIG d   1      -4.789  77.206 116.583  0.00  0.00    -0.047 C 
ATOM      6  C   LIG d   1      -6.019  76.393 117.048  0.00  0.00     0.091 C 
ENDROOT
BRANCH   1   7
ATOM      7  O   LIG d   1      -7.056  74.179 116.887  0.00  0.00    -0.368 OA
BRANCH   7   8
ATOM      8  C   LIG d   1      -8.127  73.585 116.112  0.00  0.00     0.119 C 
BRANCH   8   9
ATOM      9  C   LIG d   1      -9.417  73.695 116.948  0.00  0.00     0.028 C 
ATOM     10  C   LIG d   1     -10.205  74.981 116.645  0.00  0.00     0.006 C 
ENDBRANCH   8   9
BRANCH   8  11
ATOM     11  C   LIG d   1      -7.902  72.084 115.909  0.00  0.00     0.028 C 
ATOM     12  C   LIG d   1      -9.136  71.242 116.270  0.00  0.00     0.006 C 
ENDBRANCH   8  11
ENDBRANCH   7   8
ENDBRANCH   1   7
BRANCH   6  13
ATOM     13  N   LIG d   1      -7.276  77.183 116.987  0.00  0.00    -0.311 N 
ATOM     14  C   LIG d   1      -7.735  77.911 118.004  0.00  0.00     0.210 C 
ATOM     15  C   LIG d   1      -9.060  78.632 117.737  0.00  0.00     0.109 C 
ATOM     16  O   LIG d   1      -7.154  78.054 119.090  0.00  0.00    -0.276 OA
ATOM     17  H   LIG d   1      -7.795  77.149 116.132  0.00  0.00     0.149 HD
ENDBRANCH   6  13
BRANCH   5  18
ATOM     18  N   LIG d   1      -4.496  78.361 117.453  0.00  0.00     0.381 N 
ATOM     19  H   LIG d   1      -3.812  78.105 118.137  0.00  0.00    -0.090 HD
ATOM     20  H   LIG d   1      -5.337  78.628 117.933  0.00  0.00    -0.090 HD
ATOM     21  H   LIG d   1      -4.160  79.123 116.906  0.00  0.00    -0.090 HD
ENDBRANCH   5  18
BRANCH   3  22
ATOM     22  C   LIG d   1      -2.660  74.498 115.297  0.00  0.00     0.382 C 
ATOM     23  O   LIG d   1      -2.537  74.533 114.049  0.00  0.00    -0.241 OA
ATOM     24  O   LIG d   1      -1.815  73.889 115.980  0.00  0.00    -0.241 OA
ENDBRANCH   3  22
TORSDOF 7
ENDMDL
MODEL 2
REMARK VINA RESULT:      -6.2      1.613      5.087
REMARK  7 active torsions:
REMARK  status: ('A' for Active; 'I' for Inactive)
REMARK    1  A    between atoms: C_2  and  C_3 
REMARK    2  A    between atoms: C_3  and  O_6 
REMARK    3  A    between atoms: C_3  and  C_4 
REMARK    4  A    between atoms: C_7  and  O_6 
REMARK    5  A    between atoms: C_9  and  C_10 
REMARK    6  A    between atoms: N_15  and  C_14 
REMARK    7  A    between atoms: N_20  and  C_19 
REMARK       I    between atoms: C_22  and  N_20 
ROOT
ATOM      1  C   LIG d   1      -7.362  76.284 117.276  0.00  0.00     0.161 C 
ATOM      2  C   LIG d   1      -8.353  77.242 117.547  0.00  0.00     0.016 C 
ATOM      3  C   LIG d   1      -8.096  78.631 117.611  0.00  0.00     0.038 C 
ATOM      4  C   LIG d   1      -6.852  79.172 117.256  0.00  0.00     0.028 C 
ATOM      5  C   LIG d   1      -5.690  78.206 117.465  0.00  0.00    -0.047 C 
ATOM      6  C   LIG d   1      -6.022  76.863 116.776  0.00  0.00     0.091 C 
ENDROOT
BRANCH   1   7
ATOM      7  O   LIG d   1      -7.867  75.311 116.340  0.00  0.00    -0.368 OA
BRANCH   7   8
ATOM      8  C   LIG d   1      -7.928  73.943 116.814  0.00  0.00     0.119 C 
BRANCH   8   9
ATOM      9  C   LIG d   1      -7.052  73.089 115.877  0.00  0.00     0.028 C 
ATOM     10  C   LIG d   1      -7.485  71.614 115.851  0.00  0.00     0.006 C 
ENDBRANCH   8   9
BRANCH   8  11
ATOM     11  C   LIG d   1      -9.342  73.370 116.681  0.00  0.00     0.028 C 
ATOM     12  C   LIG d   1     -10.424  74.460 116.624  0.00  0.00     0.006 C 
ENDBRANCH   8  11
ENDBRANCH   7   8
ENDBRANCH   1   7
BRANCH   6  13
ATOM     13  N   LIG d   1      -4.975  75.834 117.004  0.00  0.00    -0.311 N 
ATOM     14  C   LIG d   1      -3.994  75.583 116.139  0.00  0.00     0.210 C 
ATOM     15  C   LIG d   1      -3.031  74.468 116.560  0.00  0.00     0.109 C 
ATOM     16  O   LIG d   1      -3.811  76.198 115.078  0.00  0.00    -0.276 OA
ATOM     17  H   LIG d   1      -5.029  75.309 117.855  0.00  0.00     0.149 HD
ENDBRANCH   6  13
BRANCH   5  18
ATOM     18  N   LIG d   1      -4.475  78.847 116.927  0.00  0.00     0.381 N 
ATOM     19  H   LIG d   1      -4.234  79.640 117.488  0.00  0.00    -0.090 HD
ATOM     20  H   LIG d   1      -4.663  79.167 115.993  0.00  0.00    -0.090 HD
ATOM     21  H   LIG d   1      -3.721  78.196 116.919  0.00  0.00    -0.090 HD
ENDBRANCH   5  18
BRANCH   3  22
ATOM     22  C   LIG d   1      -9.081  79.492 118.072  0.00  0.00     0.382 C 
ATOM     23  O   LIG d   1      -8.769  80.630 118.497  0.00  0.00    -0.241 OA
ATOM     24  O   LIG d   1     -10.271  79.127 118.111  0.00  0.00    -0.241 OA
ENDBRANCH   3  22
TORSDOF 7
ENDMDL
MODEL 3
REMARK VINA RESULT:      -5.7      2.581      4.246
REMARK  7 active torsions:
REMARK  status: ('A' for Active; 'I' for Inactive)
REMARK    1  A    between atoms: C_2  and  C_3 
REMARK    2  A    between atoms: C_3  and  O_6 
REMARK    3  A    between atoms: C_3  and  C_4 
REMARK    4  A    between atoms: C_7  and  O_6 
REMARK    5  A    between atoms: C_9  and  C_10 
REMARK    6  A    between atoms: N_15  and  C_14 
REMARK    7  A    between atoms: N_20  and  C_19 
REMARK       I    between atoms: C_22  and  N_20 
ROOT
ATOM      1  C   LIG d   1      -5.550  74.761 115.914  0.00  0.00     0.161 C 
ATOM      2  C   LIG d   1      -6.294  75.149 114.787  0.00  0.00     0.016 C 
ATOM      3  C   LIG d   1      -5.713  75.719 113.630  0.00  0.00     0.038 C 
ATOM      4  C   LIG d   1      -4.323  75.801 113.461  0.00  0.00     0.028 C 
ATOM      5  C   LIG d   1      -3.557  75.887 114.777  0.00  0.00    -0.047 C 
ATOM      6  C   LIG d   1      -4.022  74.740 115.704  0.00  0.00     0.091 C 
ENDROOT
BRANCH   1   7
ATOM      7  O   LIG d   1      -6.009  73.478 116.384  0.00  0.00    -0.368 OA
BRANCH   7   8
ATOM      8  C   LIG d   1      -7.374  73.127 116.046  0.00  0.00     0.119 C 
BRANCH   8   9
ATOM      9  C   LIG d   1      -8.267  73.553 117.228  0.00  0.00     0.028 C 
ATOM     10  C   LIG d   1      -9.253  74.669 116.846  0.00  0.00     0.006 C 
ENDBRANCH   8   9
BRANCH   8  11
ATOM     11  C   LIG d   1      -7.547  71.609 115.933  0.00  0.00     0.028 C 
ATOM     12  C   LIG d   1      -8.964  71.142 116.303  0.00  0.00     0.006 C 
ENDBRANCH   8  11
ENDBRANCH   7   8
ENDBRANCH   1   7
BRANCH   6  13
ATOM     13  N   LIG d   1      -3.383  74.800 117.044  0.00  0.00    -0.311 N 
ATOM     14  C   LIG d   1      -2.197  74.259 117.316  0.00  0.00     0.210 C 
ATOM     15  C   LIG d   1      -1.731  74.418 118.767  0.00  0.00     0.109 C 
ATOM     16  O   LIG d   1      -1.472  73.690 116.486  0.00  0.00    -0.276 OA
ATOM     17  H   LIG d   1      -3.888  75.271 117.770  0.00  0.00     0.149 HD
ENDBRANCH   6  13
BRANCH   5  18
ATOM     18  N   LIG d   1      -2.118  75.827 114.460  0.00  0.00     0.381 N 
ATOM     19  H   LIG d   1      -1.717  76.741 114.531  0.00  0.00    -0.090 HD
ATOM     20  H   LIG d   1      -2.007  75.507 113.514  0.00  0.00    -0.090 HD
ATOM     21  H   LIG d   1      -1.656  75.205 115.086  0.00  0.00    -0.090 HD
ENDBRANCH   5  18
BRANCH   3  22
ATOM     22  C   LIG d   1      -6.529  76.252 112.643  0.00  0.00     0.382 C 
ATOM     23  O   LIG d   1      -6.019  76.785 111.628  0.00  0.00    -0.241 OA
ATOM     24  O   LIG d   1      -7.768  76.246 112.776  0.00  0.00    -0.241 OA
ENDBRANCH   3  22
TORSDOF 7
ENDMDL
MODEL 4
REMARK VINA RESULT:      -5.5     13.347     15.809
REMARK  7 active torsions:
REMARK  status: ('A' for Active; 'I' for Inactive)
REMARK    1  A    between atoms: C_2  and  C_3 
REMARK    2  A    between atoms: C_3  and  O_6 
REMARK    3  A    between atoms: C_3  and  C_4 
REMARK    4  A    between atoms: C_7  and  O_6 
REMARK    5  A    between atoms: C_9  and  C_10 
REMARK    6  A    between atoms: N_15  and  C_14 
REMARK    7  A    between atoms: N_20  and  C_19 
REMARK       I    between atoms: C_22  and  N_20 
ROOT
ATOM      1  C   LIG d   1      -4.763  90.304 116.738  0.00  0.00     0.161 C 
ATOM      2  C   LIG d   1      -4.155  89.355 115.899  0.00  0.00     0.016 C 
ATOM      3  C   LIG d   1      -4.754  88.867 114.715  0.00  0.00     0.038 C 
ATOM      4  C   LIG d   1      -5.943  89.410 114.207  0.00  0.00     0.028 C 
ATOM      5  C   LIG d   1      -6.842  90.012 115.282  0.00  0.00    -0.047 C 
ATOM      6  C   LIG d   1      -6.010  90.990 116.142  0.00  0.00     0.091 C 
ENDROOT
BRANCH   1   7
ATOM      7  O   LIG d   1      -3.793  91.290 117.143  0.00  0.00    -0.368 OA
BRANCH   7   8
ATOM      8  C   LIG d   1      -2.529  90.779 117.631  0.00  0.00     0.119 C 
BRANCH   8   9
ATOM      9  C   LIG d   1      -2.784  90.161 119.019  0.00  0.00     0.028 C 
ATOM     10  C   LIG d   1      -1.878  88.951 119.299  0.00  0.00     0.006 C 
ENDBRANCH   8   9
BRANCH   8  11
ATOM     11  C   LIG d   1      -1.524  91.910 117.868  0.00  0.00     0.028 C 
ATOM     12  C   LIG d   1      -2.142  93.305 117.683  0.00  0.00     0.006 C 
ENDBRANCH   8  11
ENDBRANCH   7   8
ENDBRANCH   1   7
BRANCH   6  13
ATOM     13  N   LIG d   1      -6.792  91.559 117.270  0.00  0.00    -0.311 N 
ATOM     14  C   LIG d   1      -7.473  92.701 117.187  0.00  0.00     0.210 C 
ATOM     15  C   LIG d   1      -8.195  93.118 118.473  0.00  0.00     0.109 C 
ATOM     16  O   LIG d   1      -7.575  93.391 116.162  0.00  0.00    -0.276 OA
ATOM     17  H   LIG d   1      -6.790  91.047 118.131  0.00  0.00     0.149 HD
ENDBRANCH   6  13
BRANCH   5  18
ATOM     18  N   LIG d   1      -7.977  90.663 114.601  0.00  0.00     0.381 N 
ATOM     19  H   LIG d   1      -8.818  90.152 114.781  0.00  0.00    -0.090 HD
ATOM     20  H   LIG d   1      -7.809  90.655 113.610  0.00  0.00    -0.090 HD
ATOM     21  H   LIG d   1      -8.074  91.601 114.921  0.00  0.00    -0.090 HD
ENDBRANCH   5  18
BRANCH   3  22
ATOM     22  C   LIG d   1      -4.181  87.795 114.047  0.00  0.00     0.382 C 
ATOM     23  O   LIG d   1      -4.450  87.593 112.838  0.00  0.00    -0.241 OA
ATOM     24  O   LIG d   1      -3.434  87.001 114.649  0.00  0.00    -0.241 OA
ENDBRANCH   3  22
TORSDOF 7
ENDMDL
MODEL 5
REMARK VINA RESULT:      -5.3     12.035     14.474
REMARK  7 active torsions:
REMARK  status: ('A' for Active; 'I' for Inactive)
REMARK    1  A    between atoms: C_2  and  C_3 
REMARK    2  A    between atoms: C_3  and  O_6 
REMARK    3  A    between atoms: C_3  and  C_4 
REMARK    4  A    between atoms: C_7  and  O_6 
REMARK    5  A    between atoms: C_9  and  C_10 
REMARK    6  A    between atoms: N_15  and  C_14 
REMARK    7  A    between atoms: N_20  and  C_19 
REMARK       I    between atoms: C_22  and  N_20 
ROOT
ATOM      1  C   LIG d   1     -16.246  65.478 114.284  0.00  0.00     0.161 C 
ATOM      2  C   LIG d   1     -15.617  66.287 113.322  0.00  0.00     0.016 C 
ATOM      3  C   LIG d   1     -15.309  67.650 113.533  0.00  0.00     0.038 C 
ATOM      4  C   LIG d   1     -15.472  68.262 114.784  0.00  0.00     0.028 C 
ATOM      5  C   LIG d   1     -16.568  67.625 115.632  0.00  0.00    -0.047 C 
ATOM      6  C   LIG d   1     -16.331  66.099 115.694  0.00  0.00     0.091 C 
ENDROOT
BRANCH   1   7
ATOM      7  O   LIG d   1     -15.597  64.192 114.341  0.00  0.00    -0.368 OA
BRANCH   7   8
ATOM      8  C   LIG d   1     -16.366  63.069 113.845  0.00  0.00     0.119 C 
BRANCH   8   9
ATOM      9  C   LIG d   1     -17.704  63.620 113.316  0.00  0.00     0.028 C 
ATOM     10  C   LIG d   1     -18.918  62.908 113.935  0.00  0.00     0.006 C 
ENDBRANCH   8   9
BRANCH   8  11
ATOM     11  C   LIG d   1     -16.742  62.109 114.978  0.00  0.00     0.028 C 
ATOM     12  C   LIG d   1     -15.738  62.136 116.141  0.00  0.00     0.006 C 
ENDBRANCH   8  11
ENDBRANCH   7   8
ENDBRANCH   1   7
BRANCH   6  13
ATOM     13  N   LIG d   1     -17.405  65.388 116.434  0.00  0.00    -0.311 N 
ATOM     14  C   LIG d   1     -17.323  65.076 117.727  0.00  0.00     0.210 C 
ATOM     15  C   LIG d   1     -18.534  64.325 118.289  0.00  0.00     0.109 C 
ATOM     16  O   LIG d   1     -16.375  65.378 118.468  0.00  0.00    -0.276 OA
ATOM     17  H   LIG d   1     -18.224  65.133 115.917  0.00  0.00     0.149 HD
ENDBRANCH   6  13
BRANCH   5  18
ATOM     18  N   LIG d   1     -16.537  68.270 116.958  0.00  0.00     0.381 N 
ATOM     19  H   LIG d   1     -17.161  69.051 116.970  0.00  0.00    -0.090 HD
ATOM     20  H   LIG d   1     -15.607  68.606 117.134  0.00  0.00    -0.090 HD
ATOM     21  H   LIG d   1     -16.800  67.615 117.662  0.00  0.00    -0.090 HD
ENDBRANCH   5  18
BRANCH   3  22
ATOM     22  C   LIG d   1     -14.867  68.427 112.472  0.00  0.00     0.382 C 
ATOM     23  O   LIG d   1     -13.869  69.173 112.614  0.00  0.00    -0.241 OA
ATOM     24  O   LIG d   1     -15.482  68.424 111.388  0.00  0.00    -0.241 OA
ENDBRANCH   3  22
TORSDOF 7
ENDMDL
MODEL 6
REMARK VINA RESULT:      -5.2      3.671      5.667
REMARK  7 active torsions:
REMARK  status: ('A' for Active; 'I' for Inactive)
REMARK    1  A    between atoms: C_2  and  C_3 
REMARK    2  A    between atoms: C_3  and  O_6 
REMARK    3  A    between atoms: C_3  and  C_4 
REMARK    4  A    between atoms: C_7  and  O_6 
REMARK    5  A    between atoms: C_9  and  C_10 
REMARK    6  A    between atoms: N_15  and  C_14 
REMARK    7  A    between atoms: N_20  and  C_19 
REMARK       I    between atoms: C_22  and  N_20 
ROOT
ATOM      1  C   LIG d   1      -3.161  77.847 115.555  0.00  0.00     0.161 C 
ATOM      2  C   LIG d   1      -3.261  78.855 114.581  0.00  0.00     0.016 C 
ATOM      3  C   LIG d   1      -2.421  78.927 113.447  0.00  0.00     0.038 C 
ATOM      4  C   LIG d   1      -1.516  77.904 113.128  0.00  0.00     0.028 C 
ATOM      5  C   LIG d   1      -1.029  77.125 114.345  0.00  0.00    -0.047 C 
ATOM      6  C   LIG d   1      -2.254  76.661 115.166  0.00  0.00     0.091 C 
ENDROOT
BRANCH   1   7
ATOM      7  O   LIG d   1      -4.477  77.376 115.908  0.00  0.00    -0.368 OA
BRANCH   7   8
ATOM      8  C   LIG d   1      -4.833  76.057 115.426  0.00  0.00     0.119 C 
BRANCH   8   9
ATOM      9  C   LIG d   1      -6.018  76.223 114.456  0.00  0.00     0.028 C 
ATOM     10  C   LIG d   1      -5.654  75.837 113.013  0.00  0.00     0.006 C 
ENDBRANCH   8   9
BRANCH   8  11
ATOM     11  C   LIG d   1      -5.358  75.172 116.561  0.00  0.00     0.028 C 
ATOM     12  C   LIG d   1      -6.058  73.903 116.051  0.00  0.00     0.006 C 
ENDBRANCH   8  11
ENDBRANCH   7   8
ENDBRANCH   1   7
BRANCH   6  13
ATOM     13  N   LIG d   1      -1.864  75.963 116.419  0.00  0.00    -0.311 N 
ATOM     14  C   LIG d   1      -1.676  74.646 116.497  0.00  0.00     0.210 C 
ATOM     15  C   LIG d   1      -1.298  74.129 117.888  0.00  0.00     0.109 C 
ATOM     16  O   LIG d   1      -1.755  73.863 115.539  0.00  0.00    -0.276 OA
ATOM     17  H   LIG d   1      -1.749  76.527 117.238  0.00  0.00     0.149 HD
ENDBRANCH   6  13
BRANCH   5  18
ATOM     18  N   LIG d   1      -0.202  76.005 113.856  0.00  0.00     0.381 N 
ATOM     19  H   LIG d   1       0.596  75.890 114.448  0.00  0.00    -0.090 HD
ATOM     20  H   LIG d   1       0.121  76.221 112.929  0.00  0.00    -0.090 HD
ATOM     21  H   LIG d   1      -0.739  75.166 113.842  0.00  0.00    -0.090 HD
ENDBRANCH   5  18
BRANCH   3  22
ATOM     22  C   LIG d   1      -2.454  80.053 112.638  0.00  0.00     0.382 C 
ATOM     23  O   LIG d   1      -1.504  80.289 111.852  0.00  0.00    -0.241 OA
ATOM     24  O   LIG d   1      -3.399  80.860 112.717  0.00  0.00    -0.241 OA
ENDBRANCH   3  22
TORSDOF 7
ENDMDL
MODEL 7
REMARK VINA RESULT:      -5.2      4.297      6.699
REMARK  7 active torsions:
REMARK  status: ('A' for Active; 'I' for Inactive)
REMARK    1  A    between atoms: C_2  and  C_3 
REMARK    2  A    between atoms: C_3  and  O_6 
REMARK    3  A    between atoms: C_3  and  C_4 
REMARK    4  A    between atoms: C_7  and  O_6 
REMARK    5  A    between atoms: C_9  and  C_10 
REMARK    6  A    between atoms: N_15  and  C_14 
REMARK    7  A    between atoms: N_20  and  C_19 
REMARK       I    between atoms: C_22  and  N_20 
ROOT
ATOM      1  C   LIG d   1      -2.369  78.114 114.655  0.00  0.00     0.161 C 
ATOM      2  C   LIG d   1      -2.714  79.062 113.677  0.00  0.00     0.016 C 
ATOM      3  C   LIG d   1      -1.908  80.179 113.357  0.00  0.00     0.038 C 
ATOM      4  C   LIG d   1      -0.620  80.341 113.890  0.00  0.00     0.028 C 
ATOM      5  C   LIG d   1      -0.442  79.682 115.254  0.00  0.00    -0.047 C 
ATOM      6  C   LIG d   1      -0.917  78.214 115.168  0.00  0.00     0.091 C 
ENDROOT
BRANCH   1   7
ATOM      7  O   LIG d   1      -2.637  76.786 114.164  0.00  0.00    -0.368 OA
BRANCH   7   8
ATOM      8  C   LIG d   1      -3.697  76.060 114.834  0.00  0.00     0.119 C 
BRANCH   8   9
ATOM      9  C   LIG d   1      -3.123  74.697 115.265  0.00  0.00     0.028 C 
ATOM     10  C   LIG d   1      -1.980  74.225 114.351  0.00  0.00     0.006 C 
ENDBRANCH   8   9
BRANCH   8  11
ATOM     11  C   LIG d   1      -4.843  75.732 113.872  0.00  0.00     0.028 C 
ATOM     12  C   LIG d   1      -5.803  74.670 114.430  0.00  0.00     0.006 C 
ENDBRANCH   8  11
ENDBRANCH   7   8
ENDBRANCH   1   7
BRANCH   6  13
ATOM     13  N   LIG d   1      -0.856  77.520 116.481  0.00  0.00    -0.311 N 
ATOM     14  C   LIG d   1      -0.154  76.408 116.691  0.00  0.00     0.210 C 
ATOM     15  C   LIG d   1      -0.243  75.845 118.113  0.00  0.00     0.109 C 
ATOM     16  O   LIG d   1       0.560  75.852 115.843  0.00  0.00    -0.276 OA
ATOM     17  H   LIG d   1      -1.381  77.921 117.234  0.00  0.00     0.149 HD
ENDBRANCH   6  13
BRANCH   5  18
ATOM     18  N   LIG d   1       0.979  79.809 115.628  0.00  0.00     0.381 N 
ATOM     19  H   LIG d   1       1.535  79.206 115.056  0.00  0.00    -0.090 HD
ATOM     20  H   LIG d   1       1.090  79.526 116.586  0.00  0.00    -0.090 HD
ATOM     21  H   LIG d   1       1.278  80.753 115.517  0.00  0.00    -0.090 HD
ENDBRANCH   5  18
BRANCH   3  22
ATOM     22  C   LIG d   1      -2.405  81.169 112.523  0.00  0.00     0.382 C 
ATOM     23  O   LIG d   1      -3.639  81.252 112.315  0.00  0.00    -0.241 OA
ATOM     24  O   LIG d   1      -1.630  81.953 111.942  0.00  0.00    -0.241 OA
ENDBRANCH   3  22
TORSDOF 7
ENDMDL
MODEL 8
REMARK VINA RESULT:      -5.2     12.219     15.011
REMARK  7 active torsions:
REMARK  status: ('A' for Active; 'I' for Inactive)
REMARK    1  A    between atoms: C_2  and  C_3 
REMARK    2  A    between atoms: C_3  and  O_6 
REMARK    3  A    between atoms: C_3  and  C_4 
REMARK    4  A    between atoms: C_7  and  O_6 
REMARK    5  A    between atoms: C_9  and  C_10 
REMARK    6  A    between atoms: N_15  and  C_14 
REMARK    7  A    between atoms: N_20  and  C_19 
REMARK       I    between atoms: C_22  and  N_20 
ROOT
ATOM      1  C   LIG d   1     -16.589  65.065 114.155  0.00  0.00     0.161 C 
ATOM      2  C   LIG d   1     -16.161  66.021 113.218  0.00  0.00     0.016 C 
ATOM      3  C   LIG d   1     -15.302  67.096 113.542  0.00  0.00     0.038 C 
ATOM      4  C   LIG d   1     -14.689  67.204 114.798  0.00  0.00     0.028 C 
ATOM      5  C   LIG d   1     -15.487  66.548 115.920  0.00  0.00    -0.047 C 
ATOM      6  C   LIG d   1     -15.841  65.102 115.504  0.00  0.00     0.091 C 
ENDROOT
BRANCH   1   7
ATOM      7  O   LIG d   1     -16.515  63.747 113.577  0.00  0.00    -0.368 OA
BRANCH   7   8
ATOM      8  C   LIG d   1     -17.781  63.114 113.267  0.00  0.00     0.119 C 
BRANCH   8   9
ATOM      9  C   LIG d   1     -18.898  64.114 113.625  0.00  0.00     0.028 C 
ATOM     10  C   LIG d   1     -19.811  64.426 112.428  0.00  0.00     0.006 C 
ENDBRANCH   8   9
BRANCH   8  11
ATOM     11  C   LIG d   1     -18.027  61.895 114.160  0.00  0.00     0.028 C 
ATOM     12  C   LIG d   1     -16.772  61.027 114.344  0.00  0.00     0.006 C 
ENDBRANCH   8  11
ENDBRANCH   7   8
ENDBRANCH   1   7
BRANCH   6  13
ATOM     13  N   LIG d   1     -16.694  64.416 116.510  0.00  0.00    -0.311 N 
ATOM     14  C   LIG d   1     -16.311  63.329 117.178  0.00  0.00     0.210 C 
ATOM     15  C   LIG d   1     -17.350  62.769 118.153  0.00  0.00     0.109 C 
ATOM     16  O   LIG d   1     -15.196  62.795 117.078  0.00  0.00    -0.276 OA
ATOM     17  H   LIG d   1     -17.603  64.801 116.676  0.00  0.00     0.149 HD
ENDBRANCH   6  13
BRANCH   5  18
ATOM     18  N   LIG d   1     -14.669  66.612 117.146  0.00  0.00     0.381 N 
ATOM     19  H   LIG d   1     -15.248  66.462 117.948  0.00  0.00    -0.090 HD
ATOM     20  H   LIG d   1     -14.262  67.529 117.217  0.00  0.00    -0.090 HD
ATOM     21  H   LIG d   1     -13.950  65.924 117.113  0.00  0.00    -0.090 HD
ENDBRANCH   5  18
BRANCH   3  22
ATOM     22  C   LIG d   1     -15.082  68.102 112.613  0.00  0.00     0.382 C 
ATOM     23  O   LIG d   1     -15.533  67.990 111.448  0.00  0.00    -0.241 OA
ATOM     24  O   LIG d   1     -14.399  69.100 112.913  0.00  0.00    -0.241 OA
ENDBRANCH   3  22
TORSDOF 7
ENDMDL
MODEL 9
REMARK VINA RESULT:      -4.9     13.737     16.193
REMARK  7 active torsions:
REMARK  status: ('A' for Active; 'I' for Inactive)
REMARK    1  A    between atoms: C_2  and  C_3 
REMARK    2  A    between atoms: C_3  and  O_6 
REMARK    3  A    between atoms: C_3  and  C_4 
REMARK    4  A    between atoms: C_7  and  O_6 
REMARK    5  A    between atoms: C_9  and  C_10 
REMARK    6  A    between atoms: N_15  and  C_14 
REMARK    7  A    between atoms: N_20  and  C_19 
REMARK       I    between atoms: C_22  and  N_20 
ROOT
ATOM      1  C   LIG d   1       2.922  87.730 114.823  0.00  0.00     0.161 C 
ATOM      2  C   LIG d   1       2.780  88.741 115.788  0.00  0.00     0.016 C 
ATOM      3  C   LIG d   1       3.556  89.923 115.798  0.00  0.00     0.038 C 
ATOM      4  C   LIG d   1       4.429  90.245 114.749  0.00  0.00     0.028 C 
ATOM      5  C   LIG d   1       4.974  89.023 114.017  0.00  0.00    -0.047 C 
ATOM      6  C   LIG d   1       3.792  88.115 113.608  0.00  0.00     0.091 C 
ENDROOT
BRANCH   1   7
ATOM      7  O   LIG d   1       1.623  87.283 114.388  0.00  0.00    -0.368 OA
BRANCH   7   8
ATOM      8  C   LIG d   1       1.000  86.255 115.196  0.00  0.00     0.119 C 
BRANCH   8   9
ATOM      9  C   LIG d   1       1.945  85.037 115.206  0.00  0.00     0.028 C 
ATOM     10  C   LIG d   1       2.170  84.481 116.622  0.00  0.00     0.006 C 
ENDBRANCH   8   9
BRANCH   8  11
ATOM     11  C   LIG d   1      -0.299  85.754 114.557  0.00  0.00     0.028 C 
ATOM     12  C   LIG d   1      -0.056  84.916 113.292  0.00  0.00     0.006 C 
ENDBRANCH   8  11
ENDBRANCH   7   8
ENDBRANCH   1   7
BRANCH   6  13
ATOM     13  N   LIG d   1       4.243  86.855 112.961  0.00  0.00    -0.311 N 
ATOM     14  C   LIG d   1       3.680  86.353 111.863  0.00  0.00     0.210 C 
ATOM     15  C   LIG d   1       4.285  85.034 111.372  0.00  0.00     0.109 C 
ATOM     16  O   LIG d   1       2.760  86.892 111.230  0.00  0.00    -0.276 OA
ATOM     17  H   LIG d   1       5.005  86.369 113.390  0.00  0.00     0.149 HD
ENDBRANCH   6  13
BRANCH   5  18
ATOM     18  N   LIG d   1       5.758  89.506 112.865  0.00  0.00     0.381 N 
ATOM     19  H   LIG d   1       5.663  88.869 112.099  0.00  0.00    -0.090 HD
ATOM     20  H   LIG d   1       6.728  89.545 113.125  0.00  0.00    -0.090 HD
ATOM     21  H   LIG d   1       5.443  90.412 112.594  0.00  0.00    -0.090 HD
ENDBRANCH   5  18
BRANCH   3  22
ATOM     22  C   LIG d   1       3.491  90.778 116.888  0.00  0.00     0.382 C 
ATOM     23  O   LIG d   1       3.309  92.007 116.710  0.00  0.00    -0.241 OA
ATOM     24  O   LIG d   1       3.657  90.343 118.043  0.00  0.00    -0.241 OA
ENDBRANCH   3  22
TORSDOF 7
ENDMDL
