MODEL 1
REMARK VINA RESULT:      -5.8      0.000      0.000
REMARK  7 active torsions:
REMARK  status: ('A' for Active; 'I' for Inactive)
REMARK    1  A    between atoms: C_2  and  C_3 
REMARK    2  A    between atoms: C_3  and  O_6 
REMARK    3  A    between atoms: C_3  and  C_4 
REMARK    4  A    between atoms: C_7  and  O_6 
REMARK    5  A    between atoms: C_9  and  C_10 
REMARK    6  A    between atoms: N_15  and  C_14 
REMARK    7  A    between atoms: N_20  and  C_19 
REMARK       I    between atoms: C_22  and  N_20 
ROOT
ATOM      1  C   LIG d   1      -2.090  77.538 115.682  0.00  0.00     0.161 C 
ATOM      2  C   LIG d   1      -2.543  78.312 114.601  0.00  0.00     0.016 C 
ATOM      3  C   LIG d   1      -1.939  78.292 113.323  0.00  0.00     0.038 C 
ATOM      4  C   LIG d   1      -0.926  77.377 112.996  0.00  0.00     0.028 C 
ATOM      5  C   LIG d   1      -0.101  76.932 114.198  0.00  0.00    -0.047 C 
ATOM      6  C   LIG d   1      -1.057  76.453 115.314  0.00  0.00     0.091 C 
ENDROOT
BRANCH   1   7
ATOM      7  O   LIG d   1      -3.214  76.949 116.366  0.00  0.00    -0.368 OA
BRANCH   7   8
ATOM      8  C   LIG d   1      -4.402  76.728 115.567  0.00  0.00     0.119 C 
BRANCH   8   9
ATOM      9  C   LIG d   1      -5.614  77.173 116.407  0.00  0.00     0.028 C 
ATOM     10  C   LIG d   1      -5.268  78.313 117.380  0.00  0.00     0.006 C 
ENDBRANCH   8   9
BRANCH   8  11
ATOM     11  C   LIG d   1      -4.622  75.237 115.296  0.00  0.00     0.028 C 
ATOM     12  C   LIG d   1      -6.110  74.861 115.209  0.00  0.00     0.006 C 
ENDBRANCH   8  11
ENDBRANCH   7   8
ENDBRANCH   1   7
BRANCH   6  13
ATOM     13  N   LIG d   1      -0.335  76.078 116.557  0.00  0.00    -0.311 N 
ATOM     14  C   LIG d   1      -0.578  74.959 117.238  0.00  0.00     0.210 C 
ATOM     15  C   LIG d   1       0.265  74.776 118.503  0.00  0.00     0.109 C 
ATOM     16  O   LIG d   1      -1.390  74.086 116.896  0.00  0.00    -0.276 OA
ATOM     17  H   LIG d   1       0.363  76.715 116.889  0.00  0.00     0.149 HD
ENDBRANCH   6  13
BRANCH   5  18
ATOM     18  N   LIG d   1       0.824  75.879 113.738  0.00  0.00     0.381 N 
ATOM     19  H   LIG d   1       1.604  75.817 114.361  0.00  0.00    -0.090 HD
ATOM     20  H   LIG d   1       1.168  76.124 112.826  0.00  0.00    -0.090 HD
ATOM     21  H   LIG d   1       0.351  75.003 113.698  0.00  0.00    -0.090 HD
ENDBRANCH   5  18
BRANCH   3  22
ATOM     22  C   LIG d   1      -2.320  79.222 112.368  0.00  0.00     0.382 C 
ATOM     23  O   LIG d   1      -1.883  79.132 111.195  0.00  0.00    -0.241 OA
ATOM     24  O   LIG d   1      -3.061  80.175 112.675  0.00  0.00    -0.241 OA
ENDBRANCH   3  22
TORSDOF 7
ENDMDL
MODEL 2
REMARK VINA RESULT:      -5.1     15.980     18.843
REMARK  7 active torsions:
REMARK  status: ('A' for Active; 'I' for Inactive)
REMARK    1  A    between atoms: C_2  and  C_3 
REMARK    2  A    between atoms: C_3  and  O_6 
REMARK    3  A    between atoms: C_3  and  C_4 
REMARK    4  A    between atoms: C_7  and  O_6 
REMARK    5  A    between atoms: C_9  and  C_10 
REMARK    6  A    between atoms: N_15  and  C_14 
REMARK    7  A    between atoms: N_20  and  C_19 
REMARK       I    between atoms: C_22  and  N_20 
ROOT
ATOM      1  C   LIG d   1     -17.000  65.373 114.525  0.00  0.00     0.161 C 
ATOM      2  C   LIG d   1     -16.427  66.181 113.529  0.00  0.00     0.016 C 
ATOM      3  C   LIG d   1     -15.607  67.298 113.811  0.00  0.00     0.038 C 
ATOM      4  C   LIG d   1     -15.178  67.593 115.113  0.00  0.00     0.028 C 
ATOM      5  C   LIG d   1     -16.139  67.106 116.192  0.00  0.00    -0.047 C 
ATOM      6  C   LIG d   1     -16.453  65.613 115.948  0.00  0.00     0.091 C 
ENDROOT
BRANCH   1   7
ATOM      7  O   LIG d   1     -16.865  63.984 114.164  0.00  0.00    -0.368 OA
BRANCH   7   8
ATOM      8  C   LIG d   1     -18.097  63.274 113.887  0.00  0.00     0.119 C 
BRANCH   8   9
ATOM      9  C   LIG d   1     -19.255  64.279 114.044  0.00  0.00     0.028 C 
ATOM     10  C   LIG d   1     -20.193  64.288 112.825  0.00  0.00     0.006 C 
ENDBRANCH   8   9
BRANCH   8  11
ATOM     11  C   LIG d   1     -18.361  62.186 114.932  0.00  0.00     0.028 C 
ATOM     12  C   LIG d   1     -18.822  60.859 114.308  0.00  0.00     0.006 C 
ENDBRANCH   8  11
ENDBRANCH   7   8
ENDBRANCH   1   7
BRANCH   6  13
ATOM     13  N   LIG d   1     -17.452  65.079 116.910  0.00  0.00    -0.311 N 
ATOM     14  C   LIG d   1     -17.197  64.079 117.752  0.00  0.00     0.210 C 
ATOM     15  C   LIG d   1     -18.373  63.670 118.645  0.00  0.00     0.109 C 
ATOM     16  O   LIG d   1     -16.099  63.514 117.867  0.00  0.00    -0.276 OA
ATOM     17  H   LIG d   1     -18.360  65.501 116.906  0.00  0.00     0.149 HD
ENDBRANCH   6  13
BRANCH   5  18
ATOM     18  N   LIG d   1     -15.504  67.357 117.500  0.00  0.00     0.381 N 
ATOM     19  H   LIG d   1     -15.114  66.507 117.856  0.00  0.00    -0.090 HD
ATOM     20  H   LIG d   1     -16.204  67.677 118.146  0.00  0.00    -0.090 HD
ATOM     21  H   LIG d   1     -14.790  68.045 117.406  0.00  0.00    -0.090 HD
ENDBRANCH   5  18
BRANCH   3  22
ATOM     22  C   LIG d   1     -15.239  68.156 112.785  0.00  0.00     0.382 C 
ATOM     23  O   LIG d   1     -15.378  67.801 111.590  0.00  0.00    -0.241 OA
ATOM     24  O   LIG d   1     -14.730  69.264 113.041  0.00  0.00    -0.241 OA
ENDBRANCH   3  22
TORSDOF 7
ENDMDL
MODEL 3
REMARK VINA RESULT:      -5.1     11.158     13.003
REMARK  7 active torsions:
REMARK  status: ('A' for Active; 'I' for Inactive)
REMARK    1  A    between atoms: C_2  and  C_3 
REMARK    2  A    between atoms: C_3  and  O_6 
REMARK    3  A    between atoms: C_3  and  C_4 
REMARK    4  A    between atoms: C_7  and  O_6 
REMARK    5  A    between atoms: C_9  and  C_10 
REMARK    6  A    between atoms: N_15  and  C_14 
REMARK    7  A    between atoms: N_20  and  C_19 
REMARK       I    between atoms: C_22  and  N_20 
ROOT
ATOM      1  C   LIG d   1       3.089  87.970 114.772  0.00  0.00     0.161 C 
ATOM      2  C   LIG d   1       3.313  88.897 115.804  0.00  0.00     0.016 C 
ATOM      3  C   LIG d   1       4.405  89.796 115.819  0.00  0.00     0.038 C 
ATOM      4  C   LIG d   1       5.268  89.932 114.722  0.00  0.00     0.028 C 
ATOM      5  C   LIG d   1       5.379  88.667 113.877  0.00  0.00    -0.047 C 
ATOM      6  C   LIG d   1       3.958  88.180 113.514  0.00  0.00     0.091 C 
ENDROOT
BRANCH   1   7
ATOM      7  O   LIG d   1       1.692  87.959 114.420  0.00  0.00    -0.368 OA
BRANCH   7   8
ATOM      8  C   LIG d   1       0.968  86.741 114.725  0.00  0.00     0.119 C 
BRANCH   8   9
ATOM      9  C   LIG d   1       0.013  87.051 115.895  0.00  0.00     0.028 C 
ATOM     10  C   LIG d   1       0.663  86.796 117.265  0.00  0.00     0.006 C 
ENDBRANCH   8   9
BRANCH   8  11
ATOM     11  C   LIG d   1       1.907  85.650 115.246  0.00  0.00     0.028 C 
ATOM     12  C   LIG d   1       1.897  84.387 114.370  0.00  0.00     0.006 C 
ENDBRANCH   8  11
ENDBRANCH   7   8
ENDBRANCH   1   7
BRANCH   6  13
ATOM     13  N   LIG d   1       3.973  86.900 112.759  0.00  0.00    -0.311 N 
ATOM     14  C   LIG d   1       3.238  86.684 111.669  0.00  0.00     0.210 C 
ATOM     15  C   LIG d   1       3.388  85.288 111.055  0.00  0.00     0.109 C 
ATOM     16  O   LIG d   1       2.502  87.525 111.133  0.00  0.00    -0.276 OA
ATOM     17  H   LIG d   1       4.567  86.173 113.106  0.00  0.00     0.149 HD
ENDBRANCH   6  13
BRANCH   5  18
ATOM     18  N   LIG d   1       6.199  88.991 112.695  0.00  0.00     0.381 N 
ATOM     19  H   LIG d   1       6.407  88.155 112.187  0.00  0.00    -0.090 HD
ATOM     20  H   LIG d   1       7.065  89.398 113.001  0.00  0.00    -0.090 HD
ATOM     21  H   LIG d   1       5.712  89.632 112.107  0.00  0.00    -0.090 HD
ENDBRANCH   5  18
BRANCH   3  22
ATOM     22  C   LIG d   1       4.664  90.542 116.958  0.00  0.00     0.382 C 
ATOM     23  O   LIG d   1       4.238  91.718 117.048  0.00  0.00    -0.241 OA
ATOM     24  O   LIG d   1       5.358  90.069 117.879  0.00  0.00    -0.241 OA
ENDBRANCH   3  22
TORSDOF 7
ENDMDL
MODEL 4
REMARK VINA RESULT:      -5.1      8.173     10.556
REMARK  7 active torsions:
REMARK  status: ('A' for Active; 'I' for Inactive)
REMARK    1  A    between atoms: C_2  and  C_3 
REMARK    2  A    between atoms: C_3  and  O_6 
REMARK    3  A    between atoms: C_3  and  C_4 
REMARK    4  A    between atoms: C_7  and  O_6 
REMARK    5  A    between atoms: C_9  and  C_10 
REMARK    6  A    between atoms: N_15  and  C_14 
REMARK    7  A    between atoms: N_20  and  C_19 
REMARK       I    between atoms: C_22  and  N_20 
ROOT
ATOM      1  C   LIG d   1       2.957  84.479 113.808  0.00  0.00     0.161 C 
ATOM      2  C   LIG d   1       1.938  83.608 113.386  0.00  0.00     0.016 C 
ATOM      3  C   LIG d   1       1.100  83.870 112.277  0.00  0.00     0.038 C 
ATOM      4  C   LIG d   1       1.325  84.957 111.419  0.00  0.00     0.028 C 
ATOM      5  C   LIG d   1       2.022  86.131 112.097  0.00  0.00    -0.047 C 
ATOM      6  C   LIG d   1       3.289  85.615 112.817  0.00  0.00     0.091 C 
ENDROOT
BRANCH   1   7
ATOM      7  O   LIG d   1       4.145  83.726 114.122  0.00  0.00    -0.368 OA
BRANCH   7   8
ATOM      8  C   LIG d   1       4.211  82.384 113.579  0.00  0.00     0.119 C 
BRANCH   8   9
ATOM      9  C   LIG d   1       4.795  81.470 114.673  0.00  0.00     0.028 C 
ATOM     10  C   LIG d   1       4.108  81.670 116.034  0.00  0.00     0.006 C 
ENDBRANCH   8   9
BRANCH   8  11
ATOM     11  C   LIG d   1       5.200  82.304 112.412  0.00  0.00     0.028 C 
ATOM     12  C   LIG d   1       4.524  81.933 111.083  0.00  0.00     0.006 C 
ENDBRANCH   8  11
ENDBRANCH   7   8
ENDBRANCH   1   7
BRANCH   6  13
ATOM     13  N   LIG d   1       3.985  86.685 113.577  0.00  0.00    -0.311 N 
ATOM     14  C   LIG d   1       4.943  87.450 113.055  0.00  0.00     0.210 C 
ATOM     15  C   LIG d   1       5.543  88.481 114.017  0.00  0.00     0.109 C 
ATOM     16  O   LIG d   1       5.330  87.395 111.878  0.00  0.00    -0.276 OA
ATOM     17  H   LIG d   1       3.711  86.820 114.530  0.00  0.00     0.149 HD
ENDBRANCH   6  13
BRANCH   5  18
ATOM     18  N   LIG d   1       2.317  87.135 111.057  0.00  0.00     0.381 N 
ATOM     19  H   LIG d   1       1.615  87.102 110.345  0.00  0.00    -0.090 HD
ATOM     20  H   LIG d   1       3.203  86.917 110.637  0.00  0.00    -0.090 HD
ATOM     21  H   LIG d   1       2.347  88.045 111.461  0.00  0.00    -0.090 HD
ENDBRANCH   5  18
BRANCH   3  22
ATOM     22  C   LIG d   1      -0.001  83.061 112.042  0.00  0.00     0.382 C 
ATOM     23  O   LIG d   1       0.123  81.813 112.062  0.00  0.00    -0.241 OA
ATOM     24  O   LIG d   1      -1.107  83.564 111.768  0.00  0.00    -0.241 OA
ENDBRANCH   3  22
TORSDOF 7
ENDMDL
MODEL 5
REMARK VINA RESULT:      -4.9      9.970     12.238
REMARK  7 active torsions:
REMARK  status: ('A' for Active; 'I' for Inactive)
REMARK    1  A    between atoms: C_2  and  C_3 
REMARK    2  A    between atoms: C_3  and  O_6 
REMARK    3  A    between atoms: C_3  and  C_4 
REMARK    4  A    between atoms: C_7  and  O_6 
REMARK    5  A    between atoms: C_9  and  C_10 
REMARK    6  A    between atoms: N_15  and  C_14 
REMARK    7  A    between atoms: N_20  and  C_19 
REMARK       I    between atoms: C_22  and  N_20 
ROOT
ATOM      1  C   LIG d   1       1.601  86.994 114.467  0.00  0.00     0.161 C 
ATOM      2  C   LIG d   1       0.498  86.982 115.338  0.00  0.00     0.016 C 
ATOM      3  C   LIG d   1       0.382  87.837 116.458  0.00  0.00     0.038 C 
ATOM      4  C   LIG d   1       1.298  88.872 116.699  0.00  0.00     0.028 C 
ATOM      5  C   LIG d   1       2.688  88.594 116.136  0.00  0.00    -0.047 C 
ATOM      6  C   LIG d   1       2.557  88.191 114.650  0.00  0.00     0.091 C 
ENDROOT
BRANCH   1   7
ATOM      7  O   LIG d   1       1.146  86.919 113.102  0.00  0.00    -0.368 OA
BRANCH   7   8
ATOM      8  C   LIG d   1       1.106  85.595 112.515  0.00  0.00     0.119 C 
BRANCH   8   9
ATOM      9  C   LIG d   1       1.661  85.707 111.082  0.00  0.00     0.028 C 
ATOM     10  C   LIG d   1       3.193  85.839 111.055  0.00  0.00     0.006 C 
ENDBRANCH   8   9
BRANCH   8  11
ATOM     11  C   LIG d   1      -0.335  85.100 112.354  0.00  0.00     0.028 C 
ATOM     12  C   LIG d   1      -0.415  83.617 111.960  0.00  0.00     0.006 C 
ENDBRANCH   8  11
ENDBRANCH   7   8
ENDBRANCH   1   7
BRANCH   6  13
ATOM     13  N   LIG d   1       3.863  87.820 114.045  0.00  0.00    -0.311 N 
ATOM     14  C   LIG d   1       4.624  88.675 113.364  0.00  0.00     0.210 C 
ATOM     15  C   LIG d   1       5.923  88.082 112.808  0.00  0.00     0.109 C 
ATOM     16  O   LIG d   1       4.363  89.875 113.196  0.00  0.00    -0.276 OA
ATOM     17  H   LIG d   1       4.166  86.873 114.161  0.00  0.00     0.149 HD
ENDBRANCH   6  13
BRANCH   5  18
ATOM     18  N   LIG d   1       3.501  89.809 116.336  0.00  0.00     0.381 N 
ATOM     19  H   LIG d   1       2.945  90.621 116.161  0.00  0.00    -0.090 HD
ATOM     20  H   LIG d   1       4.263  89.801 115.682  0.00  0.00    -0.090 HD
ATOM     21  H   LIG d   1       3.854  89.833 117.268  0.00  0.00    -0.090 HD
ENDBRANCH   5  18
BRANCH   3  22
ATOM     22  C   LIG d   1      -0.638  87.634 117.375  0.00  0.00     0.382 C 
ATOM     23  O   LIG d   1      -0.389  87.100 118.482  0.00  0.00    -0.241 OA
ATOM     24  O   LIG d   1      -1.812  87.938 117.090  0.00  0.00    -0.241 OA
ENDBRANCH   3  22
TORSDOF 7
ENDMDL
MODEL 6
REMARK VINA RESULT:      -4.8      1.715      2.469
REMARK  7 active torsions:
REMARK  status: ('A' for Active; 'I' for Inactive)
REMARK    1  A    between atoms: C_2  and  C_3 
REMARK    2  A    between atoms: C_3  and  O_6 
REMARK    3  A    between atoms: C_3  and  C_4 
REMARK    4  A    between atoms: C_7  and  O_6 
REMARK    5  A    between atoms: C_9  and  C_10 
REMARK    6  A    between atoms: N_15  and  C_14 
REMARK    7  A    between atoms: N_20  and  C_19 
REMARK       I    between atoms: C_22  and  N_20 
ROOT
ATOM      1  C   LIG d   1      -1.989  77.746 116.016  0.00  0.00     0.161 C 
ATOM      2  C   LIG d   1      -2.647  78.284 114.897  0.00  0.00     0.016 C 
ATOM      3  C   LIG d   1      -2.204  78.093 113.568  0.00  0.00     0.038 C 
ATOM      4  C   LIG d   1      -1.153  77.218 113.255  0.00  0.00     0.028 C 
ATOM      5  C   LIG d   1      -0.146  77.053 114.388  0.00  0.00    -0.047 C 
ATOM      6  C   LIG d   1      -0.905  76.698 115.687  0.00  0.00     0.091 C 
ENDROOT
BRANCH   1   7
ATOM      7  O   LIG d   1      -2.955  77.196 116.933  0.00  0.00    -0.368 OA
BRANCH   7   8
ATOM      8  C   LIG d   1      -3.026  77.824 118.236  0.00  0.00     0.119 C 
BRANCH   8   9
ATOM      9  C   LIG d   1      -4.498  78.205 118.487  0.00  0.00     0.028 C 
ATOM     10  C   LIG d   1      -5.018  79.240 117.475  0.00  0.00     0.006 C 
ENDBRANCH   8   9
BRANCH   8  11
ATOM     11  C   LIG d   1      -2.256  79.148 118.260  0.00  0.00     0.028 C 
ATOM     12  C   LIG d   1      -1.110  79.152 119.284  0.00  0.00     0.006 C 
ENDBRANCH   8  11
ENDBRANCH   7   8
ENDBRANCH   1   7
BRANCH   6  13
ATOM     13  N   LIG d   1      -0.002  76.601 116.863  0.00  0.00    -0.311 N 
ATOM     14  C   LIG d   1       0.074  75.523 117.642  0.00  0.00     0.210 C 
ATOM     15  C   LIG d   1       1.055  75.639 118.813  0.00  0.00     0.109 C 
ATOM     16  O   LIG d   1      -0.554  74.470 117.455  0.00  0.00    -0.276 OA
ATOM     17  H   LIG d   1       0.567  77.399 117.068  0.00  0.00     0.149 HD
ENDBRANCH   6  13
BRANCH   5  18
ATOM     18  N   LIG d   1       0.817  76.013 113.979  0.00  0.00     0.381 N 
ATOM     19  H   LIG d   1       1.105  75.484 114.778  0.00  0.00    -0.090 HD
ATOM     20  H   LIG d   1       1.628  76.457 113.586  0.00  0.00    -0.090 HD
ATOM     21  H   LIG d   1       0.401  75.408 113.305  0.00  0.00    -0.090 HD
ENDBRANCH   5  18
BRANCH   3  22
ATOM     22  C   LIG d   1      -2.792  78.812 112.538  0.00  0.00     0.382 C 
ATOM     23  O   LIG d   1      -2.781  80.066 112.564  0.00  0.00    -0.241 OA
ATOM     24  O   LIG d   1      -3.371  78.223 111.606  0.00  0.00    -0.241 OA
ENDBRANCH   3  22
TORSDOF 7
ENDMDL
MODEL 7
REMARK VINA RESULT:      -4.7      9.589     11.114
REMARK  7 active torsions:
REMARK  status: ('A' for Active; 'I' for Inactive)
REMARK    1  A    between atoms: C_2  and  C_3 
REMARK    2  A    between atoms: C_3  and  O_6 
REMARK    3  A    between atoms: C_3  and  C_4 
REMARK    4  A    between atoms: C_7  and  O_6 
REMARK    5  A    between atoms: C_9  and  C_10 
REMARK    6  A    between atoms: N_15  and  C_14 
REMARK    7  A    between atoms: N_20  and  C_19 
REMARK       I    between atoms: C_22  and  N_20 
ROOT
ATOM      1  C   LIG d   1       3.542  85.324 114.684  0.00  0.00     0.161 C 
ATOM      2  C   LIG d   1       3.363  86.480 113.905  0.00  0.00     0.016 C 
ATOM      3  C   LIG d   1       4.261  87.572 113.916  0.00  0.00     0.038 C 
ATOM      4  C   LIG d   1       5.485  87.519 114.598  0.00  0.00     0.028 C 
ATOM      5  C   LIG d   1       5.470  86.578 115.798  0.00  0.00    -0.047 C 
ATOM      6  C   LIG d   1       4.928  85.201 115.350  0.00  0.00     0.091 C 
ENDROOT
BRANCH   1   7
ATOM      7  O   LIG d   1       3.260  84.153 113.893  0.00  0.00    -0.368 OA
BRANCH   7   8
ATOM      8  C   LIG d   1       3.292  84.332 112.455  0.00  0.00     0.119 C 
BRANCH   8   9
ATOM      9  C   LIG d   1       2.058  83.617 111.872  0.00  0.00     0.028 C 
ATOM     10  C   LIG d   1       0.830  83.723 112.792  0.00  0.00     0.006 C 
ENDBRANCH   8   9
BRANCH   8  11
ATOM     11  C   LIG d   1       4.501  83.626 111.833  0.00  0.00     0.028 C 
ATOM     12  C   LIG d   1       4.962  82.406 112.646  0.00  0.00     0.006 C 
ENDBRANCH   8  11
ENDBRANCH   7   8
ENDBRANCH   1   7
BRANCH   6  13
ATOM     13  N   LIG d   1       4.801  84.246 116.481  0.00  0.00    -0.311 N 
ATOM     14  C   LIG d   1       5.565  83.164 116.617  0.00  0.00     0.210 C 
ATOM     15  C   LIG d   1       5.254  82.303 117.845  0.00  0.00     0.109 C 
ATOM     16  O   LIG d   1       6.491  82.852 115.854  0.00  0.00    -0.276 OA
ATOM     17  H   LIG d   1       4.094  84.440 117.164  0.00  0.00     0.149 HD
ENDBRANCH   6  13
BRANCH   5  18
ATOM     18  N   LIG d   1       6.843  86.513 116.332  0.00  0.00     0.381 N 
ATOM     19  H   LIG d   1       7.006  85.615 116.740  0.00  0.00    -0.090 HD
ATOM     20  H   LIG d   1       6.946  87.209 117.049  0.00  0.00    -0.090 HD
ATOM     21  H   LIG d   1       7.501  86.678 115.602  0.00  0.00    -0.090 HD
ENDBRANCH   5  18
BRANCH   3  22
ATOM     22  C   LIG d   1       3.917  88.750 113.270  0.00  0.00     0.382 C 
ATOM     23  O   LIG d   1       4.573  89.798 113.487  0.00  0.00    -0.241 OA
ATOM     24  O   LIG d   1       2.933  88.789 112.508  0.00  0.00    -0.241 OA
ENDBRANCH   3  22
TORSDOF 7
ENDMDL
MODEL 8
REMARK VINA RESULT:      -4.5     17.214     20.189
REMARK  7 active torsions:
REMARK  status: ('A' for Active; 'I' for Inactive)
REMARK    1  A    between atoms: C_2  and  C_3 
REMARK    2  A    between atoms: C_3  and  O_6 
REMARK    3  A    between atoms: C_3  and  C_4 
REMARK    4  A    between atoms: C_7  and  O_6 
REMARK    5  A    between atoms: C_9  and  C_10 
REMARK    6  A    between atoms: N_15  and  C_14 
REMARK    7  A    between atoms: N_20  and  C_19 
REMARK       I    between atoms: C_22  and  N_20 
ROOT
ATOM      1  C   LIG d   1     -16.918  63.854 116.695  0.00  0.00     0.161 C 
ATOM      2  C   LIG d   1     -16.329  65.098 116.977  0.00  0.00     0.016 C 
ATOM      3  C   LIG d   1     -16.171  66.121 116.014  0.00  0.00     0.038 C 
ATOM      4  C   LIG d   1     -16.733  66.025 114.732  0.00  0.00     0.028 C 
ATOM      5  C   LIG d   1     -16.895  64.588 114.248  0.00  0.00    -0.047 C 
ATOM      6  C   LIG d   1     -17.636  63.773 115.332  0.00  0.00     0.091 C 
ENDROOT
BRANCH   1   7
ATOM      7  O   LIG d   1     -17.819  63.488 117.759  0.00  0.00    -0.368 OA
BRANCH   7   8
ATOM      8  C   LIG d   1     -17.265  62.650 118.803  0.00  0.00     0.119 C 
BRANCH   8   9
ATOM      9  C   LIG d   1     -16.048  61.914 118.209  0.00  0.00     0.028 C 
ATOM     10  C   LIG d   1     -14.854  61.879 119.177  0.00  0.00     0.006 C 
ENDBRANCH   8   9
BRANCH   8  11
ATOM     11  C   LIG d   1     -18.246  61.548 119.213  0.00  0.00     0.028 C 
ATOM     12  C   LIG d   1     -19.228  61.178 118.090  0.00  0.00     0.006 C 
ENDBRANCH   8  11
ENDBRANCH   7   8
ENDBRANCH   1   7
BRANCH   6  13
ATOM     13  N   LIG d   1     -17.762  62.336 114.975  0.00  0.00    -0.311 N 
ATOM     14  C   LIG d   1     -18.844  61.816 114.398  0.00  0.00     0.210 C 
ATOM     15  C   LIG d   1     -18.774  60.309 114.133  0.00  0.00     0.109 C 
ATOM     16  O   LIG d   1     -19.842  62.465 114.051  0.00  0.00    -0.276 OA
ATOM     17  H   LIG d   1     -16.985  61.742 115.193  0.00  0.00     0.149 HD
ENDBRANCH   6  13
BRANCH   5  18
ATOM     18  N   LIG d   1     -17.616  64.629 112.962  0.00  0.00     0.381 N 
ATOM     19  H   LIG d   1     -17.653  65.570 112.624  0.00  0.00    -0.090 HD
ATOM     20  H   LIG d   1     -18.557  64.309 113.107  0.00  0.00    -0.090 HD
ATOM     21  H   LIG d   1     -17.158  64.047 112.295  0.00  0.00    -0.090 HD
ENDBRANCH   5  18
BRANCH   3  22
ATOM     22  C   LIG d   1     -15.410  67.240 116.317  0.00  0.00     0.382 C 
ATOM     23  O   LIG d   1     -14.366  67.121 117.002  0.00  0.00    -0.241 OA
ATOM     24  O   LIG d   1     -15.779  68.372 115.952  0.00  0.00    -0.241 OA
ENDBRANCH   3  22
TORSDOF 7
ENDMDL
MODEL 9
REMARK VINA RESULT:      -4.4     11.018     13.279
REMARK  7 active torsions:
REMARK  status: ('A' for Active; 'I' for Inactive)
REMARK    1  A    between atoms: C_2  and  C_3 
REMARK    2  A    between atoms: C_3  and  O_6 
REMARK    3  A    between atoms: C_3  and  C_4 
REMARK    4  A    between atoms: C_7  and  O_6 
REMARK    5  A    between atoms: C_9  and  C_10 
REMARK    6  A    between atoms: N_15  and  C_14 
REMARK    7  A    between atoms: N_20  and  C_19 
REMARK       I    between atoms: C_22  and  N_20 
ROOT
ATOM      1  C   LIG d   1       2.437  88.453 114.828  0.00  0.00     0.161 C 
ATOM      2  C   LIG d   1       3.064  89.399 115.655  0.00  0.00     0.016 C 
ATOM      3  C   LIG d   1       2.591  89.743 116.942  0.00  0.00     0.038 C 
ATOM      4  C   LIG d   1       1.537  89.048 117.555  0.00  0.00     0.028 C 
ATOM      5  C   LIG d   1       0.559  88.432 116.560  0.00  0.00    -0.047 C 
ATOM      6  C   LIG d   1       1.352  87.604 115.523  0.00  0.00     0.091 C 
ENDROOT
BRANCH   1   7
ATOM      7  O   LIG d   1       3.429  87.599 114.223  0.00  0.00    -0.368 OA
BRANCH   7   8
ATOM      8  C   LIG d   1       3.942  88.030 112.938  0.00  0.00     0.119 C 
BRANCH   8   9
ATOM      9  C   LIG d   1       3.372  87.076 111.870  0.00  0.00     0.028 C 
ATOM     10  C   LIG d   1       4.429  86.095 111.336  0.00  0.00     0.006 C 
ENDBRANCH   8   9
BRANCH   8  11
ATOM     11  C   LIG d   1       5.462  87.863 112.861  0.00  0.00     0.028 C 
ATOM     12  C   LIG d   1       6.126  87.799 114.246  0.00  0.00     0.006 C 
ENDBRANCH   8  11
ENDBRANCH   7   8
ENDBRANCH   1   7
BRANCH   6  13
ATOM     13  N   LIG d   1       0.478  87.036 114.463  0.00  0.00    -0.311 N 
ATOM     14  C   LIG d   1       0.626  85.807 113.973  0.00  0.00     0.210 C 
ATOM     15  C   LIG d   1      -0.369  85.426 112.872  0.00  0.00     0.109 C 
ATOM     16  O   LIG d   1       1.465  84.984 114.368  0.00  0.00    -0.276 OA
ATOM     17  H   LIG d   1      -0.249  87.625 114.108  0.00  0.00     0.149 HD
ENDBRANCH   6  13
BRANCH   5  18
ATOM     18  N   LIG d   1      -0.408  87.624 117.327  0.00  0.00     0.381 N 
ATOM     19  H   LIG d   1       0.077  87.062 117.997  0.00  0.00    -0.090 HD
ATOM     20  H   LIG d   1      -0.895  87.013 116.696  0.00  0.00    -0.090 HD
ATOM     21  H   LIG d   1      -1.058  88.220 117.791  0.00  0.00    -0.090 HD
ENDBRANCH   5  18
BRANCH   3  22
ATOM     22  C   LIG d   1       3.148  90.819 117.615  0.00  0.00     0.382 C 
ATOM     23  O   LIG d   1       3.672  91.759 116.969  0.00  0.00    -0.241 OA
ATOM     24  O   LIG d   1       3.173  90.842 118.860  0.00  0.00    -0.241 OA
ENDBRANCH   3  22
TORSDOF 7
ENDMDL
