MODEL 1
REMARK VINA RESULT:      -5.4      0.000      0.000
REMARK  7 active torsions:
REMARK  status: ('A' for Active; 'I' for Inactive)
REMARK    1  A    between atoms: C_2  and  C_3 
REMARK    2  A    between atoms: C_3  and  O_6 
REMARK    3  A    between atoms: C_3  and  C_4 
REMARK    4  A    between atoms: C_7  and  O_6 
REMARK    5  A    between atoms: C_9  and  C_10 
REMARK    6  A    between atoms: N_15  and  C_14 
REMARK    7  A    between atoms: N_20  and  C_19 
REMARK       I    between atoms: C_22  and  N_20 
ROOT
ATOM      1  C   LIG d   1      -8.291  74.021 117.077  0.00  0.00     0.161 C 
ATOM      2  C   LIG d   1      -8.000  72.697 116.707  0.00  0.00     0.016 C 
ATOM      3  C   LIG d   1      -8.849  71.604 116.994  0.00  0.00     0.038 C 
ATOM      4  C   LIG d   1     -10.128  71.783 117.542  0.00  0.00     0.028 C 
ATOM      5  C   LIG d   1     -10.253  73.043 118.391  0.00  0.00    -0.047 C 
ATOM      6  C   LIG d   1      -9.733  74.250 117.577  0.00  0.00     0.091 C 
ENDROOT
BRANCH   1   7
ATOM      7  O   LIG d   1      -7.993  74.911 115.984  0.00  0.00    -0.368 OA
BRANCH   7   8
ATOM      8  C   LIG d   1      -6.820  75.747 116.144  0.00  0.00     0.119 C 
BRANCH   8   9
ATOM      9  C   LIG d   1      -5.763  75.261 115.133  0.00  0.00     0.028 C 
ATOM     10  C   LIG d   1      -4.600  74.519 115.811  0.00  0.00     0.006 C 
ENDBRANCH   8   9
BRANCH   8  11
ATOM     11  C   LIG d   1      -6.182  75.552 117.523  0.00  0.00     0.028 C 
ATOM     12  C   LIG d   1      -6.214  76.828 118.380  0.00  0.00     0.006 C 
ENDBRANCH   8  11
ENDBRANCH   7   8
ENDBRANCH   1   7
BRANCH   6  13
ATOM     13  N   LIG d   1      -9.741  75.511 118.364  0.00  0.00    -0.311 N 
ATOM     14  C   LIG d   1     -10.803  76.309 118.459  0.00  0.00     0.210 C 
ATOM     15  C   LIG d   1     -10.591  77.569 119.304  0.00  0.00     0.109 C 
ATOM     16  O   LIG d   1     -11.910  76.077 117.950  0.00  0.00    -0.276 OA
ATOM     17  H   LIG d   1      -8.893  75.760 118.835  0.00  0.00     0.149 HD
ENDBRANCH   6  13
BRANCH   5  18
ATOM     18  N   LIG d   1     -11.668  73.178 118.785  0.00  0.00     0.381 N 
ATOM     19  H   LIG d   1     -12.164  72.339 118.559  0.00  0.00    -0.090 HD
ATOM     20  H   LIG d   1     -12.078  73.936 118.269  0.00  0.00    -0.090 HD
ATOM     21  H   LIG d   1     -11.734  73.358 119.763  0.00  0.00    -0.090 HD
ENDBRANCH   5  18
BRANCH   3  22
ATOM     22  C   LIG d   1      -8.404  70.310 116.769  0.00  0.00     0.382 C 
ATOM     23  O   LIG d   1      -7.405  70.109 116.037  0.00  0.00    -0.241 OA
ATOM     24  O   LIG d   1      -9.016  69.339 117.252  0.00  0.00    -0.241 OA
ENDBRANCH   3  22
TORSDOF 7
ENDMDL
MODEL 2
REMARK VINA RESULT:      -5.3      9.975     12.228
REMARK  7 active torsions:
REMARK  status: ('A' for Active; 'I' for Inactive)
REMARK    1  A    between atoms: C_2  and  C_3 
REMARK    2  A    between atoms: C_3  and  O_6 
REMARK    3  A    between atoms: C_3  and  C_4 
REMARK    4  A    between atoms: C_7  and  O_6 
REMARK    5  A    between atoms: C_9  and  C_10 
REMARK    6  A    between atoms: N_15  and  C_14 
REMARK    7  A    between atoms: N_20  and  C_19 
REMARK       I    between atoms: C_22  and  N_20 
ROOT
ATOM      1  C   LIG d   1     -15.027  65.954 115.730  0.00  0.00     0.161 C 
ATOM      2  C   LIG d   1     -14.813  67.180 115.079  0.00  0.00     0.016 C 
ATOM      3  C   LIG d   1     -15.545  67.596 113.943  0.00  0.00     0.038 C 
ATOM      4  C   LIG d   1     -16.651  66.875 113.469  0.00  0.00     0.028 C 
ATOM      5  C   LIG d   1     -16.583  65.385 113.785  0.00  0.00    -0.047 C 
ATOM      6  C   LIG d   1     -16.303  65.204 115.294  0.00  0.00     0.091 C 
ENDROOT
BRANCH   1   7
ATOM      7  O   LIG d   1     -15.024  66.151 117.157  0.00  0.00    -0.368 OA
BRANCH   7   8
ATOM      8  C   LIG d   1     -16.314  66.077 117.813  0.00  0.00     0.119 C 
BRANCH   8   9
ATOM      9  C   LIG d   1     -16.660  67.493 118.314  0.00  0.00     0.028 C 
ATOM     10  C   LIG d   1     -17.384  68.332 117.247  0.00  0.00     0.006 C 
ENDBRANCH   8   9
BRANCH   8  11
ATOM     11  C   LIG d   1     -16.250  65.207 119.072  0.00  0.00     0.028 C 
ATOM     12  C   LIG d   1     -15.049  64.247 119.072  0.00  0.00     0.006 C 
ENDBRANCH   8  11
ENDBRANCH   7   8
ENDBRANCH   1   7
BRANCH   6  13
ATOM     13  N   LIG d   1     -16.138  63.777 115.673  0.00  0.00    -0.311 N 
ATOM     14  C   LIG d   1     -17.140  63.012 116.103  0.00  0.00     0.210 C 
ATOM     15  C   LIG d   1     -16.749  61.574 116.460  0.00  0.00     0.109 C 
ATOM     16  O   LIG d   1     -18.321  63.378 116.193  0.00  0.00    -0.276 OA
ATOM     17  H   LIG d   1     -15.218  63.389 115.601  0.00  0.00     0.149 HD
ENDBRANCH   6  13
BRANCH   5  18
ATOM     18  N   LIG d   1     -17.859  64.780 113.357  0.00  0.00     0.381 N 
ATOM     19  H   LIG d   1     -18.534  65.499 113.187  0.00  0.00    -0.090 HD
ATOM     20  H   LIG d   1     -18.203  64.192 114.095  0.00  0.00    -0.090 HD
ATOM     21  H   LIG d   1     -17.721  64.242 112.530  0.00  0.00    -0.090 HD
ENDBRANCH   5  18
BRANCH   3  22
ATOM     22  C   LIG d   1     -15.147  68.726 113.245  0.00  0.00     0.382 C 
ATOM     23  O   LIG d   1     -15.963  69.326 112.505  0.00  0.00    -0.241 OA
ATOM     24  O   LIG d   1     -13.969  69.127 113.311  0.00  0.00    -0.241 OA
ENDBRANCH   3  22
TORSDOF 7
ENDMDL
MODEL 3
REMARK VINA RESULT:      -5.3      9.872     13.158
REMARK  7 active torsions:
REMARK  status: ('A' for Active; 'I' for Inactive)
REMARK    1  A    between atoms: C_2  and  C_3 
REMARK    2  A    between atoms: C_3  and  O_6 
REMARK    3  A    between atoms: C_3  and  C_4 
REMARK    4  A    between atoms: C_7  and  O_6 
REMARK    5  A    between atoms: C_9  and  C_10 
REMARK    6  A    between atoms: N_15  and  C_14 
REMARK    7  A    between atoms: N_20  and  C_19 
REMARK       I    between atoms: C_22  and  N_20 
ROOT
ATOM      1  C   LIG d   1     -16.779  65.467 114.493  0.00  0.00     0.161 C 
ATOM      2  C   LIG d   1     -16.430  66.558 113.681  0.00  0.00     0.016 C 
ATOM      3  C   LIG d   1     -15.401  67.473 114.005  0.00  0.00     0.038 C 
ATOM      4  C   LIG d   1     -14.546  67.269 115.098  0.00  0.00     0.028 C 
ATOM      5  C   LIG d   1     -15.182  66.460 116.223  0.00  0.00    -0.047 C 
ATOM      6  C   LIG d   1     -15.783  65.164 115.633  0.00  0.00     0.091 C 
ENDROOT
BRANCH   1   7
ATOM      7  O   LIG d   1     -16.978  64.295 113.678  0.00  0.00    -0.368 OA
BRANCH   7   8
ATOM      8  C   LIG d   1     -18.340  63.812 113.579  0.00  0.00     0.119 C 
BRANCH   8   9
ATOM      9  C   LIG d   1     -19.246  64.828 114.302  0.00  0.00     0.028 C 
ATOM     10  C   LIG d   1     -20.320  65.421 113.375  0.00  0.00     0.006 C 
ENDBRANCH   8   9
BRANCH   8  11
ATOM     11  C   LIG d   1     -18.521  62.494 114.339  0.00  0.00     0.028 C 
ATOM     12  C   LIG d   1     -19.451  62.631 115.555  0.00  0.00     0.006 C 
ENDBRANCH   8  11
ENDBRANCH   7   8
ENDBRANCH   1   7
BRANCH   6  13
ATOM     13  N   LIG d   1     -16.499  64.355 116.653  0.00  0.00    -0.311 N 
ATOM     14  C   LIG d   1     -15.934  63.352 117.322  0.00  0.00     0.210 C 
ATOM     15  C   LIG d   1     -16.856  62.636 118.314  0.00  0.00     0.109 C 
ATOM     16  O   LIG d   1     -14.748  63.008 117.212  0.00  0.00    -0.276 OA
ATOM     17  H   LIG d   1     -17.458  64.586 116.828  0.00  0.00     0.149 HD
ENDBRANCH   6  13
BRANCH   5  18
ATOM     18  N   LIG d   1     -14.139  66.205 117.235  0.00  0.00     0.381 N 
ATOM     19  H   LIG d   1     -13.352  66.799 117.066  0.00  0.00    -0.090 HD
ATOM     20  H   LIG d   1     -13.837  65.250 117.156  0.00  0.00    -0.090 HD
ATOM     21  H   LIG d   1     -14.501  66.373 118.148  0.00  0.00    -0.090 HD
ENDBRANCH   5  18
BRANCH   3  22
ATOM     22  C   LIG d   1     -15.247  68.628 113.254  0.00  0.00     0.382 C 
ATOM     23  O   LIG d   1     -14.126  69.189 113.190  0.00  0.00    -0.241 OA
ATOM     24  O   LIG d   1     -16.224  69.142 112.677  0.00  0.00    -0.241 OA
ENDBRANCH   3  22
TORSDOF 7
ENDMDL
MODEL 4
REMARK VINA RESULT:      -5.3     15.067     18.164
REMARK  7 active torsions:
REMARK  status: ('A' for Active; 'I' for Inactive)
REMARK    1  A    between atoms: C_2  and  C_3 
REMARK    2  A    between atoms: C_3  and  O_6 
REMARK    3  A    between atoms: C_3  and  C_4 
REMARK    4  A    between atoms: C_7  and  O_6 
REMARK    5  A    between atoms: C_9  and  C_10 
REMARK    6  A    between atoms: N_15  and  C_14 
REMARK    7  A    between atoms: N_20  and  C_19 
REMARK       I    between atoms: C_22  and  N_20 
ROOT
ATOM      1  C   LIG d   1       4.187  85.434 113.015  0.00  0.00     0.161 C 
ATOM      2  C   LIG d   1       4.627  86.712 113.399  0.00  0.00     0.016 C 
ATOM      3  C   LIG d   1       3.957  87.905 113.042  0.00  0.00     0.038 C 
ATOM      4  C   LIG d   1       2.710  87.891 112.401  0.00  0.00     0.028 C 
ATOM      5  C   LIG d   1       2.478  86.645 111.553  0.00  0.00    -0.047 C 
ATOM      6  C   LIG d   1       2.768  85.393 112.411  0.00  0.00     0.091 C 
ENDROOT
BRANCH   1   7
ATOM      7  O   LIG d   1       4.282  84.529 114.133  0.00  0.00    -0.368 OA
BRANCH   7   8
ATOM      8  C   LIG d   1       4.195  85.130 115.449  0.00  0.00     0.119 C 
BRANCH   8   9
ATOM      9  C   LIG d   1       5.241  84.437 116.344  0.00  0.00     0.028 C 
ATOM     10  C   LIG d   1       6.162  85.441 117.056  0.00  0.00     0.006 C 
ENDBRANCH   8   9
BRANCH   8  11
ATOM     11  C   LIG d   1       2.843  84.840 116.106  0.00  0.00     0.028 C 
ATOM     12  C   LIG d   1       1.808  85.948 115.853  0.00  0.00     0.006 C 
ENDBRANCH   8  11
ENDBRANCH   7   8
ENDBRANCH   1   7
BRANCH   6  13
ATOM     13  N   LIG d   1       2.647  84.132 111.632  0.00  0.00    -0.311 N 
ATOM     14  C   LIG d   1       1.850  83.126 111.986  0.00  0.00     0.210 C 
ATOM     15  C   LIG d   1       1.891  81.910 111.055  0.00  0.00     0.109 C 
ATOM     16  O   LIG d   1       1.088  83.138 112.965  0.00  0.00    -0.276 OA
ATOM     17  H   LIG d   1       3.207  84.051 110.806  0.00  0.00     0.149 HD
ENDBRANCH   6  13
BRANCH   5  18
ATOM     18  N   LIG d   1       1.091  86.697 111.055  0.00  0.00     0.381 N 
ATOM     19  H   LIG d   1       0.902  85.890 110.494  0.00  0.00    -0.090 HD
ATOM     20  H   LIG d   1       0.981  87.513 110.480  0.00  0.00    -0.090 HD
ATOM     21  H   LIG d   1       0.455  86.733 111.821  0.00  0.00    -0.090 HD
ENDBRANCH   5  18
BRANCH   3  22
ATOM     22  C   LIG d   1       4.556  89.130 113.293  0.00  0.00     0.382 C 
ATOM     23  O   LIG d   1       5.590  89.190 114.001  0.00  0.00    -0.241 OA
ATOM     24  O   LIG d   1       4.051  90.181 112.855  0.00  0.00    -0.241 OA
ENDBRANCH   3  22
TORSDOF 7
ENDMDL
MODEL 5
REMARK VINA RESULT:      -5.2      1.962      4.701
REMARK  7 active torsions:
REMARK  status: ('A' for Active; 'I' for Inactive)
REMARK    1  A    between atoms: C_2  and  C_3 
REMARK    2  A    between atoms: C_3  and  O_6 
REMARK    3  A    between atoms: C_3  and  C_4 
REMARK    4  A    between atoms: C_7  and  O_6 
REMARK    5  A    between atoms: C_9  and  C_10 
REMARK    6  A    between atoms: N_15  and  C_14 
REMARK    7  A    between atoms: N_20  and  C_19 
REMARK       I    between atoms: C_22  and  N_20 
ROOT
ATOM      1  C   LIG d   1      -7.991  74.256 117.095  0.00  0.00     0.161 C 
ATOM      2  C   LIG d   1      -7.199  74.117 115.943  0.00  0.00     0.016 C 
ATOM      3  C   LIG d   1      -6.442  75.173 115.387  0.00  0.00     0.038 C 
ATOM      4  C   LIG d   1      -6.305  76.409 116.036  0.00  0.00     0.028 C 
ATOM      5  C   LIG d   1      -7.489  76.756 116.933  0.00  0.00    -0.047 C 
ATOM      6  C   LIG d   1      -7.767  75.566 117.879  0.00  0.00     0.091 C 
ENDROOT
BRANCH   1   7
ATOM      7  O   LIG d   1      -7.803  73.117 117.958  0.00  0.00    -0.368 OA
BRANCH   7   8
ATOM      8  C   LIG d   1      -8.849  72.114 117.927  0.00  0.00     0.119 C 
BRANCH   8   9
ATOM      9  C   LIG d   1      -8.394  71.000 116.966  0.00  0.00     0.028 C 
ATOM     10  C   LIG d   1      -9.353  69.797 116.965  0.00  0.00     0.006 C 
ENDBRANCH   8   9
BRANCH   8  11
ATOM     11  C   LIG d   1     -10.138  72.673 117.319  0.00  0.00     0.028 C 
ATOM     12  C   LIG d   1     -11.319  72.654 118.303  0.00  0.00     0.006 C 
ENDBRANCH   8  11
ENDBRANCH   7   8
ENDBRANCH   1   7
BRANCH   6  13
ATOM     13  N   LIG d   1      -8.963  75.788 118.734  0.00  0.00    -0.311 N 
ATOM     14  C   LIG d   1     -10.160  76.111 118.249  0.00  0.00     0.210 C 
ATOM     15  C   LIG d   1     -11.252  76.315 119.304  0.00  0.00     0.109 C 
ATOM     16  O   LIG d   1     -10.430  76.218 117.043  0.00  0.00    -0.276 OA
ATOM     17  H   LIG d   1      -8.841  75.691 119.723  0.00  0.00     0.149 HD
ENDBRANCH   6  13
BRANCH   5  18
ATOM     18  N   LIG d   1      -7.154  78.000 117.652  0.00  0.00     0.381 N 
ATOM     19  H   LIG d   1      -6.816  77.781 118.568  0.00  0.00    -0.090 HD
ATOM     20  H   LIG d   1      -7.987  78.554 117.748  0.00  0.00    -0.090 HD
ATOM     21  H   LIG d   1      -6.463  78.510 117.148  0.00  0.00    -0.090 HD
ENDBRANCH   5  18
BRANCH   3  22
ATOM     22  C   LIG d   1      -5.843  75.011 114.147  0.00  0.00     0.382 C 
ATOM     23  O   LIG d   1      -5.445  73.877 113.786  0.00  0.00    -0.241 OA
ATOM     24  O   LIG d   1      -5.654  75.992 113.403  0.00  0.00    -0.241 OA
ENDBRANCH   3  22
TORSDOF 7
ENDMDL
MODEL 6
REMARK VINA RESULT:      -5.0     14.705     17.251
REMARK  7 active torsions:
REMARK  status: ('A' for Active; 'I' for Inactive)
REMARK    1  A    between atoms: C_2  and  C_3 
REMARK    2  A    between atoms: C_3  and  O_6 
REMARK    3  A    between atoms: C_3  and  C_4 
REMARK    4  A    between atoms: C_7  and  O_6 
REMARK    5  A    between atoms: C_9  and  C_10 
REMARK    6  A    between atoms: N_15  and  C_14 
REMARK    7  A    between atoms: N_20  and  C_19 
REMARK       I    between atoms: C_22  and  N_20 
ROOT
ATOM      1  C   LIG d   1       2.731  84.808 113.199  0.00  0.00     0.161 C 
ATOM      2  C   LIG d   1       2.725  86.076 112.594  0.00  0.00     0.016 C 
ATOM      3  C   LIG d   1       3.253  87.234 113.208  0.00  0.00     0.038 C 
ATOM      4  C   LIG d   1       3.966  87.174 114.415  0.00  0.00     0.028 C 
ATOM      5  C   LIG d   1       3.556  86.003 115.302  0.00  0.00    -0.047 C 
ATOM      6  C   LIG d   1       3.603  84.702 114.468  0.00  0.00     0.091 C 
ENDROOT
BRANCH   1   7
ATOM      7  O   LIG d   1       3.123  83.809 112.237  0.00  0.00    -0.368 OA
BRANCH   7   8
ATOM      8  C   LIG d   1       2.044  83.136 111.542  0.00  0.00     0.119 C 
BRANCH   8   9
ATOM      9  C   LIG d   1       0.766  83.317 112.384  0.00  0.00     0.028 C 
ATOM     10  C   LIG d   1      -0.454  83.691 111.526  0.00  0.00     0.006 C 
ENDBRANCH   8   9
BRANCH   8  11
ATOM     11  C   LIG d   1       2.279  81.624 111.481  0.00  0.00     0.028 C 
ATOM     12  C   LIG d   1       2.230  80.957 112.864  0.00  0.00     0.006 C 
ENDBRANCH   8  11
ENDBRANCH   7   8
ENDBRANCH   1   7
BRANCH   6  13
ATOM     13  N   LIG d   1       3.136  83.519 115.237  0.00  0.00    -0.311 N 
ATOM     14  C   LIG d   1       3.959  82.683 115.867  0.00  0.00     0.210 C 
ATOM     15  C   LIG d   1       3.271  81.517 116.584  0.00  0.00     0.109 C 
ATOM     16  O   LIG d   1       5.190  82.815 115.928  0.00  0.00    -0.276 OA
ATOM     17  H   LIG d   1       2.148  83.355 115.266  0.00  0.00     0.149 HD
ENDBRANCH   6  13
BRANCH   5  18
ATOM     18  N   LIG d   1       4.470  85.981 116.460  0.00  0.00     0.381 N 
ATOM     19  H   LIG d   1       5.009  85.138 116.450  0.00  0.00    -0.090 HD
ATOM     20  H   LIG d   1       3.925  85.996 117.304  0.00  0.00    -0.090 HD
ATOM     21  H   LIG d   1       5.076  86.771 116.432  0.00  0.00    -0.090 HD
ENDBRANCH   5  18
BRANCH   3  22
ATOM     22  C   LIG d   1       3.037  88.477 112.632  0.00  0.00     0.382 C 
ATOM     23  O   LIG d   1       3.874  89.397 112.794  0.00  0.00    -0.241 OA
ATOM     24  O   LIG d   1       1.994  88.703 111.989  0.00  0.00    -0.241 OA
ENDBRANCH   3  22
TORSDOF 7
ENDMDL
MODEL 7
REMARK VINA RESULT:      -4.9      4.895      8.479
REMARK  7 active torsions:
REMARK  status: ('A' for Active; 'I' for Inactive)
REMARK    1  A    between atoms: C_2  and  C_3 
REMARK    2  A    between atoms: C_3  and  O_6 
REMARK    3  A    between atoms: C_3  and  C_4 
REMARK    4  A    between atoms: C_7  and  O_6 
REMARK    5  A    between atoms: C_9  and  C_10 
REMARK    6  A    between atoms: N_15  and  C_14 
REMARK    7  A    between atoms: N_20  and  C_19 
REMARK       I    between atoms: C_22  and  N_20 
ROOT
ATOM      1  C   LIG d   1      -3.422  75.408 115.759  0.00  0.00     0.161 C 
ATOM      2  C   LIG d   1      -3.700  76.439 114.846  0.00  0.00     0.016 C 
ATOM      3  C   LIG d   1      -2.703  77.103 114.095  0.00  0.00     0.038 C 
ATOM      4  C   LIG d   1      -1.367  76.674 114.094  0.00  0.00     0.028 C 
ATOM      5  C   LIG d   1      -0.957  75.965 115.380  0.00  0.00    -0.047 C 
ATOM      6  C   LIG d   1      -1.984  74.852 115.689  0.00  0.00     0.091 C 
ENDROOT
BRANCH   1   7
ATOM      7  O   LIG d   1      -4.379  74.342 115.598  0.00  0.00    -0.368 OA
BRANCH   7   8
ATOM      8  C   LIG d   1      -5.538  74.390 116.467  0.00  0.00     0.119 C 
BRANCH   8   9
ATOM      9  C   LIG d   1      -5.120  73.803 117.829  0.00  0.00     0.028 C 
ATOM     10  C   LIG d   1      -5.119  74.859 118.947  0.00  0.00     0.006 C 
ENDBRANCH   8   9
BRANCH   8  11
ATOM     11  C   LIG d   1      -6.655  73.476 115.956  0.00  0.00     0.028 C 
ATOM     12  C   LIG d   1      -7.916  73.529 116.833  0.00  0.00     0.006 C 
ENDBRANCH   8  11
ENDBRANCH   7   8
ENDBRANCH   1   7
BRANCH   6  13
ATOM     13  N   LIG d   1      -1.705  74.164 116.976  0.00  0.00    -0.311 N 
ATOM     14  C   LIG d   1      -1.002  73.036 117.067  0.00  0.00     0.210 C 
ATOM     15  C   LIG d   1      -0.848  72.483 118.487  0.00  0.00     0.109 C 
ATOM     16  O   LIG d   1      -0.464  72.459 116.110  0.00  0.00    -0.276 OA
ATOM     17  H   LIG d   1      -2.078  74.581 117.806  0.00  0.00     0.149 HD
ENDBRANCH   6  13
BRANCH   5  18
ATOM     18  N   LIG d   1       0.413  75.452 115.190  0.00  0.00     0.381 N 
ATOM     19  H   LIG d   1       0.453  74.488 115.454  0.00  0.00    -0.090 HD
ATOM     20  H   LIG d   1       1.039  75.968 115.783  0.00  0.00    -0.090 HD
ATOM     21  H   LIG d   1       0.686  75.555 114.237  0.00  0.00    -0.090 HD
ENDBRANCH   5  18
BRANCH   3  22
ATOM     22  C   LIG d   1      -3.032  78.234 113.364  0.00  0.00     0.382 C 
ATOM     23  O   LIG d   1      -2.934  79.370 113.888  0.00  0.00    -0.241 OA
ATOM     24  O   LIG d   1      -3.468  78.130 112.201  0.00  0.00    -0.241 OA
ENDBRANCH   3  22
TORSDOF 7
ENDMDL
MODEL 8
REMARK VINA RESULT:      -4.9      4.056      6.156
REMARK  7 active torsions:
REMARK  status: ('A' for Active; 'I' for Inactive)
REMARK    1  A    between atoms: C_2  and  C_3 
REMARK    2  A    between atoms: C_3  and  O_6 
REMARK    3  A    between atoms: C_3  and  C_4 
REMARK    4  A    between atoms: C_7  and  O_6 
REMARK    5  A    between atoms: C_9  and  C_10 
REMARK    6  A    between atoms: N_15  and  C_14 
REMARK    7  A    between atoms: N_20  and  C_19 
REMARK       I    between atoms: C_22  and  N_20 
ROOT
ATOM      1  C   LIG d   1      -3.863  74.974 117.044  0.00  0.00     0.161 C 
ATOM      2  C   LIG d   1      -4.632  73.880 117.473  0.00  0.00     0.016 C 
ATOM      3  C   LIG d   1      -5.737  73.374 116.751  0.00  0.00     0.038 C 
ATOM      4  C   LIG d   1      -6.058  73.838 115.466  0.00  0.00     0.028 C 
ATOM      5  C   LIG d   1      -5.622  75.277 115.215  0.00  0.00    -0.047 C 
ATOM      6  C   LIG d   1      -4.129  75.422 115.591  0.00  0.00     0.091 C 
ENDROOT
BRANCH   1   7
ATOM      7  O   LIG d   1      -2.462  74.692 117.232  0.00  0.00    -0.368 OA
BRANCH   7   8
ATOM      8  C   LIG d   1      -2.023  73.364 116.851  0.00  0.00     0.119 C 
BRANCH   8   9
ATOM      9  C   LIG d   1      -1.185  72.802 118.016  0.00  0.00     0.028 C 
ATOM     10  C   LIG d   1      -0.921  73.851 119.109  0.00  0.00     0.006 C 
ENDBRANCH   8   9
BRANCH   8  11
ATOM     11  C   LIG d   1      -1.070  73.415 115.653  0.00  0.00     0.028 C 
ATOM     12  C   LIG d   1      -0.456  74.807 115.439  0.00  0.00     0.006 C 
ENDBRANCH   8  11
ENDBRANCH   7   8
ENDBRANCH   1   7
BRANCH   6  13
ATOM     13  N   LIG d   1      -3.644  76.820 115.455  0.00  0.00    -0.311 N 
ATOM     14  C   LIG d   1      -3.039  77.283 114.363  0.00  0.00     0.210 C 
ATOM     15  C   LIG d   1      -2.599  78.748 114.439  0.00  0.00     0.109 C 
ATOM     16  O   LIG d   1      -2.853  76.628 113.326  0.00  0.00    -0.276 OA
ATOM     17  H   LIG d   1      -3.782  77.429 116.238  0.00  0.00     0.149 HD
ENDBRANCH   6  13
BRANCH   5  18
ATOM     18  N   LIG d   1      -5.893  75.584 113.798  0.00  0.00     0.381 N 
ATOM     19  H   LIG d   1      -5.846  74.746 113.254  0.00  0.00    -0.090 HD
ATOM     20  H   LIG d   1      -5.189  76.218 113.462  0.00  0.00    -0.090 HD
ATOM     21  H   LIG d   1      -6.794  75.999 113.705  0.00  0.00    -0.090 HD
ENDBRANCH   5  18
BRANCH   3  22
ATOM     22  C   LIG d   1      -6.559  72.420 117.331  0.00  0.00     0.382 C 
ATOM     23  O   LIG d   1      -6.734  72.416 118.573  0.00  0.00    -0.241 OA
ATOM     24  O   LIG d   1      -7.092  71.537 116.633  0.00  0.00    -0.241 OA
ENDBRANCH   3  22
TORSDOF 7
ENDMDL
MODEL 9
REMARK VINA RESULT:      -4.7      2.035      5.025
REMARK  7 active torsions:
REMARK  status: ('A' for Active; 'I' for Inactive)
REMARK    1  A    between atoms: C_2  and  C_3 
REMARK    2  A    between atoms: C_3  and  O_6 
REMARK    3  A    between atoms: C_3  and  C_4 
REMARK    4  A    between atoms: C_7  and  O_6 
REMARK    5  A    between atoms: C_9  and  C_10 
REMARK    6  A    between atoms: N_15  and  C_14 
REMARK    7  A    between atoms: N_20  and  C_19 
REMARK       I    between atoms: C_22  and  N_20 
ROOT
ATOM      1  C   LIG d   1      -7.516  74.979 117.198  0.00  0.00     0.161 C 
ATOM      2  C   LIG d   1      -7.765  76.333 117.476  0.00  0.00     0.016 C 
ATOM      3  C   LIG d   1      -8.913  76.788 118.165  0.00  0.00     0.038 C 
ATOM      4  C   LIG d   1      -9.822  75.899 118.758  0.00  0.00     0.028 C 
ATOM      5  C   LIG d   1      -9.877  74.540 118.069  0.00  0.00    -0.047 C 
ATOM      6  C   LIG d   1      -8.440  73.987 117.934  0.00  0.00     0.091 C 
ENDROOT
BRANCH   1   7
ATOM      7  O   LIG d   1      -6.134  74.670 117.467  0.00  0.00    -0.368 OA
BRANCH   7   8
ATOM      8  C   LIG d   1      -5.305  74.395 116.311  0.00  0.00     0.119 C 
BRANCH   8   9
ATOM      9  C   LIG d   1      -4.427  75.638 116.065  0.00  0.00     0.028 C 
ATOM     10  C   LIG d   1      -3.363  75.831 117.158  0.00  0.00     0.006 C 
ENDBRANCH   8   9
BRANCH   8  11
ATOM     11  C   LIG d   1      -6.151  74.238 115.044  0.00  0.00     0.028 C 
ATOM     12  C   LIG d   1      -5.815  75.285 113.970  0.00  0.00     0.006 C 
ENDBRANCH   8  11
ENDBRANCH   7   8
ENDBRANCH   1   7
BRANCH   6  13
ATOM     13  N   LIG d   1      -8.396  72.698 117.195  0.00  0.00    -0.311 N 
ATOM     14  C   LIG d   1      -7.656  71.658 117.578  0.00  0.00     0.210 C 
ATOM     15  C   LIG d   1      -7.740  70.433 116.663  0.00  0.00     0.109 C 
ATOM     16  O   LIG d   1      -6.963  71.624 118.606  0.00  0.00    -0.276 OA
ATOM     17  H   LIG d   1      -8.953  72.628 116.366  0.00  0.00     0.149 HD
ENDBRANCH   6  13
BRANCH   5  18
ATOM     18  N   LIG d   1     -10.759  73.670 118.871  0.00  0.00     0.381 N 
ATOM     19  H   LIG d   1     -11.301  74.226 119.501  0.00  0.00    -0.090 HD
ATOM     20  H   LIG d   1     -10.191  73.042 119.412  0.00  0.00    -0.090 HD
ATOM     21  H   LIG d   1     -11.362  73.150 118.271  0.00  0.00    -0.090 HD
ENDBRANCH   5  18
BRANCH   3  22
ATOM     22  C   LIG d   1      -9.182  78.146 118.230  0.00  0.00     0.382 C 
ATOM     23  O   LIG d   1      -8.276  78.977 117.979  0.00  0.00    -0.241 OA
ATOM     24  O   LIG d   1     -10.306  78.552 118.581  0.00  0.00    -0.241 OA
ENDBRANCH   3  22
TORSDOF 7
ENDMDL
