MODEL 1
REMARK VINA RESULT:      -5.7      0.000      0.000
REMARK  7 active torsions:
REMARK  status: ('A' for Active; 'I' for Inactive)
REMARK    1  A    between atoms: C_2  and  C_3 
REMARK    2  A    between atoms: C_3  and  O_6 
REMARK    3  A    between atoms: C_3  and  C_4 
REMARK    4  A    between atoms: C_7  and  O_6 
REMARK    5  A    between atoms: C_9  and  C_10 
REMARK    6  A    between atoms: N_15  and  C_14 
REMARK    7  A    between atoms: N_20  and  C_19 
REMARK       I    between atoms: C_22  and  N_20 
ROOT
ATOM      1  C   LIG d   1      -1.877  80.455 114.652  0.00  0.00     0.161 C 
ATOM      2  C   LIG d   1      -1.644  81.834 114.515  0.00  0.00     0.016 C 
ATOM      3  C   LIG d   1      -1.154  82.426 113.329  0.00  0.00     0.038 C 
ATOM      4  C   LIG d   1      -1.007  81.694 112.141  0.00  0.00     0.028 C 
ATOM      5  C   LIG d   1      -0.749  80.209 112.372  0.00  0.00    -0.047 C 
ATOM      6  C   LIG d   1      -1.827  79.657 113.332  0.00  0.00     0.091 C 
ENDROOT
BRANCH   1   7
ATOM      7  O   LIG d   1      -3.134  80.236 115.323  0.00  0.00    -0.368 OA
BRANCH   7   8
ATOM      8  C   LIG d   1      -3.059  79.961 116.743  0.00  0.00     0.119 C 
BRANCH   8   9
ATOM      9  C   LIG d   1      -3.916  78.710 117.019  0.00  0.00     0.028 C 
ATOM     10  C   LIG d   1      -3.075  77.424 117.082  0.00  0.00     0.006 C 
ENDBRANCH   8   9
BRANCH   8  11
ATOM     11  C   LIG d   1      -3.703  81.082 117.563  0.00  0.00     0.028 C 
ATOM     12  C   LIG d   1      -2.693  81.828 118.450  0.00  0.00     0.006 C 
ENDBRANCH   8  11
ENDBRANCH   7   8
ENDBRANCH   1   7
BRANCH   6  13
ATOM     13  N   LIG d   1      -1.600  78.229 113.679  0.00  0.00    -0.311 N 
ATOM     14  C   LIG d   1      -2.454  77.255 113.368  0.00  0.00     0.210 C 
ATOM     15  C   LIG d   1      -2.037  75.857 113.836  0.00  0.00     0.109 C 
ATOM     16  O   LIG d   1      -3.501  77.411 112.722  0.00  0.00    -0.276 OA
ATOM     17  H   LIG d   1      -0.760  78.009 114.176  0.00  0.00     0.149 HD
ENDBRANCH   6  13
BRANCH   5  18
ATOM     18  N   LIG d   1      -0.753  79.546 111.055  0.00  0.00     0.381 N 
ATOM     19  H   LIG d   1      -0.100  79.997 110.446  0.00  0.00    -0.090 HD
ATOM     20  H   LIG d   1      -1.670  79.629 110.652  0.00  0.00    -0.090 HD
ATOM     21  H   LIG d   1      -0.513  78.584 111.157  0.00  0.00    -0.090 HD
ENDBRANCH   5  18
BRANCH   3  22
ATOM     22  C   LIG d   1      -0.769  83.758 113.334  0.00  0.00     0.382 C 
ATOM     23  O   LIG d   1      -1.128  84.519 112.403  0.00  0.00    -0.241 OA
ATOM     24  O   LIG d   1      -0.029  84.198 114.235  0.00  0.00    -0.241 OA
ENDBRANCH   3  22
TORSDOF 7
ENDMDL
MODEL 2
REMARK VINA RESULT:      -5.1      2.910      4.206
REMARK  7 active torsions:
REMARK  status: ('A' for Active; 'I' for Inactive)
REMARK    1  A    between atoms: C_2  and  C_3 
REMARK    2  A    between atoms: C_3  and  O_6 
REMARK    3  A    between atoms: C_3  and  C_4 
REMARK    4  A    between atoms: C_7  and  O_6 
REMARK    5  A    between atoms: C_9  and  C_10 
REMARK    6  A    between atoms: N_15  and  C_14 
REMARK    7  A    between atoms: N_20  and  C_19 
REMARK       I    between atoms: C_22  and  N_20 
ROOT
ATOM      1  C   LIG d   1      -1.525  78.595 116.022  0.00  0.00     0.161 C 
ATOM      2  C   LIG d   1      -2.027  79.258 114.889  0.00  0.00     0.016 C 
ATOM      3  C   LIG d   1      -2.299  78.608 113.663  0.00  0.00     0.038 C 
ATOM      4  C   LIG d   1      -2.229  77.213 113.533  0.00  0.00     0.028 C 
ATOM      5  C   LIG d   1      -1.245  76.562 114.499  0.00  0.00    -0.047 C 
ATOM      6  C   LIG d   1      -1.549  77.055 115.932  0.00  0.00     0.091 C 
ENDROOT
BRANCH   1   7
ATOM      7  O   LIG d   1      -2.227  79.039 117.199  0.00  0.00    -0.368 OA
BRANCH   7   8
ATOM      8  C   LIG d   1      -3.546  79.600 116.981  0.00  0.00     0.119 C 
BRANCH   8   9
ATOM      9  C   LIG d   1      -3.685  80.827 117.903  0.00  0.00     0.028 C 
ATOM     10  C   LIG d   1      -2.482  81.780 117.797  0.00  0.00     0.006 C 
ENDBRANCH   8   9
BRANCH   8  11
ATOM     11  C   LIG d   1      -4.644  78.631 117.429  0.00  0.00     0.028 C 
ATOM     12  C   LIG d   1      -5.957  79.344 117.790  0.00  0.00     0.006 C 
ENDBRANCH   8  11
ENDBRANCH   7   8
ENDBRANCH   1   7
BRANCH   6  13
ATOM     13  N   LIG d   1      -0.578  76.531 116.929  0.00  0.00    -0.311 N 
ATOM     14  C   LIG d   1      -0.732  75.369 117.561  0.00  0.00     0.210 C 
ATOM     15  C   LIG d   1       0.375  75.028 118.564  0.00  0.00     0.109 C 
ATOM     16  O   LIG d   1      -1.662  74.574 117.364  0.00  0.00    -0.276 OA
ATOM     17  H   LIG d   1       0.223  77.099 117.127  0.00  0.00     0.149 HD
ENDBRANCH   6  13
BRANCH   5  18
ATOM     18  N   LIG d   1      -1.375  75.100 114.350  0.00  0.00     0.381 N 
ATOM     19  H   LIG d   1      -2.109  74.890 113.703  0.00  0.00    -0.090 HD
ATOM     20  H   LIG d   1      -1.616  74.703 115.241  0.00  0.00    -0.090 HD
ATOM     21  H   LIG d   1      -0.516  74.713 114.027  0.00  0.00    -0.090 HD
ENDBRANCH   5  18
BRANCH   3  22
ATOM     22  C   LIG d   1      -2.606  79.360 112.540  0.00  0.00     0.382 C 
ATOM     23  O   LIG d   1      -2.085  79.077 111.434  0.00  0.00    -0.241 OA
ATOM     24  O   LIG d   1      -3.364  80.345 112.627  0.00  0.00    -0.241 OA
ENDBRANCH   3  22
TORSDOF 7
ENDMDL
MODEL 3
REMARK VINA RESULT:      -4.9     19.136     21.773
REMARK  7 active torsions:
REMARK  status: ('A' for Active; 'I' for Inactive)
REMARK    1  A    between atoms: C_2  and  C_3 
REMARK    2  A    between atoms: C_3  and  O_6 
REMARK    3  A    between atoms: C_3  and  C_4 
REMARK    4  A    between atoms: C_7  and  O_6 
REMARK    5  A    between atoms: C_9  and  C_10 
REMARK    6  A    between atoms: N_15  and  C_14 
REMARK    7  A    between atoms: N_20  and  C_19 
REMARK       I    between atoms: C_22  and  N_20 
ROOT
ATOM      1  C   LIG d   1     -16.210  65.002 116.826  0.00  0.00     0.161 C 
ATOM      2  C   LIG d   1     -15.804  65.744 115.704  0.00  0.00     0.016 C 
ATOM      3  C   LIG d   1     -16.207  65.440 114.383  0.00  0.00     0.038 C 
ATOM      4  C   LIG d   1     -17.171  64.458 114.110  0.00  0.00     0.028 C 
ATOM      5  C   LIG d   1     -17.226  63.354 115.159  0.00  0.00    -0.047 C 
ATOM      6  C   LIG d   1     -17.350  63.997 116.559  0.00  0.00     0.091 C 
ENDROOT
BRANCH   1   7
ATOM      7  O   LIG d   1     -16.571  65.897 117.898  0.00  0.00    -0.368 OA
BRANCH   7   8
ATOM      8  C   LIG d   1     -17.248  67.117 117.509  0.00  0.00     0.119 C 
BRANCH   8   9
ATOM      9  C   LIG d   1     -16.555  68.284 118.240  0.00  0.00     0.028 C 
ATOM     10  C   LIG d   1     -16.481  69.555 117.378  0.00  0.00     0.006 C 
ENDBRANCH   8   9
BRANCH   8  11
ATOM     11  C   LIG d   1     -18.697  67.133 118.003  0.00  0.00     0.028 C 
ATOM     12  C   LIG d   1     -19.705  66.765 116.903  0.00  0.00     0.006 C 
ENDBRANCH   8  11
ENDBRANCH   7   8
ENDBRANCH   1   7
BRANCH   6  13
ATOM     13  N   LIG d   1     -17.326  62.989 117.651  0.00  0.00    -0.311 N 
ATOM     14  C   LIG d   1     -18.425  62.449 118.175  0.00  0.00     0.210 C 
ATOM     15  C   LIG d   1     -18.176  61.445 119.305  0.00  0.00     0.109 C 
ATOM     16  O   LIG d   1     -19.580  62.683 117.790  0.00  0.00    -0.276 OA
ATOM     17  H   LIG d   1     -16.428  62.719 118.002  0.00  0.00     0.149 HD
ENDBRANCH   6  13
BRANCH   5  18
ATOM     18  N   LIG d   1     -18.363  62.476 114.824  0.00  0.00     0.381 N 
ATOM     19  H   LIG d   1     -19.172  63.031 114.623  0.00  0.00    -0.090 HD
ATOM     20  H   LIG d   1     -18.569  61.894 115.616  0.00  0.00    -0.090 HD
ATOM     21  H   LIG d   1     -18.136  61.910 114.036  0.00  0.00    -0.090 HD
ENDBRANCH   5  18
BRANCH   3  22
ATOM     22  C   LIG d   1     -15.612  66.095 113.316  0.00  0.00     0.382 C 
ATOM     23  O   LIG d   1     -15.909  65.775 112.140  0.00  0.00    -0.241 OA
ATOM     24  O   LIG d   1     -14.750  66.972 113.514  0.00  0.00    -0.241 OA
ENDBRANCH   3  22
TORSDOF 7
ENDMDL
MODEL 4
REMARK VINA RESULT:      -4.8      2.760      5.981
REMARK  7 active torsions:
REMARK  status: ('A' for Active; 'I' for Inactive)
REMARK    1  A    between atoms: C_2  and  C_3 
REMARK    2  A    between atoms: C_3  and  O_6 
REMARK    3  A    between atoms: C_3  and  C_4 
REMARK    4  A    between atoms: C_7  and  O_6 
REMARK    5  A    between atoms: C_9  and  C_10 
REMARK    6  A    between atoms: N_15  and  C_14 
REMARK    7  A    between atoms: N_20  and  C_19 
REMARK       I    between atoms: C_22  and  N_20 
ROOT
ATOM      1  C   LIG d   1      -2.086  78.986 115.267  0.00  0.00     0.161 C 
ATOM      2  C   LIG d   1      -1.822  77.876 114.447  0.00  0.00     0.016 C 
ATOM      3  C   LIG d   1      -1.748  76.550 114.932  0.00  0.00     0.038 C 
ATOM      4  C   LIG d   1      -2.085  76.225 116.255  0.00  0.00     0.028 C 
ATOM      5  C   LIG d   1      -1.865  77.372 117.235  0.00  0.00    -0.047 C 
ATOM      6  C   LIG d   1      -2.565  78.638 116.692  0.00  0.00     0.091 C 
ENDROOT
BRANCH   1   7
ATOM      7  O   LIG d   1      -3.032  79.858 114.618  0.00  0.00    -0.368 OA
BRANCH   7   8
ATOM      8  C   LIG d   1      -2.519  81.137 114.172  0.00  0.00     0.119 C 
BRANCH   8   9
ATOM      9  C   LIG d   1      -2.389  81.073 112.637  0.00  0.00     0.028 C 
ATOM     10  C   LIG d   1      -0.957  80.749 112.182  0.00  0.00     0.006 C 
ENDBRANCH   8   9
BRANCH   8  11
ATOM     11  C   LIG d   1      -1.097  81.378 114.688  0.00  0.00     0.028 C 
ATOM     12  C   LIG d   1      -0.984  82.643 115.554  0.00  0.00     0.006 C 
ENDBRANCH   8  11
ENDBRANCH   7   8
ENDBRANCH   1   7
BRANCH   6  13
ATOM     13  N   LIG d   1      -2.329  79.829 117.549  0.00  0.00    -0.311 N 
ATOM     14  C   LIG d   1      -3.297  80.658 117.935  0.00  0.00     0.210 C 
ATOM     15  C   LIG d   1      -2.834  81.834 118.800  0.00  0.00     0.109 C 
ATOM     16  O   LIG d   1      -4.500  80.512 117.671  0.00  0.00    -0.276 OA
ATOM     17  H   LIG d   1      -1.386  80.005 117.836  0.00  0.00     0.149 HD
ENDBRANCH   6  13
BRANCH   5  18
ATOM     18  N   LIG d   1      -2.384  76.942 118.548  0.00  0.00     0.381 N 
ATOM     19  H   LIG d   1      -3.206  77.465 118.774  0.00  0.00    -0.090 HD
ATOM     20  H   LIG d   1      -1.689  77.127 119.249  0.00  0.00    -0.090 HD
ATOM     21  H   LIG d   1      -2.596  75.969 118.528  0.00  0.00    -0.090 HD
ENDBRANCH   5  18
BRANCH   3  22
ATOM     22  C   LIG d   1      -1.295  75.538 114.100  0.00  0.00     0.382 C 
ATOM     23  O   LIG d   1      -0.346  74.802 114.467  0.00  0.00    -0.241 OA
ATOM     24  O   LIG d   1      -1.793  75.379 112.970  0.00  0.00    -0.241 OA
ENDBRANCH   3  22
TORSDOF 7
ENDMDL
MODEL 5
REMARK VINA RESULT:      -4.8      5.909      8.551
REMARK  7 active torsions:
REMARK  status: ('A' for Active; 'I' for Inactive)
REMARK    1  A    between atoms: C_2  and  C_3 
REMARK    2  A    between atoms: C_3  and  O_6 
REMARK    3  A    between atoms: C_3  and  C_4 
REMARK    4  A    between atoms: C_7  and  O_6 
REMARK    5  A    between atoms: C_9  and  C_10 
REMARK    6  A    between atoms: N_15  and  C_14 
REMARK    7  A    between atoms: N_20  and  C_19 
REMARK       I    between atoms: C_22  and  N_20 
ROOT
ATOM      1  C   LIG d   1       2.363  85.973 114.557  0.00  0.00     0.161 C 
ATOM      2  C   LIG d   1       2.895  87.149 114.002  0.00  0.00     0.016 C 
ATOM      3  C   LIG d   1       4.011  87.828 114.541  0.00  0.00     0.038 C 
ATOM      4  C   LIG d   1       4.770  87.290 115.592  0.00  0.00     0.028 C 
ATOM      5  C   LIG d   1       3.971  86.364 116.503  0.00  0.00    -0.047 C 
ATOM      6  C   LIG d   1       3.244  85.311 115.637  0.00  0.00     0.091 C 
ENDROOT
BRANCH   1   7
ATOM      7  O   LIG d   1       2.062  85.030 113.509  0.00  0.00    -0.368 OA
BRANCH   7   8
ATOM      8  C   LIG d   1       1.574  85.593 112.266  0.00  0.00     0.119 C 
BRANCH   8   9
ATOM      9  C   LIG d   1       0.126  85.103 112.073  0.00  0.00     0.028 C 
ATOM     10  C   LIG d   1      -0.652  85.956 111.057  0.00  0.00     0.006 C 
ENDBRANCH   8   9
BRANCH   8  11
ATOM     11  C   LIG d   1       2.350  85.047 111.064  0.00  0.00     0.028 C 
ATOM     12  C   LIG d   1       3.868  85.252 111.192  0.00  0.00     0.006 C 
ENDBRANCH   8  11
ENDBRANCH   7   8
ENDBRANCH   1   7
BRANCH   6  13
ATOM     13  N   LIG d   1       2.373  84.417 116.443  0.00  0.00    -0.311 N 
ATOM     14  C   LIG d   1       2.571  83.105 116.554  0.00  0.00     0.210 C 
ATOM     15  C   LIG d   1       1.544  82.366 117.418  0.00  0.00     0.109 C 
ATOM     16  O   LIG d   1       3.519  82.487 116.046  0.00  0.00    -0.276 OA
ATOM     17  H   LIG d   1       1.597  84.840 116.914  0.00  0.00     0.149 HD
ENDBRANCH   6  13
BRANCH   5  18
ATOM     18  N   LIG d   1       4.913  85.768 117.469  0.00  0.00     0.381 N 
ATOM     19  H   LIG d   1       5.712  86.362 117.574  0.00  0.00    -0.090 HD
ATOM     20  H   LIG d   1       5.224  84.881 117.114  0.00  0.00    -0.090 HD
ATOM     21  H   LIG d   1       4.465  85.643 118.350  0.00  0.00    -0.090 HD
ENDBRANCH   5  18
BRANCH   3  22
ATOM     22  C   LIG d   1       4.356  89.079 114.054  0.00  0.00     0.382 C 
ATOM     23  O   LIG d   1       5.295  89.195 113.230  0.00  0.00    -0.241 OA
ATOM     24  O   LIG d   1       3.768  90.099 114.461  0.00  0.00    -0.241 OA
ENDBRANCH   3  22
TORSDOF 7
ENDMDL
MODEL 6
REMARK VINA RESULT:      -4.6     12.686     14.006
REMARK  7 active torsions:
REMARK  status: ('A' for Active; 'I' for Inactive)
REMARK    1  A    between atoms: C_2  and  C_3 
REMARK    2  A    between atoms: C_3  and  O_6 
REMARK    3  A    between atoms: C_3  and  C_4 
REMARK    4  A    between atoms: C_7  and  O_6 
REMARK    5  A    between atoms: C_9  and  C_10 
REMARK    6  A    between atoms: N_15  and  C_14 
REMARK    7  A    between atoms: N_20  and  C_19 
REMARK       I    between atoms: C_22  and  N_20 
ROOT
ATOM      1  C   LIG d   1      12.332  80.705 114.825  0.00  0.00     0.161 C 
ATOM      2  C   LIG d   1      11.368  81.552 115.395  0.00  0.00     0.016 C 
ATOM      3  C   LIG d   1      10.552  82.424 114.638  0.00  0.00     0.038 C 
ATOM      4  C   LIG d   1      10.540  82.396 113.235  0.00  0.00     0.028 C 
ATOM      5  C   LIG d   1      11.854  81.918 112.627  0.00  0.00    -0.047 C 
ATOM      6  C   LIG d   1      12.256  80.580 113.289  0.00  0.00     0.091 C 
ENDROOT
BRANCH   1   7
ATOM      7  O   LIG d   1      12.261  79.402 115.437  0.00  0.00    -0.368 OA
BRANCH   7   8
ATOM      8  C   LIG d   1      11.390  78.441 114.792  0.00  0.00     0.119 C 
BRANCH   8   9
ATOM      9  C   LIG d   1      10.205  78.180 115.741  0.00  0.00     0.028 C 
ATOM     10  C   LIG d   1       8.875  78.711 115.179  0.00  0.00     0.006 C 
ENDBRANCH   8   9
BRANCH   8  11
ATOM     11  C   LIG d   1      12.083  77.085 114.627  0.00  0.00     0.028 C 
ATOM     12  C   LIG d   1      12.696  76.565 115.936  0.00  0.00     0.006 C 
ENDBRANCH   8  11
ENDBRANCH   7   8
ENDBRANCH   1   7
BRANCH   6  13
ATOM     13  N   LIG d   1      13.573  80.085 112.812  0.00  0.00    -0.311 N 
ATOM     14  C   LIG d   1      13.716  79.266 111.771  0.00  0.00     0.210 C 
ATOM     15  C   LIG d   1      15.160  78.862 111.459  0.00  0.00     0.109 C 
ATOM     16  O   LIG d   1      12.786  78.863 111.056  0.00  0.00    -0.276 OA
ATOM     17  H   LIG d   1      14.384  80.388 113.315  0.00  0.00     0.149 HD
ENDBRANCH   6  13
BRANCH   5  18
ATOM     18  N   LIG d   1      11.657  81.807 111.170  0.00  0.00     0.381 N 
ATOM     19  H   LIG d   1      10.885  82.377 110.888  0.00  0.00    -0.090 HD
ATOM     20  H   LIG d   1      11.442  80.851 110.943  0.00  0.00    -0.090 HD
ATOM     21  H   LIG d   1      12.482  82.092 110.691  0.00  0.00    -0.090 HD
ENDBRANCH   5  18
BRANCH   3  22
ATOM     22  C   LIG d   1       9.764  83.364 115.285  0.00  0.00     0.382 C 
ATOM     23  O   LIG d   1       8.567  83.102 115.552  0.00  0.00    -0.241 OA
ATOM     24  O   LIG d   1      10.223  84.487 115.565  0.00  0.00    -0.241 OA
ENDBRANCH   3  22
TORSDOF 7
ENDMDL
MODEL 7
REMARK VINA RESULT:      -4.6      6.088      9.024
REMARK  7 active torsions:
REMARK  status: ('A' for Active; 'I' for Inactive)
REMARK    1  A    between atoms: C_2  and  C_3 
REMARK    2  A    between atoms: C_3  and  O_6 
REMARK    3  A    between atoms: C_3  and  C_4 
REMARK    4  A    between atoms: C_7  and  O_6 
REMARK    5  A    between atoms: C_9  and  C_10 
REMARK    6  A    between atoms: N_15  and  C_14 
REMARK    7  A    between atoms: N_20  and  C_19 
REMARK       I    between atoms: C_22  and  N_20 
ROOT
ATOM      1  C   LIG d   1       2.051  86.562 115.004  0.00  0.00     0.161 C 
ATOM      2  C   LIG d   1       0.787  86.009 114.739  0.00  0.00     0.016 C 
ATOM      3  C   LIG d   1       0.451  85.385 113.515  0.00  0.00     0.038 C 
ATOM      4  C   LIG d   1       1.410  85.137 112.522  0.00  0.00     0.028 C 
ATOM      5  C   LIG d   1       2.571  86.126 112.540  0.00  0.00    -0.047 C 
ATOM      6  C   LIG d   1       3.143  86.203 113.974  0.00  0.00     0.091 C 
ENDROOT
BRANCH   1   7
ATOM      7  O   LIG d   1       2.475  86.199 116.332  0.00  0.00    -0.368 OA
BRANCH   7   8
ATOM      8  C   LIG d   1       2.476  87.263 117.315  0.00  0.00     0.119 C 
BRANCH   8   9
ATOM      9  C   LIG d   1       1.747  88.469 116.691  0.00  0.00     0.028 C 
ATOM     10  C   LIG d   1       2.488  89.794 116.940  0.00  0.00     0.006 C 
ENDBRANCH   8   9
BRANCH   8  11
ATOM     11  C   LIG d   1       3.897  87.753 117.605  0.00  0.00     0.028 C 
ATOM     12  C   LIG d   1       4.940  86.625 117.548  0.00  0.00     0.006 C 
ENDBRANCH   8  11
ENDBRANCH   7   8
ENDBRANCH   1   7
BRANCH   6  13
ATOM     13  N   LIG d   1       4.228  87.210 114.099  0.00  0.00    -0.311 N 
ATOM     14  C   LIG d   1       4.068  88.500 113.805  0.00  0.00     0.210 C 
ATOM     15  C   LIG d   1       5.321  89.363 113.984  0.00  0.00     0.109 C 
ATOM     16  O   LIG d   1       3.000  89.015 113.443  0.00  0.00    -0.276 OA
ATOM     17  H   LIG d   1       5.120  86.884 114.416  0.00  0.00     0.149 HD
ENDBRANCH   6  13
BRANCH   5  18
ATOM     18  N   LIG d   1       3.561  85.669 111.547  0.00  0.00     0.381 N 
ATOM     19  H   LIG d   1       3.285  84.782 111.177  0.00  0.00    -0.090 HD
ATOM     20  H   LIG d   1       4.450  85.559 112.001  0.00  0.00    -0.090 HD
ATOM     21  H   LIG d   1       3.637  86.335 110.810  0.00  0.00    -0.090 HD
ENDBRANCH   5  18
BRANCH   3  22
ATOM     22  C   LIG d   1      -0.867  85.038 113.260  0.00  0.00     0.382 C 
ATOM     23  O   LIG d   1      -1.707  85.928 112.985  0.00  0.00    -0.241 OA
ATOM     24  O   LIG d   1      -1.235  83.851 113.344  0.00  0.00    -0.241 OA
ENDBRANCH   3  22
TORSDOF 7
ENDMDL
MODEL 8
REMARK VINA RESULT:      -4.5      5.010      7.477
REMARK  7 active torsions:
REMARK  status: ('A' for Active; 'I' for Inactive)
REMARK    1  A    between atoms: C_2  and  C_3 
REMARK    2  A    between atoms: C_3  and  O_6 
REMARK    3  A    between atoms: C_3  and  C_4 
REMARK    4  A    between atoms: C_7  and  O_6 
REMARK    5  A    between atoms: C_9  and  C_10 
REMARK    6  A    between atoms: N_15  and  C_14 
REMARK    7  A    between atoms: N_20  and  C_19 
REMARK       I    between atoms: C_22  and  N_20 
ROOT
ATOM      1  C   LIG d   1       1.955  84.234 114.047  0.00  0.00     0.161 C 
ATOM      2  C   LIG d   1       1.202  83.199 113.469  0.00  0.00     0.016 C 
ATOM      3  C   LIG d   1       0.545  83.316 112.222  0.00  0.00     0.038 C 
ATOM      4  C   LIG d   1       0.723  84.434 111.393  0.00  0.00     0.028 C 
ATOM      5  C   LIG d   1       1.065  85.708 112.159  0.00  0.00    -0.047 C 
ATOM      6  C   LIG d   1       2.252  85.420 113.106  0.00  0.00     0.091 C 
ENDROOT
BRANCH   1   7
ATOM      7  O   LIG d   1       3.182  83.703 114.586  0.00  0.00    -0.368 OA
BRANCH   7   8
ATOM      8  C   LIG d   1       3.301  83.715 116.030  0.00  0.00     0.119 C 
BRANCH   8   9
ATOM      9  C   LIG d   1       2.987  82.292 116.532  0.00  0.00     0.028 C 
ATOM     10  C   LIG d   1       1.602  82.194 117.193  0.00  0.00     0.006 C 
ENDBRANCH   8   9
BRANCH   8  11
ATOM     11  C   LIG d   1       2.238  84.613 116.669  0.00  0.00     0.028 C 
ATOM     12  C   LIG d   1       2.844  85.739 117.522  0.00  0.00     0.006 C 
ENDBRANCH   8  11
ENDBRANCH   7   8
ENDBRANCH   1   7
BRANCH   6  13
ATOM     13  N   LIG d   1       2.598  86.591 113.953  0.00  0.00    -0.311 N 
ATOM     14  C   LIG d   1       3.609  87.416 113.688  0.00  0.00     0.210 C 
ATOM     15  C   LIG d   1       3.804  88.548 114.701  0.00  0.00     0.109 C 
ATOM     16  O   LIG d   1       4.344  87.336 112.692  0.00  0.00    -0.276 OA
ATOM     17  H   LIG d   1       2.033  86.749 114.765  0.00  0.00     0.149 HD
ENDBRANCH   6  13
BRANCH   5  18
ATOM     18  N   LIG d   1       1.358  86.759 111.166  0.00  0.00     0.381 N 
ATOM     19  H   LIG d   1       2.181  87.261 111.437  0.00  0.00    -0.090 HD
ATOM     20  H   LIG d   1       0.589  87.405 111.139  0.00  0.00    -0.090 HD
ATOM     21  H   LIG d   1       1.491  86.351 110.267  0.00  0.00    -0.090 HD
ENDBRANCH   5  18
BRANCH   3  22
ATOM     22  C   LIG d   1      -0.334  82.325 111.812  0.00  0.00     0.382 C 
ATOM     23  O   LIG d   1       0.075  81.148 111.664  0.00  0.00    -0.241 OA
ATOM     24  O   LIG d   1      -1.518  82.602 111.546  0.00  0.00    -0.241 OA
ENDBRANCH   3  22
TORSDOF 7
ENDMDL
MODEL 9
REMARK VINA RESULT:      -4.5      3.216      5.461
REMARK  7 active torsions:
REMARK  status: ('A' for Active; 'I' for Inactive)
REMARK    1  A    between atoms: C_2  and  C_3 
REMARK    2  A    between atoms: C_3  and  O_6 
REMARK    3  A    between atoms: C_3  and  C_4 
REMARK    4  A    between atoms: C_7  and  O_6 
REMARK    5  A    between atoms: C_9  and  C_10 
REMARK    6  A    between atoms: N_15  and  C_14 
REMARK    7  A    between atoms: N_20  and  C_19 
REMARK       I    between atoms: C_22  and  N_20 
ROOT
ATOM      1  C   LIG d   1      -1.334  78.554 115.999  0.00  0.00     0.161 C 
ATOM      2  C   LIG d   1      -2.295  78.319 115.001  0.00  0.00     0.016 C 
ATOM      3  C   LIG d   1      -2.586  77.033 114.489  0.00  0.00     0.038 C 
ATOM      4  C   LIG d   1      -2.039  75.870 115.050  0.00  0.00     0.028 C 
ATOM      5  C   LIG d   1      -0.688  76.098 115.719  0.00  0.00    -0.047 C 
ATOM      6  C   LIG d   1      -0.808  77.285 116.702  0.00  0.00     0.091 C 
ENDROOT
BRANCH   1   7
ATOM      7  O   LIG d   1      -1.855  79.484 116.969  0.00  0.00    -0.368 OA
BRANCH   7   8
ATOM      8  C   LIG d   1      -2.665  80.565 116.444  0.00  0.00     0.119 C 
BRANCH   8   9
ATOM      9  C   LIG d   1      -1.772  81.819 116.370  0.00  0.00     0.028 C 
ATOM     10  C   LIG d   1      -2.121  82.718 115.172  0.00  0.00     0.006 C 
ENDBRANCH   8   9
BRANCH   8  11
ATOM     11  C   LIG d   1      -3.798  80.931 117.408  0.00  0.00     0.028 C 
ATOM     12  C   LIG d   1      -3.310  81.738 118.621  0.00  0.00     0.006 C 
ENDBRANCH   8  11
ENDBRANCH   7   8
ENDBRANCH   1   7
BRANCH   6  13
ATOM     13  N   LIG d   1       0.491  77.629 117.337  0.00  0.00    -0.311 N 
ATOM     14  C   LIG d   1       0.885  77.140 118.512  0.00  0.00     0.210 C 
ATOM     15  C   LIG d   1       2.250  77.639 118.995  0.00  0.00     0.109 C 
ATOM     16  O   LIG d   1       0.247  76.315 119.184  0.00  0.00    -0.276 OA
ATOM     17  H   LIG d   1       1.085  78.267 116.845  0.00  0.00     0.149 HD
ENDBRANCH   6  13
BRANCH   5  18
ATOM     18  N   LIG d   1      -0.300  74.837 116.380  0.00  0.00     0.381 N 
ATOM     19  H   LIG d   1      -0.130  74.132 115.692  0.00  0.00    -0.090 HD
ATOM     20  H   LIG d   1      -1.057  74.531 116.966  0.00  0.00    -0.090 HD
ATOM     21  H   LIG d   1       0.519  74.978 116.930  0.00  0.00    -0.090 HD
ENDBRANCH   5  18
BRANCH   3  22
ATOM     22  C   LIG d   1      -3.403  76.906 113.375  0.00  0.00     0.382 C 
ATOM     23  O   LIG d   1      -3.427  77.813 112.509  0.00  0.00    -0.241 OA
ATOM     24  O   LIG d   1      -4.148  75.917 113.249  0.00  0.00    -0.241 OA
ENDBRANCH   3  22
TORSDOF 7
ENDMDL
