MODEL 1
REMARK VINA RESULT:      -5.9      0.000      0.000
REMARK  7 active torsions:
REMARK  status: ('A' for Active; 'I' for Inactive)
REMARK    1  A    between atoms: C_2  and  C_3 
REMARK    2  A    between atoms: C_3  and  O_6 
REMARK    3  A    between atoms: C_3  and  C_4 
REMARK    4  A    between atoms: C_7  and  O_6 
REMARK    5  A    between atoms: C_9  and  C_10 
REMARK    6  A    between atoms: N_15  and  C_14 
REMARK    7  A    between atoms: N_20  and  C_19 
REMARK       I    between atoms: C_22  and  N_20 
ROOT
ATOM      1  C   LIG d   1      -7.510  75.997 117.320  0.00  0.00     0.161 C 
ATOM      2  C   LIG d   1      -8.792  76.448 117.676  0.00  0.00     0.016 C 
ATOM      3  C   LIG d   1      -9.092  77.801 117.952  0.00  0.00     0.038 C 
ATOM      4  C   LIG d   1      -8.157  78.826 117.742  0.00  0.00     0.028 C 
ATOM      5  C   LIG d   1      -6.710  78.361 117.869  0.00  0.00    -0.047 C 
ATOM      6  C   LIG d   1      -6.503  77.115 116.978  0.00  0.00     0.091 C 
ENDROOT
BRANCH   1   7
ATOM      7  O   LIG d   1      -7.608  75.059 116.229  0.00  0.00    -0.368 OA
BRANCH   7   8
ATOM      8  C   LIG d   1      -7.447  73.661 116.574  0.00  0.00     0.119 C 
BRANCH   8   9
ATOM      9  C   LIG d   1      -6.694  72.982 115.414  0.00  0.00     0.028 C 
ATOM     10  C   LIG d   1      -5.767  73.955 114.666  0.00  0.00     0.006 C 
ENDBRANCH   8   9
BRANCH   8  11
ATOM     11  C   LIG d   1      -8.800  72.948 116.653  0.00  0.00     0.028 C 
ATOM     12  C   LIG d   1      -8.705  71.452 116.312  0.00  0.00     0.006 C 
ENDBRANCH   8  11
ENDBRANCH   7   8
ENDBRANCH   1   7
BRANCH   6  13
ATOM     13  N   LIG d   1      -5.137  76.545 117.108  0.00  0.00    -0.311 N 
ATOM     14  C   LIG d   1      -4.134  76.852 116.287  0.00  0.00     0.210 C 
ATOM     15  C   LIG d   1      -2.812  76.137 116.586  0.00  0.00     0.109 C 
ATOM     16  O   LIG d   1      -4.204  77.672 115.360  0.00  0.00    -0.276 OA
ATOM     17  H   LIG d   1      -4.983  75.894 117.853  0.00  0.00     0.149 HD
ENDBRANCH   6  13
BRANCH   5  18
ATOM     18  N   LIG d   1      -5.843  79.493 117.492  0.00  0.00     0.381 N 
ATOM     19  H   LIG d   1      -5.554  79.395 116.539  0.00  0.00    -0.090 HD
ATOM     20  H   LIG d   1      -5.023  79.482 118.072  0.00  0.00    -0.090 HD
ATOM     21  H   LIG d   1      -6.333  80.352 117.611  0.00  0.00    -0.090 HD
ENDBRANCH   5  18
BRANCH   3  22
ATOM     22  C   LIG d   1     -10.328  78.137 118.483  0.00  0.00     0.382 C 
ATOM     23  O   LIG d   1     -10.491  79.250 119.039  0.00  0.00    -0.241 OA
ATOM     24  O   LIG d   1     -11.271  77.324 118.451  0.00  0.00    -0.241 OA
ENDBRANCH   3  22
TORSDOF 7
ENDMDL
MODEL 2
REMARK VINA RESULT:      -5.6      4.028      6.262
REMARK  7 active torsions:
REMARK  status: ('A' for Active; 'I' for Inactive)
REMARK    1  A    between atoms: C_2  and  C_3 
REMARK    2  A    between atoms: C_3  and  O_6 
REMARK    3  A    between atoms: C_3  and  C_4 
REMARK    4  A    between atoms: C_7  and  O_6 
REMARK    5  A    between atoms: C_9  and  C_10 
REMARK    6  A    between atoms: N_15  and  C_14 
REMARK    7  A    between atoms: N_20  and  C_19 
REMARK       I    between atoms: C_22  and  N_20 
ROOT
ATOM      1  C   LIG d   1      -2.764  75.418 114.757  0.00  0.00     0.161 C 
ATOM      2  C   LIG d   1      -2.624  74.734 115.976  0.00  0.00     0.016 C 
ATOM      3  C   LIG d   1      -1.710  75.119 116.984  0.00  0.00     0.038 C 
ATOM      4  C   LIG d   1      -0.976  76.312 116.903  0.00  0.00     0.028 C 
ATOM      5  C   LIG d   1      -0.713  76.765 115.471  0.00  0.00    -0.047 C 
ATOM      6  C   LIG d   1      -2.051  76.785 114.697  0.00  0.00     0.091 C 
ENDROOT
BRANCH   1   7
ATOM      7  O   LIG d   1      -4.161  75.567 114.438  0.00  0.00    -0.368 OA
BRANCH   7   8
ATOM      8  C   LIG d   1      -5.089  74.847 115.286  0.00  0.00     0.119 C 
BRANCH   8   9
ATOM      9  C   LIG d   1      -5.748  73.751 114.425  0.00  0.00     0.028 C 
ATOM     10  C   LIG d   1      -6.527  72.729 115.271  0.00  0.00     0.006 C 
ENDBRANCH   8   9
BRANCH   8  11
ATOM     11  C   LIG d   1      -6.239  75.748 115.746  0.00  0.00     0.028 C 
ATOM     12  C   LIG d   1      -5.753  76.995 116.502  0.00  0.00     0.006 C 
ENDBRANCH   8  11
ENDBRANCH   7   8
ENDBRANCH   1   7
BRANCH   6  13
ATOM     13  N   LIG d   1      -1.872  77.137 113.264  0.00  0.00    -0.311 N 
ATOM     14  C   LIG d   1      -2.439  78.198 112.693  0.00  0.00     0.210 C 
ATOM     15  C   LIG d   1      -2.141  78.366 111.200  0.00  0.00     0.109 C 
ATOM     16  O   LIG d   1      -3.134  79.035 113.289  0.00  0.00    -0.276 OA
ATOM     17  H   LIG d   1      -1.298  76.529 112.714  0.00  0.00     0.149 HD
ENDBRANCH   6  13
BRANCH   5  18
ATOM     18  N   LIG d   1      -0.061  78.087 115.534  0.00  0.00     0.381 N 
ATOM     19  H   LIG d   1      -0.591  78.751 115.005  0.00  0.00    -0.090 HD
ATOM     20  H   LIG d   1       0.855  78.017 115.127  0.00  0.00    -0.090 HD
ATOM     21  H   LIG d   1       0.010  78.387 116.481  0.00  0.00    -0.090 HD
ENDBRANCH   5  18
BRANCH   3  22
ATOM     22  C   LIG d   1      -1.494  74.286 118.071  0.00  0.00     0.382 C 
ATOM     23  O   LIG d   1      -0.925  74.728 119.097  0.00  0.00    -0.241 OA
ATOM     24  O   LIG d   1      -1.822  73.085 118.021  0.00  0.00    -0.241 OA
ENDBRANCH   3  22
TORSDOF 7
ENDMDL
MODEL 3
REMARK VINA RESULT:      -5.6      3.628      6.342
REMARK  7 active torsions:
REMARK  status: ('A' for Active; 'I' for Inactive)
REMARK    1  A    between atoms: C_2  and  C_3 
REMARK    2  A    between atoms: C_3  and  O_6 
REMARK    3  A    between atoms: C_3  and  C_4 
REMARK    4  A    between atoms: C_7  and  O_6 
REMARK    5  A    between atoms: C_9  and  C_10 
REMARK    6  A    between atoms: N_15  and  C_14 
REMARK    7  A    between atoms: N_20  and  C_19 
REMARK       I    between atoms: C_22  and  N_20 
ROOT
ATOM      1  C   LIG d   1      -3.006  76.784 115.535  0.00  0.00     0.161 C 
ATOM      2  C   LIG d   1      -3.470  77.470 114.400  0.00  0.00     0.016 C 
ATOM      3  C   LIG d   1      -2.757  77.526 113.180  0.00  0.00     0.038 C 
ATOM      4  C   LIG d   1      -1.596  76.770 112.964  0.00  0.00     0.028 C 
ATOM      5  C   LIG d   1      -0.824  76.466 114.244  0.00  0.00    -0.047 C 
ATOM      6  C   LIG d   1      -1.795  75.861 115.284  0.00  0.00     0.091 C 
ENDROOT
BRANCH   1   7
ATOM      7  O   LIG d   1      -4.087  76.041 116.133  0.00  0.00    -0.368 OA
BRANCH   7   8
ATOM      8  C   LIG d   1      -5.413  76.323 115.622  0.00  0.00     0.119 C 
BRANCH   8   9
ATOM      9  C   LIG d   1      -6.170  77.111 116.709  0.00  0.00     0.028 C 
ATOM     10  C   LIG d   1      -7.592  76.574 116.939  0.00  0.00     0.006 C 
ENDBRANCH   8   9
BRANCH   8  11
ATOM     11  C   LIG d   1      -6.218  75.036 115.420  0.00  0.00     0.028 C 
ATOM     12  C   LIG d   1      -5.554  74.068 114.427  0.00  0.00     0.006 C 
ENDBRANCH   8  11
ENDBRANCH   7   8
ENDBRANCH   1   7
BRANCH   6  13
ATOM     13  N   LIG d   1      -1.139  75.612 116.594  0.00  0.00    -0.311 N 
ATOM     14  C   LIG d   1      -1.317  74.499 117.303  0.00  0.00     0.210 C 
ATOM     15  C   LIG d   1      -0.564  74.453 118.636  0.00  0.00     0.109 C 
ATOM     16  O   LIG d   1      -2.002  73.531 116.939  0.00  0.00    -0.276 OA
ATOM     17  H   LIG d   1      -0.542  76.332 116.949  0.00  0.00     0.149 HD
ENDBRANCH   6  13
BRANCH   5  18
ATOM     18  N   LIG d   1       0.284  75.558 113.891  0.00  0.00     0.381 N 
ATOM     19  H   LIG d   1       0.489  75.637 112.915  0.00  0.00    -0.090 HD
ATOM     20  H   LIG d   1       0.001  74.612 114.078  0.00  0.00    -0.090 HD
ATOM     21  H   LIG d   1       1.092  75.782 114.428  0.00  0.00    -0.090 HD
ENDBRANCH   5  18
BRANCH   3  22
ATOM     22  C   LIG d   1      -3.185  78.379 112.174  0.00  0.00     0.382 C 
ATOM     23  O   LIG d   1      -3.300  79.607 112.399  0.00  0.00    -0.241 OA
ATOM     24  O   LIG d   1      -3.499  77.928 111.056  0.00  0.00    -0.241 OA
ENDBRANCH   3  22
TORSDOF 7
ENDMDL
MODEL 4
REMARK VINA RESULT:      -5.3      1.753      2.637
REMARK  7 active torsions:
REMARK  status: ('A' for Active; 'I' for Inactive)
REMARK    1  A    between atoms: C_2  and  C_3 
REMARK    2  A    between atoms: C_3  and  O_6 
REMARK    3  A    between atoms: C_3  and  C_4 
REMARK    4  A    between atoms: C_7  and  O_6 
REMARK    5  A    between atoms: C_9  and  C_10 
REMARK    6  A    between atoms: N_15  and  C_14 
REMARK    7  A    between atoms: N_20  and  C_19 
REMARK       I    between atoms: C_22  and  N_20 
ROOT
ATOM      1  C   LIG d   1      -6.518  76.894 116.834  0.00  0.00     0.161 C 
ATOM      2  C   LIG d   1      -7.874  76.532 116.782  0.00  0.00     0.016 C 
ATOM      3  C   LIG d   1      -8.892  77.226 117.475  0.00  0.00     0.038 C 
ATOM      4  C   LIG d   1      -8.641  78.430 118.150  0.00  0.00     0.028 C 
ATOM      5  C   LIG d   1      -7.205  78.557 118.648  0.00  0.00    -0.047 C 
ATOM      6  C   LIG d   1      -6.240  78.270 117.475  0.00  0.00     0.091 C 
ENDROOT
BRANCH   1   7
ATOM      7  O   LIG d   1      -5.945  76.833 115.513  0.00  0.00    -0.368 OA
BRANCH   7   8
ATOM      8  C   LIG d   1      -5.007  75.755 115.274  0.00  0.00     0.119 C 
BRANCH   8   9
ATOM      9  C   LIG d   1      -3.815  76.343 114.495  0.00  0.00     0.028 C 
ATOM     10  C   LIG d   1      -2.461  75.958 115.115  0.00  0.00     0.006 C 
ENDBRANCH   8   9
BRANCH   8  11
ATOM     11  C   LIG d   1      -5.607  74.688 114.353  0.00  0.00     0.028 C 
ATOM     12  C   LIG d   1      -6.018  73.413 115.107  0.00  0.00     0.006 C 
ENDBRANCH   8  11
ENDBRANCH   7   8
ENDBRANCH   1   7
BRANCH   6  13
ATOM     13  N   LIG d   1      -4.815  78.291 117.896  0.00  0.00    -0.311 N 
ATOM     14  C   LIG d   1      -3.852  78.884 117.193  0.00  0.00     0.210 C 
ATOM     15  C   LIG d   1      -2.448  78.770 117.796  0.00  0.00     0.109 C 
ATOM     16  O   LIG d   1      -4.032  79.522 116.145  0.00  0.00    -0.276 OA
ATOM     17  H   LIG d   1      -4.585  77.824 118.751  0.00  0.00     0.149 HD
ENDBRANCH   6  13
BRANCH   5  18
ATOM     18  N   LIG d   1      -7.047  79.912 119.209  0.00  0.00     0.381 N 
ATOM     19  H   LIG d   1      -7.849  80.467 118.987  0.00  0.00    -0.090 HD
ATOM     20  H   LIG d   1      -6.240  80.343 118.794  0.00  0.00    -0.090 HD
ATOM     21  H   LIG d   1      -6.933  79.860 120.198  0.00  0.00    -0.090 HD
ENDBRANCH   5  18
BRANCH   3  22
ATOM     22  C   LIG d   1     -10.172  76.694 117.530  0.00  0.00     0.382 C 
ATOM     23  O   LIG d   1     -10.449  75.661 116.876  0.00  0.00    -0.241 OA
ATOM     24  O   LIG d   1     -11.063  77.261 118.190  0.00  0.00    -0.241 OA
ENDBRANCH   3  22
TORSDOF 7
ENDMDL
MODEL 5
REMARK VINA RESULT:      -5.1      2.042      4.970
REMARK  7 active torsions:
REMARK  status: ('A' for Active; 'I' for Inactive)
REMARK    1  A    between atoms: C_2  and  C_3 
REMARK    2  A    between atoms: C_3  and  O_6 
REMARK    3  A    between atoms: C_3  and  C_4 
REMARK    4  A    between atoms: C_7  and  O_6 
REMARK    5  A    between atoms: C_9  and  C_10 
REMARK    6  A    between atoms: N_15  and  C_14 
REMARK    7  A    between atoms: N_20  and  C_19 
REMARK       I    between atoms: C_22  and  N_20 
ROOT
ATOM      1  C   LIG d   1      -6.405  76.896 116.987  0.00  0.00     0.161 C 
ATOM      2  C   LIG d   1      -6.814  75.606 116.610  0.00  0.00     0.016 C 
ATOM      3  C   LIG d   1      -8.129  75.121 116.799  0.00  0.00     0.038 C 
ATOM      4  C   LIG d   1      -9.169  75.951 117.241  0.00  0.00     0.028 C 
ATOM      5  C   LIG d   1      -8.692  77.112 118.107  0.00  0.00    -0.047 C 
ATOM      6  C   LIG d   1      -7.554  77.853 117.368  0.00  0.00     0.091 C 
ENDROOT
BRANCH   1   7
ATOM      7  O   LIG d   1      -5.596  77.475 115.944  0.00  0.00    -0.368 OA
BRANCH   7   8
ATOM      8  C   LIG d   1      -4.209  77.056 115.906  0.00  0.00     0.119 C 
BRANCH   8   9
ATOM      9  C   LIG d   1      -3.340  78.324 116.012  0.00  0.00     0.028 C 
ATOM     10  C   LIG d   1      -3.492  79.028 117.371  0.00  0.00     0.006 C 
ENDBRANCH   8   9
BRANCH   8  11
ATOM     11  C   LIG d   1      -3.853  76.432 114.554  0.00  0.00     0.028 C 
ATOM     12  C   LIG d   1      -2.655  77.117 113.879  0.00  0.00     0.006 C 
ENDBRANCH   8  11
ENDBRANCH   7   8
ENDBRANCH   1   7
BRANCH   6  13
ATOM     13  N   LIG d   1      -6.972  78.952 118.182  0.00  0.00    -0.311 N 
ATOM     14  C   LIG d   1      -7.348  80.225 118.071  0.00  0.00     0.210 C 
ATOM     15  C   LIG d   1      -6.606  81.201 118.990  0.00  0.00     0.109 C 
ATOM     16  O   LIG d   1      -8.247  80.634 117.322  0.00  0.00    -0.276 OA
ATOM     17  H   LIG d   1      -6.257  78.705 118.838  0.00  0.00     0.149 HD
ENDBRANCH   6  13
BRANCH   5  18
ATOM     18  N   LIG d   1      -9.858  77.972 118.383  0.00  0.00     0.381 N 
ATOM     19  H   LIG d   1      -9.679  78.536 119.189  0.00  0.00    -0.090 HD
ATOM     20  H   LIG d   1     -10.653  77.389 118.576  0.00  0.00    -0.090 HD
ATOM     21  H   LIG d   1     -10.047  78.553 117.596  0.00  0.00    -0.090 HD
ENDBRANCH   5  18
BRANCH   3  22
ATOM     22  C   LIG d   1      -8.404  73.779 116.581  0.00  0.00     0.382 C 
ATOM     23  O   LIG d   1      -7.485  72.999 116.235  0.00  0.00    -0.241 OA
ATOM     24  O   LIG d   1      -9.569  73.349 116.682  0.00  0.00    -0.241 OA
ENDBRANCH   3  22
TORSDOF 7
ENDMDL
MODEL 6
REMARK VINA RESULT:      -5.0     11.853     14.086
REMARK  7 active torsions:
REMARK  status: ('A' for Active; 'I' for Inactive)
REMARK    1  A    between atoms: C_2  and  C_3 
REMARK    2  A    between atoms: C_3  and  O_6 
REMARK    3  A    between atoms: C_3  and  C_4 
REMARK    4  A    between atoms: C_7  and  O_6 
REMARK    5  A    between atoms: C_9  and  C_10 
REMARK    6  A    between atoms: N_15  and  C_14 
REMARK    7  A    between atoms: N_20  and  C_19 
REMARK       I    between atoms: C_22  and  N_20 
ROOT
ATOM      1  C   LIG d   1       2.706  84.720 113.477  0.00  0.00     0.161 C 
ATOM      2  C   LIG d   1       1.643  83.893 113.077  0.00  0.00     0.016 C 
ATOM      3  C   LIG d   1       0.705  84.257 112.084  0.00  0.00     0.038 C 
ATOM      4  C   LIG d   1       0.857  85.417 111.311  0.00  0.00     0.028 C 
ATOM      5  C   LIG d   1       1.628  86.523 112.023  0.00  0.00    -0.047 C 
ATOM      6  C   LIG d   1       2.952  85.941 112.567  0.00  0.00     0.091 C 
ENDROOT
BRANCH   1   7
ATOM      7  O   LIG d   1       3.911  83.939 113.606  0.00  0.00    -0.368 OA
BRANCH   7   8
ATOM      8  C   LIG d   1       3.746  82.501 113.556  0.00  0.00     0.119 C 
BRANCH   8   9
ATOM      9  C   LIG d   1       4.122  81.944 114.943  0.00  0.00     0.028 C 
ATOM     10  C   LIG d   1       2.893  81.470 115.738  0.00  0.00     0.006 C 
ENDBRANCH   8   9
BRANCH   8  11
ATOM     11  C   LIG d   1       4.738  81.860 112.580  0.00  0.00     0.028 C 
ATOM     12  C   LIG d   1       4.697  82.501 111.184  0.00  0.00     0.006 C 
ENDBRANCH   8  11
ENDBRANCH   7   8
ENDBRANCH   1   7
BRANCH   6  13
ATOM     13  N   LIG d   1       3.729  86.937 113.352  0.00  0.00    -0.311 N 
ATOM     14  C   LIG d   1       4.695  87.690 112.828  0.00  0.00     0.210 C 
ATOM     15  C   LIG d   1       5.383  88.637 113.816  0.00  0.00     0.109 C 
ATOM     16  O   LIG d   1       5.026  87.686 111.633  0.00  0.00    -0.276 OA
ATOM     17  H   LIG d   1       3.505  87.027 114.323  0.00  0.00     0.149 HD
ENDBRANCH   6  13
BRANCH   5  18
ATOM     18  N   LIG d   1       1.831  87.619 111.056  0.00  0.00     0.381 N 
ATOM     19  H   LIG d   1       2.680  87.469 110.549  0.00  0.00    -0.090 HD
ATOM     20  H   LIG d   1       1.913  88.485 111.559  0.00  0.00    -0.090 HD
ATOM     21  H   LIG d   1       1.062  87.664 110.425  0.00  0.00    -0.090 HD
ENDBRANCH   5  18
BRANCH   3  22
ATOM     22  C   LIG d   1      -0.422  83.474 111.883  0.00  0.00     0.382 C 
ATOM     23  O   LIG d   1      -0.390  82.530 111.057  0.00  0.00    -0.241 OA
ATOM     24  O   LIG d   1      -1.482  83.728 112.484  0.00  0.00    -0.241 OA
ENDBRANCH   3  22
TORSDOF 7
ENDMDL
MODEL 7
REMARK VINA RESULT:      -4.9     12.090     15.078
REMARK  7 active torsions:
REMARK  status: ('A' for Active; 'I' for Inactive)
REMARK    1  A    between atoms: C_2  and  C_3 
REMARK    2  A    between atoms: C_3  and  O_6 
REMARK    3  A    between atoms: C_3  and  C_4 
REMARK    4  A    between atoms: C_7  and  O_6 
REMARK    5  A    between atoms: C_9  and  C_10 
REMARK    6  A    between atoms: N_15  and  C_14 
REMARK    7  A    between atoms: N_20  and  C_19 
REMARK       I    between atoms: C_22  and  N_20 
ROOT
ATOM      1  C   LIG d   1       3.335  85.599 112.966  0.00  0.00     0.161 C 
ATOM      2  C   LIG d   1       4.168  86.700 113.224  0.00  0.00     0.016 C 
ATOM      3  C   LIG d   1       3.871  88.017 112.804  0.00  0.00     0.038 C 
ATOM      4  C   LIG d   1       2.637  88.349 112.224  0.00  0.00     0.028 C 
ATOM      5  C   LIG d   1       1.979  87.185 111.491  0.00  0.00    -0.047 C 
ATOM      6  C   LIG d   1       1.933  85.961 112.433  0.00  0.00     0.091 C 
ENDROOT
BRANCH   1   7
ATOM      7  O   LIG d   1       3.226  84.782 114.148  0.00  0.00    -0.368 OA
BRANCH   7   8
ATOM      8  C   LIG d   1       4.074  83.608 114.192  0.00  0.00     0.119 C 
BRANCH   8   9
ATOM      9  C   LIG d   1       4.392  83.213 112.736  0.00  0.00     0.028 C 
ATOM     10  C   LIG d   1       3.649  81.940 112.298  0.00  0.00     0.006 C 
ENDBRANCH   8   9
BRANCH   8  11
ATOM     11  C   LIG d   1       3.333  82.406 114.785  0.00  0.00     0.028 C 
ATOM     12  C   LIG d   1       4.150  81.674 115.861  0.00  0.00     0.006 C 
ENDBRANCH   8  11
ENDBRANCH   7   8
ENDBRANCH   1   7
BRANCH   6  13
ATOM     13  N   LIG d   1       1.380  84.753 111.766  0.00  0.00    -0.311 N 
ATOM     14  C   LIG d   1       0.088  84.429 111.789  0.00  0.00     0.210 C 
ATOM     15  C   LIG d   1      -0.266  83.132 111.055  0.00  0.00     0.109 C 
ATOM     16  O   LIG d   1      -0.802  85.110 112.320  0.00  0.00    -0.276 OA
ATOM     17  H   LIG d   1       2.028  84.161 111.285  0.00  0.00     0.149 HD
ENDBRANCH   6  13
BRANCH   5  18
ATOM     18  N   LIG d   1       0.642  87.631 111.056  0.00  0.00     0.381 N 
ATOM     19  H   LIG d   1       0.556  88.620 111.185  0.00  0.00    -0.090 HD
ATOM     20  H   LIG d   1      -0.052  87.177 111.623  0.00  0.00    -0.090 HD
ATOM     21  H   LIG d   1       0.501  87.401 110.097  0.00  0.00    -0.090 HD
ENDBRANCH   5  18
BRANCH   3  22
ATOM     22  C   LIG d   1       4.830  89.011 112.926  0.00  0.00     0.382 C 
ATOM     23  O   LIG d   1       6.043  88.735 112.762  0.00  0.00    -0.241 OA
ATOM     24  O   LIG d   1       4.502  90.170 113.242  0.00  0.00    -0.241 OA
ENDBRANCH   3  22
TORSDOF 7
ENDMDL
MODEL 8
REMARK VINA RESULT:      -4.8     12.386     14.334
REMARK  7 active torsions:
REMARK  status: ('A' for Active; 'I' for Inactive)
REMARK    1  A    between atoms: C_2  and  C_3 
REMARK    2  A    between atoms: C_3  and  O_6 
REMARK    3  A    between atoms: C_3  and  C_4 
REMARK    4  A    between atoms: C_7  and  O_6 
REMARK    5  A    between atoms: C_9  and  C_10 
REMARK    6  A    between atoms: N_15  and  C_14 
REMARK    7  A    between atoms: N_20  and  C_19 
REMARK       I    between atoms: C_22  and  N_20 
ROOT
ATOM      1  C   LIG d   1       2.554  85.091 113.478  0.00  0.00     0.161 C 
ATOM      2  C   LIG d   1       2.561  86.379 112.917  0.00  0.00     0.016 C 
ATOM      3  C   LIG d   1       3.453  87.398 113.322  0.00  0.00     0.038 C 
ATOM      4  C   LIG d   1       4.506  87.151 114.216  0.00  0.00     0.028 C 
ATOM      5  C   LIG d   1       4.222  86.006 115.183  0.00  0.00    -0.047 C 
ATOM      6  C   LIG d   1       3.767  84.769 114.375  0.00  0.00     0.091 C 
ENDROOT
BRANCH   1   7
ATOM      7  O   LIG d   1       2.427  84.104 112.434  0.00  0.00    -0.368 OA
BRANCH   7   8
ATOM      8  C   LIG d   1       1.185  83.358 112.410  0.00  0.00     0.119 C 
BRANCH   8   9
ATOM      9  C   LIG d   1       1.534  81.889 112.102  0.00  0.00     0.028 C 
ATOM     10  C   LIG d   1       2.912  81.740 111.436  0.00  0.00     0.006 C 
ENDBRANCH   8   9
BRANCH   8  11
ATOM     11  C   LIG d   1       0.285  83.812 111.257  0.00  0.00     0.028 C 
ATOM     12  C   LIG d   1      -0.700  84.917 111.670  0.00  0.00     0.006 C 
ENDBRANCH   8  11
ENDBRANCH   7   8
ENDBRANCH   1   7
BRANCH   6  13
ATOM     13  N   LIG d   1       3.389  83.629 115.251  0.00  0.00    -0.311 N 
ATOM     14  C   LIG d   1       3.906  82.407 115.128  0.00  0.00     0.210 C 
ATOM     15  C   LIG d   1       3.363  81.373 116.120  0.00  0.00     0.109 C 
ATOM     16  O   LIG d   1       4.786  82.091 114.314  0.00  0.00    -0.276 OA
ATOM     17  H   LIG d   1       2.703  83.805 115.959  0.00  0.00     0.149 HD
ENDBRANCH   6  13
BRANCH   5  18
ATOM     18  N   LIG d   1       5.451  85.767 115.962  0.00  0.00     0.381 N 
ATOM     19  H   LIG d   1       5.258  85.138 116.716  0.00  0.00    -0.090 HD
ATOM     20  H   LIG d   1       5.764  86.639 116.352  0.00  0.00    -0.090 HD
ATOM     21  H   LIG d   1       6.159  85.384 115.375  0.00  0.00    -0.090 HD
ENDBRANCH   5  18
BRANCH   3  22
ATOM     22  C   LIG d   1       3.272  88.693 112.860  0.00  0.00     0.382 C 
ATOM     23  O   LIG d   1       2.241  88.988 112.208  0.00  0.00    -0.241 OA
ATOM     24  O   LIG d   1       4.147  89.559 113.049  0.00  0.00    -0.241 OA
ENDBRANCH   3  22
TORSDOF 7
ENDMDL
MODEL 9
REMARK VINA RESULT:      -4.7      2.635      5.826
REMARK  7 active torsions:
REMARK  status: ('A' for Active; 'I' for Inactive)
REMARK    1  A    between atoms: C_2  and  C_3 
REMARK    2  A    between atoms: C_3  and  O_6 
REMARK    3  A    between atoms: C_3  and  C_4 
REMARK    4  A    between atoms: C_7  and  O_6 
REMARK    5  A    between atoms: C_9  and  C_10 
REMARK    6  A    between atoms: N_15  and  C_14 
REMARK    7  A    between atoms: N_20  and  C_19 
REMARK       I    between atoms: C_22  and  N_20 
ROOT
ATOM      1  C   LIG d   1      -4.737  77.089 116.440  0.00  0.00     0.161 C 
ATOM      2  C   LIG d   1      -4.868  75.903 115.698  0.00  0.00     0.016 C 
ATOM      3  C   LIG d   1      -6.079  75.182 115.592  0.00  0.00     0.038 C 
ATOM      4  C   LIG d   1      -7.287  75.683 116.100  0.00  0.00     0.028 C 
ATOM      5  C   LIG d   1      -7.102  76.623 117.286  0.00  0.00    -0.047 C 
ATOM      6  C   LIG d   1      -6.069  77.709 116.909  0.00  0.00     0.091 C 
ENDROOT
BRANCH   1   7
ATOM      7  O   LIG d   1      -3.972  78.053 115.689  0.00  0.00    -0.368 OA
BRANCH   7   8
ATOM      8  C   LIG d   1      -2.762  77.559 115.064  0.00  0.00     0.119 C 
BRANCH   8   9
ATOM      9  C   LIG d   1      -1.569  78.085 115.885  0.00  0.00     0.028 C 
ATOM     10  C   LIG d   1      -0.881  76.975 116.697  0.00  0.00     0.006 C 
ENDBRANCH   8   9
BRANCH   8  11
ATOM     11  C   LIG d   1      -2.580  78.147 113.661  0.00  0.00     0.028 C 
ATOM     12  C   LIG d   1      -1.247  78.894 113.497  0.00  0.00     0.006 C 
ENDBRANCH   8  11
ENDBRANCH   7   8
ENDBRANCH   1   7
BRANCH   6  13
ATOM     13  N   LIG d   1      -5.767  78.621 118.042  0.00  0.00    -0.311 N 
ATOM     14  C   LIG d   1      -5.931  79.942 117.985  0.00  0.00     0.210 C 
ATOM     15  C   LIG d   1      -5.540  80.698 119.258  0.00  0.00     0.109 C 
ATOM     16  O   LIG d   1      -6.394  80.555 117.011  0.00  0.00    -0.276 OA
ATOM     17  H   LIG d   1      -5.416  78.204 118.882  0.00  0.00     0.149 HD
ENDBRANCH   6  13
BRANCH   5  18
ATOM     18  N   LIG d   1      -8.426  77.177 117.626  0.00  0.00     0.381 N 
ATOM     19  H   LIG d   1      -9.112  76.832 116.985  0.00  0.00    -0.090 HD
ATOM     20  H   LIG d   1      -8.391  78.177 117.543  0.00  0.00    -0.090 HD
ATOM     21  H   LIG d   1      -8.673  76.922 118.557  0.00  0.00    -0.090 HD
ENDBRANCH   5  18
BRANCH   3  22
ATOM     22  C   LIG d   1      -6.082  73.926 115.005  0.00  0.00     0.382 C 
ATOM     23  O   LIG d   1      -6.763  73.000 115.508  0.00  0.00    -0.241 OA
ATOM     24  O   LIG d   1      -5.376  73.694 114.005  0.00  0.00    -0.241 OA
ENDBRANCH   3  22
TORSDOF 7
ENDMDL
