MODEL 1
REMARK VINA RESULT:      -5.8      0.000      0.000
REMARK  7 active torsions:
REMARK  status: ('A' for Active; 'I' for Inactive)
REMARK    1  A    between atoms: C_2  and  C_3 
REMARK    2  A    between atoms: C_3  and  O_6 
REMARK    3  A    between atoms: C_3  and  C_4 
REMARK    4  A    between atoms: C_7  and  O_6 
REMARK    5  A    between atoms: C_9  and  C_10 
REMARK    6  A    between atoms: N_15  and  C_14 
REMARK    7  A    between atoms: N_20  and  C_19 
REMARK       I    between atoms: C_22  and  N_20 
ROOT
ATOM      1  C   LIG d   1      -7.726  75.963 117.882  0.00  0.00     0.161 C 
ATOM      2  C   LIG d   1      -8.955  76.557 118.217  0.00  0.00     0.016 C 
ATOM      3  C   LIG d   1      -9.125  77.950 118.388  0.00  0.00     0.038 C 
ATOM      4  C   LIG d   1      -8.105  78.864 118.085  0.00  0.00     0.028 C 
ATOM      5  C   LIG d   1      -6.704  78.279 118.231  0.00  0.00    -0.047 C 
ATOM      6  C   LIG d   1      -6.629  76.954 117.439  0.00  0.00     0.091 C 
ENDROOT
BRANCH   1   7
ATOM      7  O   LIG d   1      -7.930  74.956 116.872  0.00  0.00    -0.368 OA
BRANCH   7   8
ATOM      8  C   LIG d   1      -7.892  73.581 117.326  0.00  0.00     0.119 C 
BRANCH   8   9
ATOM      9  C   LIG d   1      -6.942  72.810 116.389  0.00  0.00     0.028 C 
ATOM     10  C   LIG d   1      -6.355  73.704 115.283  0.00  0.00     0.006 C 
ENDBRANCH   8   9
BRANCH   8  11
ATOM     11  C   LIG d   1      -9.256  72.903 117.166  0.00  0.00     0.028 C 
ATOM     12  C   LIG d   1      -9.143  71.404 116.849  0.00  0.00     0.006 C 
ENDBRANCH   8  11
ENDBRANCH   7   8
ENDBRANCH   1   7
BRANCH   6  13
ATOM     13  N   LIG d   1      -5.318  76.272 117.597  0.00  0.00    -0.311 N 
ATOM     14  C   LIG d   1      -4.311  76.411 116.737  0.00  0.00     0.210 C 
ATOM     15  C   LIG d   1      -3.054  75.605 117.077  0.00  0.00     0.109 C 
ATOM     16  O   LIG d   1      -4.328  77.151 115.742  0.00  0.00    -0.276 OA
ATOM     17  H   LIG d   1      -5.207  75.677 118.394  0.00  0.00     0.149 HD
ENDBRANCH   6  13
BRANCH   5  18
ATOM     18  N   LIG d   1      -5.745  79.293 117.753  0.00  0.00     0.381 N 
ATOM     19  H   LIG d   1      -6.205  79.925 117.128  0.00  0.00    -0.090 HD
ATOM     20  H   LIG d   1      -5.008  78.832 117.249  0.00  0.00    -0.090 HD
ATOM     21  H   LIG d   1      -5.366  79.795 118.525  0.00  0.00    -0.090 HD
ENDBRANCH   5  18
BRANCH   3  22
ATOM     22  C   LIG d   1     -10.315  78.439 118.905  0.00  0.00     0.382 C 
ATOM     23  O   LIG d   1     -11.295  77.670 119.058  0.00  0.00    -0.241 OA
ATOM     24  O   LIG d   1     -10.435  79.648 119.180  0.00  0.00    -0.241 OA
ENDBRANCH   3  22
TORSDOF 7
ENDMDL
MODEL 2
REMARK VINA RESULT:      -5.8      3.228      5.002
REMARK  7 active torsions:
REMARK  status: ('A' for Active; 'I' for Inactive)
REMARK    1  A    between atoms: C_2  and  C_3 
REMARK    2  A    between atoms: C_3  and  O_6 
REMARK    3  A    between atoms: C_3  and  C_4 
REMARK    4  A    between atoms: C_7  and  O_6 
REMARK    5  A    between atoms: C_9  and  C_10 
REMARK    6  A    between atoms: N_15  and  C_14 
REMARK    7  A    between atoms: N_20  and  C_19 
REMARK       I    between atoms: C_22  and  N_20 
ROOT
ATOM      1  C   LIG d   1      -5.456  75.156 115.874  0.00  0.00     0.161 C 
ATOM      2  C   LIG d   1      -6.041  75.383 114.617  0.00  0.00     0.016 C 
ATOM      3  C   LIG d   1      -5.328  75.893 113.508  0.00  0.00     0.038 C 
ATOM      4  C   LIG d   1      -3.936  76.070 113.539  0.00  0.00     0.028 C 
ATOM      5  C   LIG d   1      -3.390  76.332 114.938  0.00  0.00    -0.047 C 
ATOM      6  C   LIG d   1      -3.915  75.238 115.895  0.00  0.00     0.091 C 
ENDROOT
BRANCH   1   7
ATOM      7  O   LIG d   1      -5.897  73.887 116.397  0.00  0.00    -0.368 OA
BRANCH   7   8
ATOM      8  C   LIG d   1      -6.811  73.943 117.520  0.00  0.00     0.119 C 
BRANCH   8   9
ATOM      9  C   LIG d   1      -8.142  73.315 117.065  0.00  0.00     0.028 C 
ATOM     10  C   LIG d   1      -7.968  71.875 116.553  0.00  0.00     0.006 C 
ENDBRANCH   8   9
BRANCH   8  11
ATOM     11  C   LIG d   1      -7.150  75.390 117.890  0.00  0.00     0.028 C 
ATOM     12  C   LIG d   1      -8.622  75.743 117.624  0.00  0.00     0.006 C 
ENDBRANCH   8  11
ENDBRANCH   7   8
ENDBRANCH   1   7
BRANCH   6  13
ATOM     13  N   LIG d   1      -3.496  75.468 117.302  0.00  0.00    -0.311 N 
ATOM     14  C   LIG d   1      -2.388  74.951 117.831  0.00  0.00     0.210 C 
ATOM     15  C   LIG d   1      -2.153  75.295 119.305  0.00  0.00     0.109 C 
ATOM     16  O   LIG d   1      -1.561  74.266 117.210  0.00  0.00    -0.276 OA
ATOM     17  H   LIG d   1      -4.093  76.037 117.869  0.00  0.00     0.149 HD
ENDBRANCH   6  13
BRANCH   5  18
ATOM     18  N   LIG d   1      -1.918  76.360 114.843  0.00  0.00     0.381 N 
ATOM     19  H   LIG d   1      -1.518  75.935 115.656  0.00  0.00    -0.090 HD
ATOM     20  H   LIG d   1      -1.613  77.316 114.805  0.00  0.00    -0.090 HD
ATOM     21  H   LIG d   1      -1.620  75.875 114.026  0.00  0.00    -0.090 HD
ENDBRANCH   5  18
BRANCH   3  22
ATOM     22  C   LIG d   1      -6.015  76.269 112.364  0.00  0.00     0.382 C 
ATOM     23  O   LIG d   1      -5.594  75.917 111.236  0.00  0.00    -0.241 OA
ATOM     24  O   LIG d   1      -7.024  76.994 112.443  0.00  0.00    -0.241 OA
ENDBRANCH   3  22
TORSDOF 7
ENDMDL
MODEL 3
REMARK VINA RESULT:      -5.6      2.523      5.100
REMARK  7 active torsions:
REMARK  status: ('A' for Active; 'I' for Inactive)
REMARK    1  A    between atoms: C_2  and  C_3 
REMARK    2  A    between atoms: C_3  and  O_6 
REMARK    3  A    between atoms: C_3  and  C_4 
REMARK    4  A    between atoms: C_7  and  O_6 
REMARK    5  A    between atoms: C_9  and  C_10 
REMARK    6  A    between atoms: N_15  and  C_14 
REMARK    7  A    between atoms: N_20  and  C_19 
REMARK       I    between atoms: C_22  and  N_20 
ROOT
ATOM      1  C   LIG d   1      -5.831  75.739 115.965  0.00  0.00     0.161 C 
ATOM      2  C   LIG d   1      -6.295  74.426 115.783  0.00  0.00     0.016 C 
ATOM      3  C   LIG d   1      -7.274  73.825 116.608  0.00  0.00     0.038 C 
ATOM      4  C   LIG d   1      -7.969  74.554 117.584  0.00  0.00     0.028 C 
ATOM      5  C   LIG d   1      -7.178  75.736 118.136  0.00  0.00    -0.047 C 
ATOM      6  C   LIG d   1      -6.658  76.586 116.955  0.00  0.00     0.091 C 
ENDROOT
BRANCH   1   7
ATOM      7  O   LIG d   1      -5.739  76.406 114.690  0.00  0.00    -0.368 OA
BRANCH   7   8
ATOM      8  C   LIG d   1      -5.187  75.626 113.601  0.00  0.00     0.119 C 
BRANCH   8   9
ATOM      9  C   LIG d   1      -3.652  75.686 113.721  0.00  0.00     0.028 C 
ATOM     10  C   LIG d   1      -3.122  77.129 113.755  0.00  0.00     0.006 C 
ENDBRANCH   8   9
BRANCH   8  11
ATOM     11  C   LIG d   1      -5.513  76.256 112.244  0.00  0.00     0.028 C 
ATOM     12  C   LIG d   1      -6.926  76.859 112.190  0.00  0.00     0.006 C 
ENDBRANCH   8  11
ENDBRANCH   7   8
ENDBRANCH   1   7
BRANCH   6  13
ATOM     13  N   LIG d   1      -5.803  77.716 117.404  0.00  0.00    -0.311 N 
ATOM     14  C   LIG d   1      -6.280  78.922 117.704  0.00  0.00     0.210 C 
ATOM     15  C   LIG d   1      -5.224  79.949 118.126  0.00  0.00     0.109 C 
ATOM     16  O   LIG d   1      -7.481  79.231 117.692  0.00  0.00    -0.276 OA
ATOM     17  H   LIG d   1      -4.819  77.544 117.472  0.00  0.00     0.149 HD
ENDBRANCH   6  13
BRANCH   5  18
ATOM     18  N   LIG d   1      -8.071  76.486 119.040  0.00  0.00     0.381 N 
ATOM     19  H   LIG d   1      -7.529  76.959 119.735  0.00  0.00    -0.090 HD
ATOM     20  H   LIG d   1      -8.683  75.838 119.504  0.00  0.00    -0.090 HD
ATOM     21  H   LIG d   1      -8.606  77.146 118.520  0.00  0.00    -0.090 HD
ENDBRANCH   5  18
BRANCH   3  22
ATOM     22  C   LIG d   1      -7.537  72.469 116.486  0.00  0.00     0.382 C 
ATOM     23  O   LIG d   1      -8.228  71.884 117.354  0.00  0.00    -0.241 OA
ATOM     24  O   LIG d   1      -7.056  71.815 115.542  0.00  0.00    -0.241 OA
ENDBRANCH   3  22
TORSDOF 7
ENDMDL
MODEL 4
REMARK VINA RESULT:      -5.5      1.478      2.517
REMARK  7 active torsions:
REMARK  status: ('A' for Active; 'I' for Inactive)
REMARK    1  A    between atoms: C_2  and  C_3 
REMARK    2  A    between atoms: C_3  and  O_6 
REMARK    3  A    between atoms: C_3  and  C_4 
REMARK    4  A    between atoms: C_7  and  O_6 
REMARK    5  A    between atoms: C_9  and  C_10 
REMARK    6  A    between atoms: N_15  and  C_14 
REMARK    7  A    between atoms: N_20  and  C_19 
REMARK       I    between atoms: C_22  and  N_20 
ROOT
ATOM      1  C   LIG d   1      -6.114  75.030 117.925  0.00  0.00     0.161 C 
ATOM      2  C   LIG d   1      -7.491  75.301 117.877  0.00  0.00     0.016 C 
ATOM      3  C   LIG d   1      -8.025  76.606 117.773  0.00  0.00     0.038 C 
ATOM      4  C   LIG d   1      -7.209  77.726 117.557  0.00  0.00     0.028 C 
ATOM      5  C   LIG d   1      -5.795  77.559 118.104  0.00  0.00    -0.047 C 
ATOM      6  C   LIG d   1      -5.207  76.230 117.578  0.00  0.00     0.091 C 
ENDROOT
BRANCH   1   7
ATOM      7  O   LIG d   1      -5.806  73.908 117.076  0.00  0.00    -0.368 OA
BRANCH   7   8
ATOM      8  C   LIG d   1      -6.656  73.734 115.915  0.00  0.00     0.119 C 
BRANCH   8   9
ATOM      9  C   LIG d   1      -6.919  72.224 115.755  0.00  0.00     0.028 C 
ATOM     10  C   LIG d   1      -8.142  71.753 116.559  0.00  0.00     0.006 C 
ENDBRANCH   8   9
BRANCH   8  11
ATOM     11  C   LIG d   1      -5.940  74.160 114.631  0.00  0.00     0.028 C 
ATOM     12  C   LIG d   1      -6.273  75.601 114.212  0.00  0.00     0.006 C 
ENDBRANCH   8  11
ENDBRANCH   7   8
ENDBRANCH   1   7
BRANCH   6  13
ATOM     13  N   LIG d   1      -3.857  75.948 118.134  0.00  0.00    -0.311 N 
ATOM     14  C   LIG d   1      -2.822  75.569 117.387  0.00  0.00     0.210 C 
ATOM     15  C   LIG d   1      -1.526  75.311 118.161  0.00  0.00     0.109 C 
ATOM     16  O   LIG d   1      -2.845  75.452 116.152  0.00  0.00    -0.276 OA
ATOM     17  H   LIG d   1      -3.741  76.049 119.123  0.00  0.00     0.149 HD
ENDBRANCH   6  13
BRANCH   5  18
ATOM     18  N   LIG d   1      -5.015  78.740 117.688  0.00  0.00     0.381 N 
ATOM     19  H   LIG d   1      -5.203  78.951 116.729  0.00  0.00    -0.090 HD
ATOM     20  H   LIG d   1      -4.036  78.532 117.779  0.00  0.00    -0.090 HD
ATOM     21  H   LIG d   1      -5.249  79.522 118.260  0.00  0.00    -0.090 HD
ENDBRANCH   5  18
BRANCH   3  22
ATOM     22  C   LIG d   1      -9.389  76.805 117.926  0.00  0.00     0.382 C 
ATOM     23  O   LIG d   1      -9.822  77.922 118.297  0.00  0.00    -0.241 OA
ATOM     24  O   LIG d   1     -10.189  75.868 117.740  0.00  0.00    -0.241 OA
ENDBRANCH   3  22
TORSDOF 7
ENDMDL
MODEL 5
REMARK VINA RESULT:      -5.1      3.198      6.475
REMARK  7 active torsions:
REMARK  status: ('A' for Active; 'I' for Inactive)
REMARK    1  A    between atoms: C_2  and  C_3 
REMARK    2  A    between atoms: C_3  and  O_6 
REMARK    3  A    between atoms: C_3  and  C_4 
REMARK    4  A    between atoms: C_7  and  O_6 
REMARK    5  A    between atoms: C_9  and  C_10 
REMARK    6  A    between atoms: N_15  and  C_14 
REMARK    7  A    between atoms: N_20  and  C_19 
REMARK       I    between atoms: C_22  and  N_20 
ROOT
ATOM      1  C   LIG d   1      -3.767  75.046 116.491  0.00  0.00     0.161 C 
ATOM      2  C   LIG d   1      -2.795  74.736 117.456  0.00  0.00     0.016 C 
ATOM      3  C   LIG d   1      -1.405  74.859 117.228  0.00  0.00     0.038 C 
ATOM      4  C   LIG d   1      -0.894  75.448 116.062  0.00  0.00     0.028 C 
ATOM      5  C   LIG d   1      -1.819  75.310 114.858  0.00  0.00    -0.047 C 
ATOM      6  C   LIG d   1      -3.233  75.796 115.252  0.00  0.00     0.091 C 
ENDROOT
BRANCH   1   7
ATOM      7  O   LIG d   1      -4.841  75.788 117.101  0.00  0.00    -0.368 OA
BRANCH   7   8
ATOM      8  C   LIG d   1      -5.974  75.010 117.559  0.00  0.00     0.119 C 
BRANCH   8   9
ATOM      9  C   LIG d   1      -6.777  74.583 116.315  0.00  0.00     0.028 C 
ATOM     10  C   LIG d   1      -6.892  73.055 116.186  0.00  0.00     0.006 C 
ENDBRANCH   8   9
BRANCH   8  11
ATOM     11  C   LIG d   1      -6.937  75.863 118.390  0.00  0.00     0.028 C 
ATOM     12  C   LIG d   1      -7.512  77.050 117.603  0.00  0.00     0.006 C 
ENDBRANCH   8  11
ENDBRANCH   7   8
ENDBRANCH   1   7
BRANCH   6  13
ATOM     13  N   LIG d   1      -4.221  75.616 114.157  0.00  0.00    -0.311 N 
ATOM     14  C   LIG d   1      -4.468  76.542 113.232  0.00  0.00     0.210 C 
ATOM     15  C   LIG d   1      -5.538  76.162 112.205  0.00  0.00     0.109 C 
ATOM     16  O   LIG d   1      -3.879  77.630 113.147  0.00  0.00    -0.276 OA
ATOM     17  H   LIG d   1      -4.721  74.749 114.132  0.00  0.00     0.149 HD
ENDBRANCH   6  13
BRANCH   5  18
ATOM     18  N   LIG d   1      -1.229  76.086 113.750  0.00  0.00     0.381 N 
ATOM     19  H   LIG d   1      -1.869  76.797 113.457  0.00  0.00    -0.090 HD
ATOM     20  H   LIG d   1      -1.064  75.470 112.974  0.00  0.00    -0.090 HD
ATOM     21  H   LIG d   1      -0.372  76.500 114.043  0.00  0.00    -0.090 HD
ENDBRANCH   5  18
BRANCH   3  22
ATOM     22  C   LIG d   1      -0.508  74.352 118.156  0.00  0.00     0.382 C 
ATOM     23  O   LIG d   1       0.385  75.092 118.634  0.00  0.00    -0.241 OA
ATOM     24  O   LIG d   1      -0.555  73.153 118.490  0.00  0.00    -0.241 OA
ENDBRANCH   3  22
TORSDOF 7
ENDMDL
MODEL 6
REMARK VINA RESULT:      -5.0      1.737      2.901
REMARK  7 active torsions:
REMARK  status: ('A' for Active; 'I' for Inactive)
REMARK    1  A    between atoms: C_2  and  C_3 
REMARK    2  A    between atoms: C_3  and  O_6 
REMARK    3  A    between atoms: C_3  and  C_4 
REMARK    4  A    between atoms: C_7  and  O_6 
REMARK    5  A    between atoms: C_9  and  C_10 
REMARK    6  A    between atoms: N_15  and  C_14 
REMARK    7  A    between atoms: N_20  and  C_19 
REMARK       I    between atoms: C_22  and  N_20 
ROOT
ATOM      1  C   LIG d   1      -6.459  76.959 117.115  0.00  0.00     0.161 C 
ATOM      2  C   LIG d   1      -7.816  76.608 117.218  0.00  0.00     0.016 C 
ATOM      3  C   LIG d   1      -8.765  77.373 117.935  0.00  0.00     0.038 C 
ATOM      4  C   LIG d   1      -8.450  78.628 118.476  0.00  0.00     0.028 C 
ATOM      5  C   LIG d   1      -6.975  78.782 118.829  0.00  0.00    -0.047 C 
ATOM      6  C   LIG d   1      -6.120  78.382 117.605  0.00  0.00     0.091 C 
ENDROOT
BRANCH   1   7
ATOM      7  O   LIG d   1      -6.009  76.775 115.758  0.00  0.00    -0.368 OA
BRANCH   7   8
ATOM      8  C   LIG d   1      -5.154  75.629 115.520  0.00  0.00     0.119 C 
BRANCH   8   9
ATOM      9  C   LIG d   1      -5.984  74.586 114.747  0.00  0.00     0.028 C 
ATOM     10  C   LIG d   1      -6.508  73.461 115.657  0.00  0.00     0.006 C 
ENDBRANCH   8   9
BRANCH   8  11
ATOM     11  C   LIG d   1      -4.763  74.944 116.833  0.00  0.00     0.028 C 
ATOM     12  C   LIG d   1      -3.277  75.130 117.182  0.00  0.00     0.006 C 
ENDBRANCH   8  11
ENDBRANCH   7   8
ENDBRANCH   1   7
BRANCH   6  13
ATOM     13  N   LIG d   1      -4.663  78.424 117.892  0.00  0.00    -0.311 N 
ATOM     14  C   LIG d   1      -3.827  79.287 117.318  0.00  0.00     0.210 C 
ATOM     15  C   LIG d   1      -2.361  79.146 117.740  0.00  0.00     0.109 C 
ATOM     16  O   LIG d   1      -4.165  80.177 116.523  0.00  0.00    -0.276 OA
ATOM     17  H   LIG d   1      -4.308  77.757 118.549  0.00  0.00     0.149 HD
ENDBRANCH   6  13
BRANCH   5  18
ATOM     18  N   LIG d   1      -6.761  80.180 119.251  0.00  0.00     0.381 N 
ATOM     19  H   LIG d   1      -6.156  80.204 120.048  0.00  0.00    -0.090 HD
ATOM     20  H   LIG d   1      -7.645  80.578 119.514  0.00  0.00    -0.090 HD
ATOM     21  H   LIG d   1      -6.361  80.704 118.505  0.00  0.00    -0.090 HD
ENDBRANCH   5  18
BRANCH   3  22
ATOM     22  C   LIG d   1     -10.036  76.862 118.151  0.00  0.00     0.382 C 
ATOM     23  O   LIG d   1     -10.321  75.704 117.762  0.00  0.00    -0.241 OA
ATOM     24  O   LIG d   1     -10.914  77.562 118.691  0.00  0.00    -0.241 OA
ENDBRANCH   3  22
TORSDOF 7
ENDMDL
MODEL 7
REMARK VINA RESULT:      -5.0     14.630     17.161
REMARK  7 active torsions:
REMARK  status: ('A' for Active; 'I' for Inactive)
REMARK    1  A    between atoms: C_2  and  C_3 
REMARK    2  A    between atoms: C_3  and  O_6 
REMARK    3  A    between atoms: C_3  and  C_4 
REMARK    4  A    between atoms: C_7  and  O_6 
REMARK    5  A    between atoms: C_9  and  C_10 
REMARK    6  A    between atoms: N_15  and  C_14 
REMARK    7  A    between atoms: N_20  and  C_19 
REMARK       I    between atoms: C_22  and  N_20 
ROOT
ATOM      1  C   LIG d   1       2.884  88.374 115.781  0.00  0.00     0.161 C 
ATOM      2  C   LIG d   1       3.017  89.750 116.033  0.00  0.00     0.016 C 
ATOM      3  C   LIG d   1       3.972  90.289 116.925  0.00  0.00     0.038 C 
ATOM      4  C   LIG d   1       4.965  89.495 117.516  0.00  0.00     0.028 C 
ATOM      5  C   LIG d   1       4.554  88.036 117.685  0.00  0.00    -0.047 C 
ATOM      6  C   LIG d   1       4.031  87.502 116.332  0.00  0.00     0.091 C 
ENDROOT
BRANCH   1   7
ATOM      7  O   LIG d   1       2.718  88.150 114.367  0.00  0.00    -0.368 OA
BRANCH   7   8
ATOM      8  C   LIG d   1       3.927  87.864 113.621  0.00  0.00     0.119 C 
BRANCH   8   9
ATOM      9  C   LIG d   1       4.422  89.191 113.014  0.00  0.00     0.028 C 
ATOM     10  C   LIG d   1       5.955  89.305 113.024  0.00  0.00     0.006 C 
ENDBRANCH   8   9
BRANCH   8  11
ATOM     11  C   LIG d   1       3.640  86.952 112.424  0.00  0.00     0.028 C 
ATOM     12  C   LIG d   1       2.316  87.290 111.722  0.00  0.00     0.006 C 
ENDBRANCH   8  11
ENDBRANCH   7   8
ENDBRANCH   1   7
BRANCH   6  13
ATOM     13  N   LIG d   1       3.529  86.107 116.428  0.00  0.00    -0.311 N 
ATOM     14  C   LIG d   1       4.260  85.041 116.107  0.00  0.00     0.210 C 
ATOM     15  C   LIG d   1       3.543  83.695 116.261  0.00  0.00     0.109 C 
ATOM     16  O   LIG d   1       5.444  85.079 115.740  0.00  0.00    -0.276 OA
ATOM     17  H   LIG d   1       2.588  85.982 116.747  0.00  0.00     0.149 HD
ENDBRANCH   6  13
BRANCH   5  18
ATOM     18  N   LIG d   1       5.728  87.296 118.184  0.00  0.00     0.381 N 
ATOM     19  H   LIG d   1       5.435  86.588 118.826  0.00  0.00    -0.090 HD
ATOM     20  H   LIG d   1       6.331  87.935 118.672  0.00  0.00    -0.090 HD
ATOM     21  H   LIG d   1       6.219  86.882 117.422  0.00  0.00    -0.090 HD
ENDBRANCH   5  18
BRANCH   3  22
ATOM     22  C   LIG d   1       3.913  91.632 117.265  0.00  0.00     0.382 C 
ATOM     23  O   LIG d   1       4.645  92.079 118.181  0.00  0.00    -0.241 OA
ATOM     24  O   LIG d   1       3.106  92.393 116.699  0.00  0.00    -0.241 OA
ENDBRANCH   3  22
TORSDOF 7
ENDMDL
MODEL 8
REMARK VINA RESULT:      -5.0      4.107      6.701
REMARK  7 active torsions:
REMARK  status: ('A' for Active; 'I' for Inactive)
REMARK    1  A    between atoms: C_2  and  C_3 
REMARK    2  A    between atoms: C_3  and  O_6 
REMARK    3  A    between atoms: C_3  and  C_4 
REMARK    4  A    between atoms: C_7  and  O_6 
REMARK    5  A    between atoms: C_9  and  C_10 
REMARK    6  A    between atoms: N_15  and  C_14 
REMARK    7  A    between atoms: N_20  and  C_19 
REMARK       I    between atoms: C_22  and  N_20 
ROOT
ATOM      1  C   LIG d   1      -2.711  75.448 116.068  0.00  0.00     0.161 C 
ATOM      2  C   LIG d   1      -2.204  74.696 117.140  0.00  0.00     0.016 C 
ATOM      3  C   LIG d   1      -0.934  74.923 117.718  0.00  0.00     0.038 C 
ATOM      4  C   LIG d   1      -0.142  76.024 117.359  0.00  0.00     0.028 C 
ATOM      5  C   LIG d   1      -0.391  76.510 115.935  0.00  0.00    -0.047 C 
ATOM      6  C   LIG d   1      -1.909  76.723 115.736  0.00  0.00     0.091 C 
ENDROOT
BRANCH   1   7
ATOM      7  O   LIG d   1      -4.094  75.775 116.311  0.00  0.00    -0.368 OA
BRANCH   7   8
ATOM      8  C   LIG d   1      -5.073  74.906 115.689  0.00  0.00     0.119 C 
BRANCH   8   9
ATOM      9  C   LIG d   1      -5.609  75.632 114.440  0.00  0.00     0.028 C 
ATOM     10  C   LIG d   1      -5.065  75.032 113.133  0.00  0.00     0.006 C 
ENDBRANCH   8   9
BRANCH   8  11
ATOM     11  C   LIG d   1      -6.291  74.702 116.594  0.00  0.00     0.028 C 
ATOM     12  C   LIG d   1      -7.000  73.362 116.346  0.00  0.00     0.006 C 
ENDBRANCH   8  11
ENDBRANCH   7   8
ENDBRANCH   1   7
BRANCH   6  13
ATOM     13  N   LIG d   1      -2.247  77.118 114.344  0.00  0.00    -0.311 N 
ATOM     14  C   LIG d   1      -2.379  78.385 113.952  0.00  0.00     0.210 C 
ATOM     15  C   LIG d   1      -2.751  78.571 112.478  0.00  0.00     0.109 C 
ATOM     16  O   LIG d   1      -2.191  79.373 114.678  0.00  0.00    -0.276 OA
ATOM     17  H   LIG d   1      -2.386  76.381 113.681  0.00  0.00     0.149 HD
ENDBRANCH   6  13
BRANCH   5  18
ATOM     18  N   LIG d   1       0.397  77.742 115.741  0.00  0.00     0.381 N 
ATOM     19  H   LIG d   1       0.702  77.803 114.790  0.00  0.00    -0.090 HD
ATOM     20  H   LIG d   1       1.209  77.705 116.331  0.00  0.00    -0.090 HD
ATOM     21  H   LIG d   1      -0.154  78.539 115.972  0.00  0.00    -0.090 HD
ENDBRANCH   5  18
BRANCH   3  22
ATOM     22  C   LIG d   1      -0.427  74.020 118.640  0.00  0.00     0.382 C 
ATOM     23  O   LIG d   1       0.738  74.164 119.084  0.00  0.00    -0.241 OA
ATOM     24  O   LIG d   1      -1.103  73.038 119.000  0.00  0.00    -0.241 OA
ENDBRANCH   3  22
TORSDOF 7
ENDMDL
MODEL 9
REMARK VINA RESULT:      -5.0     15.098     17.321
REMARK  7 active torsions:
REMARK  status: ('A' for Active; 'I' for Inactive)
REMARK    1  A    between atoms: C_2  and  C_3 
REMARK    2  A    between atoms: C_3  and  O_6 
REMARK    3  A    between atoms: C_3  and  C_4 
REMARK    4  A    between atoms: C_7  and  O_6 
REMARK    5  A    between atoms: C_9  and  C_10 
REMARK    6  A    between atoms: N_15  and  C_14 
REMARK    7  A    between atoms: N_20  and  C_19 
REMARK       I    between atoms: C_22  and  N_20 
ROOT
ATOM      1  C   LIG d   1       4.351  87.922 115.396  0.00  0.00     0.161 C 
ATOM      2  C   LIG d   1       3.510  87.328 114.440  0.00  0.00     0.016 C 
ATOM      3  C   LIG d   1       3.679  87.492 113.046  0.00  0.00     0.038 C 
ATOM      4  C   LIG d   1       4.798  88.144 112.506  0.00  0.00     0.028 C 
ATOM      5  C   LIG d   1       5.399  89.189 113.440  0.00  0.00    -0.047 C 
ATOM      6  C   LIG d   1       5.642  88.545 114.824  0.00  0.00     0.091 C 
ENDROOT
BRANCH   1   7
ATOM      7  O   LIG d   1       4.670  86.967 116.427  0.00  0.00    -0.368 OA
BRANCH   7   8
ATOM      8  C   LIG d   1       4.113  85.639 116.261  0.00  0.00     0.119 C 
BRANCH   8   9
ATOM      9  C   LIG d   1       3.393  85.271 117.573  0.00  0.00     0.028 C 
ATOM     10  C   LIG d   1       2.564  86.438 118.135  0.00  0.00     0.006 C 
ENDBRANCH   8   9
BRANCH   8  11
ATOM     11  C   LIG d   1       5.216  84.590 116.095  0.00  0.00     0.028 C 
ATOM     12  C   LIG d   1       6.626  85.171 116.284  0.00  0.00     0.006 C 
ENDBRANCH   8  11
ENDBRANCH   7   8
ENDBRANCH   1   7
BRANCH   6  13
ATOM     13  N   LIG d   1       6.151  89.521 115.822  0.00  0.00    -0.311 N 
ATOM     14  C   LIG d   1       7.215  89.296 116.591  0.00  0.00     0.210 C 
ATOM     15  C   LIG d   1       7.558  90.426 117.567  0.00  0.00     0.109 C 
ATOM     16  O   LIG d   1       7.927  88.282 116.535  0.00  0.00    -0.276 OA
ATOM     17  H   LIG d   1       5.651  90.384 115.912  0.00  0.00     0.149 HD
ENDBRANCH   6  13
BRANCH   5  18
ATOM     18  N   LIG d   1       6.636  89.690 112.811  0.00  0.00     0.381 N 
ATOM     19  H   LIG d   1       7.116  88.937 112.360  0.00  0.00    -0.090 HD
ATOM     20  H   LIG d   1       7.235  90.064 113.525  0.00  0.00    -0.090 HD
ATOM     21  H   LIG d   1       6.417  90.399 112.146  0.00  0.00    -0.090 HD
ENDBRANCH   5  18
BRANCH   3  22
ATOM     22  C   LIG d   1       2.700  87.036 112.177  0.00  0.00     0.382 C 
ATOM     23  O   LIG d   1       1.497  87.029 112.535  0.00  0.00    -0.241 OA
ATOM     24  O   LIG d   1       3.008  86.590 111.055  0.00  0.00    -0.241 OA
ENDBRANCH   3  22
TORSDOF 7
ENDMDL
