MODEL 1
REMARK VINA RESULT:      -5.4      0.000      0.000
REMARK  7 active torsions:
REMARK  status: ('A' for Active; 'I' for Inactive)
REMARK    1  A    between atoms: C_2  and  C_3 
REMARK    2  A    between atoms: C_3  and  O_6 
REMARK    3  A    between atoms: C_3  and  C_4 
REMARK    4  A    between atoms: C_7  and  O_6 
REMARK    5  A    between atoms: C_9  and  C_10 
REMARK    6  A    between atoms: N_15  and  C_14 
REMARK    7  A    between atoms: N_20  and  C_19 
REMARK       I    between atoms: C_22  and  N_20 
ROOT
ATOM      1  C   LIG d   1      -7.924  75.480 117.393  0.00  0.00     0.161 C 
ATOM      2  C   LIG d   1      -9.132  75.957 117.926  0.00  0.00     0.016 C 
ATOM      3  C   LIG d   1      -9.368  77.319 118.223  0.00  0.00     0.038 C 
ATOM      4  C   LIG d   1      -8.458  78.324 117.862  0.00  0.00     0.028 C 
ATOM      5  C   LIG d   1      -7.016  77.836 117.783  0.00  0.00    -0.047 C 
ATOM      6  C   LIG d   1      -6.961  76.575 116.890  0.00  0.00     0.091 C 
ENDROOT
BRANCH   1   7
ATOM      7  O   LIG d   1      -8.195  74.530 116.343  0.00  0.00    -0.368 OA
BRANCH   7   8
ATOM      8  C   LIG d   1      -8.392  73.157 116.761  0.00  0.00     0.119 C 
BRANCH   8   9
ATOM      9  C   LIG d   1      -7.536  72.265 115.840  0.00  0.00     0.028 C 
ATOM     10  C   LIG d   1      -6.436  73.057 115.113  0.00  0.00     0.006 C 
ENDBRANCH   8   9
BRANCH   8  11
ATOM     11  C   LIG d   1      -9.838  72.707 116.532  0.00  0.00     0.028 C 
ATOM     12  C   LIG d   1     -10.018  71.187 116.673  0.00  0.00     0.006 C 
ENDBRANCH   8  11
ENDBRANCH   7   8
ENDBRANCH   1   7
BRANCH   6  13
ATOM     13  N   LIG d   1      -5.599  75.984 116.827  0.00  0.00    -0.311 N 
ATOM     14  C   LIG d   1      -4.715  76.279 115.876  0.00  0.00     0.210 C 
ATOM     15  C   LIG d   1      -3.376  75.542 115.986  0.00  0.00     0.109 C 
ATOM     16  O   LIG d   1      -4.899  77.107 114.971  0.00  0.00    -0.276 OA
ATOM     17  H   LIG d   1      -5.355  75.326 117.541  0.00  0.00     0.149 HD
ENDBRANCH   6  13
BRANCH   5  18
ATOM     18  N   LIG d   1      -6.196  78.948 117.264  0.00  0.00     0.381 N 
ATOM     19  H   LIG d   1      -5.355  79.027 117.800  0.00  0.00    -0.090 HD
ATOM     20  H   LIG d   1      -6.713  79.804 117.360  0.00  0.00    -0.090 HD
ATOM     21  H   LIG d   1      -5.974  78.790 116.306  0.00  0.00    -0.090 HD
ENDBRANCH   5  18
BRANCH   3  22
ATOM     22  C   LIG d   1     -10.508  77.683 118.923  0.00  0.00     0.382 C 
ATOM     23  O   LIG d   1     -10.658  78.869 119.304  0.00  0.00    -0.241 OA
ATOM     24  O   LIG d   1     -11.367  76.831 119.219  0.00  0.00    -0.241 OA
ENDBRANCH   3  22
TORSDOF 7
ENDMDL
MODEL 2
REMARK VINA RESULT:      -5.3      2.329      4.774
REMARK  7 active torsions:
REMARK  status: ('A' for Active; 'I' for Inactive)
REMARK    1  A    between atoms: C_2  and  C_3 
REMARK    2  A    between atoms: C_3  and  O_6 
REMARK    3  A    between atoms: C_3  and  C_4 
REMARK    4  A    between atoms: C_7  and  O_6 
REMARK    5  A    between atoms: C_9  and  C_10 
REMARK    6  A    between atoms: N_15  and  C_14 
REMARK    7  A    between atoms: N_20  and  C_19 
REMARK       I    between atoms: C_22  and  N_20 
ROOT
ATOM      1  C   LIG d   1      -6.698  75.512 116.932  0.00  0.00     0.161 C 
ATOM      2  C   LIG d   1      -8.070  75.584 117.223  0.00  0.00     0.016 C 
ATOM      3  C   LIG d   1      -8.976  74.528 116.971  0.00  0.00     0.038 C 
ATOM      4  C   LIG d   1      -8.541  73.264 116.546  0.00  0.00     0.028 C 
ATOM      5  C   LIG d   1      -7.235  73.305 115.761  0.00  0.00    -0.047 C 
ATOM      6  C   LIG d   1      -6.187  74.101 116.571  0.00  0.00     0.091 C 
ENDROOT
BRANCH   1   7
ATOM      7  O   LIG d   1      -5.936  76.056 118.028  0.00  0.00    -0.368 OA
BRANCH   7   8
ATOM      8  C   LIG d   1      -5.238  77.298 117.764  0.00  0.00     0.119 C 
BRANCH   8   9
ATOM      9  C   LIG d   1      -5.955  78.409 118.556  0.00  0.00     0.028 C 
ATOM     10  C   LIG d   1      -6.996  79.157 117.706  0.00  0.00     0.006 C 
ENDBRANCH   8   9
BRANCH   8  11
ATOM     11  C   LIG d   1      -5.361  77.705 116.293  0.00  0.00     0.028 C 
ATOM     12  C   LIG d   1      -3.997  77.855 115.601  0.00  0.00     0.006 C 
ENDBRANCH   8  11
ENDBRANCH   7   8
ENDBRANCH   1   7
BRANCH   6  13
ATOM     13  N   LIG d   1      -4.904  74.261 115.838  0.00  0.00    -0.311 N 
ATOM     14  C   LIG d   1      -3.715  73.991 116.372  0.00  0.00     0.210 C 
ATOM     15  C   LIG d   1      -2.519  74.244 115.450  0.00  0.00     0.109 C 
ATOM     16  O   LIG d   1      -3.539  73.536 117.512  0.00  0.00    -0.276 OA
ATOM     17  H   LIG d   1      -4.957  74.596 114.896  0.00  0.00     0.149 HD
ENDBRANCH   6  13
BRANCH   5  18
ATOM     18  N   LIG d   1      -6.827  71.911 115.500  0.00  0.00     0.381 N 
ATOM     19  H   LIG d   1      -6.583  71.463 116.361  0.00  0.00    -0.090 HD
ATOM     20  H   LIG d   1      -6.017  71.915 114.905  0.00  0.00    -0.090 HD
ATOM     21  H   LIG d   1      -7.570  71.416 115.059  0.00  0.00    -0.090 HD
ENDBRANCH   5  18
BRANCH   3  22
ATOM     22  C   LIG d   1     -10.339  74.745 117.105  0.00  0.00     0.382 C 
ATOM     23  O   LIG d   1     -10.756  75.793 117.654  0.00  0.00    -0.241 OA
ATOM     24  O   LIG d   1     -11.156  73.885 116.724  0.00  0.00    -0.241 OA
ENDBRANCH   3  22
TORSDOF 7
ENDMDL
MODEL 3
REMARK VINA RESULT:      -5.3      2.296      4.420
REMARK  7 active torsions:
REMARK  status: ('A' for Active; 'I' for Inactive)
REMARK    1  A    between atoms: C_2  and  C_3 
REMARK    2  A    between atoms: C_3  and  O_6 
REMARK    3  A    between atoms: C_3  and  C_4 
REMARK    4  A    between atoms: C_7  and  O_6 
REMARK    5  A    between atoms: C_9  and  C_10 
REMARK    6  A    between atoms: N_15  and  C_14 
REMARK    7  A    between atoms: N_20  and  C_19 
REMARK       I    between atoms: C_22  and  N_20 
ROOT
ATOM      1  C   LIG d   1      -7.226  76.439 116.735  0.00  0.00     0.161 C 
ATOM      2  C   LIG d   1      -6.691  77.694 117.069  0.00  0.00     0.016 C 
ATOM      3  C   LIG d   1      -7.373  78.644 117.865  0.00  0.00     0.038 C 
ATOM      4  C   LIG d   1      -8.580  78.340 118.511  0.00  0.00     0.028 C 
ATOM      5  C   LIG d   1      -9.398  77.270 117.794  0.00  0.00    -0.047 C 
ATOM      6  C   LIG d   1      -8.494  76.046 117.522  0.00  0.00     0.091 C 
ENDROOT
BRANCH   1   7
ATOM      7  O   LIG d   1      -6.213  75.423 116.877  0.00  0.00    -0.368 OA
BRANCH   7   8
ATOM      8  C   LIG d   1      -5.326  75.245 115.746  0.00  0.00     0.119 C 
BRANCH   8   9
ATOM      9  C   LIG d   1      -6.043  74.327 114.736  0.00  0.00     0.028 C 
ATOM     10  C   LIG d   1      -6.472  72.989 115.361  0.00  0.00     0.006 C 
ENDBRANCH   8   9
BRANCH   8  11
ATOM     11  C   LIG d   1      -4.055  74.491 116.148  0.00  0.00     0.028 C 
ATOM     12  C   LIG d   1      -3.729  74.628 117.643  0.00  0.00     0.006 C 
ENDBRANCH   8  11
ENDBRANCH   7   8
ENDBRANCH   1   7
BRANCH   6  13
ATOM     13  N   LIG d   1      -9.193  74.986 116.750  0.00  0.00    -0.311 N 
ATOM     14  C   LIG d   1      -9.489  73.788 117.251  0.00  0.00     0.210 C 
ATOM     15  C   LIG d   1     -10.193  72.837 116.279  0.00  0.00     0.109 C 
ATOM     16  O   LIG d   1      -9.264  73.435 118.418  0.00  0.00    -0.276 OA
ATOM     17  H   LIG d   1      -9.440  75.200 115.803  0.00  0.00     0.149 HD
ENDBRANCH   6  13
BRANCH   5  18
ATOM     18  N   LIG d   1     -10.560  76.953 118.646  0.00  0.00     0.381 N 
ATOM     19  H   LIG d   1     -11.383  76.883 118.082  0.00  0.00    -0.090 HD
ATOM     20  H   LIG d   1     -10.692  77.699 119.306  0.00  0.00    -0.090 HD
ATOM     21  H   LIG d   1     -10.405  76.096 119.129  0.00  0.00    -0.090 HD
ENDBRANCH   5  18
BRANCH   3  22
ATOM     22  C   LIG d   1      -6.864  79.928 117.988  0.00  0.00     0.382 C 
ATOM     23  O   LIG d   1      -6.722  80.439 119.125  0.00  0.00    -0.241 OA
ATOM     24  O   LIG d   1      -6.588  80.598 116.975  0.00  0.00    -0.241 OA
ENDBRANCH   3  22
TORSDOF 7
ENDMDL
MODEL 4
REMARK VINA RESULT:      -5.1      2.161      3.979
REMARK  7 active torsions:
REMARK  status: ('A' for Active; 'I' for Inactive)
REMARK    1  A    between atoms: C_2  and  C_3 
REMARK    2  A    between atoms: C_3  and  O_6 
REMARK    3  A    between atoms: C_3  and  C_4 
REMARK    4  A    between atoms: C_7  and  O_6 
REMARK    5  A    between atoms: C_9  and  C_10 
REMARK    6  A    between atoms: N_15  and  C_14 
REMARK    7  A    between atoms: N_20  and  C_19 
REMARK       I    between atoms: C_22  and  N_20 
ROOT
ATOM      1  C   LIG d   1      -7.257  75.503 117.345  0.00  0.00     0.161 C 
ATOM      2  C   LIG d   1      -8.166  74.525 116.908  0.00  0.00     0.016 C 
ATOM      3  C   LIG d   1      -9.569  74.694 116.945  0.00  0.00     0.038 C 
ATOM      4  C   LIG d   1     -10.159  75.921 117.283  0.00  0.00     0.028 C 
ATOM      5  C   LIG d   1      -9.299  76.771 118.212  0.00  0.00    -0.047 C 
ATOM      6  C   LIG d   1      -7.879  76.890 117.613  0.00  0.00     0.091 C 
ENDROOT
BRANCH   1   7
ATOM      7  O   LIG d   1      -6.170  75.614 116.406  0.00  0.00    -0.368 OA
BRANCH   7   8
ATOM      8  C   LIG d   1      -5.505  74.377 116.051  0.00  0.00     0.119 C 
BRANCH   8   9
ATOM      9  C   LIG d   1      -4.094  74.416 116.669  0.00  0.00     0.028 C 
ATOM     10  C   LIG d   1      -2.986  74.261 115.613  0.00  0.00     0.006 C 
ENDBRANCH   8   9
BRANCH   8  11
ATOM     11  C   LIG d   1      -5.282  74.278 114.539  0.00  0.00     0.028 C 
ATOM     12  C   LIG d   1      -5.905  75.451 113.767  0.00  0.00     0.006 C 
ENDBRANCH   8  11
ENDBRANCH   7   8
ENDBRANCH   1   7
BRANCH   6  13
ATOM     13  N   LIG d   1      -6.949  77.635 118.501  0.00  0.00    -0.311 N 
ATOM     14  C   LIG d   1      -6.448  78.832 118.199  0.00  0.00     0.210 C 
ATOM     15  C   LIG d   1      -5.493  79.416 119.244  0.00  0.00     0.109 C 
ATOM     16  O   LIG d   1      -6.729  79.479 117.179  0.00  0.00    -0.276 OA
ATOM     17  H   LIG d   1      -6.693  77.197 119.364  0.00  0.00     0.149 HD
ENDBRANCH   6  13
BRANCH   5  18
ATOM     18  N   LIG d   1      -9.970  78.076 118.371  0.00  0.00     0.381 N 
ATOM     19  H   LIG d   1      -9.673  78.699 117.647  0.00  0.00    -0.090 HD
ATOM     20  H   LIG d   1      -9.705  78.471 119.256  0.00  0.00    -0.090 HD
ATOM     21  H   LIG d   1     -10.958  77.957 118.333  0.00  0.00    -0.090 HD
ENDBRANCH   5  18
BRANCH   3  22
ATOM     22  C   LIG d   1     -10.398  73.616 116.679  0.00  0.00     0.382 C 
ATOM     23  O   LIG d   1      -9.913  72.543 116.245  0.00  0.00    -0.241 OA
ATOM     24  O   LIG d   1     -11.631  73.716 116.826  0.00  0.00    -0.241 OA
ENDBRANCH   3  22
TORSDOF 7
ENDMDL
MODEL 5
REMARK VINA RESULT:      -5.0      1.957      5.039
REMARK  7 active torsions:
REMARK  status: ('A' for Active; 'I' for Inactive)
REMARK    1  A    between atoms: C_2  and  C_3 
REMARK    2  A    between atoms: C_3  and  O_6 
REMARK    3  A    between atoms: C_3  and  C_4 
REMARK    4  A    between atoms: C_7  and  O_6 
REMARK    5  A    between atoms: C_9  and  C_10 
REMARK    6  A    between atoms: N_15  and  C_14 
REMARK    7  A    between atoms: N_20  and  C_19 
REMARK       I    between atoms: C_22  and  N_20 
ROOT
ATOM      1  C   LIG d   1      -7.428  75.572 117.095  0.00  0.00     0.161 C 
ATOM      2  C   LIG d   1      -8.200  74.399 117.065  0.00  0.00     0.016 C 
ATOM      3  C   LIG d   1      -7.872  73.272 116.277  0.00  0.00     0.038 C 
ATOM      4  C   LIG d   1      -6.660  73.185 115.575  0.00  0.00     0.028 C 
ATOM      5  C   LIG d   1      -6.093  74.543 115.175  0.00  0.00    -0.047 C 
ATOM      6  C   LIG d   1      -6.044  75.454 116.423  0.00  0.00     0.091 C 
ENDROOT
BRANCH   1   7
ATOM      7  O   LIG d   1      -7.287  76.030 118.455  0.00  0.00    -0.368 OA
BRANCH   7   8
ATOM      8  C   LIG d   1      -7.998  77.245 118.795  0.00  0.00     0.119 C 
BRANCH   8   9
ATOM      9  C   LIG d   1      -9.204  77.358 117.843  0.00  0.00     0.028 C 
ATOM     10  C   LIG d   1     -10.536  77.043 118.543  0.00  0.00     0.006 C 
ENDBRANCH   8   9
BRANCH   8  11
ATOM     11  C   LIG d   1      -7.144  78.486 118.517  0.00  0.00     0.028 C 
ATOM     12  C   LIG d   1      -7.973  79.679 118.014  0.00  0.00     0.006 C 
ENDBRANCH   8  11
ENDBRANCH   7   8
ENDBRANCH   1   7
BRANCH   6  13
ATOM     13  N   LIG d   1      -5.580  76.829 116.103  0.00  0.00    -0.311 N 
ATOM     14  C   LIG d   1      -4.317  77.228 116.243  0.00  0.00     0.210 C 
ATOM     15  C   LIG d   1      -4.057  78.692 115.876  0.00  0.00     0.109 C 
ATOM     16  O   LIG d   1      -3.382  76.499 116.606  0.00  0.00    -0.276 OA
ATOM     17  H   LIG d   1      -6.268  77.477 115.772  0.00  0.00     0.149 HD
ENDBRANCH   6  13
BRANCH   5  18
ATOM     18  N   LIG d   1      -4.765  74.312 114.575  0.00  0.00     0.381 N 
ATOM     19  H   LIG d   1      -4.402  75.172 114.215  0.00  0.00    -0.090 HD
ATOM     20  H   LIG d   1      -4.861  73.666 113.812  0.00  0.00    -0.090 HD
ATOM     21  H   LIG d   1      -4.142  73.940 115.259  0.00  0.00    -0.090 HD
ENDBRANCH   5  18
BRANCH   3  22
ATOM     22  C   LIG d   1      -8.781  72.232 116.152  0.00  0.00     0.382 C 
ATOM     23  O   LIG d   1      -8.379  71.044 116.165  0.00  0.00    -0.241 OA
ATOM     24  O   LIG d   1      -9.992  72.469 115.983  0.00  0.00    -0.241 OA
ENDBRANCH   3  22
TORSDOF 7
ENDMDL
MODEL 6
REMARK VINA RESULT:      -4.9      2.077      4.649
REMARK  7 active torsions:
REMARK  status: ('A' for Active; 'I' for Inactive)
REMARK    1  A    between atoms: C_2  and  C_3 
REMARK    2  A    between atoms: C_3  and  O_6 
REMARK    3  A    between atoms: C_3  and  C_4 
REMARK    4  A    between atoms: C_7  and  O_6 
REMARK    5  A    between atoms: C_9  and  C_10 
REMARK    6  A    between atoms: N_15  and  C_14 
REMARK    7  A    between atoms: N_20  and  C_19 
REMARK       I    between atoms: C_22  and  N_20 
ROOT
ATOM      1  C   LIG d   1      -7.335  76.468 116.920  0.00  0.00     0.161 C 
ATOM      2  C   LIG d   1      -8.694  76.202 117.152  0.00  0.00     0.016 C 
ATOM      3  C   LIG d   1      -9.269  74.917 117.022  0.00  0.00     0.038 C 
ATOM      4  C   LIG d   1      -8.488  73.774 116.797  0.00  0.00     0.028 C 
ATOM      5  C   LIG d   1      -7.186  74.067 116.058  0.00  0.00    -0.047 C 
ATOM      6  C   LIG d   1      -6.445  75.215 116.782  0.00  0.00     0.091 C 
ENDROOT
BRANCH   1   7
ATOM      7  O   LIG d   1      -6.823  77.334 117.952  0.00  0.00    -0.368 OA
BRANCH   7   8
ATOM      8  C   LIG d   1      -6.564  78.705 117.563  0.00  0.00     0.119 C 
BRANCH   8   9
ATOM      9  C   LIG d   1      -5.059  78.968 117.767  0.00  0.00     0.028 C 
ATOM     10  C   LIG d   1      -4.367  79.444 116.479  0.00  0.00     0.006 C 
ENDBRANCH   8   9
BRANCH   8  11
ATOM     11  C   LIG d   1      -7.278  79.692 118.492  0.00  0.00     0.028 C 
ATOM     12  C   LIG d   1      -8.649  80.131 117.955  0.00  0.00     0.006 C 
ENDBRANCH   8  11
ENDBRANCH   7   8
ENDBRANCH   1   7
BRANCH   6  13
ATOM     13  N   LIG d   1      -5.202  75.621 116.076  0.00  0.00    -0.311 N 
ATOM     14  C   LIG d   1      -5.187  76.094 114.831  0.00  0.00     0.210 C 
ATOM     15  C   LIG d   1      -3.797  76.434 114.285  0.00  0.00     0.109 C 
ATOM     16  O   LIG d   1      -6.196  76.295 114.139  0.00  0.00    -0.276 OA
ATOM     17  H   LIG d   1      -4.340  75.520 116.576  0.00  0.00     0.149 HD
ENDBRANCH   6  13
BRANCH   5  18
ATOM     18  N   LIG d   1      -6.408  72.815 116.013  0.00  0.00     0.381 N 
ATOM     19  H   LIG d   1      -5.737  72.806 116.754  0.00  0.00    -0.090 HD
ATOM     20  H   LIG d   1      -5.913  72.771 115.139  0.00  0.00    -0.090 HD
ATOM     21  H   LIG d   1      -7.018  72.031 116.097  0.00  0.00    -0.090 HD
ENDBRANCH   5  18
BRANCH   3  22
ATOM     22  C   LIG d   1     -10.647  74.772 117.079  0.00  0.00     0.382 C 
ATOM     23  O   LIG d   1     -11.354  75.684 117.572  0.00  0.00    -0.241 OA
ATOM     24  O   LIG d   1     -11.189  73.722 116.684  0.00  0.00    -0.241 OA
ENDBRANCH   3  22
TORSDOF 7
ENDMDL
MODEL 7
REMARK VINA RESULT:      -4.9     12.992     16.255
REMARK  7 active torsions:
REMARK  status: ('A' for Active; 'I' for Inactive)
REMARK    1  A    between atoms: C_2  and  C_3 
REMARK    2  A    between atoms: C_3  and  O_6 
REMARK    3  A    between atoms: C_3  and  C_4 
REMARK    4  A    between atoms: C_7  and  O_6 
REMARK    5  A    between atoms: C_9  and  C_10 
REMARK    6  A    between atoms: N_15  and  C_14 
REMARK    7  A    between atoms: N_20  and  C_19 
REMARK       I    between atoms: C_22  and  N_20 
ROOT
ATOM      1  C   LIG d   1       1.807  87.131 114.346  0.00  0.00     0.161 C 
ATOM      2  C   LIG d   1       2.851  88.043 114.112  0.00  0.00     0.016 C 
ATOM      3  C   LIG d   1       3.683  87.996 112.970  0.00  0.00     0.038 C 
ATOM      4  C   LIG d   1       3.430  87.121 111.903  0.00  0.00     0.028 C 
ATOM      5  C   LIG d   1       2.699  85.851 112.322  0.00  0.00    -0.047 C 
ATOM      6  C   LIG d   1       1.446  86.239 113.140  0.00  0.00     0.091 C 
ENDROOT
BRANCH   1   7
ATOM      7  O   LIG d   1       0.641  87.834 114.817  0.00  0.00    -0.368 OA
BRANCH   7   8
ATOM      8  C   LIG d   1       0.789  88.550 116.068  0.00  0.00     0.119 C 
BRANCH   8   9
ATOM      9  C   LIG d   1       1.098  87.509 117.162  0.00  0.00     0.028 C 
ATOM     10  C   LIG d   1       2.422  87.797 117.888  0.00  0.00     0.006 C 
ENDBRANCH   8   9
BRANCH   8  11
ATOM     11  C   LIG d   1      -0.527  89.207 116.493  0.00  0.00     0.028 C 
ATOM     12  C   LIG d   1      -0.355  90.174 117.675  0.00  0.00     0.006 C 
ENDBRANCH   8  11
ENDBRANCH   7   8
ENDBRANCH   1   7
BRANCH   6  13
ATOM     13  N   LIG d   1       0.718  85.052 113.661  0.00  0.00    -0.311 N 
ATOM     14  C   LIG d   1      -0.366  84.543 113.078  0.00  0.00     0.210 C 
ATOM     15  C   LIG d   1      -0.973  83.330 113.790  0.00  0.00     0.109 C 
ATOM     16  O   LIG d   1      -0.863  84.960 112.021  0.00  0.00    -0.276 OA
ATOM     17  H   LIG d   1       1.072  84.631 114.497  0.00  0.00     0.149 HD
ENDBRANCH   6  13
BRANCH   5  18
ATOM     18  N   LIG d   1       2.378  85.096 111.096  0.00  0.00     0.381 N 
ATOM     19  H   LIG d   1       1.570  85.491 110.657  0.00  0.00    -0.090 HD
ATOM     20  H   LIG d   1       2.168  84.145 111.345  0.00  0.00    -0.090 HD
ATOM     21  H   LIG d   1       3.151  85.120 110.469  0.00  0.00    -0.090 HD
ENDBRANCH   5  18
BRANCH   3  22
ATOM     22  C   LIG d   1       4.807  88.806 112.906  0.00  0.00     0.382 C 
ATOM     23  O   LIG d   1       4.708  90.035 113.135  0.00  0.00    -0.241 OA
ATOM     24  O   LIG d   1       5.910  88.330 112.578  0.00  0.00    -0.241 OA
ENDBRANCH   3  22
TORSDOF 7
ENDMDL
MODEL 8
REMARK VINA RESULT:      -4.9      2.950      4.268
REMARK  7 active torsions:
REMARK  status: ('A' for Active; 'I' for Inactive)
REMARK    1  A    between atoms: C_2  and  C_3 
REMARK    2  A    between atoms: C_3  and  O_6 
REMARK    3  A    between atoms: C_3  and  C_4 
REMARK    4  A    between atoms: C_7  and  O_6 
REMARK    5  A    between atoms: C_9  and  C_10 
REMARK    6  A    between atoms: N_15  and  C_14 
REMARK    7  A    between atoms: N_20  and  C_19 
REMARK       I    between atoms: C_22  and  N_20 
ROOT
ATOM      1  C   LIG d   1      -4.953  77.023 116.542  0.00  0.00     0.161 C 
ATOM      2  C   LIG d   1      -5.498  78.293 116.793  0.00  0.00     0.016 C 
ATOM      3  C   LIG d   1      -4.771  79.496 116.639  0.00  0.00     0.038 C 
ATOM      4  C   LIG d   1      -3.487  79.519 116.075  0.00  0.00     0.028 C 
ATOM      5  C   LIG d   1      -2.712  78.222 116.279  0.00  0.00    -0.047 C 
ATOM      6  C   LIG d   1      -3.589  77.036 115.819  0.00  0.00     0.091 C 
ENDROOT
BRANCH   1   7
ATOM      7  O   LIG d   1      -5.900  76.221 115.810  0.00  0.00    -0.368 OA
BRANCH   7   8
ATOM      8  C   LIG d   1      -6.571  75.181 116.563  0.00  0.00     0.119 C 
BRANCH   8   9
ATOM      9  C   LIG d   1      -6.545  73.899 115.707  0.00  0.00     0.028 C 
ATOM     10  C   LIG d   1      -5.660  74.046 114.458  0.00  0.00     0.006 C 
ENDBRANCH   8   9
BRANCH   8  11
ATOM     11  C   LIG d   1      -8.055  75.505 116.761  0.00  0.00     0.028 C 
ATOM     12  C   LIG d   1      -8.919  74.249 116.953  0.00  0.00     0.006 C 
ENDBRANCH   8  11
ENDBRANCH   7   8
ENDBRANCH   1   7
BRANCH   6  13
ATOM     13  N   LIG d   1      -2.939  75.722 116.063  0.00  0.00    -0.311 N 
ATOM     14  C   LIG d   1      -2.185  75.098 115.159  0.00  0.00     0.210 C 
ATOM     15  C   LIG d   1      -1.626  73.744 115.607  0.00  0.00     0.109 C 
ATOM     16  O   LIG d   1      -1.900  75.552 114.041  0.00  0.00    -0.276 OA
ATOM     17  H   LIG d   1      -3.092  75.296 116.956  0.00  0.00     0.149 HD
ENDBRANCH   6  13
BRANCH   5  18
ATOM     18  N   LIG d   1      -1.449  78.334 115.524  0.00  0.00     0.381 N 
ATOM     19  H   LIG d   1      -1.339  79.268 115.184  0.00  0.00    -0.090 HD
ATOM     20  H   LIG d   1      -1.486  77.713 114.735  0.00  0.00    -0.090 HD
ATOM     21  H   LIG d   1      -0.680  78.093 116.109  0.00  0.00    -0.090 HD
ENDBRANCH   5  18
BRANCH   3  22
ATOM     22  C   LIG d   1      -5.314  80.690 117.090  0.00  0.00     0.382 C 
ATOM     23  O   LIG d   1      -6.539  80.916 116.943  0.00  0.00    -0.241 OA
ATOM     24  O   LIG d   1      -4.586  81.561 117.601  0.00  0.00    -0.241 OA
ENDBRANCH   3  22
TORSDOF 7
ENDMDL
MODEL 9
REMARK VINA RESULT:      -4.9      2.314      4.045
REMARK  7 active torsions:
REMARK  status: ('A' for Active; 'I' for Inactive)
REMARK    1  A    between atoms: C_2  and  C_3 
REMARK    2  A    between atoms: C_3  and  O_6 
REMARK    3  A    between atoms: C_3  and  C_4 
REMARK    4  A    between atoms: C_7  and  O_6 
REMARK    5  A    between atoms: C_9  and  C_10 
REMARK    6  A    between atoms: N_15  and  C_14 
REMARK    7  A    between atoms: N_20  and  C_19 
REMARK       I    between atoms: C_22  and  N_20 
ROOT
ATOM      1  C   LIG d   1      -6.732  77.637 117.299  0.00  0.00     0.161 C 
ATOM      2  C   LIG d   1      -7.846  76.783 117.248  0.00  0.00     0.016 C 
ATOM      3  C   LIG d   1      -9.116  77.130 117.763  0.00  0.00     0.038 C 
ATOM      4  C   LIG d   1      -9.399  78.422 118.232  0.00  0.00     0.028 C 
ATOM      5  C   LIG d   1      -8.172  79.154 118.767  0.00  0.00    -0.047 C 
ATOM      6  C   LIG d   1      -7.049  79.091 117.707  0.00  0.00     0.091 C 
ENDROOT
BRANCH   1   7
ATOM      7  O   LIG d   1      -6.038  77.610 116.036  0.00  0.00    -0.368 OA
BRANCH   7   8
ATOM      8  C   LIG d   1      -5.182  76.464 115.803  0.00  0.00     0.119 C 
BRANCH   8   9
ATOM      9  C   LIG d   1      -3.733  76.979 115.715  0.00  0.00     0.028 C 
ATOM     10  C   LIG d   1      -3.661  78.477 115.375  0.00  0.00     0.006 C 
ENDBRANCH   8   9
BRANCH   8  11
ATOM     11  C   LIG d   1      -5.468  75.824 114.441  0.00  0.00     0.028 C 
ATOM     12  C   LIG d   1      -5.878  74.347 114.552  0.00  0.00     0.006 C 
ENDBRANCH   8  11
ENDBRANCH   7   8
ENDBRANCH   1   7
BRANCH   6  13
ATOM     13  N   LIG d   1      -5.785  79.710 118.183  0.00  0.00    -0.311 N 
ATOM     14  C   LIG d   1      -5.247  80.796 117.631  0.00  0.00     0.210 C 
ATOM     15  C   LIG d   1      -3.930  81.259 118.263  0.00  0.00     0.109 C 
ATOM     16  O   LIG d   1      -5.752  81.440 116.699  0.00  0.00    -0.276 OA
ATOM     17  H   LIG d   1      -5.324  79.271 118.956  0.00  0.00     0.149 HD
ENDBRANCH   6  13
BRANCH   5  18
ATOM     18  N   LIG d   1      -8.583  80.532 119.093  0.00  0.00     0.381 N 
ATOM     19  H   LIG d   1      -9.046  80.943 118.307  0.00  0.00    -0.090 HD
ATOM     20  H   LIG d   1      -7.762  81.076 119.296  0.00  0.00    -0.090 HD
ATOM     21  H   LIG d   1      -9.191  80.529 119.882  0.00  0.00    -0.090 HD
ENDBRANCH   5  18
BRANCH   3  22
ATOM     22  C   LIG d   1     -10.110  76.167 117.849  0.00  0.00     0.382 C 
ATOM     23  O   LIG d   1     -11.283  76.500 118.143  0.00  0.00    -0.241 OA
ATOM     24  O   LIG d   1      -9.838  74.963 117.681  0.00  0.00    -0.241 OA
ENDBRANCH   3  22
TORSDOF 7
ENDMDL
