MODEL 1
REMARK VINA RESULT:      -5.9      0.000      0.000
REMARK  7 active torsions:
REMARK  status: ('A' for Active; 'I' for Inactive)
REMARK    1  A    between atoms: C_2  and  C_3 
REMARK    2  A    between atoms: C_3  and  O_6 
REMARK    3  A    between atoms: C_3  and  C_4 
REMARK    4  A    between atoms: C_7  and  O_6 
REMARK    5  A    between atoms: C_9  and  C_10 
REMARK    6  A    between atoms: N_15  and  C_14 
REMARK    7  A    between atoms: N_20  and  C_19 
REMARK       I    between atoms: C_22  and  N_20 
ROOT
ATOM      1  C   LIG d   1       1.345  84.136 109.209  0.00  0.00     0.161 C 
ATOM      2  C   LIG d   1       1.589  85.456 109.623  0.00  0.00     0.016 C 
ATOM      3  C   LIG d   1       1.142  85.980 110.857  0.00  0.00     0.038 C 
ATOM      4  C   LIG d   1       0.546  85.169 111.835  0.00  0.00     0.028 C 
ATOM      5  C   LIG d   1      -0.170  83.953 111.258  0.00  0.00    -0.047 C 
ATOM      6  C   LIG d   1       0.794  83.205 110.310  0.00  0.00     0.091 C 
ENDROOT
BRANCH   1   7
ATOM      7  O   LIG d   1       2.541  83.576 108.632  0.00  0.00    -0.368 OA
BRANCH   7   8
ATOM      8  C   LIG d   1       3.382  82.807 109.528  0.00  0.00     0.119 C 
BRANCH   8   9
ATOM      9  C   LIG d   1       4.646  83.643 109.807  0.00  0.00     0.028 C 
ATOM     10  C   LIG d   1       4.675  84.201 111.240  0.00  0.00     0.006 C 
ENDBRANCH   8   9
BRANCH   8  11
ATOM     11  C   LIG d   1       3.883  81.525 108.858  0.00  0.00     0.028 C 
ATOM     12  C   LIG d   1       4.005  80.348 109.839  0.00  0.00     0.006 C 
ENDBRANCH   8  11
ENDBRANCH   7   8
ENDBRANCH   1   7
BRANCH   6  13
ATOM     13  N   LIG d   1       0.145  82.049 109.638  0.00  0.00    -0.311 N 
ATOM     14  C   LIG d   1       0.225  80.799 110.090  0.00  0.00     0.210 C 
ATOM     15  C   LIG d   1      -0.501  79.755 109.235  0.00  0.00     0.109 C 
ATOM     16  O   LIG d   1       0.800  80.460 111.135  0.00  0.00    -0.276 OA
ATOM     17  H   LIG d   1      -0.368  82.239 108.799  0.00  0.00     0.149 HD
ENDBRANCH   6  13
BRANCH   5  18
ATOM     18  N   LIG d   1      -0.625  83.125 112.392  0.00  0.00     0.381 N 
ATOM     19  H   LIG d   1      -1.623  83.067 112.389  0.00  0.00    -0.090 HD
ATOM     20  H   LIG d   1      -0.336  83.561 113.249  0.00  0.00    -0.090 HD
ATOM     21  H   LIG d   1      -0.231  82.212 112.326  0.00  0.00    -0.090 HD
ENDBRANCH   5  18
BRANCH   3  22
ATOM     22  C   LIG d   1       1.253  87.340 111.108  0.00  0.00     0.382 C 
ATOM     23  O   LIG d   1       0.224  88.056 111.146  0.00  0.00    -0.241 OA
ATOM     24  O   LIG d   1       2.373  87.866 111.252  0.00  0.00    -0.241 OA
ENDBRANCH   3  22
TORSDOF 7
ENDMDL
MODEL 2
REMARK VINA RESULT:      -5.9      3.347      5.328
REMARK  7 active torsions:
REMARK  status: ('A' for Active; 'I' for Inactive)
REMARK    1  A    between atoms: C_2  and  C_3 
REMARK    2  A    between atoms: C_3  and  O_6 
REMARK    3  A    between atoms: C_3  and  C_4 
REMARK    4  A    between atoms: C_7  and  O_6 
REMARK    5  A    between atoms: C_9  and  C_10 
REMARK    6  A    between atoms: N_15  and  C_14 
REMARK    7  A    between atoms: N_20  and  C_19 
REMARK       I    between atoms: C_22  and  N_20 
ROOT
ATOM      1  C   LIG d   1       3.064  85.716 111.707  0.00  0.00     0.161 C 
ATOM      2  C   LIG d   1       1.860  85.468 111.026  0.00  0.00     0.016 C 
ATOM      3  C   LIG d   1       0.823  86.422 110.906  0.00  0.00     0.038 C 
ATOM      4  C   LIG d   1       0.984  87.749 111.331  0.00  0.00     0.028 C 
ATOM      5  C   LIG d   1       1.985  87.903 112.471  0.00  0.00    -0.047 C 
ATOM      6  C   LIG d   1       3.302  87.194 112.081  0.00  0.00     0.091 C 
ENDROOT
BRANCH   1   7
ATOM      7  O   LIG d   1       4.172  85.208 110.939  0.00  0.00    -0.368 OA
BRANCH   7   8
ATOM      8  C   LIG d   1       4.182  83.779 110.701  0.00  0.00     0.119 C 
BRANCH   8   9
ATOM      9  C   LIG d   1       5.123  83.143 111.743  0.00  0.00     0.028 C 
ATOM     10  C   LIG d   1       4.454  81.990 112.511  0.00  0.00     0.006 C 
ENDBRANCH   8   9
BRANCH   8  11
ATOM     11  C   LIG d   1       4.798  83.444 109.340  0.00  0.00     0.028 C 
ATOM     12  C   LIG d   1       4.068  82.299 108.621  0.00  0.00     0.006 C 
ENDBRANCH   8  11
ENDBRANCH   7   8
ENDBRANCH   1   7
BRANCH   6  13
ATOM     13  N   LIG d   1       4.308  87.224 113.175  0.00  0.00    -0.311 N 
ATOM     14  C   LIG d   1       5.201  88.201 113.323  0.00  0.00     0.210 C 
ATOM     15  C   LIG d   1       6.159  88.027 114.506  0.00  0.00     0.109 C 
ATOM     16  O   LIG d   1       5.270  89.211 112.606  0.00  0.00    -0.276 OA
ATOM     17  H   LIG d   1       4.302  86.459 113.821  0.00  0.00     0.149 HD
ENDBRANCH   6  13
BRANCH   5  18
ATOM     18  N   LIG d   1       2.158  89.347 112.720  0.00  0.00     0.381 N 
ATOM     19  H   LIG d   1       3.133  89.571 112.752  0.00  0.00    -0.090 HD
ATOM     20  H   LIG d   1       1.753  89.573 113.612  0.00  0.00    -0.090 HD
ATOM     21  H   LIG d   1       1.712  89.873 112.001  0.00  0.00    -0.090 HD
ENDBRANCH   5  18
BRANCH   3  22
ATOM     22  C   LIG d   1      -0.406  86.040 110.390  0.00  0.00     0.382 C 
ATOM     23  O   LIG d   1      -0.625  84.835 110.121  0.00  0.00    -0.241 OA
ATOM     24  O   LIG d   1      -1.282  86.892 110.148  0.00  0.00    -0.241 OA
ENDBRANCH   3  22
TORSDOF 7
ENDMDL
MODEL 3
REMARK VINA RESULT:      -5.8      2.883      4.461
REMARK  7 active torsions:
REMARK  status: ('A' for Active; 'I' for Inactive)
REMARK    1  A    between atoms: C_2  and  C_3 
REMARK    2  A    between atoms: C_3  and  O_6 
REMARK    3  A    between atoms: C_3  and  C_4 
REMARK    4  A    between atoms: C_7  and  O_6 
REMARK    5  A    between atoms: C_9  and  C_10 
REMARK    6  A    between atoms: N_15  and  C_14 
REMARK    7  A    between atoms: N_20  and  C_19 
REMARK       I    between atoms: C_22  and  N_20 
ROOT
ATOM      1  C   LIG d   1       2.340  85.700 111.650  0.00  0.00     0.161 C 
ATOM      2  C   LIG d   1       2.106  87.071 111.847  0.00  0.00     0.016 C 
ATOM      3  C   LIG d   1       2.761  87.838 112.837  0.00  0.00     0.038 C 
ATOM      4  C   LIG d   1       3.813  87.316 113.604  0.00  0.00     0.028 C 
ATOM      5  C   LIG d   1       3.737  85.804 113.787  0.00  0.00    -0.047 C 
ATOM      6  C   LIG d   1       3.565  85.139 112.402  0.00  0.00     0.091 C 
ENDROOT
BRANCH   1   7
ATOM      7  O   LIG d   1       2.447  85.421 110.240  0.00  0.00    -0.368 OA
BRANCH   7   8
ATOM      8  C   LIG d   1       1.269  84.860 109.610  0.00  0.00     0.119 C 
BRANCH   8   9
ATOM      9  C   LIG d   1       1.748  83.896 108.507  0.00  0.00     0.028 C 
ATOM     10  C   LIG d   1       2.964  83.062 108.944  0.00  0.00     0.006 C 
ENDBRANCH   8   9
BRANCH   8  11
ATOM     11  C   LIG d   1       0.459  85.938 108.883  0.00  0.00     0.028 C 
ATOM     12  C   LIG d   1      -0.811  86.344 109.647  0.00  0.00     0.006 C 
ENDBRANCH   8  11
ENDBRANCH   7   8
ENDBRANCH   1   7
BRANCH   6  13
ATOM     13  N   LIG d   1       3.397  83.665 112.498  0.00  0.00    -0.311 N 
ATOM     14  C   LIG d   1       4.407  82.804 112.386  0.00  0.00     0.210 C 
ATOM     15  C   LIG d   1       4.012  81.328 112.495  0.00  0.00     0.109 C 
ATOM     16  O   LIG d   1       5.596  83.123 112.239  0.00  0.00    -0.276 OA
ATOM     17  H   LIG d   1       2.469  83.321 112.648  0.00  0.00     0.149 HD
ENDBRANCH   6  13
BRANCH   5  18
ATOM     18  N   LIG d   1       4.964  85.377 114.485  0.00  0.00     0.381 N 
ATOM     19  H   LIG d   1       4.734  84.715 115.200  0.00  0.00    -0.090 HD
ATOM     20  H   LIG d   1       5.386  86.178 114.921  0.00  0.00    -0.090 HD
ATOM     21  H   LIG d   1       5.601  84.969 113.837  0.00  0.00    -0.090 HD
ENDBRANCH   5  18
BRANCH   3  22
ATOM     22  C   LIG d   1       2.337  89.133 113.096  0.00  0.00     0.382 C 
ATOM     23  O   LIG d   1       3.165  90.075 113.099  0.00  0.00    -0.241 OA
ATOM     24  O   LIG d   1       1.144  89.364 113.372  0.00  0.00    -0.241 OA
ENDBRANCH   3  22
TORSDOF 7
ENDMDL
MODEL 4
REMARK VINA RESULT:      -5.7      2.331      3.919
REMARK  7 active torsions:
REMARK  status: ('A' for Active; 'I' for Inactive)
REMARK    1  A    between atoms: C_2  and  C_3 
REMARK    2  A    between atoms: C_3  and  O_6 
REMARK    3  A    between atoms: C_3  and  C_4 
REMARK    4  A    between atoms: C_7  and  O_6 
REMARK    5  A    between atoms: C_9  and  C_10 
REMARK    6  A    between atoms: N_15  and  C_14 
REMARK    7  A    between atoms: N_20  and  C_19 
REMARK       I    between atoms: C_22  and  N_20 
ROOT
ATOM      1  C   LIG d   1       0.294  82.849 110.572  0.00  0.00     0.161 C 
ATOM      2  C   LIG d   1       0.151  84.224 110.818  0.00  0.00     0.016 C 
ATOM      3  C   LIG d   1       0.593  85.226 109.923  0.00  0.00     0.038 C 
ATOM      4  C   LIG d   1       1.074  84.915 108.643  0.00  0.00     0.028 C 
ATOM      5  C   LIG d   1       1.704  83.529 108.552  0.00  0.00    -0.047 C 
ATOM      6  C   LIG d   1       0.716  82.491 109.131  0.00  0.00     0.091 C 
ENDROOT
BRANCH   1   7
ATOM      7  O   LIG d   1      -0.922  82.160 110.923  0.00  0.00    -0.368 OA
BRANCH   7   8
ATOM      8  C   LIG d   1      -1.065  81.789 112.316  0.00  0.00     0.119 C 
BRANCH   8   9
ATOM      9  C   LIG d   1       0.079  80.815 112.656  0.00  0.00     0.028 C 
ATOM     10  C   LIG d   1       0.865  81.245 113.906  0.00  0.00     0.006 C 
ENDBRANCH   8   9
BRANCH   8  11
ATOM     11  C   LIG d   1      -2.355  80.999 112.553  0.00  0.00     0.028 C 
ATOM     12  C   LIG d   1      -2.236  79.525 112.134  0.00  0.00     0.006 C 
ENDBRANCH   8  11
ENDBRANCH   7   8
ENDBRANCH   1   7
BRANCH   6  13
ATOM     13  N   LIG d   1       1.287  81.119 109.158  0.00  0.00    -0.311 N 
ATOM     14  C   LIG d   1       0.616  80.038 108.765  0.00  0.00     0.210 C 
ATOM     15  C   LIG d   1       1.384  78.718 108.894  0.00  0.00     0.109 C 
ATOM     16  O   LIG d   1      -0.530  80.050 108.293  0.00  0.00    -0.276 OA
ATOM     17  H   LIG d   1       2.224  81.021 109.498  0.00  0.00     0.149 HD
ENDBRANCH   6  13
BRANCH   5  18
ATOM     18  N   LIG d   1       2.037  83.283 107.136  0.00  0.00     0.381 N 
ATOM     19  H   LIG d   1       2.815  83.852 106.868  0.00  0.00    -0.090 HD
ATOM     20  H   LIG d   1       1.249  83.538 106.568  0.00  0.00    -0.090 HD
ATOM     21  H   LIG d   1       2.257  82.321 107.000  0.00  0.00    -0.090 HD
ENDBRANCH   5  18
BRANCH   3  22
ATOM     22  C   LIG d   1       0.591  86.554 110.322  0.00  0.00     0.382 C 
ATOM     23  O   LIG d   1      -0.491  87.122 110.604  0.00  0.00    -0.241 OA
ATOM     24  O   LIG d   1       1.654  87.203 110.361  0.00  0.00    -0.241 OA
ENDBRANCH   3  22
TORSDOF 7
ENDMDL
MODEL 5
REMARK VINA RESULT:      -5.6      2.591      3.925
REMARK  7 active torsions:
REMARK  status: ('A' for Active; 'I' for Inactive)
REMARK    1  A    between atoms: C_2  and  C_3 
REMARK    2  A    between atoms: C_3  and  O_6 
REMARK    3  A    between atoms: C_3  and  C_4 
REMARK    4  A    between atoms: C_7  and  O_6 
REMARK    5  A    between atoms: C_9  and  C_10 
REMARK    6  A    between atoms: N_15  and  C_14 
REMARK    7  A    between atoms: N_20  and  C_19 
REMARK       I    between atoms: C_22  and  N_20 
ROOT
ATOM      1  C   LIG d   1      -0.277  83.073 111.253  0.00  0.00     0.161 C 
ATOM      2  C   LIG d   1      -0.477  83.855 112.403  0.00  0.00     0.016 C 
ATOM      3  C   LIG d   1      -0.877  83.320 113.649  0.00  0.00     0.038 C 
ATOM      4  C   LIG d   1      -0.959  81.937 113.869  0.00  0.00     0.028 C 
ATOM      5  C   LIG d   1      -1.257  81.138 112.605  0.00  0.00    -0.047 C 
ATOM      6  C   LIG d   1      -0.254  81.551 111.503  0.00  0.00     0.091 C 
ENDROOT
BRANCH   1   7
ATOM      7  O   LIG d   1       0.929  83.489 110.582  0.00  0.00    -0.368 OA
BRANCH   7   8
ATOM      8  C   LIG d   1       0.755  84.106 109.283  0.00  0.00     0.119 C 
BRANCH   8   9
ATOM      9  C   LIG d   1       1.883  83.588 108.370  0.00  0.00     0.028 C 
ATOM     10  C   LIG d   1       3.163  83.251 109.152  0.00  0.00     0.006 C 
ENDBRANCH   8   9
BRANCH   8  11
ATOM     11  C   LIG d   1       0.956  85.623 109.354  0.00  0.00     0.028 C 
ATOM     12  C   LIG d   1      -0.356  86.387 109.594  0.00  0.00     0.006 C 
ENDBRANCH   8  11
ENDBRANCH   7   8
ENDBRANCH   1   7
BRANCH   6  13
ATOM     13  N   LIG d   1      -0.528  80.878 110.206  0.00  0.00    -0.311 N 
ATOM     14  C   LIG d   1       0.408  80.254 109.492  0.00  0.00     0.210 C 
ATOM     15  C   LIG d   1      -0.084  79.644 108.175  0.00  0.00     0.109 C 
ATOM     16  O   LIG d   1       1.591  80.119 109.840  0.00  0.00    -0.276 OA
ATOM     17  H   LIG d   1      -1.468  80.911 109.865  0.00  0.00     0.149 HD
ENDBRANCH   6  13
BRANCH   5  18
ATOM     18  N   LIG d   1      -1.177  79.707 112.952  0.00  0.00     0.381 N 
ATOM     19  H   LIG d   1      -1.413  79.151 112.155  0.00  0.00    -0.090 HD
ATOM     20  H   LIG d   1      -1.842  79.512 113.680  0.00  0.00    -0.090 HD
ATOM     21  H   LIG d   1      -0.258  79.482 113.263  0.00  0.00    -0.090 HD
ENDBRANCH   5  18
BRANCH   3  22
ATOM     22  C   LIG d   1      -1.239  84.173 114.679  0.00  0.00     0.382 C 
ATOM     23  O   LIG d   1      -1.489  85.379 114.437  0.00  0.00    -0.241 OA
ATOM     24  O   LIG d   1      -1.275  83.764 115.855  0.00  0.00    -0.241 OA
ENDBRANCH   3  22
TORSDOF 7
ENDMDL
MODEL 6
REMARK VINA RESULT:      -5.6      2.012      2.528
REMARK  7 active torsions:
REMARK  status: ('A' for Active; 'I' for Inactive)
REMARK    1  A    between atoms: C_2  and  C_3 
REMARK    2  A    between atoms: C_3  and  O_6 
REMARK    3  A    between atoms: C_3  and  C_4 
REMARK    4  A    between atoms: C_7  and  O_6 
REMARK    5  A    between atoms: C_9  and  C_10 
REMARK    6  A    between atoms: N_15  and  C_14 
REMARK    7  A    between atoms: N_20  and  C_19 
REMARK       I    between atoms: C_22  and  N_20 
ROOT
ATOM      1  C   LIG d   1      -0.073  83.719 110.560  0.00  0.00     0.161 C 
ATOM      2  C   LIG d   1      -0.101  84.661 111.603  0.00  0.00     0.016 C 
ATOM      3  C   LIG d   1      -0.212  84.308 112.967  0.00  0.00     0.038 C 
ATOM      4  C   LIG d   1      -0.150  82.973 113.395  0.00  0.00     0.028 C 
ATOM      5  C   LIG d   1      -0.630  81.977 112.345  0.00  0.00    -0.047 C 
ATOM      6  C   LIG d   1       0.108  82.256 111.015  0.00  0.00     0.091 C 
ENDROOT
BRANCH   1   7
ATOM      7  O   LIG d   1       0.947  84.077 109.607  0.00  0.00    -0.368 OA
BRANCH   7   8
ATOM      8  C   LIG d   1       2.293  83.640 109.919  0.00  0.00     0.119 C 
BRANCH   8   9
ATOM      9  C   LIG d   1       3.131  84.899 110.215  0.00  0.00     0.028 C 
ATOM     10  C   LIG d   1       3.543  84.994 111.694  0.00  0.00     0.006 C 
ENDBRANCH   8   9
BRANCH   8  11
ATOM     11  C   LIG d   1       2.961  82.985 108.706  0.00  0.00     0.028 C 
ATOM     12  C   LIG d   1       4.420  82.583 108.975  0.00  0.00     0.006 C 
ENDBRANCH   8  11
ENDBRANCH   7   8
ENDBRANCH   1   7
BRANCH   6  13
ATOM     13  N   LIG d   1      -0.364  81.380 109.911  0.00  0.00    -0.311 N 
ATOM     14  C   LIG d   1       0.363  80.388 109.400  0.00  0.00     0.210 C 
ATOM     15  C   LIG d   1      -0.303  79.621 108.254  0.00  0.00     0.109 C 
ATOM     16  O   LIG d   1       1.484  80.050 109.809  0.00  0.00    -0.276 OA
ATOM     17  H   LIG d   1      -1.276  81.565 109.540  0.00  0.00     0.149 HD
ENDBRANCH   6  13
BRANCH   5  18
ATOM     18  N   LIG d   1      -0.383  80.621 112.870  0.00  0.00     0.381 N 
ATOM     19  H   LIG d   1      -0.324  79.970 112.113  0.00  0.00    -0.090 HD
ATOM     20  H   LIG d   1      -1.154  80.354 113.457  0.00  0.00    -0.090 HD
ATOM     21  H   LIG d   1       0.464  80.609 113.396  0.00  0.00    -0.090 HD
ENDBRANCH   5  18
BRANCH   3  22
ATOM     22  C   LIG d   1      -0.427  85.295 113.917  0.00  0.00     0.382 C 
ATOM     23  O   LIG d   1       0.486  86.109 114.193  0.00  0.00    -0.241 OA
ATOM     24  O   LIG d   1      -1.508  85.354 114.533  0.00  0.00    -0.241 OA
ENDBRANCH   3  22
TORSDOF 7
ENDMDL
MODEL 7
REMARK VINA RESULT:      -5.6      2.691      5.412
REMARK  7 active torsions:
REMARK  status: ('A' for Active; 'I' for Inactive)
REMARK    1  A    between atoms: C_2  and  C_3 
REMARK    2  A    between atoms: C_3  and  O_6 
REMARK    3  A    between atoms: C_3  and  C_4 
REMARK    4  A    between atoms: C_7  and  O_6 
REMARK    5  A    between atoms: C_9  and  C_10 
REMARK    6  A    between atoms: N_15  and  C_14 
REMARK    7  A    between atoms: N_20  and  C_19 
REMARK       I    between atoms: C_22  and  N_20 
ROOT
ATOM      1  C   LIG d   1       1.844  84.244 111.612  0.00  0.00     0.161 C 
ATOM      2  C   LIG d   1       0.733  83.385 111.663  0.00  0.00     0.016 C 
ATOM      3  C   LIG d   1      -0.293  83.497 112.629  0.00  0.00     0.038 C 
ATOM      4  C   LIG d   1      -0.356  84.576 113.523  0.00  0.00     0.028 C 
ATOM      5  C   LIG d   1       1.007  85.183 113.837  0.00  0.00    -0.047 C 
ATOM      6  C   LIG d   1       1.735  85.495 112.509  0.00  0.00     0.091 C 
ENDROOT
BRANCH   1   7
ATOM      7  O   LIG d   1       2.102  84.628 110.247  0.00  0.00    -0.368 OA
BRANCH   7   8
ATOM      8  C   LIG d   1       0.986  84.513 109.330  0.00  0.00     0.119 C 
BRANCH   8   9
ATOM      9  C   LIG d   1       1.519  83.883 108.029  0.00  0.00     0.028 C 
ATOM     10  C   LIG d   1       2.530  82.755 108.294  0.00  0.00     0.006 C 
ENDBRANCH   8   9
BRANCH   8  11
ATOM     11  C   LIG d   1       0.453  85.891 108.926  0.00  0.00     0.028 C 
ATOM     12  C   LIG d   1      -0.739  86.343 109.783  0.00  0.00     0.006 C 
ENDBRANCH   8  11
ENDBRANCH   7   8
ENDBRANCH   1   7
BRANCH   6  13
ATOM     13  N   LIG d   1       3.111  86.014 112.726  0.00  0.00    -0.311 N 
ATOM     14  C   LIG d   1       3.533  87.189 112.262  0.00  0.00     0.210 C 
ATOM     15  C   LIG d   1       4.994  87.523 112.581  0.00  0.00     0.109 C 
ATOM     16  O   LIG d   1       2.827  88.000 111.645  0.00  0.00    -0.276 OA
ATOM     17  H   LIG d   1       3.741  85.433 113.244  0.00  0.00     0.149 HD
ENDBRANCH   6  13
BRANCH   5  18
ATOM     18  N   LIG d   1       0.782  86.380 114.668  0.00  0.00     0.381 N 
ATOM     19  H   LIG d   1       1.451  86.408 115.411  0.00  0.00    -0.090 HD
ATOM     20  H   LIG d   1      -0.136  86.327 115.073  0.00  0.00    -0.090 HD
ATOM     21  H   LIG d   1       0.859  87.202 114.110  0.00  0.00    -0.090 HD
ENDBRANCH   5  18
BRANCH   3  22
ATOM     22  C   LIG d   1      -1.250  82.499 112.733  0.00  0.00     0.382 C 
ATOM     23  O   LIG d   1      -0.945  81.309 112.478  0.00  0.00    -0.241 OA
ATOM     24  O   LIG d   1      -2.425  82.779 113.036  0.00  0.00    -0.241 OA
ENDBRANCH   3  22
TORSDOF 7
ENDMDL
MODEL 8
REMARK VINA RESULT:      -5.6      2.307      5.124
REMARK  7 active torsions:
REMARK  status: ('A' for Active; 'I' for Inactive)
REMARK    1  A    between atoms: C_2  and  C_3 
REMARK    2  A    between atoms: C_3  and  O_6 
REMARK    3  A    between atoms: C_3  and  C_4 
REMARK    4  A    between atoms: C_7  and  O_6 
REMARK    5  A    between atoms: C_9  and  C_10 
REMARK    6  A    between atoms: N_15  and  C_14 
REMARK    7  A    between atoms: N_20  and  C_19 
REMARK       I    between atoms: C_22  and  N_20 
ROOT
ATOM      1  C   LIG d   1       1.834  81.928 110.737  0.00  0.00     0.161 C 
ATOM      2  C   LIG d   1       2.031  80.947 109.751  0.00  0.00     0.016 C 
ATOM      3  C   LIG d   1       1.056  79.983 109.407  0.00  0.00     0.038 C 
ATOM      4  C   LIG d   1      -0.247  80.029 109.925  0.00  0.00     0.028 C 
ATOM      5  C   LIG d   1      -0.331  80.692 111.296  0.00  0.00    -0.047 C 
ATOM      6  C   LIG d   1       0.380  82.063 111.234  0.00  0.00     0.091 C 
ENDROOT
BRANCH   1   7
ATOM      7  O   LIG d   1       2.323  83.199 110.266  0.00  0.00    -0.368 OA
BRANCH   7   8
ATOM      8  C   LIG d   1       3.388  83.801 111.044  0.00  0.00     0.119 C 
BRANCH   8   9
ATOM      9  C   LIG d   1       3.369  85.315 110.760  0.00  0.00     0.028 C 
ATOM     10  C   LIG d   1       4.568  86.045 111.389  0.00  0.00     0.006 C 
ENDBRANCH   8   9
BRANCH   8  11
ATOM     11  C   LIG d   1       4.762  83.316 110.574  0.00  0.00     0.028 C 
ATOM     12  C   LIG d   1       4.841  83.133 109.050  0.00  0.00     0.006 C 
ENDBRANCH   8  11
ENDBRANCH   7   8
ENDBRANCH   1   7
BRANCH   6  13
ATOM     13  N   LIG d   1       0.417  82.742 112.556  0.00  0.00    -0.311 N 
ATOM     14  C   LIG d   1      -0.149  83.925 112.788  0.00  0.00     0.210 C 
ATOM     15  C   LIG d   1       0.024  84.455 114.215  0.00  0.00     0.109 C 
ATOM     16  O   LIG d   1      -0.807  84.570 111.958  0.00  0.00    -0.276 OA
ATOM     17  H   LIG d   1       0.903  82.274 113.295  0.00  0.00     0.149 HD
ENDBRANCH   6  13
BRANCH   5  18
ATOM     18  N   LIG d   1      -1.758  80.796 111.654  0.00  0.00     0.381 N 
ATOM     19  H   LIG d   1      -1.949  80.228 112.455  0.00  0.00    -0.090 HD
ATOM     20  H   LIG d   1      -2.312  80.456 110.887  0.00  0.00    -0.090 HD
ATOM     21  H   LIG d   1      -1.993  81.745 111.847  0.00  0.00    -0.090 HD
ENDBRANCH   5  18
BRANCH   3  22
ATOM     22  C   LIG d   1       1.393  78.934 108.566  0.00  0.00     0.382 C 
ATOM     23  O   LIG d   1       2.216  78.066 108.945  0.00  0.00    -0.241 OA
ATOM     24  O   LIG d   1       0.919  78.868 107.416  0.00  0.00    -0.241 OA
ENDBRANCH   3  22
TORSDOF 7
ENDMDL
MODEL 9
REMARK VINA RESULT:      -5.6      2.361      4.875
REMARK  7 active torsions:
REMARK  status: ('A' for Active; 'I' for Inactive)
REMARK    1  A    between atoms: C_2  and  C_3 
REMARK    2  A    between atoms: C_3  and  O_6 
REMARK    3  A    between atoms: C_3  and  C_4 
REMARK    4  A    between atoms: C_7  and  O_6 
REMARK    5  A    between atoms: C_9  and  C_10 
REMARK    6  A    between atoms: N_15  and  C_14 
REMARK    7  A    between atoms: N_20  and  C_19 
REMARK       I    between atoms: C_22  and  N_20 
ROOT
ATOM      1  C   LIG d   1       0.990  83.193 111.593  0.00  0.00     0.161 C 
ATOM      2  C   LIG d   1       1.979  82.786 110.684  0.00  0.00     0.016 C 
ATOM      3  C   LIG d   1       1.965  81.533 110.027  0.00  0.00     0.038 C 
ATOM      4  C   LIG d   1       0.872  80.659 110.123  0.00  0.00     0.028 C 
ATOM      5  C   LIG d   1       0.089  80.808 111.423  0.00  0.00    -0.047 C 
ATOM      6  C   LIG d   1      -0.267  82.299 111.625  0.00  0.00     0.091 C 
ENDROOT
BRANCH   1   7
ATOM      7  O   LIG d   1       0.623  84.563 111.336  0.00  0.00    -0.368 OA
BRANCH   7   8
ATOM      8  C   LIG d   1       1.387  85.245 110.310  0.00  0.00     0.119 C 
BRANCH   8   9
ATOM      9  C   LIG d   1       2.073  86.455 110.972  0.00  0.00     0.028 C 
ATOM     10  C   LIG d   1       3.541  86.172 111.333  0.00  0.00     0.006 C 
ENDBRANCH   8   9
BRANCH   8  11
ATOM     11  C   LIG d   1       0.471  85.837 109.234  0.00  0.00     0.028 C 
ATOM     12  C   LIG d   1      -0.852  86.370 109.806  0.00  0.00     0.006 C 
ENDBRANCH   8  11
ENDBRANCH   7   8
ENDBRANCH   1   7
BRANCH   6  13
ATOM     13  N   LIG d   1      -0.962  82.545 112.916  0.00  0.00    -0.311 N 
ATOM     14  C   LIG d   1      -2.266  82.346 113.096  0.00  0.00     0.210 C 
ATOM     15  C   LIG d   1      -2.784  82.681 114.498  0.00  0.00     0.109 C 
ATOM     16  O   LIG d   1      -3.038  81.893 112.237  0.00  0.00    -0.276 OA
ATOM     17  H   LIG d   1      -0.405  82.884 113.676  0.00  0.00     0.149 HD
ENDBRANCH   6  13
BRANCH   5  18
ATOM     18  N   LIG d   1      -1.098  79.938 111.330  0.00  0.00     0.381 N 
ATOM     19  H   LIG d   1      -1.138  79.333 112.126  0.00  0.00    -0.090 HD
ATOM     20  H   LIG d   1      -1.021  79.369 110.505  0.00  0.00    -0.090 HD
ATOM     21  H   LIG d   1      -1.925  80.492 111.283  0.00  0.00    -0.090 HD
ENDBRANCH   5  18
BRANCH   3  22
ATOM     22  C   LIG d   1       3.071  81.128 109.297  0.00  0.00     0.382 C 
ATOM     23  O   LIG d   1       3.269  81.594 108.149  0.00  0.00    -0.241 OA
ATOM     24  O   LIG d   1       3.849  80.269 109.753  0.00  0.00    -0.241 OA
ENDBRANCH   3  22
TORSDOF 7
ENDMDL
