MODEL 1
REMARK VINA RESULT:      -6.6      0.000      0.000
REMARK  7 active torsions:
REMARK  status: ('A' for Active; 'I' for Inactive)
REMARK    1  A    between atoms: C_2  and  C_3 
REMARK    2  A    between atoms: C_3  and  O_6 
REMARK    3  A    between atoms: C_3  and  C_4 
REMARK    4  A    between atoms: C_7  and  O_6 
REMARK    5  A    between atoms: C_9  and  C_10 
REMARK    6  A    between atoms: N_15  and  C_14 
REMARK    7  A    between atoms: N_20  and  C_19 
REMARK       I    between atoms: C_22  and  N_20 
ROOT
ATOM      1  C   LIG d   1       1.220  81.474 111.795  0.00  0.00     0.161 C 
ATOM      2  C   LIG d   1       2.326  81.965 111.082  0.00  0.00     0.016 C 
ATOM      3  C   LIG d   1       2.491  81.795 109.688  0.00  0.00     0.038 C 
ATOM      4  C   LIG d   1       1.481  81.248 108.883  0.00  0.00     0.028 C 
ATOM      5  C   LIG d   1       0.566  80.283 109.630  0.00  0.00    -0.047 C 
ATOM      6  C   LIG d   1       0.055  80.972 110.916  0.00  0.00     0.091 C 
ENDROOT
BRANCH   1   7
ATOM      7  O   LIG d   1       0.754  82.473 112.723  0.00  0.00    -0.368 OA
BRANCH   7   8
ATOM      8  C   LIG d   1       0.868  83.850 112.288  0.00  0.00     0.119 C 
BRANCH   8   9
ATOM      9  C   LIG d   1       1.471  84.656 113.454  0.00  0.00     0.028 C 
ATOM     10  C   LIG d   1       2.653  85.534 113.011  0.00  0.00     0.006 C 
ENDBRANCH   8   9
BRANCH   8  11
ATOM     11  C   LIG d   1      -0.510  84.471 112.036  0.00  0.00     0.028 C 
ATOM     12  C   LIG d   1      -0.680  84.978 110.595  0.00  0.00     0.006 C 
ENDBRANCH   8  11
ENDBRANCH   7   8
ENDBRANCH   1   7
BRANCH   6  13
ATOM     13  N   LIG d   1      -0.780  80.068 111.750  0.00  0.00    -0.311 N 
ATOM     14  C   LIG d   1      -1.901  80.455 112.354  0.00  0.00     0.210 C 
ATOM     15  C   LIG d   1      -2.598  79.370 113.181  0.00  0.00     0.109 C 
ATOM     16  O   LIG d   1      -2.403  81.585 112.257  0.00  0.00    -0.276 OA
ATOM     17  H   LIG d   1      -0.463  79.124 111.856  0.00  0.00     0.149 HD
ENDBRANCH   6  13
BRANCH   5  18
ATOM     18  N   LIG d   1      -0.520  79.896 108.711  0.00  0.00     0.381 N 
ATOM     19  H   LIG d   1      -0.715  78.920 108.809  0.00  0.00    -0.090 HD
ATOM     20  H   LIG d   1      -0.221  80.064 107.766  0.00  0.00    -0.090 HD
ATOM     21  H   LIG d   1      -1.339  80.428 108.907  0.00  0.00    -0.090 HD
ENDBRANCH   5  18
BRANCH   3  22
ATOM     22  C   LIG d   1       3.695  82.138 109.092  0.00  0.00     0.382 C 
ATOM     23  O   LIG d   1       4.060  81.562 108.038  0.00  0.00    -0.241 OA
ATOM     24  O   LIG d   1       4.443  82.984 109.618  0.00  0.00    -0.241 OA
ENDBRANCH   3  22
TORSDOF 7
ENDMDL
MODEL 2
REMARK VINA RESULT:      -6.4      2.362      4.858
REMARK  7 active torsions:
REMARK  status: ('A' for Active; 'I' for Inactive)
REMARK    1  A    between atoms: C_2  and  C_3 
REMARK    2  A    between atoms: C_3  and  O_6 
REMARK    3  A    between atoms: C_3  and  C_4 
REMARK    4  A    between atoms: C_7  and  O_6 
REMARK    5  A    between atoms: C_9  and  C_10 
REMARK    6  A    between atoms: N_15  and  C_14 
REMARK    7  A    between atoms: N_20  and  C_19 
REMARK       I    between atoms: C_22  and  N_20 
ROOT
ATOM      1  C   LIG d   1       0.776  83.858 109.576  0.00  0.00     0.161 C 
ATOM      2  C   LIG d   1       0.245  85.025 110.151  0.00  0.00     0.016 C 
ATOM      3  C   LIG d   1      -0.586  85.021 111.295  0.00  0.00     0.038 C 
ATOM      4  C   LIG d   1      -0.822  83.854 112.036  0.00  0.00     0.028 C 
ATOM      5  C   LIG d   1      -0.720  82.579 111.205  0.00  0.00    -0.047 C 
ATOM      6  C   LIG d   1       0.620  82.586 110.436  0.00  0.00     0.091 C 
ENDROOT
BRANCH   1   7
ATOM      7  O   LIG d   1       2.161  84.067 109.236  0.00  0.00    -0.368 OA
BRANCH   7   8
ATOM      8  C   LIG d   1       3.122  83.800 110.287  0.00  0.00     0.119 C 
BRANCH   8   9
ATOM      9  C   LIG d   1       3.633  85.158 110.804  0.00  0.00     0.028 C 
ATOM     10  C   LIG d   1       3.215  85.426 112.260  0.00  0.00     0.006 C 
ENDBRANCH   8   9
BRANCH   8  11
ATOM     11  C   LIG d   1       4.360  83.083 109.739  0.00  0.00     0.028 C 
ATOM     12  C   LIG d   1       4.089  82.352 108.415  0.00  0.00     0.006 C 
ENDBRANCH   8  11
ENDBRANCH   7   8
ENDBRANCH   1   7
BRANCH   6  13
ATOM     13  N   LIG d   1       0.763  81.414 109.534  0.00  0.00    -0.311 N 
ATOM     14  C   LIG d   1       1.606  80.409 109.765  0.00  0.00     0.210 C 
ATOM     15  C   LIG d   1       1.610  79.310 108.698  0.00  0.00     0.109 C 
ATOM     16  O   LIG d   1       2.328  80.308 110.768  0.00  0.00    -0.276 OA
ATOM     17  H   LIG d   1       0.192  81.399 108.711  0.00  0.00     0.149 HD
ENDBRANCH   6  13
BRANCH   5  18
ATOM     18  N   LIG d   1      -0.851  81.435 112.128  0.00  0.00     0.381 N 
ATOM     19  H   LIG d   1      -0.615  80.587 111.651  0.00  0.00    -0.090 HD
ATOM     20  H   LIG d   1      -1.807  81.370 112.432  0.00  0.00    -0.090 HD
ATOM     21  H   LIG d   1      -0.252  81.561 112.914  0.00  0.00    -0.090 HD
ENDBRANCH   5  18
BRANCH   3  22
ATOM     22  C   LIG d   1      -1.224  86.189 111.685  0.00  0.00     0.382 C 
ATOM     23  O   LIG d   1      -1.378  86.442 112.904  0.00  0.00    -0.241 OA
ATOM     24  O   LIG d   1      -1.686  86.971 110.833  0.00  0.00    -0.241 OA
ENDBRANCH   3  22
TORSDOF 7
ENDMDL
MODEL 3
REMARK VINA RESULT:      -6.1      1.590      4.956
REMARK  7 active torsions:
REMARK  status: ('A' for Active; 'I' for Inactive)
REMARK    1  A    between atoms: C_2  and  C_3 
REMARK    2  A    between atoms: C_3  and  O_6 
REMARK    3  A    between atoms: C_3  and  C_4 
REMARK    4  A    between atoms: C_7  and  O_6 
REMARK    5  A    between atoms: C_9  and  C_10 
REMARK    6  A    between atoms: N_15  and  C_14 
REMARK    7  A    between atoms: N_20  and  C_19 
REMARK       I    between atoms: C_22  and  N_20 
ROOT
ATOM      1  C   LIG d   1       0.075  82.409 111.228  0.00  0.00     0.161 C 
ATOM      2  C   LIG d   1      -1.064  82.085 111.984  0.00  0.00     0.016 C 
ATOM      3  C   LIG d   1      -1.629  80.790 112.024  0.00  0.00     0.038 C 
ATOM      4  C   LIG d   1      -1.000  79.688 111.426  0.00  0.00     0.028 C 
ATOM      5  C   LIG d   1      -0.124  80.063 110.236  0.00  0.00    -0.047 C 
ATOM      6  C   LIG d   1       0.839  81.195 110.658  0.00  0.00     0.091 C 
ENDROOT
BRANCH   1   7
ATOM      7  O   LIG d   1       0.960  83.237 112.008  0.00  0.00    -0.368 OA
BRANCH   7   8
ATOM      8  C   LIG d   1       0.894  84.661 111.749  0.00  0.00     0.119 C 
BRANCH   8   9
ATOM      9  C   LIG d   1       0.338  84.847 110.324  0.00  0.00     0.028 C 
ATOM     10  C   LIG d   1      -0.909  85.747 110.294  0.00  0.00     0.006 C 
ENDBRANCH   8   9
BRANCH   8  11
ATOM     11  C   LIG d   1       2.291  85.288 111.725  0.00  0.00     0.028 C 
ATOM     12  C   LIG d   1       3.094  84.906 110.471  0.00  0.00     0.006 C 
ENDBRANCH   8  11
ENDBRANCH   7   8
ENDBRANCH   1   7
BRANCH   6  13
ATOM     13  N   LIG d   1       1.675  81.680 109.529  0.00  0.00    -0.311 N 
ATOM     14  C   LIG d   1       2.916  81.255 109.300  0.00  0.00     0.210 C 
ATOM     15  C   LIG d   1       3.608  81.899 108.094  0.00  0.00     0.109 C 
ATOM     16  O   LIG d   1       3.499  80.384 109.963  0.00  0.00    -0.276 OA
ATOM     17  H   LIG d   1       1.269  82.366 108.923  0.00  0.00     0.149 HD
ENDBRANCH   6  13
BRANCH   5  18
ATOM     18  N   LIG d   1       0.577  78.842 109.796  0.00  0.00     0.381 N 
ATOM     19  H   LIG d   1       1.298  78.611 110.450  0.00  0.00    -0.090 HD
ATOM     20  H   LIG d   1       1.005  79.016 108.904  0.00  0.00    -0.090 HD
ATOM     21  H   LIG d   1      -0.068  78.086 109.722  0.00  0.00    -0.090 HD
ENDBRANCH   5  18
BRANCH   3  22
ATOM     22  C   LIG d   1      -2.858  80.595 112.635  0.00  0.00     0.382 C 
ATOM     23  O   LIG d   1      -3.167  79.461 113.074  0.00  0.00    -0.241 OA
ATOM     24  O   LIG d   1      -3.680  81.528 112.713  0.00  0.00    -0.241 OA
ENDBRANCH   3  22
TORSDOF 7
ENDMDL
MODEL 4
REMARK VINA RESULT:      -5.9      2.753      5.355
REMARK  7 active torsions:
REMARK  status: ('A' for Active; 'I' for Inactive)
REMARK    1  A    between atoms: C_2  and  C_3 
REMARK    2  A    between atoms: C_3  and  O_6 
REMARK    3  A    between atoms: C_3  and  C_4 
REMARK    4  A    between atoms: C_7  and  O_6 
REMARK    5  A    between atoms: C_9  and  C_10 
REMARK    6  A    between atoms: N_15  and  C_14 
REMARK    7  A    between atoms: N_20  and  C_19 
REMARK       I    between atoms: C_22  and  N_20 
ROOT
ATOM      1  C   LIG d   1       2.792  84.364 110.962  0.00  0.00     0.161 C 
ATOM      2  C   LIG d   1       3.342  85.641 111.161  0.00  0.00     0.016 C 
ATOM      3  C   LIG d   1       3.238  86.352 112.379  0.00  0.00     0.038 C 
ATOM      4  C   LIG d   1       2.704  85.766 113.536  0.00  0.00     0.028 C 
ATOM      5  C   LIG d   1       1.685  84.669 113.245  0.00  0.00    -0.047 C 
ATOM      6  C   LIG d   1       2.302  83.663 112.247  0.00  0.00     0.091 C 
ENDROOT
BRANCH   1   7
ATOM      7  O   LIG d   1       3.736  83.528 110.265  0.00  0.00    -0.368 OA
BRANCH   7   8
ATOM      8  C   LIG d   1       3.448  83.268 108.869  0.00  0.00     0.119 C 
BRANCH   8   9
ATOM      9  C   LIG d   1       1.925  83.404 108.677  0.00  0.00     0.028 C 
ATOM     10  C   LIG d   1       1.495  83.181 107.218  0.00  0.00     0.006 C 
ENDBRANCH   8   9
BRANCH   8  11
ATOM     11  C   LIG d   1       3.777  81.821 108.492  0.00  0.00     0.028 C 
ATOM     12  C   LIG d   1       3.712  80.863 109.693  0.00  0.00     0.006 C 
ENDBRANCH   8  11
ENDBRANCH   7   8
ENDBRANCH   1   7
BRANCH   6  13
ATOM     13  N   LIG d   1       1.341  82.604 111.843  0.00  0.00    -0.311 N 
ATOM     14  C   LIG d   1       1.195  81.456 112.503  0.00  0.00     0.210 C 
ATOM     15  C   LIG d   1       0.164  80.493 111.906  0.00  0.00     0.109 C 
ATOM     16  O   LIG d   1       1.798  81.158 113.545  0.00  0.00    -0.276 OA
ATOM     17  H   LIG d   1       0.789  82.776 111.026  0.00  0.00     0.149 HD
ENDBRANCH   6  13
BRANCH   5  18
ATOM     18  N   LIG d   1       1.313  84.053 114.532  0.00  0.00     0.381 N 
ATOM     19  H   LIG d   1       1.014  84.760 115.173  0.00  0.00    -0.090 HD
ATOM     20  H   LIG d   1       2.121  83.598 114.920  0.00  0.00    -0.090 HD
ATOM     21  H   LIG d   1       0.583  83.389 114.395  0.00  0.00    -0.090 HD
ENDBRANCH   5  18
BRANCH   3  22
ATOM     22  C   LIG d   1       3.636  87.679 112.436  0.00  0.00     0.382 C 
ATOM     23  O   LIG d   1       2.850  88.551 112.879  0.00  0.00    -0.241 OA
ATOM     24  O   LIG d   1       4.755  88.021 112.010  0.00  0.00    -0.241 OA
ENDBRANCH   3  22
TORSDOF 7
ENDMDL
MODEL 5
REMARK VINA RESULT:      -5.5      2.463      5.586
REMARK  7 active torsions:
REMARK  status: ('A' for Active; 'I' for Inactive)
REMARK    1  A    between atoms: C_2  and  C_3 
REMARK    2  A    between atoms: C_3  and  O_6 
REMARK    3  A    between atoms: C_3  and  C_4 
REMARK    4  A    between atoms: C_7  and  O_6 
REMARK    5  A    between atoms: C_9  and  C_10 
REMARK    6  A    between atoms: N_15  and  C_14 
REMARK    7  A    between atoms: N_20  and  C_19 
REMARK       I    between atoms: C_22  and  N_20 
ROOT
ATOM      1  C   LIG d   1       1.411  83.219 111.583  0.00  0.00     0.161 C 
ATOM      2  C   LIG d   1       0.576  84.059 112.339  0.00  0.00     0.016 C 
ATOM      3  C   LIG d   1      -0.067  85.199 111.806  0.00  0.00     0.038 C 
ATOM      4  C   LIG d   1      -0.040  85.494 110.435  0.00  0.00     0.028 C 
ATOM      5  C   LIG d   1       1.201  84.961 109.726  0.00  0.00    -0.047 C 
ATOM      6  C   LIG d   1       1.364  83.461 110.060  0.00  0.00     0.091 C 
ENDROOT
BRANCH   1   7
ATOM      7  O   LIG d   1       1.116  81.840 111.881  0.00  0.00    -0.368 OA
BRANCH   7   8
ATOM      8  C   LIG d   1       0.023  81.247 111.137  0.00  0.00     0.119 C 
BRANCH   8   9
ATOM      9  C   LIG d   1      -1.046  80.807 112.157  0.00  0.00     0.028 C 
ATOM     10  C   LIG d   1      -1.365  79.306 112.061  0.00  0.00     0.006 C 
ENDBRANCH   8   9
BRANCH   8  11
ATOM     11  C   LIG d   1       0.462  79.962 110.430  0.00  0.00     0.028 C 
ATOM     12  C   LIG d   1       0.203  79.997 108.915  0.00  0.00     0.006 C 
ENDBRANCH   8  11
ENDBRANCH   7   8
ENDBRANCH   1   7
BRANCH   6  13
ATOM     13  N   LIG d   1       2.601  82.881 109.474  0.00  0.00    -0.311 N 
ATOM     14  C   LIG d   1       2.685  82.449 108.217  0.00  0.00     0.210 C 
ATOM     15  C   LIG d   1       4.046  81.869 107.821  0.00  0.00     0.109 C 
ATOM     16  O   LIG d   1       1.770  82.522 107.382  0.00  0.00    -0.276 OA
ATOM     17  H   LIG d   1       3.401  82.814 110.073  0.00  0.00     0.149 HD
ENDBRANCH   6  13
BRANCH   5  18
ATOM     18  N   LIG d   1       1.034  85.217 108.283  0.00  0.00     0.381 N 
ATOM     19  H   LIG d   1       1.396  86.122 108.055  0.00  0.00    -0.090 HD
ATOM     20  H   LIG d   1       0.054  85.205 108.062  0.00  0.00    -0.090 HD
ATOM     21  H   LIG d   1       1.510  84.519 107.755  0.00  0.00    -0.090 HD
ENDBRANCH   5  18
BRANCH   3  22
ATOM     22  C   LIG d   1      -0.716  86.082 112.656  0.00  0.00     0.382 C 
ATOM     23  O   LIG d   1      -1.835  86.551 112.338  0.00  0.00    -0.241 OA
ATOM     24  O   LIG d   1      -0.175  86.450 113.716  0.00  0.00    -0.241 OA
ENDBRANCH   3  22
TORSDOF 7
ENDMDL
MODEL 6
REMARK VINA RESULT:      -4.8      2.452      4.547
REMARK  7 active torsions:
REMARK  status: ('A' for Active; 'I' for Inactive)
REMARK    1  A    between atoms: C_2  and  C_3 
REMARK    2  A    between atoms: C_3  and  O_6 
REMARK    3  A    between atoms: C_3  and  C_4 
REMARK    4  A    between atoms: C_7  and  O_6 
REMARK    5  A    between atoms: C_9  and  C_10 
REMARK    6  A    between atoms: N_15  and  C_14 
REMARK    7  A    between atoms: N_20  and  C_19 
REMARK       I    between atoms: C_22  and  N_20 
ROOT
ATOM      1  C   LIG d   1       1.295  82.579 111.543  0.00  0.00     0.161 C 
ATOM      2  C   LIG d   1       1.106  83.937 111.847  0.00  0.00     0.016 C 
ATOM      3  C   LIG d   1       0.962  84.943 110.864  0.00  0.00     0.038 C 
ATOM      4  C   LIG d   1       0.844  84.635 109.500  0.00  0.00     0.028 C 
ATOM      5  C   LIG d   1       1.534  83.331 109.112  0.00  0.00    -0.047 C 
ATOM      6  C   LIG d   1       1.058  82.209 110.063  0.00  0.00     0.091 C 
ENDROOT
BRANCH   1   7
ATOM      7  O   LIG d   1       0.469  81.766 112.400  0.00  0.00    -0.368 OA
BRANCH   7   8
ATOM      8  C   LIG d   1      -0.696  81.167 111.782  0.00  0.00     0.119 C 
BRANCH   8   9
ATOM      9  C   LIG d   1      -1.923  81.998 112.202  0.00  0.00     0.028 C 
ATOM     10  C   LIG d   1      -3.053  81.128 112.778  0.00  0.00     0.006 C 
ENDBRANCH   8   9
BRANCH   8  11
ATOM     11  C   LIG d   1      -0.954  79.759 112.327  0.00  0.00     0.028 C 
ATOM     12  C   LIG d   1      -1.493  78.795 111.257  0.00  0.00     0.006 C 
ENDBRANCH   8  11
ENDBRANCH   7   8
ENDBRANCH   1   7
BRANCH   6  13
ATOM     13  N   LIG d   1       1.748  80.918 109.807  0.00  0.00    -0.311 N 
ATOM     14  C   LIG d   1       1.245  79.960 109.030  0.00  0.00     0.210 C 
ATOM     15  C   LIG d   1       2.109  78.700 108.916  0.00  0.00     0.109 C 
ATOM     16  O   LIG d   1       0.181  80.046 108.399  0.00  0.00    -0.276 OA
ATOM     17  H   LIG d   1       2.632  80.776 110.254  0.00  0.00     0.149 HD
ENDBRANCH   6  13
BRANCH   5  18
ATOM     18  N   LIG d   1       1.217  83.063 107.697  0.00  0.00     0.381 N 
ATOM     19  H   LIG d   1       0.941  82.107 107.587  0.00  0.00    -0.090 HD
ATOM     20  H   LIG d   1       2.041  83.219 107.144  0.00  0.00    -0.090 HD
ATOM     21  H   LIG d   1       0.483  83.665 107.392  0.00  0.00    -0.090 HD
ENDBRANCH   5  18
BRANCH   3  22
ATOM     22  C   LIG d   1       0.973  86.277 111.239  0.00  0.00     0.382 C 
ATOM     23  O   LIG d   1       2.029  86.947 111.139  0.00  0.00    -0.241 OA
ATOM     24  O   LIG d   1      -0.047  86.808 111.717  0.00  0.00    -0.241 OA
ENDBRANCH   3  22
TORSDOF 7
ENDMDL
MODEL 7
REMARK VINA RESULT:      -4.5      2.662      4.630
REMARK  7 active torsions:
REMARK  status: ('A' for Active; 'I' for Inactive)
REMARK    1  A    between atoms: C_2  and  C_3 
REMARK    2  A    between atoms: C_3  and  O_6 
REMARK    3  A    between atoms: C_3  and  C_4 
REMARK    4  A    between atoms: C_7  and  O_6 
REMARK    5  A    between atoms: C_9  and  C_10 
REMARK    6  A    between atoms: N_15  and  C_14 
REMARK    7  A    between atoms: N_20  and  C_19 
REMARK       I    between atoms: C_22  and  N_20 
ROOT
ATOM      1  C   LIG d   1       2.126  83.275 112.315  0.00  0.00     0.161 C 
ATOM      2  C   LIG d   1       2.237  84.619 112.707  0.00  0.00     0.016 C 
ATOM      3  C   LIG d   1       2.862  85.611 111.916  0.00  0.00     0.038 C 
ATOM      4  C   LIG d   1       3.287  85.354 110.604  0.00  0.00     0.028 C 
ATOM      5  C   LIG d   1       3.651  83.893 110.361  0.00  0.00    -0.047 C 
ATOM      6  C   LIG d   1       2.485  82.999 110.840  0.00  0.00     0.091 C 
ENDROOT
BRANCH   1   7
ATOM      7  O   LIG d   1       0.801  82.789 112.608  0.00  0.00    -0.368 OA
BRANCH   7   8
ATOM      8  C   LIG d   1      -0.135  82.783 111.501  0.00  0.00     0.119 C 
BRANCH   8   9
ATOM      9  C   LIG d   1      -0.983  84.065 111.604  0.00  0.00     0.028 C 
ATOM     10  C   LIG d   1      -0.689  85.056 110.465  0.00  0.00     0.006 C 
ENDBRANCH   8   9
BRANCH   8  11
ATOM     11  C   LIG d   1      -1.132  81.626 111.621  0.00  0.00     0.028 C 
ATOM     12  C   LIG d   1      -0.447  80.270 111.850  0.00  0.00     0.006 C 
ENDBRANCH   8  11
ENDBRANCH   7   8
ENDBRANCH   1   7
BRANCH   6  13
ATOM     13  N   LIG d   1       2.793  81.550 110.716  0.00  0.00    -0.311 N 
ATOM     14  C   LIG d   1       2.516  80.832 109.629  0.00  0.00     0.210 C 
ATOM     15  C   LIG d   1       2.898  79.352 109.717  0.00  0.00     0.109 C 
ATOM     16  O   LIG d   1       2.020  81.289 108.587  0.00  0.00    -0.276 OA
ATOM     17  H   LIG d   1       3.225  81.106 111.503  0.00  0.00     0.149 HD
ENDBRANCH   6  13
BRANCH   5  18
ATOM     18  N   LIG d   1       3.943  83.740 108.923  0.00  0.00     0.381 N 
ATOM     19  H   LIG d   1       4.000  82.768 108.690  0.00  0.00    -0.090 HD
ATOM     20  H   LIG d   1       4.833  84.164 108.725  0.00  0.00    -0.090 HD
ATOM     21  H   LIG d   1       3.231  84.177 108.381  0.00  0.00    -0.090 HD
ENDBRANCH   5  18
BRANCH   3  22
ATOM     22  C   LIG d   1       3.103  86.867 112.452  0.00  0.00     0.382 C 
ATOM     23  O   LIG d   1       4.025  87.580 111.989  0.00  0.00    -0.241 OA
ATOM     24  O   LIG d   1       2.438  87.278 113.422  0.00  0.00    -0.241 OA
ENDBRANCH   3  22
TORSDOF 7
ENDMDL
MODEL 8
REMARK VINA RESULT:      -4.1      2.989      4.502
REMARK  7 active torsions:
REMARK  status: ('A' for Active; 'I' for Inactive)
REMARK    1  A    between atoms: C_2  and  C_3 
REMARK    2  A    between atoms: C_3  and  O_6 
REMARK    3  A    between atoms: C_3  and  C_4 
REMARK    4  A    between atoms: C_7  and  O_6 
REMARK    5  A    between atoms: C_9  and  C_10 
REMARK    6  A    between atoms: N_15  and  C_14 
REMARK    7  A    between atoms: N_20  and  C_19 
REMARK       I    between atoms: C_22  and  N_20 
ROOT
ATOM      1  C   LIG d   1       1.224  83.058 110.625  0.00  0.00     0.161 C 
ATOM      2  C   LIG d   1       0.839  81.808 110.112  0.00  0.00     0.016 C 
ATOM      3  C   LIG d   1       1.740  80.909 109.497  0.00  0.00     0.038 C 
ATOM      4  C   LIG d   1       3.125  81.136 109.488  0.00  0.00     0.028 C 
ATOM      5  C   LIG d   1       3.496  82.614 109.545  0.00  0.00    -0.047 C 
ATOM      6  C   LIG d   1       2.749  83.275 110.725  0.00  0.00     0.091 C 
ENDROOT
BRANCH   1   7
ATOM      7  O   LIG d   1       0.603  83.271 111.908  0.00  0.00    -0.368 OA
BRANCH   7   8
ATOM      8  C   LIG d   1      -0.535  84.168 111.924  0.00  0.00     0.119 C 
BRANCH   8   9
ATOM      9  C   LIG d   1      -0.901  84.478 110.460  0.00  0.00     0.028 C 
ATOM     10  C   LIG d   1      -0.304  85.810 109.976  0.00  0.00     0.006 C 
ENDBRANCH   8   9
BRANCH   8  11
ATOM     11  C   LIG d   1      -0.172  85.519 112.547  0.00  0.00     0.028 C 
ATOM     12  C   LIG d   1      -1.404  86.386 112.851  0.00  0.00     0.006 C 
ENDBRANCH   8  11
ENDBRANCH   7   8
ENDBRANCH   1   7
BRANCH   6  13
ATOM     13  N   LIG d   1       2.990  84.739 110.801  0.00  0.00    -0.311 N 
ATOM     14  C   LIG d   1       3.256  85.381 111.937  0.00  0.00     0.210 C 
ATOM     15  C   LIG d   1       3.453  86.893 111.796  0.00  0.00     0.109 C 
ATOM     16  O   LIG d   1       3.378  84.836 113.045  0.00  0.00    -0.276 OA
ATOM     17  H   LIG d   1       2.941  85.255 109.944  0.00  0.00     0.149 HD
ENDBRANCH   6  13
BRANCH   5  18
ATOM     18  N   LIG d   1       4.964  82.700 109.669  0.00  0.00     0.381 N 
ATOM     19  H   LIG d   1       5.221  83.595 110.034  0.00  0.00    -0.090 HD
ATOM     20  H   LIG d   1       5.374  82.602 108.757  0.00  0.00    -0.090 HD
ATOM     21  H   LIG d   1       5.298  81.979 110.270  0.00  0.00    -0.090 HD
ENDBRANCH   5  18
BRANCH   3  22
ATOM     22  C   LIG d   1       1.253  79.786 108.845  0.00  0.00     0.382 C 
ATOM     23  O   LIG d   1       0.096  79.795 108.360  0.00  0.00    -0.241 OA
ATOM     24  O   LIG d   1       1.939  78.749 108.775  0.00  0.00    -0.241 OA
ENDBRANCH   3  22
TORSDOF 7
ENDMDL
MODEL 9
REMARK VINA RESULT:      -4.0     27.673     29.498
REMARK  7 active torsions:
REMARK  status: ('A' for Active; 'I' for Inactive)
REMARK    1  A    between atoms: C_2  and  C_3 
REMARK    2  A    between atoms: C_3  and  O_6 
REMARK    3  A    between atoms: C_3  and  C_4 
REMARK    4  A    between atoms: C_7  and  O_6 
REMARK    5  A    between atoms: C_9  and  C_10 
REMARK    6  A    between atoms: N_15  and  C_14 
REMARK    7  A    between atoms: N_20  and  C_19 
REMARK       I    between atoms: C_22  and  N_20 
ROOT
ATOM      1  C   LIG d   1     -27.798  71.795 111.125  0.00  0.00     0.161 C 
ATOM      2  C   LIG d   1     -27.120  70.569 111.012  0.00  0.00     0.016 C 
ATOM      3  C   LIG d   1     -26.208  70.278 109.972  0.00  0.00     0.038 C 
ATOM      4  C   LIG d   1     -25.794  71.254 109.054  0.00  0.00     0.028 C 
ATOM      5  C   LIG d   1     -26.830  72.350 108.827  0.00  0.00    -0.047 C 
ATOM      6  C   LIG d   1     -27.276  72.911 110.196  0.00  0.00     0.091 C 
ENDROOT
BRANCH   1   7
ATOM      7  O   LIG d   1     -27.782  72.237 112.497  0.00  0.00    -0.368 OA
BRANCH   7   8
ATOM      8  C   LIG d   1     -26.491  72.625 113.027  0.00  0.00     0.119 C 
BRANCH   8   9
ATOM      9  C   LIG d   1     -26.302  71.890 114.368  0.00  0.00     0.028 C 
ATOM     10  C   LIG d   1     -25.432  70.629 114.229  0.00  0.00     0.006 C 
ENDBRANCH   8   9
BRANCH   8  11
ATOM     11  C   LIG d   1     -26.456  74.116 113.373  0.00  0.00     0.028 C 
ATOM     12  C   LIG d   1     -25.047  74.612 113.733  0.00  0.00     0.006 C 
ENDBRANCH   8  11
ENDBRANCH   7   8
ENDBRANCH   1   7
BRANCH   6  13
ATOM     13  N   LIG d   1     -28.350  73.930 110.069  0.00  0.00    -0.311 N 
ATOM     14  C   LIG d   1     -28.117  75.240 110.033  0.00  0.00     0.210 C 
ATOM     15  C   LIG d   1     -29.368  76.117 109.918  0.00  0.00     0.109 C 
ATOM     16  O   LIG d   1     -26.990  75.759 110.051  0.00  0.00    -0.276 OA
ATOM     17  H   LIG d   1     -29.292  73.595 110.016  0.00  0.00     0.149 HD
ENDBRANCH   6  13
BRANCH   5  18
ATOM     18  N   LIG d   1     -26.216  73.370 107.956  0.00  0.00     0.381 N 
ATOM     19  H   LIG d   1     -25.238  73.443 108.157  0.00  0.00    -0.090 HD
ATOM     20  H   LIG d   1     -26.643  74.260 108.146  0.00  0.00    -0.090 HD
ATOM     21  H   LIG d   1     -26.349  73.127 106.999  0.00  0.00    -0.090 HD
ENDBRANCH   5  18
BRANCH   3  22
ATOM     22  C   LIG d   1     -25.729  68.985 109.820  0.00  0.00     0.382 C 
ATOM     23  O   LIG d   1     -25.076  68.675 108.794  0.00  0.00    -0.241 OA
ATOM     24  O   LIG d   1     -25.980  68.114 110.674  0.00  0.00    -0.241 OA
ENDBRANCH   3  22
TORSDOF 7
ENDMDL
