MODEL 1
REMARK VINA RESULT:      -6.1      0.000      0.000
REMARK  7 active torsions:
REMARK  status: ('A' for Active; 'I' for Inactive)
REMARK    1  A    between atoms: C_2  and  C_3 
REMARK    2  A    between atoms: C_3  and  O_6 
REMARK    3  A    between atoms: C_3  and  C_4 
REMARK    4  A    between atoms: C_7  and  O_6 
REMARK    5  A    between atoms: C_9  and  C_10 
REMARK    6  A    between atoms: N_15  and  C_14 
REMARK    7  A    between atoms: N_20  and  C_19 
REMARK       I    between atoms: C_22  and  N_20 
ROOT
ATOM      1  C   LIG d   1       1.336  82.893 109.942  0.00  0.00     0.161 C 
ATOM      2  C   LIG d   1       1.569  84.272 110.068  0.00  0.00     0.016 C 
ATOM      3  C   LIG d   1       0.891  85.094 110.997  0.00  0.00     0.038 C 
ATOM      4  C   LIG d   1       0.037  84.561 111.974  0.00  0.00     0.028 C 
ATOM      5  C   LIG d   1      -0.612  83.245 111.558  0.00  0.00    -0.047 C 
ATOM      6  C   LIG d   1       0.488  82.274 111.073  0.00  0.00     0.091 C 
ENDROOT
BRANCH   1   7
ATOM      7  O   LIG d   1       2.590  82.194 109.816  0.00  0.00    -0.368 OA
BRANCH   7   8
ATOM      8  C   LIG d   1       3.773  82.932 110.211  0.00  0.00     0.119 C 
BRANCH   8   9
ATOM      9  C   LIG d   1       4.910  82.532 109.251  0.00  0.00     0.028 C 
ATOM     10  C   LIG d   1       5.559  81.192 109.636  0.00  0.00     0.006 C 
ENDBRANCH   8   9
BRANCH   8  11
ATOM     11  C   LIG d   1       4.252  82.513 111.604  0.00  0.00     0.028 C 
ATOM     12  C   LIG d   1       4.256  83.677 112.608  0.00  0.00     0.006 C 
ENDBRANCH   8  11
ENDBRANCH   7   8
ENDBRANCH   1   7
BRANCH   6  13
ATOM     13  N   LIG d   1      -0.069  80.992 110.568  0.00  0.00    -0.311 N 
ATOM     14  C   LIG d   1      -0.274  79.927 111.341  0.00  0.00     0.210 C 
ATOM     15  C   LIG d   1      -0.838  78.701 110.616  0.00  0.00     0.109 C 
ATOM     16  O   LIG d   1      -0.074  79.892 112.565  0.00  0.00    -0.276 OA
ATOM     17  H   LIG d   1      -0.290  80.943 109.593  0.00  0.00     0.149 HD
ENDBRANCH   6  13
BRANCH   5  18
ATOM     18  N   LIG d   1      -1.366  82.734 112.718  0.00  0.00     0.381 N 
ATOM     19  H   LIG d   1      -1.743  81.832 112.505  0.00  0.00    -0.090 HD
ATOM     20  H   LIG d   1      -2.129  83.358 112.910  0.00  0.00    -0.090 HD
ATOM     21  H   LIG d   1      -0.768  82.673 113.513  0.00  0.00    -0.090 HD
ENDBRANCH   5  18
BRANCH   3  22
ATOM     22  C   LIG d   1       1.036  86.472 110.929  0.00  0.00     0.382 C 
ATOM     23  O   LIG d   1       0.075  87.218 111.235  0.00  0.00    -0.241 OA
ATOM     24  O   LIG d   1       2.100  86.976 110.524  0.00  0.00    -0.241 OA
ENDBRANCH   3  22
TORSDOF 7
ENDMDL
MODEL 2
REMARK VINA RESULT:      -6.0      1.621      2.230
REMARK  7 active torsions:
REMARK  status: ('A' for Active; 'I' for Inactive)
REMARK    1  A    between atoms: C_2  and  C_3 
REMARK    2  A    between atoms: C_3  and  O_6 
REMARK    3  A    between atoms: C_3  and  C_4 
REMARK    4  A    between atoms: C_7  and  O_6 
REMARK    5  A    between atoms: C_9  and  C_10 
REMARK    6  A    between atoms: N_15  and  C_14 
REMARK    7  A    between atoms: N_20  and  C_19 
REMARK       I    between atoms: C_22  and  N_20 
ROOT
ATOM      1  C   LIG d   1       2.478  83.484 110.591  0.00  0.00     0.161 C 
ATOM      2  C   LIG d   1       2.925  84.734 111.052  0.00  0.00     0.016 C 
ATOM      3  C   LIG d   1       2.063  85.828 111.294  0.00  0.00     0.038 C 
ATOM      4  C   LIG d   1       0.667  85.700 111.234  0.00  0.00     0.028 C 
ATOM      5  C   LIG d   1       0.200  84.601 110.285  0.00  0.00    -0.047 C 
ATOM      6  C   LIG d   1       0.947  83.292 110.626  0.00  0.00     0.091 C 
ENDROOT
BRANCH   1   7
ATOM      7  O   LIG d   1       3.132  82.430 111.323  0.00  0.00    -0.368 OA
BRANCH   7   8
ATOM      8  C   LIG d   1       4.039  81.594 110.563  0.00  0.00     0.119 C 
BRANCH   8   9
ATOM      9  C   LIG d   1       5.471  81.926 111.024  0.00  0.00     0.028 C 
ATOM     10  C   LIG d   1       5.538  82.294 112.516  0.00  0.00     0.006 C 
ENDBRANCH   8   9
BRANCH   8  11
ATOM     11  C   LIG d   1       4.001  81.942 109.073  0.00  0.00     0.028 C 
ATOM     12  C   LIG d   1       5.257  82.696 108.605  0.00  0.00     0.006 C 
ENDBRANCH   8  11
ENDBRANCH   7   8
ENDBRANCH   1   7
BRANCH   6  13
ATOM     13  N   LIG d   1       0.611  82.187 109.691  0.00  0.00    -0.311 N 
ATOM     14  C   LIG d   1       0.348  80.944 110.089  0.00  0.00     0.210 C 
ATOM     15  C   LIG d   1       0.045  79.954 108.960  0.00  0.00     0.109 C 
ATOM     16  O   LIG d   1       0.306  80.574 111.272  0.00  0.00    -0.276 OA
ATOM     17  H   LIG d   1       0.591  82.406 108.714  0.00  0.00     0.149 HD
ENDBRANCH   6  13
BRANCH   5  18
ATOM     18  N   LIG d   1      -1.264  84.485 110.425  0.00  0.00     0.381 N 
ATOM     19  H   LIG d   1      -1.504  83.558 110.716  0.00  0.00    -0.090 HD
ATOM     20  H   LIG d   1      -1.690  84.655 109.531  0.00  0.00    -0.090 HD
ATOM     21  H   LIG d   1      -1.597  85.147 111.091  0.00  0.00    -0.090 HD
ENDBRANCH   5  18
BRANCH   3  22
ATOM     22  C   LIG d   1       2.599  87.079 111.561  0.00  0.00     0.382 C 
ATOM     23  O   LIG d   1       3.841  87.250 111.522  0.00  0.00    -0.241 OA
ATOM     24  O   LIG d   1       1.858  88.027 111.883  0.00  0.00    -0.241 OA
ENDBRANCH   3  22
TORSDOF 7
ENDMDL
MODEL 3
REMARK VINA RESULT:      -6.0      2.583      4.418
REMARK  7 active torsions:
REMARK  status: ('A' for Active; 'I' for Inactive)
REMARK    1  A    between atoms: C_2  and  C_3 
REMARK    2  A    between atoms: C_3  and  O_6 
REMARK    3  A    between atoms: C_3  and  C_4 
REMARK    4  A    between atoms: C_7  and  O_6 
REMARK    5  A    between atoms: C_9  and  C_10 
REMARK    6  A    between atoms: N_15  and  C_14 
REMARK    7  A    between atoms: N_20  and  C_19 
REMARK       I    between atoms: C_22  and  N_20 
ROOT
ATOM      1  C   LIG d   1       3.138  83.969 111.239  0.00  0.00     0.161 C 
ATOM      2  C   LIG d   1       4.106  83.234 111.944  0.00  0.00     0.016 C 
ATOM      3  C   LIG d   1       3.802  82.410 113.052  0.00  0.00     0.038 C 
ATOM      4  C   LIG d   1       2.480  82.144 113.438  0.00  0.00     0.028 C 
ATOM      5  C   LIG d   1       1.507  83.260 113.073  0.00  0.00    -0.047 C 
ATOM      6  C   LIG d   1       1.677  83.605 111.576  0.00  0.00     0.091 C 
ENDROOT
BRANCH   1   7
ATOM      7  O   LIG d   1       3.370  83.849 109.822  0.00  0.00    -0.368 OA
BRANCH   7   8
ATOM      8  C   LIG d   1       3.464  82.499 109.304  0.00  0.00     0.119 C 
BRANCH   8   9
ATOM      9  C   LIG d   1       4.934  82.253 108.914  0.00  0.00     0.028 C 
ATOM     10  C   LIG d   1       5.491  80.951 109.514  0.00  0.00     0.006 C 
ENDBRANCH   8   9
BRANCH   8  11
ATOM     11  C   LIG d   1       2.669  82.344 108.004  0.00  0.00     0.028 C 
ATOM     12  C   LIG d   1       1.541  83.380 107.868  0.00  0.00     0.006 C 
ENDBRANCH   8  11
ENDBRANCH   7   8
ENDBRANCH   1   7
BRANCH   6  13
ATOM     13  N   LIG d   1       0.821  84.745 111.156  0.00  0.00    -0.311 N 
ATOM     14  C   LIG d   1      -0.450  84.608 110.782  0.00  0.00     0.210 C 
ATOM     15  C   LIG d   1      -1.146  85.909 110.368  0.00  0.00     0.109 C 
ATOM     16  O   LIG d   1      -1.077  83.538 110.785  0.00  0.00    -0.276 OA
ATOM     17  H   LIG d   1       1.240  85.654 111.154  0.00  0.00     0.149 HD
ENDBRANCH   6  13
BRANCH   5  18
ATOM     18  N   LIG d   1       0.148  82.793 113.408  0.00  0.00     0.381 N 
ATOM     19  H   LIG d   1       0.191  82.141 114.166  0.00  0.00    -0.090 HD
ATOM     20  H   LIG d   1      -0.240  82.322 112.609  0.00  0.00    -0.090 HD
ATOM     21  H   LIG d   1      -0.427  83.567 113.658  0.00  0.00    -0.090 HD
ENDBRANCH   5  18
BRANCH   3  22
ATOM     22  C   LIG d   1       4.831  81.873 113.811  0.00  0.00     0.382 C 
ATOM     23  O   LIG d   1       5.894  81.505 113.256  0.00  0.00    -0.241 OA
ATOM     24  O   LIG d   1       4.692  81.710 115.038  0.00  0.00    -0.241 OA
ENDBRANCH   3  22
TORSDOF 7
ENDMDL
MODEL 4
REMARK VINA RESULT:      -5.9      2.324      4.675
REMARK  7 active torsions:
REMARK  status: ('A' for Active; 'I' for Inactive)
REMARK    1  A    between atoms: C_2  and  C_3 
REMARK    2  A    between atoms: C_3  and  O_6 
REMARK    3  A    between atoms: C_3  and  C_4 
REMARK    4  A    between atoms: C_7  and  O_6 
REMARK    5  A    between atoms: C_9  and  C_10 
REMARK    6  A    between atoms: N_15  and  C_14 
REMARK    7  A    between atoms: N_20  and  C_19 
REMARK       I    between atoms: C_22  and  N_20 
ROOT
ATOM      1  C   LIG d   1       2.182  81.603 111.292  0.00  0.00     0.161 C 
ATOM      2  C   LIG d   1       3.335  82.209 110.767  0.00  0.00     0.016 C 
ATOM      3  C   LIG d   1       3.993  81.751 109.602  0.00  0.00     0.038 C 
ATOM      4  C   LIG d   1       3.452  80.741 108.793  0.00  0.00     0.028 C 
ATOM      5  C   LIG d   1       2.561  79.766 109.556  0.00  0.00    -0.047 C 
ATOM      6  C   LIG d   1       1.514  80.569 110.362  0.00  0.00     0.091 C 
ENDROOT
BRANCH   1   7
ATOM      7  O   LIG d   1       1.232  82.614 111.681  0.00  0.00    -0.368 OA
BRANCH   7   8
ATOM      8  C   LIG d   1       1.449  83.937 111.132  0.00  0.00     0.119 C 
BRANCH   8   9
ATOM      9  C   LIG d   1       1.135  84.957 112.243  0.00  0.00     0.028 C 
ATOM     10  C   LIG d   1       0.075  84.441 113.231  0.00  0.00     0.006 C 
ENDBRANCH   8   9
BRANCH   8  11
ATOM     11  C   LIG d   1       0.455  84.244 110.007  0.00  0.00     0.028 C 
ATOM     12  C   LIG d   1       1.120  84.299 108.623  0.00  0.00     0.006 C 
ENDBRANCH   8  11
ENDBRANCH   7   8
ENDBRANCH   1   7
BRANCH   6  13
ATOM     13  N   LIG d   1       0.655  79.695 111.203  0.00  0.00    -0.311 N 
ATOM     14  C   LIG d   1      -0.486  79.157 110.775  0.00  0.00     0.210 C 
ATOM     15  C   LIG d   1      -1.227  78.305 111.810  0.00  0.00     0.109 C 
ATOM     16  O   LIG d   1      -0.938  79.279 109.627  0.00  0.00    -0.276 OA
ATOM     17  H   LIG d   1       0.963  79.518 112.139  0.00  0.00     0.149 HD
ENDBRANCH   6  13
BRANCH   5  18
ATOM     18  N   LIG d   1       1.956  78.851 108.571  0.00  0.00     0.381 N 
ATOM     19  H   LIG d   1       1.658  79.367 107.767  0.00  0.00    -0.090 HD
ATOM     20  H   LIG d   1       1.149  78.417 108.983  0.00  0.00    -0.090 HD
ATOM     21  H   LIG d   1       2.615  78.155 108.302  0.00  0.00    -0.090 HD
ENDBRANCH   5  18
BRANCH   3  22
ATOM     22  C   LIG d   1       5.228  82.280 109.258  0.00  0.00     0.382 C 
ATOM     23  O   LIG d   1       6.234  82.037 109.968  0.00  0.00    -0.241 OA
ATOM     24  O   LIG d   1       5.341  83.032 108.272  0.00  0.00    -0.241 OA
ENDBRANCH   3  22
TORSDOF 7
ENDMDL
MODEL 5
REMARK VINA RESULT:      -5.9      2.247      3.841
REMARK  7 active torsions:
REMARK  status: ('A' for Active; 'I' for Inactive)
REMARK    1  A    between atoms: C_2  and  C_3 
REMARK    2  A    between atoms: C_3  and  O_6 
REMARK    3  A    between atoms: C_3  and  C_4 
REMARK    4  A    between atoms: C_7  and  O_6 
REMARK    5  A    between atoms: C_9  and  C_10 
REMARK    6  A    between atoms: N_15  and  C_14 
REMARK    7  A    between atoms: N_20  and  C_19 
REMARK       I    between atoms: C_22  and  N_20 
ROOT
ATOM      1  C   LIG d   1       2.411  85.142 110.742  0.00  0.00     0.161 C 
ATOM      2  C   LIG d   1       1.304  85.779 111.327  0.00  0.00     0.016 C 
ATOM      3  C   LIG d   1       0.027  85.181 111.430  0.00  0.00     0.038 C 
ATOM      4  C   LIG d   1      -0.193  83.838 111.090  0.00  0.00     0.028 C 
ATOM      5  C   LIG d   1       0.770  83.317 110.029  0.00  0.00    -0.047 C 
ATOM      6  C   LIG d   1       2.218  83.636 110.465  0.00  0.00     0.091 C 
ENDROOT
BRANCH   1   7
ATOM      7  O   LIG d   1       3.583  85.356 111.552  0.00  0.00    -0.368 OA
BRANCH   7   8
ATOM      8  C   LIG d   1       3.352  85.535 112.971  0.00  0.00     0.119 C 
BRANCH   8   9
ATOM      9  C   LIG d   1       4.316  86.632 113.463  0.00  0.00     0.028 C 
ATOM     10  C   LIG d   1       4.726  87.599 112.339  0.00  0.00     0.006 C 
ENDBRANCH   8   9
BRANCH   8  11
ATOM     11  C   LIG d   1       3.733  84.278 113.760  0.00  0.00     0.028 C 
ATOM     12  C   LIG d   1       4.867  83.479 113.097  0.00  0.00     0.006 C 
ENDBRANCH   8  11
ENDBRANCH   7   8
ENDBRANCH   1   7
BRANCH   6  13
ATOM     13  N   LIG d   1       3.219  83.234 109.443  0.00  0.00    -0.311 N 
ATOM     14  C   LIG d   1       3.897  82.089 109.491  0.00  0.00     0.210 C 
ATOM     15  C   LIG d   1       4.895  81.880 108.348  0.00  0.00     0.109 C 
ATOM     16  O   LIG d   1       3.742  81.211 110.353  0.00  0.00    -0.276 OA
ATOM     17  H   LIG d   1       3.385  83.874 108.691  0.00  0.00     0.149 HD
ENDBRANCH   6  13
BRANCH   5  18
ATOM     18  N   LIG d   1       0.518  81.872 109.870  0.00  0.00     0.381 N 
ATOM     19  H   LIG d   1       1.146  81.353 110.451  0.00  0.00    -0.090 HD
ATOM     20  H   LIG d   1       0.690  81.616 108.914  0.00  0.00    -0.090 HD
ATOM     21  H   LIG d   1      -0.424  81.661 110.114  0.00  0.00    -0.090 HD
ENDBRANCH   5  18
BRANCH   3  22
ATOM     22  C   LIG d   1      -1.057  85.942 111.843  0.00  0.00     0.382 C 
ATOM     23  O   LIG d   1      -1.574  85.739 112.967  0.00  0.00    -0.241 OA
ATOM     24  O   LIG d   1      -1.551  86.799 111.086  0.00  0.00    -0.241 OA
ENDBRANCH   3  22
TORSDOF 7
ENDMDL
MODEL 6
REMARK VINA RESULT:      -5.9      2.544      5.274
REMARK  7 active torsions:
REMARK  status: ('A' for Active; 'I' for Inactive)
REMARK    1  A    between atoms: C_2  and  C_3 
REMARK    2  A    between atoms: C_3  and  O_6 
REMARK    3  A    between atoms: C_3  and  C_4 
REMARK    4  A    between atoms: C_7  and  O_6 
REMARK    5  A    between atoms: C_9  and  C_10 
REMARK    6  A    between atoms: N_15  and  C_14 
REMARK    7  A    between atoms: N_20  and  C_19 
REMARK       I    between atoms: C_22  and  N_20 
ROOT
ATOM      1  C   LIG d   1       0.096  81.814 111.335  0.00  0.00     0.161 C 
ATOM      2  C   LIG d   1      -1.009  81.681 112.192  0.00  0.00     0.016 C 
ATOM      3  C   LIG d   1      -1.624  80.442 112.482  0.00  0.00     0.038 C 
ATOM      4  C   LIG d   1      -1.079  79.224 112.049  0.00  0.00     0.028 C 
ATOM      5  C   LIG d   1      -0.260  79.348 110.768  0.00  0.00    -0.047 C 
ATOM      6  C   LIG d   1       0.773  80.485 110.941  0.00  0.00     0.091 C 
ENDROOT
BRANCH   1   7
ATOM      7  O   LIG d   1       1.060  82.715 111.916  0.00  0.00    -0.368 OA
BRANCH   7   8
ATOM      8  C   LIG d   1       1.239  83.982 111.236  0.00  0.00     0.119 C 
BRANCH   8   9
ATOM      9  C   LIG d   1       0.703  85.086 112.168  0.00  0.00     0.028 C 
ATOM     10  C   LIG d   1      -0.775  85.416 111.897  0.00  0.00     0.006 C 
ENDBRANCH   8   9
BRANCH   8  11
ATOM     11  C   LIG d   1       0.377  84.063 109.973  0.00  0.00     0.028 C 
ATOM     12  C   LIG d   1       1.206  84.299 108.700  0.00  0.00     0.006 C 
ENDBRANCH   8  11
ENDBRANCH   7   8
ENDBRANCH   1   7
BRANCH   6  13
ATOM     13  N   LIG d   1       1.560  80.729 109.704  0.00  0.00    -0.311 N 
ATOM     14  C   LIG d   1       2.869  80.976 109.704  0.00  0.00     0.210 C 
ATOM     15  C   LIG d   1       3.481  81.220 108.321  0.00  0.00     0.109 C 
ATOM     16  O   LIG d   1       3.587  80.984 110.715  0.00  0.00    -0.276 OA
ATOM     17  H   LIG d   1       1.062  80.710 108.836  0.00  0.00     0.149 HD
ENDBRANCH   6  13
BRANCH   5  18
ATOM     18  N   LIG d   1       0.362  78.036 110.507  0.00  0.00     0.381 N 
ATOM     19  H   LIG d   1      -0.348  77.338 110.412  0.00  0.00    -0.090 HD
ATOM     20  H   LIG d   1       0.943  77.791 111.289  0.00  0.00    -0.090 HD
ATOM     21  H   LIG d   1       0.910  78.078 109.677  0.00  0.00    -0.090 HD
ENDBRANCH   5  18
BRANCH   3  22
ATOM     22  C   LIG d   1      -2.822  80.416 113.179  0.00  0.00     0.382 C 
ATOM     23  O   LIG d   1      -3.639  81.361 113.059  0.00  0.00    -0.241 OA
ATOM     24  O   LIG d   1      -3.077  79.481 113.962  0.00  0.00    -0.241 OA
ENDBRANCH   3  22
TORSDOF 7
ENDMDL
MODEL 7
REMARK VINA RESULT:      -5.6      2.958      5.250
REMARK  7 active torsions:
REMARK  status: ('A' for Active; 'I' for Inactive)
REMARK    1  A    between atoms: C_2  and  C_3 
REMARK    2  A    between atoms: C_3  and  O_6 
REMARK    3  A    between atoms: C_3  and  C_4 
REMARK    4  A    between atoms: C_7  and  O_6 
REMARK    5  A    between atoms: C_9  and  C_10 
REMARK    6  A    between atoms: N_15  and  C_14 
REMARK    7  A    between atoms: N_20  and  C_19 
REMARK       I    between atoms: C_22  and  N_20 
ROOT
ATOM      1  C   LIG d   1       2.840  84.027 110.479  0.00  0.00     0.161 C 
ATOM      2  C   LIG d   1       3.597  82.847 110.394  0.00  0.00     0.016 C 
ATOM      3  C   LIG d   1       3.516  81.947 109.306  0.00  0.00     0.038 C 
ATOM      4  C   LIG d   1       2.778  82.245 108.151  0.00  0.00     0.028 C 
ATOM      5  C   LIG d   1       1.604  83.184 108.408  0.00  0.00    -0.047 C 
ATOM      6  C   LIG d   1       2.113  84.424 109.177  0.00  0.00     0.091 C 
ENDROOT
BRANCH   1   7
ATOM      7  O   LIG d   1       3.673  85.110 110.937  0.00  0.00    -0.368 OA
BRANCH   7   8
ATOM      8  C   LIG d   1       3.382  85.622 112.261  0.00  0.00     0.119 C 
BRANCH   8   9
ATOM      9  C   LIG d   1       3.556  87.152 112.215  0.00  0.00     0.028 C 
ATOM     10  C   LIG d   1       2.245  87.881 111.877  0.00  0.00     0.006 C 
ENDBRANCH   8   9
BRANCH   8  11
ATOM     11  C   LIG d   1       4.407  85.128 113.287  0.00  0.00     0.028 C 
ATOM     12  C   LIG d   1       3.896  85.223 114.733  0.00  0.00     0.006 C 
ENDBRANCH   8  11
ENDBRANCH   7   8
ENDBRANCH   1   7
BRANCH   6  13
ATOM     13  N   LIG d   1       1.013  85.355 109.542  0.00  0.00    -0.311 N 
ATOM     14  C   LIG d   1      -0.070  84.980 110.221  0.00  0.00     0.210 C 
ATOM     15  C   LIG d   1      -1.091  86.093 110.475  0.00  0.00     0.109 C 
ATOM     16  O   LIG d   1      -0.267  83.838 110.664  0.00  0.00    -0.276 OA
ATOM     17  H   LIG d   1       1.106  86.308 109.249  0.00  0.00     0.149 HD
ENDBRANCH   6  13
BRANCH   5  18
ATOM     18  N   LIG d   1       1.007  83.519 107.101  0.00  0.00     0.381 N 
ATOM     19  H   LIG d   1       0.025  83.329 107.118  0.00  0.00    -0.090 HD
ATOM     20  H   LIG d   1       1.428  82.942 106.394  0.00  0.00    -0.090 HD
ATOM     21  H   LIG d   1       1.163  84.480 106.891  0.00  0.00    -0.090 HD
ENDBRANCH   5  18
BRANCH   3  22
ATOM     22  C   LIG d   1       4.147  80.715 109.385  0.00  0.00     0.382 C 
ATOM     23  O   LIG d   1       5.394  80.655 109.505  0.00  0.00    -0.241 OA
ATOM     24  O   LIG d   1       3.489  79.661 109.294  0.00  0.00    -0.241 OA
ENDBRANCH   3  22
TORSDOF 7
ENDMDL
MODEL 8
REMARK VINA RESULT:      -5.5      2.895      4.554
REMARK  7 active torsions:
REMARK  status: ('A' for Active; 'I' for Inactive)
REMARK    1  A    between atoms: C_2  and  C_3 
REMARK    2  A    between atoms: C_3  and  O_6 
REMARK    3  A    between atoms: C_3  and  C_4 
REMARK    4  A    between atoms: C_7  and  O_6 
REMARK    5  A    between atoms: C_9  and  C_10 
REMARK    6  A    between atoms: N_15  and  C_14 
REMARK    7  A    between atoms: N_20  and  C_19 
REMARK       I    between atoms: C_22  and  N_20 
ROOT
ATOM      1  C   LIG d   1       2.633  83.983 111.308  0.00  0.00     0.161 C 
ATOM      2  C   LIG d   1       2.891  85.016 112.224  0.00  0.00     0.016 C 
ATOM      3  C   LIG d   1       3.905  84.949 113.208  0.00  0.00     0.038 C 
ATOM      4  C   LIG d   1       4.835  83.899 113.243  0.00  0.00     0.028 C 
ATOM      5  C   LIG d   1       4.299  82.595 112.660  0.00  0.00    -0.047 C 
ATOM      6  C   LIG d   1       3.709  82.878 111.260  0.00  0.00     0.091 C 
ENDROOT
BRANCH   1   7
ATOM      7  O   LIG d   1       2.425  84.537 109.993  0.00  0.00    -0.368 OA
BRANCH   7   8
ATOM      8  C   LIG d   1       1.060  84.531 109.509  0.00  0.00     0.119 C 
BRANCH   8   9
ATOM      9  C   LIG d   1       1.112  84.338 107.981  0.00  0.00     0.028 C 
ATOM     10  C   LIG d   1       1.837  83.043 107.577  0.00  0.00     0.006 C 
ENDBRANCH   8   9
BRANCH   8  11
ATOM     11  C   LIG d   1       0.386  85.890 109.723  0.00  0.00     0.028 C 
ATOM     12  C   LIG d   1      -1.061  85.766 110.224  0.00  0.00     0.006 C 
ENDBRANCH   8  11
ENDBRANCH   7   8
ENDBRANCH   1   7
BRANCH   6  13
ATOM     13  N   LIG d   1       3.088  81.672 110.653  0.00  0.00    -0.311 N 
ATOM     14  C   LIG d   1       3.731  80.856 109.819  0.00  0.00     0.210 C 
ATOM     15  C   LIG d   1       2.899  79.682 109.292  0.00  0.00     0.109 C 
ATOM     16  O   LIG d   1       4.921  80.976 109.491  0.00  0.00    -0.276 OA
ATOM     17  H   LIG d   1       2.133  81.482 110.890  0.00  0.00     0.149 HD
ENDBRANCH   6  13
BRANCH   5  18
ATOM     18  N   LIG d   1       5.413  81.628 112.634  0.00  0.00     0.381 N 
ATOM     19  H   LIG d   1       5.581  81.331 111.694  0.00  0.00    -0.090 HD
ATOM     20  H   LIG d   1       5.157  80.823 113.179  0.00  0.00    -0.090 HD
ATOM     21  H   LIG d   1       6.235  82.045 113.011  0.00  0.00    -0.090 HD
ENDBRANCH   5  18
BRANCH   3  22
ATOM     22  C   LIG d   1       3.971  85.920 114.195  0.00  0.00     0.382 C 
ATOM     23  O   LIG d   1       4.757  85.779 115.162  0.00  0.00    -0.241 OA
ATOM     24  O   LIG d   1       3.222  86.915 114.153  0.00  0.00    -0.241 OA
ENDBRANCH   3  22
TORSDOF 7
ENDMDL
MODEL 9
REMARK VINA RESULT:      -5.4      2.442      4.560
REMARK  7 active torsions:
REMARK  status: ('A' for Active; 'I' for Inactive)
REMARK    1  A    between atoms: C_2  and  C_3 
REMARK    2  A    between atoms: C_3  and  O_6 
REMARK    3  A    between atoms: C_3  and  C_4 
REMARK    4  A    between atoms: C_7  and  O_6 
REMARK    5  A    between atoms: C_9  and  C_10 
REMARK    6  A    between atoms: N_15  and  C_14 
REMARK    7  A    between atoms: N_20  and  C_19 
REMARK       I    between atoms: C_22  and  N_20 
ROOT
ATOM      1  C   LIG d   1       2.639  83.868 111.165  0.00  0.00     0.161 C 
ATOM      2  C   LIG d   1       2.464  84.006 109.778  0.00  0.00     0.016 C 
ATOM      3  C   LIG d   1       1.873  83.011 108.965  0.00  0.00     0.038 C 
ATOM      4  C   LIG d   1       1.276  81.866 109.512  0.00  0.00     0.028 C 
ATOM      5  C   LIG d   1       1.877  81.449 110.850  0.00  0.00    -0.047 C 
ATOM      6  C   LIG d   1       1.894  82.672 111.795  0.00  0.00     0.091 C 
ENDROOT
BRANCH   1   7
ATOM      7  O   LIG d   1       2.272  85.093 111.828  0.00  0.00    -0.368 OA
BRANCH   7   8
ATOM      8  C   LIG d   1       1.471  86.021 111.056  0.00  0.00     0.119 C 
BRANCH   8   9
ATOM      9  C   LIG d   1       1.914  87.446 111.440  0.00  0.00     0.028 C 
ATOM     10  C   LIG d   1       3.269  87.463 112.168  0.00  0.00     0.006 C 
ENDBRANCH   8   9
BRANCH   8  11
ATOM     11  C   LIG d   1      -0.008  85.938 111.444  0.00  0.00     0.028 C 
ATOM     12  C   LIG d   1      -0.927  85.682 110.239  0.00  0.00     0.006 C 
ENDBRANCH   8  11
ENDBRANCH   7   8
ENDBRANCH   1   7
BRANCH   6  13
ATOM     13  N   LIG d   1       2.544  82.373 113.097  0.00  0.00    -0.311 N 
ATOM     14  C   LIG d   1       1.879  81.932 114.164  0.00  0.00     0.210 C 
ATOM     15  C   LIG d   1       2.737  81.706 115.413  0.00  0.00     0.109 C 
ATOM     16  O   LIG d   1       0.666  81.676 114.185  0.00  0.00    -0.276 OA
ATOM     17  H   LIG d   1       3.532  82.523 113.159  0.00  0.00     0.149 HD
ENDBRANCH   6  13
BRANCH   5  18
ATOM     18  N   LIG d   1       1.073  80.327 111.370  0.00  0.00     0.381 N 
ATOM     19  H   LIG d   1       0.680  80.575 112.256  0.00  0.00    -0.090 HD
ATOM     20  H   LIG d   1       1.672  79.532 111.502  0.00  0.00    -0.090 HD
ATOM     21  H   LIG d   1       0.346  80.102 110.727  0.00  0.00    -0.090 HD
ENDBRANCH   5  18
BRANCH   3  22
ATOM     22  C   LIG d   1       1.911  83.140 107.585  0.00  0.00     0.382 C 
ATOM     23  O   LIG d   1       2.842  82.611 106.931  0.00  0.00    -0.241 OA
ATOM     24  O   LIG d   1       1.051  83.815 106.989  0.00  0.00    -0.241 OA
ENDBRANCH   3  22
TORSDOF 7
ENDMDL
