MODEL 1
REMARK VINA RESULT:      -6.8      0.000      0.000
REMARK  7 active torsions:
REMARK  status: ('A' for Active; 'I' for Inactive)
REMARK    1  A    between atoms: C_2  and  C_3 
REMARK    2  A    between atoms: C_3  and  O_6 
REMARK    3  A    between atoms: C_3  and  C_4 
REMARK    4  A    between atoms: C_7  and  O_6 
REMARK    5  A    between atoms: C_9  and  C_10 
REMARK    6  A    between atoms: N_15  and  C_14 
REMARK    7  A    between atoms: N_20  and  C_19 
REMARK       I    between atoms: C_22  and  N_20 
ROOT
ATOM      1  C   LIG d   1       1.149  83.770 109.422  0.00  0.00     0.161 C 
ATOM      2  C   LIG d   1       0.806  85.065 109.844  0.00  0.00     0.016 C 
ATOM      3  C   LIG d   1      -0.066  85.326 110.926  0.00  0.00     0.038 C 
ATOM      4  C   LIG d   1      -0.538  84.302 111.761  0.00  0.00     0.028 C 
ATOM      5  C   LIG d   1      -0.624  82.946 111.068  0.00  0.00    -0.047 C 
ATOM      6  C   LIG d   1       0.732  82.643 110.390  0.00  0.00     0.091 C 
ENDROOT
BRANCH   1   7
ATOM      7  O   LIG d   1       2.564  83.702 109.154  0.00  0.00    -0.368 OA
BRANCH   7   8
ATOM      8  C   LIG d   1       3.421  83.490 110.303  0.00  0.00     0.119 C 
BRANCH   8   9
ATOM      9  C   LIG d   1       4.085  84.839 110.640  0.00  0.00     0.028 C 
ATOM     10  C   LIG d   1       3.805  85.287 112.084  0.00  0.00     0.006 C 
ENDBRANCH   8   9
BRANCH   8  11
ATOM     11  C   LIG d   1       4.576  82.541 109.970  0.00  0.00     0.028 C 
ATOM     12  C   LIG d   1       4.454  81.925 108.567  0.00  0.00     0.006 C 
ENDBRANCH   8  11
ENDBRANCH   7   8
ENDBRANCH   1   7
BRANCH   6  13
ATOM     13  N   LIG d   1       0.709  81.373 109.618  0.00  0.00    -0.311 N 
ATOM     14  C   LIG d   1       1.410  80.293 109.961  0.00  0.00     0.210 C 
ATOM     15  C   LIG d   1       1.257  79.097 109.017  0.00  0.00     0.109 C 
ATOM     16  O   LIG d   1       2.118  80.203 110.975  0.00  0.00    -0.276 OA
ATOM     17  H   LIG d   1       0.135  81.348 108.798  0.00  0.00     0.149 HD
ENDBRANCH   6  13
BRANCH   5  18
ATOM     18  N   LIG d   1      -0.997  81.947 112.087  0.00  0.00     0.381 N 
ATOM     19  H   LIG d   1      -0.746  81.032 111.772  0.00  0.00    -0.090 HD
ATOM     20  H   LIG d   1      -1.993  81.974 112.219  0.00  0.00    -0.090 HD
ATOM     21  H   LIG d   1      -0.535  82.148 112.947  0.00  0.00    -0.090 HD
ENDBRANCH   5  18
BRANCH   3  22
ATOM     22  C   LIG d   1      -0.507  86.620 111.157  0.00  0.00     0.382 C 
ATOM     23  O   LIG d   1      -1.666  86.958 110.817  0.00  0.00    -0.241 OA
ATOM     24  O   LIG d   1       0.256  87.466 111.661  0.00  0.00    -0.241 OA
ENDBRANCH   3  22
TORSDOF 7
ENDMDL
MODEL 2
REMARK VINA RESULT:      -6.2      2.331      4.582
REMARK  7 active torsions:
REMARK  status: ('A' for Active; 'I' for Inactive)
REMARK    1  A    between atoms: C_2  and  C_3 
REMARK    2  A    between atoms: C_3  and  O_6 
REMARK    3  A    between atoms: C_3  and  C_4 
REMARK    4  A    between atoms: C_7  and  O_6 
REMARK    5  A    between atoms: C_9  and  C_10 
REMARK    6  A    between atoms: N_15  and  C_14 
REMARK    7  A    between atoms: N_20  and  C_19 
REMARK       I    between atoms: C_22  and  N_20 
ROOT
ATOM      1  C   LIG d   1       1.352  82.169 111.839  0.00  0.00     0.161 C 
ATOM      2  C   LIG d   1       2.402  82.717 111.083  0.00  0.00     0.016 C 
ATOM      3  C   LIG d   1       2.595  82.447 109.709  0.00  0.00     0.038 C 
ATOM      4  C   LIG d   1       1.656  81.725 108.957  0.00  0.00     0.028 C 
ATOM      5  C   LIG d   1       0.848  80.733 109.787  0.00  0.00    -0.047 C 
ATOM      6  C   LIG d   1       0.255  81.469 111.010  0.00  0.00     0.091 C 
ENDROOT
BRANCH   1   7
ATOM      7  O   LIG d   1       0.772  83.187 112.679  0.00  0.00    -0.368 OA
BRANCH   7   8
ATOM      8  C   LIG d   1       0.864  84.547 112.188  0.00  0.00     0.119 C 
BRANCH   8   9
ATOM      9  C   LIG d   1       1.315  85.434 113.365  0.00  0.00     0.028 C 
ATOM     10  C   LIG d   1       1.980  86.739 112.895  0.00  0.00     0.006 C 
ENDBRANCH   8   9
BRANCH   8  11
ATOM     11  C   LIG d   1      -0.509  85.086 111.777  0.00  0.00     0.028 C 
ATOM     12  C   LIG d   1      -0.561  85.526 110.306  0.00  0.00     0.006 C 
ENDBRANCH   8  11
ENDBRANCH   7   8
ENDBRANCH   1   7
BRANCH   6  13
ATOM     13  N   LIG d   1      -0.481  80.553 111.920  0.00  0.00    -0.311 N 
ATOM     14  C   LIG d   1      -1.652  80.857 112.476  0.00  0.00     0.210 C 
ATOM     15  C   LIG d   1      -2.230  79.779 113.399  0.00  0.00     0.109 C 
ATOM     16  O   LIG d   1      -2.283  81.904 112.268  0.00  0.00    -0.276 OA
ATOM     17  H   LIG d   1      -0.055  79.669 112.119  0.00  0.00     0.149 HD
ENDBRANCH   6  13
BRANCH   5  18
ATOM     18  N   LIG d   1      -0.183  80.151 108.907  0.00  0.00     0.381 N 
ATOM     19  H   LIG d   1      -0.392  80.787 108.163  0.00  0.00    -0.090 HD
ATOM     20  H   LIG d   1      -1.021  80.003 109.441  0.00  0.00    -0.090 HD
ATOM     21  H   LIG d   1       0.138  79.285 108.532  0.00  0.00    -0.090 HD
ENDBRANCH   5  18
BRANCH   3  22
ATOM     22  C   LIG d   1       3.758  82.867 109.083  0.00  0.00     0.382 C 
ATOM     23  O   LIG d   1       4.380  82.085 108.325  0.00  0.00    -0.241 OA
ATOM     24  O   LIG d   1       4.217  84.005 109.300  0.00  0.00    -0.241 OA
ENDBRANCH   3  22
TORSDOF 7
ENDMDL
MODEL 3
REMARK VINA RESULT:      -6.2      2.653      4.387
REMARK  7 active torsions:
REMARK  status: ('A' for Active; 'I' for Inactive)
REMARK    1  A    between atoms: C_2  and  C_3 
REMARK    2  A    between atoms: C_3  and  O_6 
REMARK    3  A    between atoms: C_3  and  C_4 
REMARK    4  A    between atoms: C_7  and  O_6 
REMARK    5  A    between atoms: C_9  and  C_10 
REMARK    6  A    between atoms: N_15  and  C_14 
REMARK    7  A    between atoms: N_20  and  C_19 
REMARK       I    between atoms: C_22  and  N_20 
ROOT
ATOM      1  C   LIG d   1       0.204  82.237 111.237  0.00  0.00     0.161 C 
ATOM      2  C   LIG d   1      -0.949  81.992 112.001  0.00  0.00     0.016 C 
ATOM      3  C   LIG d   1      -1.511  80.706 112.171  0.00  0.00     0.038 C 
ATOM      4  C   LIG d   1      -0.868  79.548 111.709  0.00  0.00     0.028 C 
ATOM      5  C   LIG d   1       0.030  79.796 110.501  0.00  0.00    -0.047 C 
ATOM      6  C   LIG d   1       0.982  80.972 110.817  0.00  0.00     0.091 C 
ENDROOT
BRANCH   1   7
ATOM      7  O   LIG d   1       1.071  83.149 111.939  0.00  0.00    -0.368 OA
BRANCH   7   8
ATOM      8  C   LIG d   1       1.163  84.488 111.395  0.00  0.00     0.119 C 
BRANCH   8   9
ATOM      9  C   LIG d   1       0.460  85.439 112.383  0.00  0.00     0.028 C 
ATOM     10  C   LIG d   1      -0.773  86.119 111.765  0.00  0.00     0.006 C 
ENDBRANCH   8   9
BRANCH   8  11
ATOM     11  C   LIG d   1       0.379  84.612 110.085  0.00  0.00     0.028 C 
ATOM     12  C   LIG d   1       1.285  84.874 108.871  0.00  0.00     0.006 C 
ENDBRANCH   8  11
ENDBRANCH   7   8
ENDBRANCH   1   7
BRANCH   6  13
ATOM     13  N   LIG d   1       1.838  81.335 109.657  0.00  0.00    -0.311 N 
ATOM     14  C   LIG d   1       3.159  81.485 109.739  0.00  0.00     0.210 C 
ATOM     15  C   LIG d   1       3.847  81.881 108.429  0.00  0.00     0.109 C 
ATOM     16  O   LIG d   1       3.829  81.296 110.765  0.00  0.00    -0.276 OA
ATOM     17  H   LIG d   1       1.379  81.477 108.778  0.00  0.00     0.149 HD
ENDBRANCH   6  13
BRANCH   5  18
ATOM     18  N   LIG d   1       0.742  78.537 110.210  0.00  0.00     0.381 N 
ATOM     19  H   LIG d   1       0.801  78.403 109.221  0.00  0.00    -0.090 HD
ATOM     20  H   LIG d   1       0.223  77.772 110.602  0.00  0.00    -0.090 HD
ATOM     21  H   LIG d   1       1.657  78.564 110.604  0.00  0.00    -0.090 HD
ENDBRANCH   5  18
BRANCH   3  22
ATOM     22  C   LIG d   1      -2.752  80.573 112.777  0.00  0.00     0.382 C 
ATOM     23  O   LIG d   1      -3.002  79.564 113.479  0.00  0.00    -0.241 OA
ATOM     24  O   LIG d   1      -3.639  81.428 112.593  0.00  0.00    -0.241 OA
ENDBRANCH   3  22
TORSDOF 7
ENDMDL
MODEL 4
REMARK VINA RESULT:      -6.1      2.580      4.799
REMARK  7 active torsions:
REMARK  status: ('A' for Active; 'I' for Inactive)
REMARK    1  A    between atoms: C_2  and  C_3 
REMARK    2  A    between atoms: C_3  and  O_6 
REMARK    3  A    between atoms: C_3  and  C_4 
REMARK    4  A    between atoms: C_7  and  O_6 
REMARK    5  A    between atoms: C_9  and  C_10 
REMARK    6  A    between atoms: N_15  and  C_14 
REMARK    7  A    between atoms: N_20  and  C_19 
REMARK       I    between atoms: C_22  and  N_20 
ROOT
ATOM      1  C   LIG d   1       2.432  83.158 111.655  0.00  0.00     0.161 C 
ATOM      2  C   LIG d   1       1.387  82.232 111.500  0.00  0.00     0.016 C 
ATOM      3  C   LIG d   1       0.019  82.588 111.541  0.00  0.00     0.038 C 
ATOM      4  C   LIG d   1      -0.397  83.927 111.590  0.00  0.00     0.028 C 
ATOM      5  C   LIG d   1       0.616  84.852 112.256  0.00  0.00    -0.047 C 
ATOM      6  C   LIG d   1       1.999  84.638 111.599  0.00  0.00     0.091 C 
ENDROOT
BRANCH   1   7
ATOM      7  O   LIG d   1       3.463  82.899 110.681  0.00  0.00    -0.368 OA
BRANCH   7   8
ATOM      8  C   LIG d   1       3.159  81.893 109.684  0.00  0.00     0.119 C 
BRANCH   8   9
ATOM      9  C   LIG d   1       4.297  80.854 109.713  0.00  0.00     0.028 C 
ATOM     10  C   LIG d   1       3.799  79.449 110.093  0.00  0.00     0.006 C 
ENDBRANCH   8   9
BRANCH   8  11
ATOM     11  C   LIG d   1       3.185  82.483 108.271  0.00  0.00     0.028 C 
ATOM     12  C   LIG d   1       1.859  83.154 107.880  0.00  0.00     0.006 C 
ENDBRANCH   8  11
ENDBRANCH   7   8
ENDBRANCH   1   7
BRANCH   6  13
ATOM     13  N   LIG d   1       3.066  85.444 112.247  0.00  0.00    -0.311 N 
ATOM     14  C   LIG d   1       3.317  86.714 111.936  0.00  0.00     0.210 C 
ATOM     15  C   LIG d   1       4.474  87.353 112.710  0.00  0.00     0.109 C 
ATOM     16  O   LIG d   1       2.670  87.382 111.115  0.00  0.00    -0.276 OA
ATOM     17  H   LIG d   1       3.619  84.989 112.948  0.00  0.00     0.149 HD
ENDBRANCH   6  13
BRANCH   5  18
ATOM     18  N   LIG d   1       0.118  86.234 112.115  0.00  0.00     0.381 N 
ATOM     19  H   LIG d   1       0.093  86.677 113.012  0.00  0.00    -0.090 HD
ATOM     20  H   LIG d   1      -0.818  86.206 111.751  0.00  0.00    -0.090 HD
ATOM     21  H   LIG d   1       0.708  86.748 111.498  0.00  0.00    -0.090 HD
ENDBRANCH   5  18
BRANCH   3  22
ATOM     22  C   LIG d   1      -0.949  81.596 111.573  0.00  0.00     0.382 C 
ATOM     23  O   LIG d   1      -2.030  81.795 112.177  0.00  0.00    -0.241 OA
ATOM     24  O   LIG d   1      -0.736  80.489 111.044  0.00  0.00    -0.241 OA
ENDBRANCH   3  22
TORSDOF 7
ENDMDL
MODEL 5
REMARK VINA RESULT:      -5.7      1.711      4.915
REMARK  7 active torsions:
REMARK  status: ('A' for Active; 'I' for Inactive)
REMARK    1  A    between atoms: C_2  and  C_3 
REMARK    2  A    between atoms: C_3  and  O_6 
REMARK    3  A    between atoms: C_3  and  C_4 
REMARK    4  A    between atoms: C_7  and  O_6 
REMARK    5  A    between atoms: C_9  and  C_10 
REMARK    6  A    between atoms: N_15  and  C_14 
REMARK    7  A    between atoms: N_20  and  C_19 
REMARK       I    between atoms: C_22  and  N_20 
ROOT
ATOM      1  C   LIG d   1       1.628  81.754 110.690  0.00  0.00     0.161 C 
ATOM      2  C   LIG d   1       1.590  80.437 110.203  0.00  0.00     0.016 C 
ATOM      3  C   LIG d   1       0.481  79.576 110.371  0.00  0.00     0.038 C 
ATOM      4  C   LIG d   1      -0.733  80.028 110.910  0.00  0.00     0.028 C 
ATOM      5  C   LIG d   1      -0.570  81.201 111.871  0.00  0.00    -0.047 C 
ATOM      6  C   LIG d   1       0.271  82.300 111.183  0.00  0.00     0.091 C 
ENDROOT
BRANCH   1   7
ATOM      7  O   LIG d   1       2.187  82.629 109.691  0.00  0.00    -0.368 OA
BRANCH   7   8
ATOM      8  C   LIG d   1       3.405  83.321 110.059  0.00  0.00     0.119 C 
BRANCH   8   9
ATOM      9  C   LIG d   1       3.138  84.833 109.923  0.00  0.00     0.028 C 
ATOM     10  C   LIG d   1       3.722  85.640 111.094  0.00  0.00     0.006 C 
ENDBRANCH   8   9
BRANCH   8  11
ATOM     11  C   LIG d   1       4.538  83.019 109.074  0.00  0.00     0.028 C 
ATOM     12  C   LIG d   1       4.283  81.752 108.242  0.00  0.00     0.006 C 
ENDBRANCH   8  11
ENDBRANCH   7   8
ENDBRANCH   1   7
BRANCH   6  13
ATOM     13  N   LIG d   1       0.550  83.448 112.084  0.00  0.00    -0.311 N 
ATOM     14  C   LIG d   1       0.035  84.663 111.904  0.00  0.00     0.210 C 
ATOM     15  C   LIG d   1       0.466  85.708 112.938  0.00  0.00     0.109 C 
ATOM     16  O   LIG d   1      -0.764  84.967 111.006  0.00  0.00    -0.276 OA
ATOM     17  H   LIG d   1       1.163  83.283 112.858  0.00  0.00     0.149 HD
ENDBRANCH   6  13
BRANCH   5  18
ATOM     18  N   LIG d   1      -1.920  81.658 112.249  0.00  0.00     0.381 N 
ATOM     19  H   LIG d   1      -1.944  82.658 112.277  0.00  0.00    -0.090 HD
ATOM     20  H   LIG d   1      -2.135  81.312 113.168  0.00  0.00    -0.090 HD
ATOM     21  H   LIG d   1      -2.591  81.320 111.594  0.00  0.00    -0.090 HD
ENDBRANCH   5  18
BRANCH   3  22
ATOM     22  C   LIG d   1       0.593  78.236 110.033  0.00  0.00     0.382 C 
ATOM     23  O   LIG d   1      -0.318  77.433 110.345  0.00  0.00    -0.241 OA
ATOM     24  O   LIG d   1       1.615  77.813 109.461  0.00  0.00    -0.241 OA
ENDBRANCH   3  22
TORSDOF 7
ENDMDL
MODEL 6
REMARK VINA RESULT:      -5.6      1.943      5.171
REMARK  7 active torsions:
REMARK  status: ('A' for Active; 'I' for Inactive)
REMARK    1  A    between atoms: C_2  and  C_3 
REMARK    2  A    between atoms: C_3  and  O_6 
REMARK    3  A    between atoms: C_3  and  C_4 
REMARK    4  A    between atoms: C_7  and  O_6 
REMARK    5  A    between atoms: C_9  and  C_10 
REMARK    6  A    between atoms: N_15  and  C_14 
REMARK    7  A    between atoms: N_20  and  C_19 
REMARK       I    between atoms: C_22  and  N_20 
ROOT
ATOM      1  C   LIG d   1       2.576  81.922 111.722  0.00  0.00     0.161 C 
ATOM      2  C   LIG d   1       2.463  80.751 110.954  0.00  0.00     0.016 C 
ATOM      3  C   LIG d   1       1.231  80.252 110.472  0.00  0.00     0.038 C 
ATOM      4  C   LIG d   1       0.037  80.977 110.599  0.00  0.00     0.028 C 
ATOM      5  C   LIG d   1       0.022  81.914 111.802  0.00  0.00    -0.047 C 
ATOM      6  C   LIG d   1       1.299  82.786 111.775  0.00  0.00     0.091 C 
ENDROOT
BRANCH   1   7
ATOM      7  O   LIG d   1       3.692  82.706 111.255  0.00  0.00    -0.368 OA
BRANCH   7   8
ATOM      8  C   LIG d   1       3.517  83.368 109.978  0.00  0.00     0.119 C 
BRANCH   8   9
ATOM      9  C   LIG d   1       4.696  82.954 109.076  0.00  0.00     0.028 C 
ATOM     10  C   LIG d   1       4.318  81.832 108.095  0.00  0.00     0.006 C 
ENDBRANCH   8   9
BRANCH   8  11
ATOM     11  C   LIG d   1       3.628  84.889 110.119  0.00  0.00     0.028 C 
ATOM     12  C   LIG d   1       4.213  85.321 111.473  0.00  0.00     0.006 C 
ENDBRANCH   8  11
ENDBRANCH   7   8
ENDBRANCH   1   7
BRANCH   6  13
ATOM     13  N   LIG d   1       1.405  83.673 112.963  0.00  0.00    -0.311 N 
ATOM     14  C   LIG d   1       1.074  84.963 112.947  0.00  0.00     0.210 C 
ATOM     15  C   LIG d   1       1.279  85.699 114.274  0.00  0.00     0.109 C 
ATOM     16  O   LIG d   1       0.601  85.559 111.968  0.00  0.00    -0.276 OA
ATOM     17  H   LIG d   1       1.750  83.263 113.809  0.00  0.00     0.149 HD
ENDBRANCH   6  13
BRANCH   5  18
ATOM     18  N   LIG d   1      -1.220  82.707 111.734  0.00  0.00     0.381 N 
ATOM     19  H   LIG d   1      -2.009  82.115 111.904  0.00  0.00    -0.090 HD
ATOM     20  H   LIG d   1      -1.309  83.093 110.811  0.00  0.00    -0.090 HD
ATOM     21  H   LIG d   1      -1.194  83.440 112.408  0.00  0.00    -0.090 HD
ENDBRANCH   5  18
BRANCH   3  22
ATOM     22  C   LIG d   1       1.179  78.994 109.891  0.00  0.00     0.382 C 
ATOM     23  O   LIG d   1       2.194  78.525 109.320  0.00  0.00    -0.241 OA
ATOM     24  O   LIG d   1       0.118  78.342 109.890  0.00  0.00    -0.241 OA
ENDBRANCH   3  22
TORSDOF 7
ENDMDL
MODEL 7
REMARK VINA RESULT:      -5.4      2.456      4.135
REMARK  7 active torsions:
REMARK  status: ('A' for Active; 'I' for Inactive)
REMARK    1  A    between atoms: C_2  and  C_3 
REMARK    2  A    between atoms: C_3  and  O_6 
REMARK    3  A    between atoms: C_3  and  C_4 
REMARK    4  A    between atoms: C_7  and  O_6 
REMARK    5  A    between atoms: C_9  and  C_10 
REMARK    6  A    between atoms: N_15  and  C_14 
REMARK    7  A    between atoms: N_20  and  C_19 
REMARK       I    between atoms: C_22  and  N_20 
ROOT
ATOM      1  C   LIG d   1       1.218  82.664 111.195  0.00  0.00     0.161 C 
ATOM      2  C   LIG d   1       0.029  82.292 111.842  0.00  0.00     0.016 C 
ATOM      3  C   LIG d   1      -0.626  81.059 111.617  0.00  0.00     0.038 C 
ATOM      4  C   LIG d   1      -0.051  80.045 110.838  0.00  0.00     0.028 C 
ATOM      5  C   LIG d   1       0.899  80.570 109.766  0.00  0.00    -0.047 C 
ATOM      6  C   LIG d   1       1.920  81.525 110.425  0.00  0.00     0.091 C 
ENDROOT
BRANCH   1   7
ATOM      7  O   LIG d   1       2.125  83.260 112.144  0.00  0.00    -0.368 OA
BRANCH   7   8
ATOM      8  C   LIG d   1       2.378  84.677 111.981  0.00  0.00     0.119 C 
BRANCH   8   9
ATOM      9  C   LIG d   1       1.545  85.161 110.778  0.00  0.00     0.028 C 
ATOM     10  C   LIG d   1       0.632  86.346 111.135  0.00  0.00     0.006 C 
ENDBRANCH   8   9
BRANCH   8  11
ATOM     11  C   LIG d   1       3.837  84.942 111.597  0.00  0.00     0.028 C 
ATOM     12  C   LIG d   1       4.271  86.391 111.870  0.00  0.00     0.006 C 
ENDBRANCH   8  11
ENDBRANCH   7   8
ENDBRANCH   1   7
BRANCH   6  13
ATOM     13  N   LIG d   1       2.834  82.149 109.433  0.00  0.00    -0.311 N 
ATOM     14  C   LIG d   1       4.044  81.671 109.150  0.00  0.00     0.210 C 
ATOM     15  C   LIG d   1       4.831  82.478 108.112  0.00  0.00     0.109 C 
ATOM     16  O   LIG d   1       4.528  80.638 109.635  0.00  0.00    -0.276 OA
ATOM     17  H   LIG d   1       2.509  82.975 108.969  0.00  0.00     0.149 HD
ENDBRANCH   6  13
BRANCH   5  18
ATOM     18  N   LIG d   1       1.531  79.404 109.121  0.00  0.00     0.381 N 
ATOM     19  H   LIG d   1       2.117  79.709 108.370  0.00  0.00    -0.090 HD
ATOM     20  H   LIG d   1       0.813  78.813 108.741  0.00  0.00    -0.090 HD
ATOM     21  H   LIG d   1       2.070  78.896 109.788  0.00  0.00    -0.090 HD
ENDBRANCH   5  18
BRANCH   3  22
ATOM     22  C   LIG d   1      -1.891  80.847 112.145  0.00  0.00     0.382 C 
ATOM     23  O   LIG d   1      -2.346  79.681 112.232  0.00  0.00    -0.241 OA
ATOM     24  O   LIG d   1      -2.600  81.810 112.493  0.00  0.00    -0.241 OA
ENDBRANCH   3  22
TORSDOF 7
ENDMDL
MODEL 8
REMARK VINA RESULT:      -5.2      2.428      5.750
REMARK  7 active torsions:
REMARK  status: ('A' for Active; 'I' for Inactive)
REMARK    1  A    between atoms: C_2  and  C_3 
REMARK    2  A    between atoms: C_3  and  O_6 
REMARK    3  A    between atoms: C_3  and  C_4 
REMARK    4  A    between atoms: C_7  and  O_6 
REMARK    5  A    between atoms: C_9  and  C_10 
REMARK    6  A    between atoms: N_15  and  C_14 
REMARK    7  A    between atoms: N_20  and  C_19 
REMARK       I    between atoms: C_22  and  N_20 
ROOT
ATOM      1  C   LIG d   1       1.192  83.020 109.798  0.00  0.00     0.161 C 
ATOM      2  C   LIG d   1       2.219  82.157 109.381  0.00  0.00     0.016 C 
ATOM      3  C   LIG d   1       3.592  82.481 109.473  0.00  0.00     0.038 C 
ATOM      4  C   LIG d   1       4.039  83.636 110.131  0.00  0.00     0.028 C 
ATOM      5  C   LIG d   1       3.023  84.773 110.116  0.00  0.00    -0.047 C 
ATOM      6  C   LIG d   1       1.664  84.238 110.620  0.00  0.00     0.091 C 
ENDROOT
BRANCH   1   7
ATOM      7  O   LIG d   1       0.196  82.278 110.528  0.00  0.00    -0.368 OA
BRANCH   7   8
ATOM      8  C   LIG d   1       0.603  80.977 111.020  0.00  0.00     0.119 C 
BRANCH   8   9
ATOM      9  C   LIG d   1      -0.394  79.940 110.467  0.00  0.00     0.028 C 
ATOM     10  C   LIG d   1       0.305  78.808 109.696  0.00  0.00     0.006 C 
ENDBRANCH   8   9
BRANCH   8  11
ATOM     11  C   LIG d   1       0.475  80.892 112.544  0.00  0.00     0.028 C 
ATOM     12  C   LIG d   1       1.732  81.387 113.276  0.00  0.00     0.006 C 
ENDBRANCH   8  11
ENDBRANCH   7   8
ENDBRANCH   1   7
BRANCH   6  13
ATOM     13  N   LIG d   1       0.591  85.265 110.557  0.00  0.00    -0.311 N 
ATOM     14  C   LIG d   1      -0.123  85.644 111.615  0.00  0.00     0.210 C 
ATOM     15  C   LIG d   1      -1.192  86.703 111.328  0.00  0.00     0.109 C 
ATOM     16  O   LIG d   1       0.048  85.228 112.771  0.00  0.00    -0.276 OA
ATOM     17  H   LIG d   1       0.407  85.678 109.664  0.00  0.00     0.149 HD
ENDBRANCH   6  13
BRANCH   5  18
ATOM     18  N   LIG d   1       3.561  85.863 110.952  0.00  0.00     0.381 N 
ATOM     19  H   LIG d   1       4.505  85.656 111.211  0.00  0.00    -0.090 HD
ATOM     20  H   LIG d   1       3.012  85.931 111.791  0.00  0.00    -0.090 HD
ATOM     21  H   LIG d   1       3.527  86.725 110.453  0.00  0.00    -0.090 HD
ENDBRANCH   5  18
BRANCH   3  22
ATOM     22  C   LIG d   1       4.533  81.662 108.867  0.00  0.00     0.382 C 
ATOM     23  O   LIG d   1       5.007  81.974 107.748  0.00  0.00    -0.241 OA
ATOM     24  O   LIG d   1       4.881  80.594 109.404  0.00  0.00    -0.241 OA
ENDBRANCH   3  22
TORSDOF 7
ENDMDL
MODEL 9
REMARK VINA RESULT:      -5.2      1.845      3.992
REMARK  7 active torsions:
REMARK  status: ('A' for Active; 'I' for Inactive)
REMARK    1  A    between atoms: C_2  and  C_3 
REMARK    2  A    between atoms: C_3  and  O_6 
REMARK    3  A    between atoms: C_3  and  C_4 
REMARK    4  A    between atoms: C_7  and  O_6 
REMARK    5  A    between atoms: C_9  and  C_10 
REMARK    6  A    between atoms: N_15  and  C_14 
REMARK    7  A    between atoms: N_20  and  C_19 
REMARK       I    between atoms: C_22  and  N_20 
ROOT
ATOM      1  C   LIG d   1       1.103  82.997 111.630  0.00  0.00     0.161 C 
ATOM      2  C   LIG d   1       0.432  84.174 112.004  0.00  0.00     0.016 C 
ATOM      3  C   LIG d   1       0.102  85.204 111.094  0.00  0.00     0.038 C 
ATOM      4  C   LIG d   1       0.288  85.059 109.711  0.00  0.00     0.028 C 
ATOM      5  C   LIG d   1       1.420  84.104 109.349  0.00  0.00    -0.047 C 
ATOM      6  C   LIG d   1       1.215  82.773 110.108  0.00  0.00     0.091 C 
ENDROOT
BRANCH   1   7
ATOM      7  O   LIG d   1       0.482  81.859 112.260  0.00  0.00    -0.368 OA
BRANCH   7   8
ATOM      8  C   LIG d   1      -0.624  81.259 111.543  0.00  0.00     0.119 C 
BRANCH   8   9
ATOM      9  C   LIG d   1      -1.882  81.412 112.419  0.00  0.00     0.028 C 
ATOM     10  C   LIG d   1      -2.420  80.059 112.915  0.00  0.00     0.006 C 
ENDBRANCH   8   9
BRANCH   8  11
ATOM     11  C   LIG d   1      -0.426  79.749 111.377  0.00  0.00     0.028 C 
ATOM     12  C   LIG d   1      -0.301  79.322 109.906  0.00  0.00     0.006 C 
ENDBRANCH   8  11
ENDBRANCH   7   8
ENDBRANCH   1   7
BRANCH   6  13
ATOM     13  N   LIG d   1       2.325  81.811 109.876  0.00  0.00    -0.311 N 
ATOM     14  C   LIG d   1       3.604  82.173 109.800  0.00  0.00     0.210 C 
ATOM     15  C   LIG d   1       4.585  81.026 109.535  0.00  0.00     0.109 C 
ATOM     16  O   LIG d   1       4.023  83.329 109.959  0.00  0.00    -0.276 OA
ATOM     17  H   LIG d   1       2.077  80.847 109.767  0.00  0.00     0.149 HD
ENDBRANCH   6  13
BRANCH   5  18
ATOM     18  N   LIG d   1       1.414  83.940 107.883  0.00  0.00     0.381 N 
ATOM     19  H   LIG d   1       2.131  84.508 107.476  0.00  0.00    -0.090 HD
ATOM     20  H   LIG d   1       0.527  84.248 107.525  0.00  0.00    -0.090 HD
ATOM     21  H   LIG d   1       1.562  82.984 107.646  0.00  0.00    -0.090 HD
ENDBRANCH   5  18
BRANCH   3  22
ATOM     22  C   LIG d   1      -0.385  86.412 111.570  0.00  0.00     0.382 C 
ATOM     23  O   LIG d   1      -1.590  86.514 111.904  0.00  0.00    -0.241 OA
ATOM     24  O   LIG d   1       0.355  87.412 111.628  0.00  0.00    -0.241 OA
ENDBRANCH   3  22
TORSDOF 7
ENDMDL
