MODEL 1
REMARK VINA RESULT:      -6.4      0.000      0.000
REMARK  7 active torsions:
REMARK  status: ('A' for Active; 'I' for Inactive)
REMARK    1  A    between atoms: C_2  and  C_3 
REMARK    2  A    between atoms: C_3  and  O_6 
REMARK    3  A    between atoms: C_3  and  C_4 
REMARK    4  A    between atoms: C_7  and  O_6 
REMARK    5  A    between atoms: C_9  and  C_10 
REMARK    6  A    between atoms: N_15  and  C_14 
REMARK    7  A    between atoms: N_20  and  C_19 
REMARK       I    between atoms: C_22  and  N_20 
ROOT
ATOM      1  C   LIG d   1       2.652  85.577 110.928  0.00  0.00     0.161 C 
ATOM      2  C   LIG d   1       2.787  86.868 111.463  0.00  0.00     0.016 C 
ATOM      3  C   LIG d   1       3.792  87.224 112.393  0.00  0.00     0.038 C 
ATOM      4  C   LIG d   1       4.829  86.345 112.737  0.00  0.00     0.028 C 
ATOM      5  C   LIG d   1       4.443  84.875 112.610  0.00  0.00    -0.047 C 
ATOM      6  C   LIG d   1       3.841  84.634 111.207  0.00  0.00     0.091 C 
ENDROOT
BRANCH   1   7
ATOM      7  O   LIG d   1       2.400  85.659 109.511  0.00  0.00    -0.368 OA
BRANCH   7   8
ATOM      8  C   LIG d   1       1.207  84.988 109.036  0.00  0.00     0.119 C 
BRANCH   8   9
ATOM      9  C   LIG d   1       1.486  84.508 107.599  0.00  0.00     0.028 C 
ATOM     10  C   LIG d   1       1.943  83.041 107.548  0.00  0.00     0.006 C 
ENDBRANCH   8   9
BRANCH   8  11
ATOM     11  C   LIG d   1       0.030  85.960 108.918  0.00  0.00     0.028 C 
ATOM     12  C   LIG d   1      -0.794  86.059 110.212  0.00  0.00     0.006 C 
ENDBRANCH   8  11
ENDBRANCH   7   8
ENDBRANCH   1   7
BRANCH   6  13
ATOM     13  N   LIG d   1       3.360  83.239 111.028  0.00  0.00    -0.311 N 
ATOM     14  C   LIG d   1       4.096  82.274 110.478  0.00  0.00     0.210 C 
ATOM     15  C   LIG d   1       3.401  80.913 110.371  0.00  0.00     0.109 C 
ATOM     16  O   LIG d   1       5.268  82.409 110.098  0.00  0.00    -0.276 OA
ATOM     17  H   LIG d   1       2.430  83.034 111.338  0.00  0.00     0.149 HD
ENDBRANCH   6  13
BRANCH   5  18
ATOM     18  N   LIG d   1       5.655  84.073 112.865  0.00  0.00     0.381 N 
ATOM     19  H   LIG d   1       6.212  84.515 113.569  0.00  0.00    -0.090 HD
ATOM     20  H   LIG d   1       6.196  84.023 112.020  0.00  0.00    -0.090 HD
ATOM     21  H   LIG d   1       5.401  83.156 113.160  0.00  0.00    -0.090 HD
ENDBRANCH   5  18
BRANCH   3  22
ATOM     22  C   LIG d   1       3.741  88.461 113.019  0.00  0.00     0.382 C 
ATOM     23  O   LIG d   1       2.963  88.642 113.986  0.00  0.00    -0.241 OA
ATOM     24  O   LIG d   1       4.433  89.409 112.601  0.00  0.00    -0.241 OA
ENDBRANCH   3  22
TORSDOF 7
ENDMDL
MODEL 2
REMARK VINA RESULT:      -6.4      3.827      7.155
REMARK  7 active torsions:
REMARK  status: ('A' for Active; 'I' for Inactive)
REMARK    1  A    between atoms: C_2  and  C_3 
REMARK    2  A    between atoms: C_3  and  O_6 
REMARK    3  A    between atoms: C_3  and  C_4 
REMARK    4  A    between atoms: C_7  and  O_6 
REMARK    5  A    between atoms: C_9  and  C_10 
REMARK    6  A    between atoms: N_15  and  C_14 
REMARK    7  A    between atoms: N_20  and  C_19 
REMARK       I    between atoms: C_22  and  N_20 
ROOT
ATOM      1  C   LIG d   1       1.156  81.404 110.292  0.00  0.00     0.161 C 
ATOM      2  C   LIG d   1       1.128  80.023 110.034  0.00  0.00     0.016 C 
ATOM      3  C   LIG d   1       0.178  79.144 110.601  0.00  0.00     0.038 C 
ATOM      4  C   LIG d   1      -0.910  79.613 111.353  0.00  0.00     0.028 C 
ATOM      5  C   LIG d   1      -0.634  80.938 112.055  0.00  0.00    -0.047 C 
ATOM      6  C   LIG d   1      -0.089  81.950 111.021  0.00  0.00     0.091 C 
ENDROOT
BRANCH   1   7
ATOM      7  O   LIG d   1       1.376  82.127 109.065  0.00  0.00    -0.368 OA
BRANCH   7   8
ATOM      8  C   LIG d   1       2.555  82.967 109.022  0.00  0.00     0.119 C 
BRANCH   8   9
ATOM      9  C   LIG d   1       2.237  84.165 108.106  0.00  0.00     0.028 C 
ATOM     10  C   LIG d   1       1.797  83.727 106.699  0.00  0.00     0.006 C 
ENDBRANCH   8   9
BRANCH   8  11
ATOM     11  C   LIG d   1       3.729  82.246 108.354  0.00  0.00     0.028 C 
ATOM     12  C   LIG d   1       4.819  81.829 109.354  0.00  0.00     0.006 C 
ENDBRANCH   8  11
ENDBRANCH   7   8
ENDBRANCH   1   7
BRANCH   6  13
ATOM     13  N   LIG d   1       0.286  83.248 111.641  0.00  0.00    -0.311 N 
ATOM     14  C   LIG d   1      -0.115  84.428 111.171  0.00  0.00     0.210 C 
ATOM     15  C   LIG d   1       0.402  85.643 111.948  0.00  0.00     0.109 C 
ATOM     16  O   LIG d   1      -0.876  84.583 110.204  0.00  0.00    -0.276 OA
ATOM     17  H   LIG d   1       0.876  83.214 112.449  0.00  0.00     0.149 HD
ENDBRANCH   6  13
BRANCH   5  18
ATOM     18  N   LIG d   1      -1.892  81.378 112.687  0.00  0.00     0.381 N 
ATOM     19  H   LIG d   1      -1.733  82.213 113.215  0.00  0.00    -0.090 HD
ATOM     20  H   LIG d   1      -2.207  80.662 113.318  0.00  0.00    -0.090 HD
ATOM     21  H   LIG d   1      -2.584  81.545 111.990  0.00  0.00    -0.090 HD
ENDBRANCH   5  18
BRANCH   3  22
ATOM     22  C   LIG d   1       0.333  77.774 110.452  0.00  0.00     0.382 C 
ATOM     23  O   LIG d   1      -0.610  77.001 110.744  0.00  0.00    -0.241 OA
ATOM     24  O   LIG d   1       1.420  77.300 110.071  0.00  0.00    -0.241 OA
ENDBRANCH   3  22
TORSDOF 7
ENDMDL
MODEL 3
REMARK VINA RESULT:      -6.4      3.140      5.028
REMARK  7 active torsions:
REMARK  status: ('A' for Active; 'I' for Inactive)
REMARK    1  A    between atoms: C_2  and  C_3 
REMARK    2  A    between atoms: C_3  and  O_6 
REMARK    3  A    between atoms: C_3  and  C_4 
REMARK    4  A    between atoms: C_7  and  O_6 
REMARK    5  A    between atoms: C_9  and  C_10 
REMARK    6  A    between atoms: N_15  and  C_14 
REMARK    7  A    between atoms: N_20  and  C_19 
REMARK       I    between atoms: C_22  and  N_20 
ROOT
ATOM      1  C   LIG d   1       1.936  84.310 111.318  0.00  0.00     0.161 C 
ATOM      2  C   LIG d   1       0.979  83.282 111.287  0.00  0.00     0.016 C 
ATOM      3  C   LIG d   1      -0.046  83.144 112.250  0.00  0.00     0.038 C 
ATOM      4  C   LIG d   1      -0.277  84.118 113.233  0.00  0.00     0.028 C 
ATOM      5  C   LIG d   1       0.972  84.907 113.608  0.00  0.00    -0.047 C 
ATOM      6  C   LIG d   1       1.632  85.446 112.318  0.00  0.00     0.091 C 
ENDROOT
BRANCH   1   7
ATOM      7  O   LIG d   1       2.121  84.846 109.993  0.00  0.00    -0.368 OA
BRANCH   7   8
ATOM      8  C   LIG d   1       1.025  84.647 109.066  0.00  0.00     0.119 C 
BRANCH   8   9
ATOM      9  C   LIG d   1       1.637  84.315 107.691  0.00  0.00     0.028 C 
ATOM     10  C   LIG d   1       1.907  82.811 107.517  0.00  0.00     0.006 C 
ENDBRANCH   8   9
BRANCH   8  11
ATOM     11  C   LIG d   1       0.231  85.939 108.855  0.00  0.00     0.028 C 
ATOM     12  C   LIG d   1      -0.989  86.047 109.783  0.00  0.00     0.006 C 
ENDBRANCH   8  11
ENDBRANCH   7   8
ENDBRANCH   1   7
BRANCH   6  13
ATOM     13  N   LIG d   1       2.908  86.159 112.589  0.00  0.00    -0.311 N 
ATOM     14  C   LIG d   1       3.139  87.416 112.215  0.00  0.00     0.210 C 
ATOM     15  C   LIG d   1       4.527  87.954 112.576  0.00  0.00     0.109 C 
ATOM     16  O   LIG d   1       2.314  88.148 111.647  0.00  0.00    -0.276 OA
ATOM     17  H   LIG d   1       3.621  85.650 113.073  0.00  0.00     0.149 HD
ENDBRANCH   6  13
BRANCH   5  18
ATOM     18  N   LIG d   1       0.561  85.977 114.537  0.00  0.00     0.381 N 
ATOM     19  H   LIG d   1      -0.390  85.838 114.815  0.00  0.00    -0.090 HD
ATOM     20  H   LIG d   1       0.625  86.861 114.063  0.00  0.00    -0.090 HD
ATOM     21  H   LIG d   1       1.152  85.978 115.339  0.00  0.00    -0.090 HD
ENDBRANCH   5  18
BRANCH   3  22
ATOM     22  C   LIG d   1      -0.829  81.999 112.261  0.00  0.00     0.382 C 
ATOM     23  O   LIG d   1      -2.077  82.094 112.355  0.00  0.00    -0.241 OA
ATOM     24  O   LIG d   1      -0.301  80.872 112.223  0.00  0.00    -0.241 OA
ENDBRANCH   3  22
TORSDOF 7
ENDMDL
MODEL 4
REMARK VINA RESULT:      -6.3      3.180      5.334
REMARK  7 active torsions:
REMARK  status: ('A' for Active; 'I' for Inactive)
REMARK    1  A    between atoms: C_2  and  C_3 
REMARK    2  A    between atoms: C_3  and  O_6 
REMARK    3  A    between atoms: C_3  and  C_4 
REMARK    4  A    between atoms: C_7  and  O_6 
REMARK    5  A    between atoms: C_9  and  C_10 
REMARK    6  A    between atoms: N_15  and  C_14 
REMARK    7  A    between atoms: N_20  and  C_19 
REMARK       I    between atoms: C_22  and  N_20 
ROOT
ATOM      1  C   LIG d   1       1.649  84.284 111.122  0.00  0.00     0.161 C 
ATOM      2  C   LIG d   1       0.600  83.350 111.178  0.00  0.00     0.016 C 
ATOM      3  C   LIG d   1      -0.326  83.282 112.244  0.00  0.00     0.038 C 
ATOM      4  C   LIG d   1      -0.358  84.248 113.261  0.00  0.00     0.028 C 
ATOM      5  C   LIG d   1       0.994  84.908 113.512  0.00  0.00    -0.047 C 
ATOM      6  C   LIG d   1       1.562  85.416 112.167  0.00  0.00     0.091 C 
ENDROOT
BRANCH   1   7
ATOM      7  O   LIG d   1       1.743  84.834 109.794  0.00  0.00    -0.368 OA
BRANCH   7   8
ATOM      8  C   LIG d   1       2.851  84.366 108.986  0.00  0.00     0.119 C 
BRANCH   8   9
ATOM      9  C   LIG d   1       2.310  83.267 108.050  0.00  0.00     0.028 C 
ATOM     10  C   LIG d   1       1.764  83.838 106.731  0.00  0.00     0.006 C 
ENDBRANCH   8   9
BRANCH   8  11
ATOM     11  C   LIG d   1       3.915  83.677 109.847  0.00  0.00     0.028 C 
ATOM     12  C   LIG d   1       4.652  82.556 109.098  0.00  0.00     0.006 C 
ENDBRANCH   8  11
ENDBRANCH   7   8
ENDBRANCH   1   7
BRANCH   6  13
ATOM     13  N   LIG d   1       2.921  86.000 112.310  0.00  0.00    -0.311 N 
ATOM     14  C   LIG d   1       3.197  87.282 112.076  0.00  0.00     0.210 C 
ATOM     15  C   LIG d   1       4.666  87.672 112.264  0.00  0.00     0.109 C 
ATOM     16  O   LIG d   1       2.358  88.139 111.761  0.00  0.00    -0.276 OA
ATOM     17  H   LIG d   1       3.656  85.381 112.593  0.00  0.00     0.149 HD
ENDBRANCH   6  13
BRANCH   5  18
ATOM     18  N   LIG d   1       0.788  85.987 114.497  0.00  0.00     0.381 N 
ATOM     19  H   LIG d   1       0.004  86.546 114.226  0.00  0.00    -0.090 HD
ATOM     20  H   LIG d   1       1.603  86.573 114.512  0.00  0.00    -0.090 HD
ATOM     21  H   LIG d   1       0.632  85.598 115.401  0.00  0.00    -0.090 HD
ENDBRANCH   5  18
BRANCH   3  22
ATOM     22  C   LIG d   1      -1.209  82.216 112.321  0.00  0.00     0.382 C 
ATOM     23  O   LIG d   1      -2.235  82.302 113.037  0.00  0.00    -0.241 OA
ATOM     24  O   LIG d   1      -0.968  81.152 111.718  0.00  0.00    -0.241 OA
ENDBRANCH   3  22
TORSDOF 7
ENDMDL
MODEL 5
REMARK VINA RESULT:      -6.3      3.297      4.513
REMARK  7 active torsions:
REMARK  status: ('A' for Active; 'I' for Inactive)
REMARK    1  A    between atoms: C_2  and  C_3 
REMARK    2  A    between atoms: C_3  and  O_6 
REMARK    3  A    between atoms: C_3  and  C_4 
REMARK    4  A    between atoms: C_7  and  O_6 
REMARK    5  A    between atoms: C_9  and  C_10 
REMARK    6  A    between atoms: N_15  and  C_14 
REMARK    7  A    between atoms: N_20  and  C_19 
REMARK       I    between atoms: C_22  and  N_20 
ROOT
ATOM      1  C   LIG d   1      -0.020  83.904 110.540  0.00  0.00     0.161 C 
ATOM      2  C   LIG d   1      -0.137  84.853 111.569  0.00  0.00     0.016 C 
ATOM      3  C   LIG d   1      -0.224  84.511 112.938  0.00  0.00     0.038 C 
ATOM      4  C   LIG d   1      -0.046  83.193 113.385  0.00  0.00     0.028 C 
ATOM      5  C   LIG d   1      -0.431  82.144 112.347  0.00  0.00    -0.047 C 
ATOM      6  C   LIG d   1       0.286  82.469 111.017  0.00  0.00     0.091 C 
ENDROOT
BRANCH   1   7
ATOM      7  O   LIG d   1       0.969  84.337 109.585  0.00  0.00    -0.368 OA
BRANCH   7   8
ATOM      8  C   LIG d   1       2.295  83.775 109.743  0.00  0.00     0.119 C 
BRANCH   8   9
ATOM      9  C   LIG d   1       3.222  84.907 110.228  0.00  0.00     0.028 C 
ATOM     10  C   LIG d   1       3.611  84.753 111.708  0.00  0.00     0.006 C 
ENDBRANCH   8   9
BRANCH   8  11
ATOM     11  C   LIG d   1       2.873  83.326 108.398  0.00  0.00     0.028 C 
ATOM     12  C   LIG d   1       1.819  83.284 107.280  0.00  0.00     0.006 C 
ENDBRANCH   8  11
ENDBRANCH   7   8
ENDBRANCH   1   7
BRANCH   6  13
ATOM     13  N   LIG d   1      -0.101  81.539 109.923  0.00  0.00    -0.311 N 
ATOM     14  C   LIG d   1       0.593  80.446 109.610  0.00  0.00     0.210 C 
ATOM     15  C   LIG d   1       0.031  79.638 108.437  0.00  0.00     0.109 C 
ATOM     16  O   LIG d   1       1.602  80.051 110.215  0.00  0.00    -0.276 OA
ATOM     17  H   LIG d   1      -0.924  81.767 109.401  0.00  0.00     0.149 HD
ENDBRANCH   6  13
BRANCH   5  18
ATOM     18  N   LIG d   1      -0.068  80.823 112.893  0.00  0.00     0.381 N 
ATOM     19  H   LIG d   1       0.040  80.885 113.886  0.00  0.00    -0.090 HD
ATOM     20  H   LIG d   1       0.811  80.538 112.497  0.00  0.00    -0.090 HD
ATOM     21  H   LIG d   1      -0.773  80.156 112.669  0.00  0.00    -0.090 HD
ENDBRANCH   5  18
BRANCH   3  22
ATOM     22  C   LIG d   1      -0.530  85.488 113.872  0.00  0.00     0.382 C 
ATOM     23  O   LIG d   1      -1.706  85.608 114.292  0.00  0.00    -0.241 OA
ATOM     24  O   LIG d   1       0.346  86.281 114.268  0.00  0.00    -0.241 OA
ENDBRANCH   3  22
TORSDOF 7
ENDMDL
MODEL 6
REMARK VINA RESULT:      -6.2      2.507      6.185
REMARK  7 active torsions:
REMARK  status: ('A' for Active; 'I' for Inactive)
REMARK    1  A    between atoms: C_2  and  C_3 
REMARK    2  A    between atoms: C_3  and  O_6 
REMARK    3  A    between atoms: C_3  and  C_4 
REMARK    4  A    between atoms: C_7  and  O_6 
REMARK    5  A    between atoms: C_9  and  C_10 
REMARK    6  A    between atoms: N_15  and  C_14 
REMARK    7  A    between atoms: N_20  and  C_19 
REMARK       I    between atoms: C_22  and  N_20 
ROOT
ATOM      1  C   LIG d   1       2.827  83.749 110.269  0.00  0.00     0.161 C 
ATOM      2  C   LIG d   1       3.505  82.523 110.383  0.00  0.00     0.016 C 
ATOM      3  C   LIG d   1       3.488  81.529 109.379  0.00  0.00     0.038 C 
ATOM      4  C   LIG d   1       2.913  81.756 108.120  0.00  0.00     0.028 C 
ATOM      5  C   LIG d   1       1.786  82.783 108.145  0.00  0.00    -0.047 C 
ATOM      6  C   LIG d   1       2.286  84.060 108.858  0.00  0.00     0.091 C 
ENDROOT
BRANCH   1   7
ATOM      7  O   LIG d   1       3.675  84.820 110.728  0.00  0.00    -0.368 OA
BRANCH   7   8
ATOM      8  C   LIG d   1       3.556  85.172 112.129  0.00  0.00     0.119 C 
BRANCH   8   9
ATOM      9  C   LIG d   1       2.419  86.205 112.252  0.00  0.00     0.028 C 
ATOM     10  C   LIG d   1       1.276  85.715 113.157  0.00  0.00     0.006 C 
ENDBRANCH   8   9
BRANCH   8  11
ATOM     11  C   LIG d   1       4.812  85.890 112.632  0.00  0.00     0.028 C 
ATOM     12  C   LIG d   1       4.822  87.387 112.285  0.00  0.00     0.006 C 
ENDBRANCH   8  11
ENDBRANCH   7   8
ENDBRANCH   1   7
BRANCH   6  13
ATOM     13  N   LIG d   1       1.219  85.084 109.001  0.00  0.00    -0.311 N 
ATOM     14  C   LIG d   1       0.098  84.883 109.691  0.00  0.00     0.210 C 
ATOM     15  C   LIG d   1      -0.879  86.064 109.695  0.00  0.00     0.109 C 
ATOM     16  O   LIG d   1      -0.166  83.852 110.327  0.00  0.00    -0.276 OA
ATOM     17  H   LIG d   1       1.366  85.963 108.543  0.00  0.00     0.149 HD
ENDBRANCH   6  13
BRANCH   5  18
ATOM     18  N   LIG d   1       1.371  83.024 106.750  0.00  0.00     0.381 N 
ATOM     19  H   LIG d   1       0.523  82.528 106.559  0.00  0.00    -0.090 HD
ATOM     20  H   LIG d   1       2.085  82.678 106.134  0.00  0.00    -0.090 HD
ATOM     21  H   LIG d   1       1.235  83.999 106.599  0.00  0.00    -0.090 HD
ENDBRANCH   5  18
BRANCH   3  22
ATOM     22  C   LIG d   1       4.018  80.275 109.644  0.00  0.00     0.382 C 
ATOM     23  O   LIG d   1       5.262  80.119 109.700  0.00  0.00    -0.241 OA
ATOM     24  O   LIG d   1       3.269  79.290 109.784  0.00  0.00    -0.241 OA
ENDBRANCH   3  22
TORSDOF 7
ENDMDL
MODEL 7
REMARK VINA RESULT:      -6.2      4.498      7.201
REMARK  7 active torsions:
REMARK  status: ('A' for Active; 'I' for Inactive)
REMARK    1  A    between atoms: C_2  and  C_3 
REMARK    2  A    between atoms: C_3  and  O_6 
REMARK    3  A    between atoms: C_3  and  C_4 
REMARK    4  A    between atoms: C_7  and  O_6 
REMARK    5  A    between atoms: C_9  and  C_10 
REMARK    6  A    between atoms: N_15  and  C_14 
REMARK    7  A    between atoms: N_20  and  C_19 
REMARK       I    between atoms: C_22  and  N_20 
ROOT
ATOM      1  C   LIG d   1      -0.232  81.336 110.830  0.00  0.00     0.161 C 
ATOM      2  C   LIG d   1      -0.850  80.308 111.563  0.00  0.00     0.016 C 
ATOM      3  C   LIG d   1      -0.761  78.941 111.212  0.00  0.00     0.038 C 
ATOM      4  C   LIG d   1       0.082  78.493 110.185  0.00  0.00     0.028 C 
ATOM      5  C   LIG d   1       0.328  79.539 109.103  0.00  0.00    -0.047 C 
ATOM      6  C   LIG d   1       0.783  80.856 109.772  0.00  0.00     0.091 C 
ENDROOT
BRANCH   1   7
ATOM      7  O   LIG d   1       0.389  82.272 111.732  0.00  0.00    -0.368 OA
BRANCH   7   8
ATOM      8  C   LIG d   1      -0.343  83.497 111.985  0.00  0.00     0.119 C 
BRANCH   8   9
ATOM      9  C   LIG d   1       0.387  84.634 111.245  0.00  0.00     0.028 C 
ATOM     10  C   LIG d   1      -0.414  85.162 110.043  0.00  0.00     0.006 C 
ENDBRANCH   8   9
BRANCH   8  11
ATOM     11  C   LIG d   1      -0.295  83.880 113.467  0.00  0.00     0.028 C 
ATOM     12  C   LIG d   1       0.449  85.201 113.717  0.00  0.00     0.006 C 
ENDBRANCH   8  11
ENDBRANCH   7   8
ENDBRANCH   1   7
BRANCH   6  13
ATOM     13  N   LIG d   1       0.964  81.957 108.791  0.00  0.00    -0.311 N 
ATOM     14  C   LIG d   1       2.123  82.219 108.188  0.00  0.00     0.210 C 
ATOM     15  C   LIG d   1       2.097  83.411 107.227  0.00  0.00     0.109 C 
ATOM     16  O   LIG d   1       3.161  81.557 108.334  0.00  0.00    -0.276 OA
ATOM     17  H   LIG d   1       0.164  82.525 108.590  0.00  0.00     0.149 HD
ENDBRANCH   6  13
BRANCH   5  18
ATOM     18  N   LIG d   1       1.330  78.988 108.170  0.00  0.00     0.381 N 
ATOM     19  H   LIG d   1       1.606  79.692 107.515  0.00  0.00    -0.090 HD
ATOM     20  H   LIG d   1       0.916  78.228 107.660  0.00  0.00    -0.090 HD
ATOM     21  H   LIG d   1       2.125  78.665 108.676  0.00  0.00    -0.090 HD
ENDBRANCH   5  18
BRANCH   3  22
ATOM     22  C   LIG d   1      -1.553  78.011 111.868  0.00  0.00     0.382 C 
ATOM     23  O   LIG d   1      -1.092  77.372 112.844  0.00  0.00    -0.241 OA
ATOM     24  O   LIG d   1      -2.708  77.770 111.467  0.00  0.00    -0.241 OA
ENDBRANCH   3  22
TORSDOF 7
ENDMDL
MODEL 8
REMARK VINA RESULT:      -5.9      3.779      6.002
REMARK  7 active torsions:
REMARK  status: ('A' for Active; 'I' for Inactive)
REMARK    1  A    between atoms: C_2  and  C_3 
REMARK    2  A    between atoms: C_3  and  O_6 
REMARK    3  A    between atoms: C_3  and  C_4 
REMARK    4  A    between atoms: C_7  and  O_6 
REMARK    5  A    between atoms: C_9  and  C_10 
REMARK    6  A    between atoms: N_15  and  C_14 
REMARK    7  A    between atoms: N_20  and  C_19 
REMARK       I    between atoms: C_22  and  N_20 
ROOT
ATOM      1  C   LIG d   1       1.665  81.718 111.256  0.00  0.00     0.161 C 
ATOM      2  C   LIG d   1       2.542  82.432 110.421  0.00  0.00     0.016 C 
ATOM      3  C   LIG d   1       2.496  82.370 109.010  0.00  0.00     0.038 C 
ATOM      4  C   LIG d   1       1.466  81.702 108.330  0.00  0.00     0.028 C 
ATOM      5  C   LIG d   1       0.857  80.555 109.129  0.00  0.00    -0.047 C 
ATOM      6  C   LIG d   1       0.465  81.073 110.532  0.00  0.00     0.091 C 
ENDROOT
BRANCH   1   7
ATOM      7  O   LIG d   1       1.207  82.569 112.325  0.00  0.00    -0.368 OA
BRANCH   7   8
ATOM      8  C   LIG d   1       1.125  83.984 112.023  0.00  0.00     0.119 C 
BRANCH   8   9
ATOM      9  C   LIG d   1       1.413  84.753 113.327  0.00  0.00     0.028 C 
ATOM     10  C   LIG d   1       0.136  85.332 113.960  0.00  0.00     0.006 C 
ENDBRANCH   8   9
BRANCH   8  11
ATOM     11  C   LIG d   1      -0.296  84.387 111.619  0.00  0.00     0.028 C 
ATOM     12  C   LIG d   1      -0.388  84.868 110.162  0.00  0.00     0.006 C 
ENDBRANCH   8  11
ENDBRANCH   7   8
ENDBRANCH   1   7
BRANCH   6  13
ATOM     13  N   LIG d   1      -0.061  79.993 111.408  0.00  0.00    -0.311 N 
ATOM     14  C   LIG d   1      -1.164  80.119 112.143  0.00  0.00     0.210 C 
ATOM     15  C   LIG d   1      -1.519  78.893 112.991  0.00  0.00     0.109 C 
ATOM     16  O   LIG d   1      -1.900  81.117 112.150  0.00  0.00    -0.276 OA
ATOM     17  H   LIG d   1       0.458  79.138 111.439  0.00  0.00     0.149 HD
ENDBRANCH   6  13
BRANCH   5  18
ATOM     18  N   LIG d   1      -0.292  80.037 108.362  0.00  0.00     0.381 N 
ATOM     19  H   LIG d   1      -0.657  79.220 108.809  0.00  0.00    -0.090 HD
ATOM     20  H   LIG d   1       0.021  79.781 107.442  0.00  0.00    -0.090 HD
ATOM     21  H   LIG d   1      -1.000  80.734 108.298  0.00  0.00    -0.090 HD
ENDBRANCH   5  18
BRANCH   3  22
ATOM     22  C   LIG d   1       3.511  82.947 108.263  0.00  0.00     0.382 C 
ATOM     23  O   LIG d   1       4.600  83.245 108.810  0.00  0.00    -0.241 OA
ATOM     24  O   LIG d   1       3.336  83.215 107.059  0.00  0.00    -0.241 OA
ENDBRANCH   3  22
TORSDOF 7
ENDMDL
MODEL 9
REMARK VINA RESULT:      -5.8      3.430      5.459
REMARK  7 active torsions:
REMARK  status: ('A' for Active; 'I' for Inactive)
REMARK    1  A    between atoms: C_2  and  C_3 
REMARK    2  A    between atoms: C_3  and  O_6 
REMARK    3  A    between atoms: C_3  and  C_4 
REMARK    4  A    between atoms: C_7  and  O_6 
REMARK    5  A    between atoms: C_9  and  C_10 
REMARK    6  A    between atoms: N_15  and  C_14 
REMARK    7  A    between atoms: N_20  and  C_19 
REMARK       I    between atoms: C_22  and  N_20 
ROOT
ATOM      1  C   LIG d   1       1.130  83.477 110.949  0.00  0.00     0.161 C 
ATOM      2  C   LIG d   1       0.060  82.610 111.224  0.00  0.00     0.016 C 
ATOM      3  C   LIG d   1      -0.714  82.680 112.405  0.00  0.00     0.038 C 
ATOM      4  C   LIG d   1      -0.567  83.726 113.327  0.00  0.00     0.028 C 
ATOM      5  C   LIG d   1       0.833  84.331 113.339  0.00  0.00    -0.047 C 
ATOM      6  C   LIG d   1       1.235  84.695 111.891  0.00  0.00     0.091 C 
ENDROOT
BRANCH   1   7
ATOM      7  O   LIG d   1       1.066  83.911 109.576  0.00  0.00    -0.368 OA
BRANCH   7   8
ATOM      8  C   LIG d   1       0.795  85.318 109.364  0.00  0.00     0.119 C 
BRANCH   8   9
ATOM      9  C   LIG d   1      -0.724  85.526 109.526  0.00  0.00     0.028 C 
ATOM     10  C   LIG d   1      -1.058  86.712 110.446  0.00  0.00     0.006 C 
ENDBRANCH   8   9
BRANCH   8  11
ATOM     11  C   LIG d   1       1.109  85.736 107.924  0.00  0.00     0.028 C 
ATOM     12  C   LIG d   1       1.587  84.562 107.054  0.00  0.00     0.006 C 
ENDBRANCH   8  11
ENDBRANCH   7   8
ENDBRANCH   1   7
BRANCH   6  13
ATOM     13  N   LIG d   1       2.624  85.214 111.802  0.00  0.00    -0.311 N 
ATOM     14  C   LIG d   1       2.929  86.509 111.875  0.00  0.00     0.210 C 
ATOM     15  C   LIG d   1       4.421  86.831 111.740  0.00  0.00     0.109 C 
ATOM     16  O   LIG d   1       2.109  87.418 112.070  0.00  0.00    -0.276 OA
ATOM     17  H   LIG d   1       3.355  84.542 111.674  0.00  0.00     0.149 HD
ENDBRANCH   6  13
BRANCH   5  18
ATOM     18  N   LIG d   1       0.808  85.496 114.242  0.00  0.00     0.381 N 
ATOM     19  H   LIG d   1      -0.074  85.542 114.713  0.00  0.00    -0.090 HD
ATOM     20  H   LIG d   1       0.918  86.333 113.697  0.00  0.00    -0.090 HD
ATOM     21  H   LIG d   1       1.545  85.427 114.909  0.00  0.00    -0.090 HD
ENDBRANCH   5  18
BRANCH   3  22
ATOM     22  C   LIG d   1      -1.623  81.673 112.692  0.00  0.00     0.382 C 
ATOM     23  O   LIG d   1      -1.213  80.534 113.021  0.00  0.00    -0.241 OA
ATOM     24  O   LIG d   1      -2.847  81.876 112.582  0.00  0.00    -0.241 OA
ENDBRANCH   3  22
TORSDOF 7
ENDMDL
