MODEL 1
REMARK VINA RESULT:      -6.6      0.000      0.000
REMARK  7 active torsions:
REMARK  status: ('A' for Active; 'I' for Inactive)
REMARK    1  A    between atoms: C_2  and  C_3 
REMARK    2  A    between atoms: C_3  and  O_6 
REMARK    3  A    between atoms: C_3  and  C_4 
REMARK    4  A    between atoms: C_7  and  O_6 
REMARK    5  A    between atoms: C_9  and  C_10 
REMARK    6  A    between atoms: N_15  and  C_14 
REMARK    7  A    between atoms: N_20  and  C_19 
REMARK       I    between atoms: C_22  and  N_20 
ROOT
ATOM      1  C   LIG d   1       1.870  83.923 111.690  0.00  0.00     0.161 C 
ATOM      2  C   LIG d   1       0.749  83.103 111.903  0.00  0.00     0.016 C 
ATOM      3  C   LIG d   1      -0.307  83.441 112.780  0.00  0.00     0.038 C 
ATOM      4  C   LIG d   1      -0.387  84.701 113.393  0.00  0.00     0.028 C 
ATOM      5  C   LIG d   1       0.972  85.360 113.602  0.00  0.00    -0.047 C 
ATOM      6  C   LIG d   1       1.746  85.349 112.264  0.00  0.00     0.091 C 
ENDROOT
BRANCH   1   7
ATOM      7  O   LIG d   1       2.177  83.974 110.282  0.00  0.00    -0.368 OA
BRANCH   7   8
ATOM      8  C   LIG d   1       1.052  83.839 109.379  0.00  0.00     0.119 C 
BRANCH   8   9
ATOM      9  C   LIG d   1       1.539  83.050 108.148  0.00  0.00     0.028 C 
ATOM     10  C   LIG d   1       1.176  83.745 106.825  0.00  0.00     0.006 C 
ENDBRANCH   8   9
BRANCH   8  11
ATOM     11  C   LIG d   1       0.605  85.200 108.838  0.00  0.00     0.028 C 
ATOM     12  C   LIG d   1      -0.630  85.754 109.566  0.00  0.00     0.006 C 
ENDBRANCH   8  11
ENDBRANCH   7   8
ENDBRANCH   1   7
BRANCH   6  13
ATOM     13  N   LIG d   1       3.120  85.900 112.399  0.00  0.00    -0.311 N 
ATOM     14  C   LIG d   1       3.420  87.181 112.190  0.00  0.00     0.210 C 
ATOM     15  C   LIG d   1       4.900  87.535 112.364  0.00  0.00     0.109 C 
ATOM     16  O   LIG d   1       2.595  88.064 111.909  0.00  0.00    -0.276 OA
ATOM     17  H   LIG d   1       3.845  85.259 112.655  0.00  0.00     0.149 HD
ENDBRANCH   6  13
BRANCH   5  18
ATOM     18  N   LIG d   1       0.732  86.720 114.120  0.00  0.00     0.381 N 
ATOM     19  H   LIG d   1      -0.232  86.961 114.007  0.00  0.00    -0.090 HD
ATOM     20  H   LIG d   1       1.284  87.372 113.591  0.00  0.00    -0.090 HD
ATOM     21  H   LIG d   1       0.983  86.767 115.083  0.00  0.00    -0.090 HD
ENDBRANCH   5  18
BRANCH   3  22
ATOM     22  C   LIG d   1      -1.278  82.499 113.083  0.00  0.00     0.382 C 
ATOM     23  O   LIG d   1      -2.252  82.331 112.310  0.00  0.00    -0.241 OA
ATOM     24  O   LIG d   1      -1.215  81.845 114.142  0.00  0.00    -0.241 OA
ENDBRANCH   3  22
TORSDOF 7
ENDMDL
MODEL 2
REMARK VINA RESULT:      -6.5      3.237      5.623
REMARK  7 active torsions:
REMARK  status: ('A' for Active; 'I' for Inactive)
REMARK    1  A    between atoms: C_2  and  C_3 
REMARK    2  A    between atoms: C_3  and  O_6 
REMARK    3  A    between atoms: C_3  and  C_4 
REMARK    4  A    between atoms: C_7  and  O_6 
REMARK    5  A    between atoms: C_9  and  C_10 
REMARK    6  A    between atoms: N_15  and  C_14 
REMARK    7  A    between atoms: N_20  and  C_19 
REMARK       I    between atoms: C_22  and  N_20 
ROOT
ATOM      1  C   LIG d   1       0.856  83.110 109.033  0.00  0.00     0.161 C 
ATOM      2  C   LIG d   1       0.996  84.475 109.333  0.00  0.00     0.016 C 
ATOM      3  C   LIG d   1       0.449  85.079 110.488  0.00  0.00     0.038 C 
ATOM      4  C   LIG d   1      -0.151  84.323 111.506  0.00  0.00     0.028 C 
ATOM      5  C   LIG d   1      -0.759  83.015 111.011  0.00  0.00    -0.047 C 
ATOM      6  C   LIG d   1       0.301  82.249 110.187  0.00  0.00     0.091 C 
ENDROOT
BRANCH   1   7
ATOM      7  O   LIG d   1       2.115  82.579 108.573  0.00  0.00    -0.368 OA
BRANCH   7   8
ATOM      8  C   LIG d   1       3.055  82.184 109.602  0.00  0.00     0.119 C 
BRANCH   8   9
ATOM      9  C   LIG d   1       4.124  83.289 109.701  0.00  0.00     0.028 C 
ATOM     10  C   LIG d   1       4.020  84.092 111.008  0.00  0.00     0.006 C 
ENDBRANCH   8   9
BRANCH   8  11
ATOM     11  C   LIG d   1       3.816  80.916 109.204  0.00  0.00     0.028 C 
ATOM     12  C   LIG d   1       3.301  79.661 109.925  0.00  0.00     0.006 C 
ENDBRANCH   8  11
ENDBRANCH   7   8
ENDBRANCH   1   7
BRANCH   6  13
ATOM     13  N   LIG d   1      -0.238  80.997 109.595  0.00  0.00    -0.311 N 
ATOM     14  C   LIG d   1      -0.293  79.840 110.252  0.00  0.00     0.210 C 
ATOM     15  C   LIG d   1      -0.867  78.667 109.450  0.00  0.00     0.109 C 
ATOM     16  O   LIG d   1       0.048  79.680 111.434  0.00  0.00    -0.276 OA
ATOM     17  H   LIG d   1      -0.566  81.043 108.650  0.00  0.00     0.149 HD
ENDBRANCH   6  13
BRANCH   5  18
ATOM     18  N   LIG d   1      -1.226  82.265 112.193  0.00  0.00     0.381 N 
ATOM     19  H   LIG d   1      -2.224  82.204 112.182  0.00  0.00    -0.090 HD
ATOM     20  H   LIG d   1      -0.949  82.761 113.022  0.00  0.00    -0.090 HD
ATOM     21  H   LIG d   1      -0.829  81.351 112.195  0.00  0.00    -0.090 HD
ENDBRANCH   5  18
BRANCH   3  22
ATOM     22  C   LIG d   1       0.464  86.460 110.615  0.00  0.00     0.382 C 
ATOM     23  O   LIG d   1       1.557  87.076 110.638  0.00  0.00    -0.241 OA
ATOM     24  O   LIG d   1      -0.600  87.093 110.751  0.00  0.00    -0.241 OA
ENDBRANCH   3  22
TORSDOF 7
ENDMDL
MODEL 3
REMARK VINA RESULT:      -6.4      3.477      5.515
REMARK  7 active torsions:
REMARK  status: ('A' for Active; 'I' for Inactive)
REMARK    1  A    between atoms: C_2  and  C_3 
REMARK    2  A    between atoms: C_3  and  O_6 
REMARK    3  A    between atoms: C_3  and  C_4 
REMARK    4  A    between atoms: C_7  and  O_6 
REMARK    5  A    between atoms: C_9  and  C_10 
REMARK    6  A    between atoms: N_15  and  C_14 
REMARK    7  A    between atoms: N_20  and  C_19 
REMARK       I    between atoms: C_22  and  N_20 
ROOT
ATOM      1  C   LIG d   1       0.923  81.729 111.893  0.00  0.00     0.161 C 
ATOM      2  C   LIG d   1       1.691  81.074 110.916  0.00  0.00     0.016 C 
ATOM      3  C   LIG d   1       1.260  79.910 110.240  0.00  0.00     0.038 C 
ATOM      4  C   LIG d   1      -0.041  79.405 110.387  0.00  0.00     0.028 C 
ATOM      5  C   LIG d   1      -0.670  79.738 111.736  0.00  0.00    -0.047 C 
ATOM      6  C   LIG d   1      -0.543  81.257 111.987  0.00  0.00     0.091 C 
ENDROOT
BRANCH   1   7
ATOM      7  O   LIG d   1       0.978  83.154 111.684  0.00  0.00    -0.368 OA
BRANCH   7   8
ATOM      8  C   LIG d   1       0.229  83.662 110.552  0.00  0.00     0.119 C 
BRANCH   8   9
ATOM      9  C   LIG d   1       1.241  84.272 109.563  0.00  0.00     0.028 C 
ATOM     10  C   LIG d   1       1.352  83.462 108.261  0.00  0.00     0.006 C 
ENDBRANCH   8   9
BRANCH   8  11
ATOM     11  C   LIG d   1      -0.685  84.819 110.963  0.00  0.00     0.028 C 
ATOM     12  C   LIG d   1      -0.921  85.825 109.825  0.00  0.00     0.006 C 
ENDBRANCH   8  11
ENDBRANCH   7   8
ENDBRANCH   1   7
BRANCH   6  13
ATOM     13  N   LIG d   1      -1.059  81.656 113.323  0.00  0.00    -0.311 N 
ATOM     14  C   LIG d   1      -2.335  81.960 113.556  0.00  0.00     0.210 C 
ATOM     15  C   LIG d   1      -2.651  82.364 114.999  0.00  0.00     0.109 C 
ATOM     16  O   LIG d   1      -3.241  81.901 112.711  0.00  0.00    -0.276 OA
ATOM     17  H   LIG d   1      -0.397  81.699 114.073  0.00  0.00     0.149 HD
ENDBRANCH   6  13
BRANCH   5  18
ATOM     18  N   LIG d   1      -2.069  79.272 111.701  0.00  0.00     0.381 N 
ATOM     19  H   LIG d   1      -2.166  78.540 111.026  0.00  0.00    -0.090 HD
ATOM     20  H   LIG d   1      -2.660  80.037 111.424  0.00  0.00    -0.090 HD
ATOM     21  H   LIG d   1      -2.341  78.942 112.601  0.00  0.00    -0.090 HD
ENDBRANCH   5  18
BRANCH   3  22
ATOM     22  C   LIG d   1       2.149  79.215 109.434  0.00  0.00     0.382 C 
ATOM     23  O   LIG d   1       1.719  78.508 108.490  0.00  0.00    -0.241 OA
ATOM     24  O   LIG d   1       3.372  79.249 109.666  0.00  0.00    -0.241 OA
ENDBRANCH   3  22
TORSDOF 7
ENDMDL
MODEL 4
REMARK VINA RESULT:      -6.4      2.484      5.424
REMARK  7 active torsions:
REMARK  status: ('A' for Active; 'I' for Inactive)
REMARK    1  A    between atoms: C_2  and  C_3 
REMARK    2  A    between atoms: C_3  and  O_6 
REMARK    3  A    between atoms: C_3  and  C_4 
REMARK    4  A    between atoms: C_7  and  O_6 
REMARK    5  A    between atoms: C_9  and  C_10 
REMARK    6  A    between atoms: N_15  and  C_14 
REMARK    7  A    between atoms: N_20  and  C_19 
REMARK       I    between atoms: C_22  and  N_20 
ROOT
ATOM      1  C   LIG d   1       1.802  83.359 111.516  0.00  0.00     0.161 C 
ATOM      2  C   LIG d   1       2.580  83.282 110.349  0.00  0.00     0.016 C 
ATOM      3  C   LIG d   1       2.272  82.430 109.263  0.00  0.00     0.038 C 
ATOM      4  C   LIG d   1       1.073  81.704 109.207  0.00  0.00     0.028 C 
ATOM      5  C   LIG d   1       0.506  81.365 110.582  0.00  0.00    -0.047 C 
ATOM      6  C   LIG d   1       0.431  82.657 111.426  0.00  0.00     0.091 C 
ENDROOT
BRANCH   1   7
ATOM      7  O   LIG d   1       1.635  84.738 111.902  0.00  0.00    -0.368 OA
BRANCH   7   8
ATOM      8  C   LIG d   1       1.970  85.726 110.896  0.00  0.00     0.119 C 
BRANCH   8   9
ATOM      9  C   LIG d   1       2.742  86.859 111.600  0.00  0.00     0.028 C 
ATOM     10  C   LIG d   1       4.198  86.472 111.911  0.00  0.00     0.006 C 
ENDBRANCH   8   9
BRANCH   8  11
ATOM     11  C   LIG d   1       0.713  86.387 110.324  0.00  0.00     0.028 C 
ATOM     12  C   LIG d   1       0.272  85.770 108.986  0.00  0.00     0.006 C 
ENDBRANCH   8  11
ENDBRANCH   7   8
ENDBRANCH   1   7
BRANCH   6  13
ATOM     13  N   LIG d   1      -0.035  82.401 112.814  0.00  0.00    -0.311 N 
ATOM     14  C   LIG d   1      -1.320  82.361 113.161  0.00  0.00     0.210 C 
ATOM     15  C   LIG d   1      -1.582  82.102 114.648  0.00  0.00     0.109 C 
ATOM     16  O   LIG d   1      -2.270  82.483 112.372  0.00  0.00    -0.276 OA
ATOM     17  H   LIG d   1       0.668  82.259 113.513  0.00  0.00     0.149 HD
ENDBRANCH   6  13
BRANCH   5  18
ATOM     18  N   LIG d   1      -0.810  80.731 110.376  0.00  0.00     0.381 N 
ATOM     19  H   LIG d   1      -0.702  79.738 110.320  0.00  0.00    -0.090 HD
ATOM     20  H   LIG d   1      -1.195  81.056 109.507  0.00  0.00    -0.090 HD
ATOM     21  H   LIG d   1      -1.422  80.964 111.127  0.00  0.00    -0.090 HD
ENDBRANCH   5  18
BRANCH   3  22
ATOM     22  C   LIG d   1       3.189  82.268 108.235  0.00  0.00     0.382 C 
ATOM     23  O   LIG d   1       2.911  82.667 107.079  0.00  0.00    -0.241 OA
ATOM     24  O   LIG d   1       4.272  81.689 108.441  0.00  0.00    -0.241 OA
ENDBRANCH   3  22
TORSDOF 7
ENDMDL
MODEL 5
REMARK VINA RESULT:      -6.2      3.099      6.243
REMARK  7 active torsions:
REMARK  status: ('A' for Active; 'I' for Inactive)
REMARK    1  A    between atoms: C_2  and  C_3 
REMARK    2  A    between atoms: C_3  and  O_6 
REMARK    3  A    between atoms: C_3  and  C_4 
REMARK    4  A    between atoms: C_7  and  O_6 
REMARK    5  A    between atoms: C_9  and  C_10 
REMARK    6  A    between atoms: N_15  and  C_14 
REMARK    7  A    between atoms: N_20  and  C_19 
REMARK       I    between atoms: C_22  and  N_20 
ROOT
ATOM      1  C   LIG d   1       0.185  82.621 110.867  0.00  0.00     0.161 C 
ATOM      2  C   LIG d   1       0.105  84.012 111.045  0.00  0.00     0.016 C 
ATOM      3  C   LIG d   1       0.563  84.946 110.088  0.00  0.00     0.038 C 
ATOM      4  C   LIG d   1       0.997  84.551 108.814  0.00  0.00     0.028 C 
ATOM      5  C   LIG d   1       1.567  83.136 108.780  0.00  0.00    -0.047 C 
ATOM      6  C   LIG d   1       0.553  82.172 109.437  0.00  0.00     0.091 C 
ENDROOT
BRANCH   1   7
ATOM      7  O   LIG d   1      -1.049  82.003 111.284  0.00  0.00    -0.368 OA
BRANCH   7   8
ATOM      8  C   LIG d   1      -1.099  81.545 112.657  0.00  0.00     0.119 C 
BRANCH   8   9
ATOM      9  C   LIG d   1      -0.750  80.044 112.657  0.00  0.00     0.028 C 
ATOM     10  C   LIG d   1      -1.865  79.182 112.041  0.00  0.00     0.006 C 
ENDBRANCH   8   9
BRANCH   8  11
ATOM     11  C   LIG d   1      -2.521  81.630 113.221  0.00  0.00     0.028 C 
ATOM     12  C   LIG d   1      -2.548  81.980 114.717  0.00  0.00     0.006 C 
ENDBRANCH   8  11
ENDBRANCH   7   8
ENDBRANCH   1   7
BRANCH   6  13
ATOM     13  N   LIG d   1       1.068  80.780 109.521  0.00  0.00    -0.311 N 
ATOM     14  C   LIG d   1       0.372  79.716 109.124  0.00  0.00     0.210 C 
ATOM     15  C   LIG d   1       1.081  78.371 109.317  0.00  0.00     0.109 C 
ATOM     16  O   LIG d   1      -0.751  79.760 108.601  0.00  0.00    -0.276 OA
ATOM     17  H   LIG d   1       1.984  80.655 109.904  0.00  0.00     0.149 HD
ENDBRANCH   6  13
BRANCH   5  18
ATOM     18  N   LIG d   1       1.851  82.804 107.371  0.00  0.00     0.381 N 
ATOM     19  H   LIG d   1       2.806  82.521 107.276  0.00  0.00    -0.090 HD
ATOM     20  H   LIG d   1       1.709  83.625 106.808  0.00  0.00    -0.090 HD
ATOM     21  H   LIG d   1       1.248  82.073 107.064  0.00  0.00    -0.090 HD
ENDBRANCH   5  18
BRANCH   3  22
ATOM     22  C   LIG d   1       0.627  86.292 110.417  0.00  0.00     0.382 C 
ATOM     23  O   LIG d   1       1.728  86.893 110.387  0.00  0.00    -0.241 OA
ATOM     24  O   LIG d   1      -0.394  86.901 110.786  0.00  0.00    -0.241 OA
ENDBRANCH   3  22
TORSDOF 7
ENDMDL
MODEL 6
REMARK VINA RESULT:      -6.2      2.766      4.387
REMARK  7 active torsions:
REMARK  status: ('A' for Active; 'I' for Inactive)
REMARK    1  A    between atoms: C_2  and  C_3 
REMARK    2  A    between atoms: C_3  and  O_6 
REMARK    3  A    between atoms: C_3  and  C_4 
REMARK    4  A    between atoms: C_7  and  O_6 
REMARK    5  A    between atoms: C_9  and  C_10 
REMARK    6  A    between atoms: N_15  and  C_14 
REMARK    7  A    between atoms: N_20  and  C_19 
REMARK       I    between atoms: C_22  and  N_20 
ROOT
ATOM      1  C   LIG d   1      -0.011  82.849 111.365  0.00  0.00     0.161 C 
ATOM      2  C   LIG d   1      -1.081  82.640 112.251  0.00  0.00     0.016 C 
ATOM      3  C   LIG d   1      -1.604  81.362 112.552  0.00  0.00     0.038 C 
ATOM      4  C   LIG d   1      -0.990  80.184 112.099  0.00  0.00     0.028 C 
ATOM      5  C   LIG d   1      -0.217  80.366 110.798  0.00  0.00    -0.047 C 
ATOM      6  C   LIG d   1       0.743  81.569 110.948  0.00  0.00     0.091 C 
ENDROOT
BRANCH   1   7
ATOM      7  O   LIG d   1       0.906  83.811 111.924  0.00  0.00    -0.368 OA
BRANCH   7   8
ATOM      8  C   LIG d   1       0.953  85.102 111.270  0.00  0.00     0.119 C 
BRANCH   8   9
ATOM      9  C   LIG d   1      -0.156  85.119 110.199  0.00  0.00     0.028 C 
ATOM     10  C   LIG d   1       0.360  85.583 108.827  0.00  0.00     0.006 C 
ENDBRANCH   8   9
BRANCH   8  11
ATOM     11  C   LIG d   1       2.263  85.289 110.499  0.00  0.00     0.028 C 
ATOM     12  C   LIG d   1       3.505  85.167 111.396  0.00  0.00     0.006 C 
ENDBRANCH   8  11
ENDBRANCH   7   8
ENDBRANCH   1   7
BRANCH   6  13
ATOM     13  N   LIG d   1       1.478  81.869 109.692  0.00  0.00    -0.311 N 
ATOM     14  C   LIG d   1       2.805  81.818 109.588  0.00  0.00     0.210 C 
ATOM     15  C   LIG d   1       3.360  82.183 108.208  0.00  0.00     0.109 C 
ATOM     16  O   LIG d   1       3.572  81.475 110.500  0.00  0.00    -0.276 OA
ATOM     17  H   LIG d   1       0.931  82.126 108.894  0.00  0.00     0.149 HD
ENDBRANCH   6  13
BRANCH   5  18
ATOM     18  N   LIG d   1       0.484  79.099 110.515  0.00  0.00     0.381 N 
ATOM     19  H   LIG d   1      -0.126  78.477 110.024  0.00  0.00    -0.090 HD
ATOM     20  H   LIG d   1       0.740  78.668 111.386  0.00  0.00    -0.090 HD
ATOM     21  H   LIG d   1       1.300  79.275 109.970  0.00  0.00    -0.090 HD
ENDBRANCH   5  18
BRANCH   3  22
ATOM     22  C   LIG d   1      -2.778  81.254 113.281  0.00  0.00     0.382 C 
ATOM     23  O   LIG d   1      -3.470  82.275 113.510  0.00  0.00    -0.241 OA
ATOM     24  O   LIG d   1      -3.131  80.156 113.751  0.00  0.00    -0.241 OA
ENDBRANCH   3  22
TORSDOF 7
ENDMDL
MODEL 7
REMARK VINA RESULT:      -6.1      3.097      4.929
REMARK  7 active torsions:
REMARK  status: ('A' for Active; 'I' for Inactive)
REMARK    1  A    between atoms: C_2  and  C_3 
REMARK    2  A    between atoms: C_3  and  O_6 
REMARK    3  A    between atoms: C_3  and  C_4 
REMARK    4  A    between atoms: C_7  and  O_6 
REMARK    5  A    between atoms: C_9  and  C_10 
REMARK    6  A    between atoms: N_15  and  C_14 
REMARK    7  A    between atoms: N_20  and  C_19 
REMARK       I    between atoms: C_22  and  N_20 
ROOT
ATOM      1  C   LIG d   1       0.771  83.235 110.798  0.00  0.00     0.161 C 
ATOM      2  C   LIG d   1       0.995  84.322 111.659  0.00  0.00     0.016 C 
ATOM      3  C   LIG d   1       0.339  84.479 112.902  0.00  0.00     0.038 C 
ATOM      4  C   LIG d   1      -0.480  83.474 113.440  0.00  0.00     0.028 C 
ATOM      5  C   LIG d   1      -1.129  82.590 112.381  0.00  0.00    -0.047 C 
ATOM      6  C   LIG d   1      -0.035  82.074 111.418  0.00  0.00     0.091 C 
ENDROOT
BRANCH   1   7
ATOM      7  O   LIG d   1       2.027  82.753 110.282  0.00  0.00    -0.368 OA
BRANCH   7   8
ATOM      8  C   LIG d   1       2.395  83.222 108.961  0.00  0.00     0.119 C 
BRANCH   8   9
ATOM      9  C   LIG d   1       1.092  83.459 108.174  0.00  0.00     0.028 C 
ATOM     10  C   LIG d   1       1.348  83.719 106.680  0.00  0.00     0.006 C 
ENDBRANCH   8   9
BRANCH   8  11
ATOM     11  C   LIG d   1       3.151  82.144 108.178  0.00  0.00     0.028 C 
ATOM     12  C   LIG d   1       4.000  81.235 109.082  0.00  0.00     0.006 C 
ENDBRANCH   8  11
ENDBRANCH   7   8
ENDBRANCH   1   7
BRANCH   6  13
ATOM     13  N   LIG d   1      -0.596  81.269 110.302  0.00  0.00    -0.311 N 
ATOM     14  C   LIG d   1      -0.039  80.144 109.857  0.00  0.00     0.210 C 
ATOM     15  C   LIG d   1      -0.768  79.481 108.685  0.00  0.00     0.109 C 
ATOM     16  O   LIG d   1       0.972  79.615 110.344  0.00  0.00    -0.276 OA
ATOM     17  H   LIG d   1      -1.432  81.609 109.870  0.00  0.00     0.149 HD
ENDBRANCH   6  13
BRANCH   5  18
ATOM     18  N   LIG d   1      -1.841  81.505 113.082  0.00  0.00     0.381 N 
ATOM     19  H   LIG d   1      -1.189  80.954 113.603  0.00  0.00    -0.090 HD
ATOM     20  H   LIG d   1      -2.281  80.912 112.400  0.00  0.00    -0.090 HD
ATOM     21  H   LIG d   1      -2.528  81.887 113.693  0.00  0.00    -0.090 HD
ENDBRANCH   5  18
BRANCH   3  22
ATOM     22  C   LIG d   1       0.468  85.669 113.602  0.00  0.00     0.382 C 
ATOM     23  O   LIG d   1      -0.383  86.579 113.453  0.00  0.00    -0.241 OA
ATOM     24  O   LIG d   1       1.448  85.861 114.346  0.00  0.00    -0.241 OA
ENDBRANCH   3  22
TORSDOF 7
ENDMDL
MODEL 8
REMARK VINA RESULT:      -6.0      2.115      4.965
REMARK  7 active torsions:
REMARK  status: ('A' for Active; 'I' for Inactive)
REMARK    1  A    between atoms: C_2  and  C_3 
REMARK    2  A    between atoms: C_3  and  O_6 
REMARK    3  A    between atoms: C_3  and  C_4 
REMARK    4  A    between atoms: C_7  and  O_6 
REMARK    5  A    between atoms: C_9  and  C_10 
REMARK    6  A    between atoms: N_15  and  C_14 
REMARK    7  A    between atoms: N_20  and  C_19 
REMARK       I    between atoms: C_22  and  N_20 
ROOT
ATOM      1  C   LIG d   1       2.176  84.115 110.787  0.00  0.00     0.161 C 
ATOM      2  C   LIG d   1       2.799  85.365 110.933  0.00  0.00     0.016 C 
ATOM      3  C   LIG d   1       2.683  86.161 112.096  0.00  0.00     0.038 C 
ATOM      4  C   LIG d   1       2.056  85.689 113.258  0.00  0.00     0.028 C 
ATOM      5  C   LIG d   1       0.982  84.641 112.984  0.00  0.00    -0.047 C 
ATOM      6  C   LIG d   1       1.579  83.534 112.086  0.00  0.00     0.091 C 
ENDROOT
BRANCH   1   7
ATOM      7  O   LIG d   1       3.096  83.177 110.195  0.00  0.00    -0.368 OA
BRANCH   7   8
ATOM      8  C   LIG d   1       2.977  82.984 108.764  0.00  0.00     0.119 C 
BRANCH   8   9
ATOM      9  C   LIG d   1       1.482  83.087 108.406  0.00  0.00     0.028 C 
ATOM     10  C   LIG d   1       1.256  83.607 106.976  0.00  0.00     0.006 C 
ENDBRANCH   8   9
BRANCH   8  11
ATOM     11  C   LIG d   1       3.394  81.568 108.356  0.00  0.00     0.028 C 
ATOM     12  C   LIG d   1       3.513  80.613 109.555  0.00  0.00     0.006 C 
ENDBRANCH   8  11
ENDBRANCH   7   8
ENDBRANCH   1   7
BRANCH   6  13
ATOM     13  N   LIG d   1       0.572  82.512 111.701  0.00  0.00    -0.311 N 
ATOM     14  C   LIG d   1       0.699  81.215 111.978  0.00  0.00     0.210 C 
ATOM     15  C   LIG d   1      -0.445  80.330 111.473  0.00  0.00     0.109 C 
ATOM     16  O   LIG d   1       1.636  80.719 112.622  0.00  0.00    -0.276 OA
ATOM     17  H   LIG d   1      -0.235  82.832 111.203  0.00  0.00     0.149 HD
ENDBRANCH   6  13
BRANCH   5  18
ATOM     18  N   LIG d   1       0.509  84.137 114.287  0.00  0.00     0.381 N 
ATOM     19  H   LIG d   1       0.420  83.141 114.253  0.00  0.00    -0.090 HD
ATOM     20  H   LIG d   1      -0.397  84.528 114.478  0.00  0.00    -0.090 HD
ATOM     21  H   LIG d   1       1.149  84.396 115.006  0.00  0.00    -0.090 HD
ENDBRANCH   5  18
BRANCH   3  22
ATOM     22  C   LIG d   1       3.165  87.461 112.089  0.00  0.00     0.382 C 
ATOM     23  O   LIG d   1       4.376  87.680 111.845  0.00  0.00    -0.241 OA
ATOM     24  O   LIG d   1       2.413  88.415 112.368  0.00  0.00    -0.241 OA
ENDBRANCH   3  22
TORSDOF 7
ENDMDL
MODEL 9
REMARK VINA RESULT:      -5.8      3.014      4.974
REMARK  7 active torsions:
REMARK  status: ('A' for Active; 'I' for Inactive)
REMARK    1  A    between atoms: C_2  and  C_3 
REMARK    2  A    between atoms: C_3  and  O_6 
REMARK    3  A    between atoms: C_3  and  C_4 
REMARK    4  A    between atoms: C_7  and  O_6 
REMARK    5  A    between atoms: C_9  and  C_10 
REMARK    6  A    between atoms: N_15  and  C_14 
REMARK    7  A    between atoms: N_20  and  C_19 
REMARK       I    between atoms: C_22  and  N_20 
ROOT
ATOM      1  C   LIG d   1       0.570  82.464 111.695  0.00  0.00     0.161 C 
ATOM      2  C   LIG d   1      -0.585  82.274 112.471  0.00  0.00     0.016 C 
ATOM      3  C   LIG d   1      -1.326  81.070 112.482  0.00  0.00     0.038 C 
ATOM      4  C   LIG d   1      -0.873  79.915 111.829  0.00  0.00     0.028 C 
ATOM      5  C   LIG d   1       0.019  80.209 110.627  0.00  0.00    -0.047 C 
ATOM      6  C   LIG d   1       1.142  81.178 111.062  0.00  0.00     0.091 C 
ENDROOT
BRANCH   1   7
ATOM      7  O   LIG d   1       1.581  83.129 112.478  0.00  0.00    -0.368 OA
BRANCH   7   8
ATOM      8  C   LIG d   1       1.873  84.499 112.110  0.00  0.00     0.119 C 
BRANCH   8   9
ATOM      9  C   LIG d   1       3.327  84.542 111.601  0.00  0.00     0.028 C 
ATOM     10  C   LIG d   1       4.085  85.787 112.092  0.00  0.00     0.006 C 
ENDBRANCH   8   9
BRANCH   8  11
ATOM     11  C   LIG d   1       1.844  85.423 113.331  0.00  0.00     0.028 C 
ATOM     12  C   LIG d   1       0.459  86.043 113.576  0.00  0.00     0.006 C 
ENDBRANCH   8  11
ENDBRANCH   7   8
ENDBRANCH   1   7
BRANCH   6  13
ATOM     13  N   LIG d   1       2.011  81.584 109.926  0.00  0.00    -0.311 N 
ATOM     14  C   LIG d   1       3.140  80.954 109.606  0.00  0.00     0.210 C 
ATOM     15  C   LIG d   1       3.895  81.548 108.412  0.00  0.00     0.109 C 
ATOM     16  O   LIG d   1       3.571  79.941 110.176  0.00  0.00    -0.276 OA
ATOM     17  H   LIG d   1       1.720  82.378 109.391  0.00  0.00     0.149 HD
ENDBRANCH   6  13
BRANCH   5  18
ATOM     18  N   LIG d   1       0.531  78.919 110.126  0.00  0.00     0.381 N 
ATOM     19  H   LIG d   1       1.073  78.470 110.837  0.00  0.00    -0.090 HD
ATOM     20  H   LIG d   1       1.127  79.091 109.336  0.00  0.00    -0.090 HD
ATOM     21  H   LIG d   1      -0.228  78.333 109.857  0.00  0.00    -0.090 HD
ENDBRANCH   5  18
BRANCH   3  22
ATOM     22  C   LIG d   1      -2.556  81.026 113.121  0.00  0.00     0.382 C 
ATOM     23  O   LIG d   1      -2.814  80.095 113.921  0.00  0.00    -0.241 OA
ATOM     24  O   LIG d   1      -3.428  81.881 112.873  0.00  0.00    -0.241 OA
ENDBRANCH   3  22
TORSDOF 7
ENDMDL
