MODEL 1
REMARK VINA RESULT:      -6.5      0.000      0.000
REMARK  7 active torsions:
REMARK  status: ('A' for Active; 'I' for Inactive)
REMARK    1  A    between atoms: C_2  and  C_3 
REMARK    2  A    between atoms: C_3  and  O_6 
REMARK    3  A    between atoms: C_3  and  C_4 
REMARK    4  A    between atoms: C_7  and  O_6 
REMARK    5  A    between atoms: C_9  and  C_10 
REMARK    6  A    between atoms: N_15  and  C_14 
REMARK    7  A    between atoms: N_20  and  C_19 
REMARK       I    between atoms: C_22  and  N_20 
ROOT
ATOM      1  C   LIG d   1       0.217  82.109 111.047  0.00  0.00     0.161 C 
ATOM      2  C   LIG d   1      -0.938  81.940 111.828  0.00  0.00     0.016 C 
ATOM      3  C   LIG d   1      -1.545  80.684 112.057  0.00  0.00     0.038 C 
ATOM      4  C   LIG d   1      -0.947  79.484 111.642  0.00  0.00     0.028 C 
ATOM      5  C   LIG d   1      -0.049  79.646 110.420  0.00  0.00    -0.047 C 
ATOM      6  C   LIG d   1       0.946  80.800 110.678  0.00  0.00     0.091 C 
ENDROOT
BRANCH   1   7
ATOM      7  O   LIG d   1       1.122  83.019 111.704  0.00  0.00    -0.368 OA
BRANCH   7   8
ATOM      8  C   LIG d   1       1.006  84.414 111.330  0.00  0.00     0.119 C 
BRANCH   8   9
ATOM      9  C   LIG d   1       0.887  84.474 109.795  0.00  0.00     0.028 C 
ATOM     10  C   LIG d   1       0.175  85.748 109.310  0.00  0.00     0.006 C 
ENDBRANCH   8   9
BRANCH   8  11
ATOM     11  C   LIG d   1       2.282  85.190 111.668  0.00  0.00     0.028 C 
ATOM     12  C   LIG d   1       3.451  84.854 110.728  0.00  0.00     0.006 C 
ENDBRANCH   8  11
ENDBRANCH   7   8
ENDBRANCH   1   7
BRANCH   6  13
ATOM     13  N   LIG d   1       1.806  81.081 109.499  0.00  0.00    -0.311 N 
ATOM     14  C   LIG d   1       3.110  81.341 109.588  0.00  0.00     0.210 C 
ATOM     15  C   LIG d   1       3.805  81.623 108.252  0.00  0.00     0.109 C 
ATOM     16  O   LIG d   1       3.763  81.333 110.642  0.00  0.00    -0.276 OA
ATOM     17  H   LIG d   1       1.364  81.077 108.601  0.00  0.00     0.149 HD
ENDBRANCH   6  13
BRANCH   5  18
ATOM     18  N   LIG d   1       0.616  78.352 110.181  0.00  0.00     0.381 N 
ATOM     19  H   LIG d   1       0.028  77.768 109.620  0.00  0.00    -0.090 HD
ATOM     20  H   LIG d   1       0.764  77.895 111.063  0.00  0.00    -0.090 HD
ATOM     21  H   LIG d   1       1.488  78.496 109.722  0.00  0.00    -0.090 HD
ENDBRANCH   5  18
BRANCH   3  22
ATOM     22  C   LIG d   1      -2.785  80.622 112.675  0.00  0.00     0.382 C 
ATOM     23  O   LIG d   1      -3.173  79.548 113.196  0.00  0.00    -0.241 OA
ATOM     24  O   LIG d   1      -3.539  81.613 112.678  0.00  0.00    -0.241 OA
ENDBRANCH   3  22
TORSDOF 7
ENDMDL
MODEL 2
REMARK VINA RESULT:      -6.3      2.473      4.972
REMARK  7 active torsions:
REMARK  status: ('A' for Active; 'I' for Inactive)
REMARK    1  A    between atoms: C_2  and  C_3 
REMARK    2  A    between atoms: C_3  and  O_6 
REMARK    3  A    between atoms: C_3  and  C_4 
REMARK    4  A    between atoms: C_7  and  O_6 
REMARK    5  A    between atoms: C_9  and  C_10 
REMARK    6  A    between atoms: N_15  and  C_14 
REMARK    7  A    between atoms: N_20  and  C_19 
REMARK       I    between atoms: C_22  and  N_20 
ROOT
ATOM      1  C   LIG d   1       1.738  83.666 109.389  0.00  0.00     0.161 C 
ATOM      2  C   LIG d   1       1.841  84.991 109.845  0.00  0.00     0.016 C 
ATOM      3  C   LIG d   1       1.022  85.529 110.864  0.00  0.00     0.038 C 
ATOM      4  C   LIG d   1       0.141  84.729 111.607  0.00  0.00     0.028 C 
ATOM      5  C   LIG d   1      -0.357  83.506 110.843  0.00  0.00    -0.047 C 
ATOM      6  C   LIG d   1       0.859  82.748 110.263  0.00  0.00     0.091 C 
ENDROOT
BRANCH   1   7
ATOM      7  O   LIG d   1       3.054  83.100 109.233  0.00  0.00    -0.368 OA
BRANCH   7   8
ATOM      8  C   LIG d   1       3.595  82.417 110.391  0.00  0.00     0.119 C 
BRANCH   8   9
ATOM      9  C   LIG d   1       4.794  83.243 110.897  0.00  0.00     0.028 C 
ATOM     10  C   LIG d   1       4.511  83.923 112.247  0.00  0.00     0.006 C 
ENDBRANCH   8   9
BRANCH   8  11
ATOM     11  C   LIG d   1       4.175  81.051 110.012  0.00  0.00     0.028 C 
ATOM     12  C   LIG d   1       3.850  80.646 108.566  0.00  0.00     0.006 C 
ENDBRANCH   8  11
ENDBRANCH   7   8
ENDBRANCH   1   7
BRANCH   6  13
ATOM     13  N   LIG d   1       0.456  81.585 109.431  0.00  0.00    -0.311 N 
ATOM     14  C   LIG d   1       0.391  80.338 109.895  0.00  0.00     0.210 C 
ATOM     15  C   LIG d   1      -0.026  79.285 108.864  0.00  0.00     0.109 C 
ATOM     16  O   LIG d   1       0.608  80.009 111.071  0.00  0.00    -0.276 OA
ATOM     17  H   LIG d   1       0.233  81.766 108.472  0.00  0.00     0.149 HD
ENDBRANCH   6  13
BRANCH   5  18
ATOM     18  N   LIG d   1      -1.155  82.691 111.779  0.00  0.00     0.381 N 
ATOM     19  H   LIG d   1      -1.582  83.282 112.464  0.00  0.00    -0.090 HD
ATOM     20  H   LIG d   1      -0.544  82.049 112.253  0.00  0.00    -0.090 HD
ATOM     21  H   LIG d   1      -1.855  82.187 111.280  0.00  0.00    -0.090 HD
ENDBRANCH   5  18
BRANCH   3  22
ATOM     22  C   LIG d   1       1.052  86.891 111.123  0.00  0.00     0.382 C 
ATOM     23  O   LIG d   1      -0.020  87.540 111.188  0.00  0.00    -0.241 OA
ATOM     24  O   LIG d   1       2.138  87.487 111.247  0.00  0.00    -0.241 OA
ENDBRANCH   3  22
TORSDOF 7
ENDMDL
MODEL 3
REMARK VINA RESULT:      -6.3      2.338      3.663
REMARK  7 active torsions:
REMARK  status: ('A' for Active; 'I' for Inactive)
REMARK    1  A    between atoms: C_2  and  C_3 
REMARK    2  A    between atoms: C_3  and  O_6 
REMARK    3  A    between atoms: C_3  and  C_4 
REMARK    4  A    between atoms: C_7  and  O_6 
REMARK    5  A    between atoms: C_9  and  C_10 
REMARK    6  A    between atoms: N_15  and  C_14 
REMARK    7  A    between atoms: N_20  and  C_19 
REMARK       I    between atoms: C_22  and  N_20 
ROOT
ATOM      1  C   LIG d   1       0.046  83.556 110.679  0.00  0.00     0.161 C 
ATOM      2  C   LIG d   1      -0.047  84.498 111.717  0.00  0.00     0.016 C 
ATOM      3  C   LIG d   1      -0.214  84.144 113.076  0.00  0.00     0.038 C 
ATOM      4  C   LIG d   1      -0.148  82.812 113.509  0.00  0.00     0.028 C 
ATOM      5  C   LIG d   1      -0.561  81.806 112.439  0.00  0.00    -0.047 C 
ATOM      6  C   LIG d   1       0.232  82.097 111.144  0.00  0.00     0.091 C 
ENDROOT
BRANCH   1   7
ATOM      7  O   LIG d   1       1.102  83.931 109.772  0.00  0.00    -0.368 OA
BRANCH   7   8
ATOM      8  C   LIG d   1       2.440  83.521 110.148  0.00  0.00     0.119 C 
BRANCH   8   9
ATOM      9  C   LIG d   1       3.264  84.799 110.395  0.00  0.00     0.028 C 
ATOM     10  C   LIG d   1       3.824  84.868 111.826  0.00  0.00     0.006 C 
ENDBRANCH   8   9
BRANCH   8  11
ATOM     11  C   LIG d   1       3.146  82.800 108.995  0.00  0.00     0.028 C 
ATOM     12  C   LIG d   1       4.112  81.707 109.478  0.00  0.00     0.006 C 
ENDBRANCH   8  11
ENDBRANCH   7   8
ENDBRANCH   1   7
BRANCH   6  13
ATOM     13  N   LIG d   1      -0.173  81.211 110.021  0.00  0.00    -0.311 N 
ATOM     14  C   LIG d   1       0.458  80.078 109.717  0.00  0.00     0.210 C 
ATOM     15  C   LIG d   1      -0.110  79.327 108.509  0.00  0.00     0.109 C 
ATOM     16  O   LIG d   1       1.413  79.608 110.353  0.00  0.00    -0.276 OA
ATOM     17  H   LIG d   1      -0.958  81.502 109.472  0.00  0.00     0.149 HD
ENDBRANCH   6  13
BRANCH   5  18
ATOM     18  N   LIG d   1      -0.314  80.455 112.978  0.00  0.00     0.381 N 
ATOM     19  H   LIG d   1      -0.500  80.444 113.961  0.00  0.00    -0.090 HD
ATOM     20  H   LIG d   1       0.653  80.221 112.837  0.00  0.00    -0.090 HD
ATOM     21  H   LIG d   1      -0.895  79.792 112.515  0.00  0.00    -0.090 HD
ENDBRANCH   5  18
BRANCH   3  22
ATOM     22  C   LIG d   1      -0.490  85.128 114.013  0.00  0.00     0.382 C 
ATOM     23  O   LIG d   1       0.449  85.760 114.554  0.00  0.00    -0.241 OA
ATOM     24  O   LIG d   1      -1.665  85.362 114.356  0.00  0.00    -0.241 OA
ENDBRANCH   3  22
TORSDOF 7
ENDMDL
MODEL 4
REMARK VINA RESULT:      -6.2      2.509      4.436
REMARK  7 active torsions:
REMARK  status: ('A' for Active; 'I' for Inactive)
REMARK    1  A    between atoms: C_2  and  C_3 
REMARK    2  A    between atoms: C_3  and  O_6 
REMARK    3  A    between atoms: C_3  and  C_4 
REMARK    4  A    between atoms: C_7  and  O_6 
REMARK    5  A    between atoms: C_9  and  C_10 
REMARK    6  A    between atoms: N_15  and  C_14 
REMARK    7  A    between atoms: N_20  and  C_19 
REMARK       I    between atoms: C_22  and  N_20 
ROOT
ATOM      1  C   LIG d   1       1.488  81.846 111.472  0.00  0.00     0.161 C 
ATOM      2  C   LIG d   1       1.799  80.751 110.648  0.00  0.00     0.016 C 
ATOM      3  C   LIG d   1       0.899  79.693 110.386  0.00  0.00     0.038 C 
ATOM      4  C   LIG d   1      -0.437  79.734 110.813  0.00  0.00     0.028 C 
ATOM      5  C   LIG d   1      -0.647  80.574 112.068  0.00  0.00    -0.047 C 
ATOM      6  C   LIG d   1      -0.002  81.962 111.856  0.00  0.00     0.091 C 
ENDROOT
BRANCH   1   7
ATOM      7  O   LIG d   1       1.944  83.066 110.856  0.00  0.00    -0.368 OA
BRANCH   7   8
ATOM      8  C   LIG d   1       2.464  82.945 109.510  0.00  0.00     0.119 C 
BRANCH   8   9
ATOM      9  C   LIG d   1       3.870  83.577 109.498  0.00  0.00     0.028 C 
ATOM     10  C   LIG d   1       4.891  82.751 110.299  0.00  0.00     0.006 C 
ENDBRANCH   8   9
BRANCH   8  11
ATOM     11  C   LIG d   1       1.640  83.772 108.518  0.00  0.00     0.028 C 
ATOM     12  C   LIG d   1       0.875  84.922 109.191  0.00  0.00     0.006 C 
ENDBRANCH   8  11
ENDBRANCH   7   8
ENDBRANCH   1   7
BRANCH   6  13
ATOM     13  N   LIG d   1      -0.089  82.818 113.068  0.00  0.00    -0.311 N 
ATOM     14  C   LIG d   1      -0.611  84.043 113.065  0.00  0.00     0.210 C 
ATOM     15  C   LIG d   1      -0.584  84.762 114.417  0.00  0.00     0.109 C 
ATOM     16  O   LIG d   1      -1.124  84.591 112.077  0.00  0.00    -0.276 OA
ATOM     17  H   LIG d   1       0.276  82.440 113.920  0.00  0.00     0.149 HD
ENDBRANCH   6  13
BRANCH   5  18
ATOM     18  N   LIG d   1      -2.098  80.642 112.321  0.00  0.00     0.381 N 
ATOM     19  H   LIG d   1      -2.588  80.116 111.625  0.00  0.00    -0.090 HD
ATOM     20  H   LIG d   1      -2.394  81.600 112.258  0.00  0.00    -0.090 HD
ATOM     21  H   LIG d   1      -2.304  80.282 113.226  0.00  0.00    -0.090 HD
ENDBRANCH   5  18
BRANCH   3  22
ATOM     22  C   LIG d   1       1.345  78.560 109.724  0.00  0.00     0.382 C 
ATOM     23  O   LIG d   1       1.197  77.429 110.247  0.00  0.00    -0.241 OA
ATOM     24  O   LIG d   1       1.933  78.657 108.630  0.00  0.00    -0.241 OA
ENDBRANCH   3  22
TORSDOF 7
ENDMDL
MODEL 5
REMARK VINA RESULT:      -6.1      2.428      4.976
REMARK  7 active torsions:
REMARK  status: ('A' for Active; 'I' for Inactive)
REMARK    1  A    between atoms: C_2  and  C_3 
REMARK    2  A    between atoms: C_3  and  O_6 
REMARK    3  A    between atoms: C_3  and  C_4 
REMARK    4  A    between atoms: C_7  and  O_6 
REMARK    5  A    between atoms: C_9  and  C_10 
REMARK    6  A    between atoms: N_15  and  C_14 
REMARK    7  A    between atoms: N_20  and  C_19 
REMARK       I    between atoms: C_22  and  N_20 
ROOT
ATOM      1  C   LIG d   1       1.108  83.031 110.238  0.00  0.00     0.161 C 
ATOM      2  C   LIG d   1       1.407  84.403 110.290  0.00  0.00     0.016 C 
ATOM      3  C   LIG d   1       0.833  85.289 111.231  0.00  0.00     0.038 C 
ATOM      4  C   LIG d   1       0.031  84.831 112.287  0.00  0.00     0.028 C 
ATOM      5  C   LIG d   1      -0.701  83.531 111.973  0.00  0.00    -0.047 C 
ATOM      6  C   LIG d   1       0.320  82.494 111.451  0.00  0.00     0.091 C 
ENDROOT
BRANCH   1   7
ATOM      7  O   LIG d   1       2.319  82.273 110.052  0.00  0.00    -0.368 OA
BRANCH   7   8
ATOM      8  C   LIG d   1       3.560  83.002 110.226  0.00  0.00     0.119 C 
BRANCH   8   9
ATOM      9  C   LIG d   1       4.462  82.675 109.020  0.00  0.00     0.028 C 
ATOM     10  C   LIG d   1       3.729  81.855 107.944  0.00  0.00     0.006 C 
ENDBRANCH   8   9
BRANCH   8  11
ATOM     11  C   LIG d   1       4.329  82.507 111.454  0.00  0.00     0.028 C 
ATOM     12  C   LIG d   1       4.769  83.650 112.382  0.00  0.00     0.006 C 
ENDBRANCH   8  11
ENDBRANCH   7   8
ENDBRANCH   1   7
BRANCH   6  13
ATOM     13  N   LIG d   1      -0.326  81.220 111.040  0.00  0.00    -0.311 N 
ATOM     14  C   LIG d   1      -0.575  80.219 111.883  0.00  0.00     0.210 C 
ATOM     15  C   LIG d   1      -1.228  78.988 111.249  0.00  0.00     0.109 C 
ATOM     16  O   LIG d   1      -0.346  80.247 113.102  0.00  0.00    -0.276 OA
ATOM     17  H   LIG d   1      -0.573  81.125 110.075  0.00  0.00     0.149 HD
ENDBRANCH   6  13
BRANCH   5  18
ATOM     18  N   LIG d   1      -1.388  83.098 113.204  0.00  0.00     0.381 N 
ATOM     19  H   LIG d   1      -2.370  83.276 113.124  0.00  0.00    -0.090 HD
ATOM     20  H   LIG d   1      -1.033  83.629 113.979  0.00  0.00    -0.090 HD
ATOM     21  H   LIG d   1      -1.231  82.126 113.358  0.00  0.00    -0.090 HD
ENDBRANCH   5  18
BRANCH   3  22
ATOM     22  C   LIG d   1       1.029  86.655 111.097  0.00  0.00     0.382 C 
ATOM     23  O   LIG d   1       2.192  87.114 110.995  0.00  0.00    -0.241 OA
ATOM     24  O   LIG d   1       0.061  87.437 111.120  0.00  0.00    -0.241 OA
ENDBRANCH   3  22
TORSDOF 7
ENDMDL
MODEL 6
REMARK VINA RESULT:      -6.0      1.612      2.321
REMARK  7 active torsions:
REMARK  status: ('A' for Active; 'I' for Inactive)
REMARK    1  A    between atoms: C_2  and  C_3 
REMARK    2  A    between atoms: C_3  and  O_6 
REMARK    3  A    between atoms: C_3  and  C_4 
REMARK    4  A    between atoms: C_7  and  O_6 
REMARK    5  A    between atoms: C_9  and  C_10 
REMARK    6  A    between atoms: N_15  and  C_14 
REMARK    7  A    between atoms: N_20  and  C_19 
REMARK       I    between atoms: C_22  and  N_20 
ROOT
ATOM      1  C   LIG d   1       0.301  81.120 111.381  0.00  0.00     0.161 C 
ATOM      2  C   LIG d   1      -0.758  80.392 111.950  0.00  0.00     0.016 C 
ATOM      3  C   LIG d   1      -1.204  79.147 111.449  0.00  0.00     0.038 C 
ATOM      4  C   LIG d   1      -0.519  78.470 110.429  0.00  0.00     0.028 C 
ATOM      5  C   LIG d   1       0.247  79.399 109.493  0.00  0.00    -0.047 C 
ATOM      6  C   LIG d   1       1.131  80.344 110.337  0.00  0.00     0.091 C 
ENDROOT
BRANCH   1   7
ATOM      7  O   LIG d   1       1.156  81.633 112.421  0.00  0.00    -0.368 OA
BRANCH   7   8
ATOM      8  C   LIG d   1       1.245  83.076 112.520  0.00  0.00     0.119 C 
BRANCH   8   9
ATOM      9  C   LIG d   1       2.737  83.454 112.446  0.00  0.00     0.028 C 
ATOM     10  C   LIG d   1       3.036  84.442 111.306  0.00  0.00     0.006 C 
ENDBRANCH   8   9
BRANCH   8  11
ATOM     11  C   LIG d   1       0.768  83.571 113.889  0.00  0.00     0.028 C 
ATOM     12  C   LIG d   1      -0.484  84.457 113.799  0.00  0.00     0.006 C 
ENDBRANCH   8  11
ENDBRANCH   7   8
ENDBRANCH   1   7
BRANCH   6  13
ATOM     13  N   LIG d   1       1.851  81.342 109.503  0.00  0.00    -0.311 N 
ATOM     14  C   LIG d   1       3.107  81.183 109.089  0.00  0.00     0.210 C 
ATOM     15  C   LIG d   1       3.665  82.341 108.256  0.00  0.00     0.109 C 
ATOM     16  O   LIG d   1       3.800  80.178 109.305  0.00  0.00    -0.276 OA
ATOM     17  H   LIG d   1       1.352  82.174 109.255  0.00  0.00     0.149 HD
ENDBRANCH   6  13
BRANCH   5  18
ATOM     18  N   LIG d   1       1.024  78.555 108.565  0.00  0.00     0.381 N 
ATOM     19  H   LIG d   1       0.492  78.387 107.734  0.00  0.00    -0.090 HD
ATOM     20  H   LIG d   1       1.207  77.671 109.006  0.00  0.00    -0.090 HD
ATOM     21  H   LIG d   1       1.883  79.004 108.334  0.00  0.00    -0.090 HD
ENDBRANCH   5  18
BRANCH   3  22
ATOM     22  C   LIG d   1      -2.372  78.587 111.943  0.00  0.00     0.382 C 
ATOM     23  O   LIG d   1      -3.080  79.228 112.756  0.00  0.00    -0.241 OA
ATOM     24  O   LIG d   1      -2.703  77.430 111.620  0.00  0.00    -0.241 OA
ENDBRANCH   3  22
TORSDOF 7
ENDMDL
MODEL 7
REMARK VINA RESULT:      -5.8      2.230      4.021
REMARK  7 active torsions:
REMARK  status: ('A' for Active; 'I' for Inactive)
REMARK    1  A    between atoms: C_2  and  C_3 
REMARK    2  A    between atoms: C_3  and  O_6 
REMARK    3  A    between atoms: C_3  and  C_4 
REMARK    4  A    between atoms: C_7  and  O_6 
REMARK    5  A    between atoms: C_9  and  C_10 
REMARK    6  A    between atoms: N_15  and  C_14 
REMARK    7  A    between atoms: N_20  and  C_19 
REMARK       I    between atoms: C_22  and  N_20 
ROOT
ATOM      1  C   LIG d   1       0.656  81.251 111.551  0.00  0.00     0.161 C 
ATOM      2  C   LIG d   1      -0.680  80.836 111.682  0.00  0.00     0.016 C 
ATOM      3  C   LIG d   1      -1.636  81.525 112.463  0.00  0.00     0.038 C 
ATOM      4  C   LIG d   1      -1.358  82.769 113.048  0.00  0.00     0.028 C 
ATOM      5  C   LIG d   1       0.121  82.975 113.360  0.00  0.00    -0.047 C 
ATOM      6  C   LIG d   1       0.949  82.666 112.092  0.00  0.00     0.091 C 
ENDROOT
BRANCH   1   7
ATOM      7  O   LIG d   1       1.067  81.146 110.173  0.00  0.00    -0.368 OA
BRANCH   7   8
ATOM      8  C   LIG d   1       1.978  80.064 109.861  0.00  0.00     0.119 C 
BRANCH   8   9
ATOM      9  C   LIG d   1       3.098  80.642 108.974  0.00  0.00     0.028 C 
ATOM     10  C   LIG d   1       2.911  82.144 108.700  0.00  0.00     0.006 C 
ENDBRANCH   8   9
BRANCH   8  11
ATOM     11  C   LIG d   1       1.297  78.991 109.006  0.00  0.00     0.028 C 
ATOM     12  C   LIG d   1      -0.100  79.412 108.523  0.00  0.00     0.006 C 
ENDBRANCH   8  11
ENDBRANCH   7   8
ENDBRANCH   1   7
BRANCH   6  13
ATOM     13  N   LIG d   1       2.412  82.761 112.333  0.00  0.00    -0.311 N 
ATOM     14  C   LIG d   1       3.133  83.845 112.050  0.00  0.00     0.210 C 
ATOM     15  C   LIG d   1       4.629  83.726 112.359  0.00  0.00     0.109 C 
ATOM     16  O   LIG d   1       2.670  84.906 111.603  0.00  0.00    -0.276 OA
ATOM     17  H   LIG d   1       2.864  81.957 112.723  0.00  0.00     0.149 HD
ENDBRANCH   6  13
BRANCH   5  18
ATOM     18  N   LIG d   1       0.287  84.361 113.836  0.00  0.00     0.381 N 
ATOM     19  H   LIG d   1      -0.212  84.486 114.694  0.00  0.00    -0.090 HD
ATOM     20  H   LIG d   1      -0.098  84.988 113.152  0.00  0.00    -0.090 HD
ATOM     21  H   LIG d   1       1.254  84.561 113.973  0.00  0.00    -0.090 HD
ENDBRANCH   5  18
BRANCH   3  22
ATOM     22  C   LIG d   1      -2.875  80.949 112.698  0.00  0.00     0.382 C 
ATOM     23  O   LIG d   1      -3.907  81.663 112.705  0.00  0.00    -0.241 OA
ATOM     24  O   LIG d   1      -2.970  79.732 112.947  0.00  0.00    -0.241 OA
ENDBRANCH   3  22
TORSDOF 7
ENDMDL
MODEL 8
REMARK VINA RESULT:      -5.7      2.939      3.985
REMARK  7 active torsions:
REMARK  status: ('A' for Active; 'I' for Inactive)
REMARK    1  A    between atoms: C_2  and  C_3 
REMARK    2  A    between atoms: C_3  and  O_6 
REMARK    3  A    between atoms: C_3  and  C_4 
REMARK    4  A    between atoms: C_7  and  O_6 
REMARK    5  A    between atoms: C_9  and  C_10 
REMARK    6  A    between atoms: N_15  and  C_14 
REMARK    7  A    between atoms: N_20  and  C_19 
REMARK       I    between atoms: C_22  and  N_20 
ROOT
ATOM      1  C   LIG d   1       2.281  84.356 110.207  0.00  0.00     0.161 C 
ATOM      2  C   LIG d   1       1.257  85.298 110.400  0.00  0.00     0.016 C 
ATOM      3  C   LIG d   1      -0.071  84.947 110.732  0.00  0.00     0.038 C 
ATOM      4  C   LIG d   1      -0.434  83.627 111.043  0.00  0.00     0.028 C 
ATOM      5  C   LIG d   1       0.449  82.582 110.369  0.00  0.00    -0.047 C 
ATOM      6  C   LIG d   1       1.931  82.920 110.650  0.00  0.00     0.091 C 
ENDROOT
BRANCH   1   7
ATOM      7  O   LIG d   1       3.486  84.803 110.860  0.00  0.00    -0.368 OA
BRANCH   7   8
ATOM      8  C   LIG d   1       3.305  85.639 112.028  0.00  0.00     0.119 C 
BRANCH   8   9
ATOM      9  C   LIG d   1       4.311  86.802 111.926  0.00  0.00     0.028 C 
ATOM     10  C   LIG d   1       4.853  87.231 113.299  0.00  0.00     0.006 C 
ENDBRANCH   8   9
BRANCH   8  11
ATOM     11  C   LIG d   1       3.678  84.892 113.312  0.00  0.00     0.028 C 
ATOM     12  C   LIG d   1       2.458  84.290 114.027  0.00  0.00     0.006 C 
ENDBRANCH   8  11
ENDBRANCH   7   8
ENDBRANCH   1   7
BRANCH   6  13
ATOM     13  N   LIG d   1       2.865  81.995 109.957  0.00  0.00    -0.311 N 
ATOM     14  C   LIG d   1       3.960  81.495 110.527  0.00  0.00     0.210 C 
ATOM     15  C   LIG d   1       4.794  80.577 109.629  0.00  0.00     0.109 C 
ATOM     16  O   LIG d   1       4.301  81.699 111.702  0.00  0.00    -0.276 OA
ATOM     17  H   LIG d   1       2.647  81.752 109.010  0.00  0.00     0.149 HD
ENDBRANCH   6  13
BRANCH   5  18
ATOM     18  N   LIG d   1       0.049  81.260 110.887  0.00  0.00     0.381 N 
ATOM     19  H   LIG d   1       0.627  81.012 111.665  0.00  0.00    -0.090 HD
ATOM     20  H   LIG d   1       0.182  80.574 110.165  0.00  0.00    -0.090 HD
ATOM     21  H   LIG d   1      -0.907  81.278 111.167  0.00  0.00    -0.090 HD
ENDBRANCH   5  18
BRANCH   3  22
ATOM     22  C   LIG d   1      -1.063  85.915 110.716  0.00  0.00     0.382 C 
ATOM     23  O   LIG d   1      -1.529  86.353 111.796  0.00  0.00    -0.241 OA
ATOM     24  O   LIG d   1      -1.529  86.325 109.636  0.00  0.00    -0.241 OA
ENDBRANCH   3  22
TORSDOF 7
ENDMDL
MODEL 9
REMARK VINA RESULT:      -5.7      2.205      5.072
REMARK  7 active torsions:
REMARK  status: ('A' for Active; 'I' for Inactive)
REMARK    1  A    between atoms: C_2  and  C_3 
REMARK    2  A    between atoms: C_3  and  O_6 
REMARK    3  A    between atoms: C_3  and  C_4 
REMARK    4  A    between atoms: C_7  and  O_6 
REMARK    5  A    between atoms: C_9  and  C_10 
REMARK    6  A    between atoms: N_15  and  C_14 
REMARK    7  A    between atoms: N_20  and  C_19 
REMARK       I    between atoms: C_22  and  N_20 
ROOT
ATOM      1  C   LIG d   1       1.706  82.619 111.685  0.00  0.00     0.161 C 
ATOM      2  C   LIG d   1       1.908  84.005 111.802  0.00  0.00     0.016 C 
ATOM      3  C   LIG d   1       2.011  84.873 110.691  0.00  0.00     0.038 C 
ATOM      4  C   LIG d   1       1.767  84.433 109.382  0.00  0.00     0.028 C 
ATOM      5  C   LIG d   1       2.059  82.951 109.176  0.00  0.00    -0.047 C 
ATOM      6  C   LIG d   1       1.327  82.139 110.268  0.00  0.00     0.091 C 
ENDROOT
BRANCH   1   7
ATOM      7  O   LIG d   1       0.719  82.186 112.642  0.00  0.00    -0.368 OA
BRANCH   7   8
ATOM      8  C   LIG d   1      -0.629  82.674 112.432  0.00  0.00     0.119 C 
BRANCH   8   9
ATOM      9  C   LIG d   1      -1.017  83.508 113.669  0.00  0.00     0.028 C 
ATOM     10  C   LIG d   1      -0.856  85.019 113.432  0.00  0.00     0.006 C 
ENDBRANCH   8   9
BRANCH   8  11
ATOM     11  C   LIG d   1      -1.637  81.522 112.387  0.00  0.00     0.028 C 
ATOM     12  C   LIG d   1      -0.978  80.145 112.561  0.00  0.00     0.006 C 
ENDBRANCH   8  11
ENDBRANCH   7   8
ENDBRANCH   1   7
BRANCH   6  13
ATOM     13  N   LIG d   1       1.627  80.685 110.191  0.00  0.00    -0.311 N 
ATOM     14  C   LIG d   1       0.834  79.804 109.585  0.00  0.00     0.210 C 
ATOM     15  C   LIG d   1       1.320  78.352 109.638  0.00  0.00     0.109 C 
ATOM     16  O   LIG d   1      -0.210  80.091 108.980  0.00  0.00    -0.276 OA
ATOM     17  H   LIG d   1       2.471  80.370 110.629  0.00  0.00     0.149 HD
ENDBRANCH   6  13
BRANCH   5  18
ATOM     18  N   LIG d   1       1.632  82.598 107.809  0.00  0.00     0.381 N 
ATOM     19  H   LIG d   1       2.383  82.147 107.325  0.00  0.00    -0.090 HD
ATOM     20  H   LIG d   1       1.398  83.440 107.314  0.00  0.00    -0.090 HD
ATOM     21  H   LIG d   1       0.840  81.994 107.844  0.00  0.00    -0.090 HD
ENDBRANCH   5  18
BRANCH   3  22
ATOM     22  C   LIG d   1       2.401  86.190 110.882  0.00  0.00     0.382 C 
ATOM     23  O   LIG d   1       3.540  86.446 111.340  0.00  0.00    -0.241 OA
ATOM     24  O   LIG d   1       1.611  87.123 110.644  0.00  0.00    -0.241 OA
ENDBRANCH   3  22
TORSDOF 7
ENDMDL
