MODEL 1
REMARK VINA RESULT:      -6.8      0.000      0.000
REMARK  7 active torsions:
REMARK  status: ('A' for Active; 'I' for Inactive)
REMARK    1  A    between atoms: C_2  and  C_3 
REMARK    2  A    between atoms: C_3  and  O_6 
REMARK    3  A    between atoms: C_3  and  C_4 
REMARK    4  A    between atoms: C_7  and  O_6 
REMARK    5  A    between atoms: C_9  and  C_10 
REMARK    6  A    between atoms: N_15  and  C_14 
REMARK    7  A    between atoms: N_20  and  C_19 
REMARK       I    between atoms: C_22  and  N_20 
ROOT
ATOM      1  C   LIG d   1       0.220  82.998 110.573  0.00  0.00     0.161 C 
ATOM      2  C   LIG d   1      -0.932  82.791 111.349  0.00  0.00     0.016 C 
ATOM      3  C   LIG d   1      -0.944  82.020 112.534  0.00  0.00     0.038 C 
ATOM      4  C   LIG d   1       0.236  81.525 113.108  0.00  0.00     0.028 C 
ATOM      5  C   LIG d   1       1.348  81.282 112.093  0.00  0.00    -0.047 C 
ATOM      6  C   LIG d   1       1.539  82.558 111.243  0.00  0.00     0.091 C 
ENDROOT
BRANCH   1   7
ATOM      7  O   LIG d   1       0.298  84.380 110.173  0.00  0.00    -0.368 OA
BRANCH   7   8
ATOM      8  C   LIG d   1       0.857  85.295 111.147  0.00  0.00     0.119 C 
BRANCH   8   9
ATOM      9  C   LIG d   1      -0.227  86.339 111.478  0.00  0.00     0.028 C 
ATOM     10  C   LIG d   1      -1.337  86.390 110.415  0.00  0.00     0.006 C 
ENDBRANCH   8   9
BRANCH   8  11
ATOM     11  C   LIG d   1       2.023  86.094 110.556  0.00  0.00     0.028 C 
ATOM     12  C   LIG d   1       2.946  86.686 111.633  0.00  0.00     0.006 C 
ENDBRANCH   8  11
ENDBRANCH   7   8
ENDBRANCH   1   7
BRANCH   6  13
ATOM     13  N   LIG d   1       2.550  82.378 110.169  0.00  0.00    -0.311 N 
ATOM     14  C   LIG d   1       3.808  82.806 110.267  0.00  0.00     0.210 C 
ATOM     15  C   LIG d   1       4.681  82.536 109.038  0.00  0.00     0.109 C 
ATOM     16  O   LIG d   1       4.292  83.354 111.269  0.00  0.00    -0.276 OA
ATOM     17  H   LIG d   1       2.251  81.915 109.334  0.00  0.00     0.149 HD
ENDBRANCH   6  13
BRANCH   5  18
ATOM     18  N   LIG d   1       2.560  80.899 112.843  0.00  0.00     0.381 N 
ATOM     19  H   LIG d   1       3.046  80.174 112.354  0.00  0.00    -0.090 HD
ATOM     20  H   LIG d   1       2.287  80.545 113.742  0.00  0.00    -0.090 HD
ATOM     21  H   LIG d   1       3.155  81.691 112.955  0.00  0.00    -0.090 HD
ENDBRANCH   5  18
BRANCH   3  22
ATOM     22  C   LIG d   1      -2.153  81.703 113.136  0.00  0.00     0.382 C 
ATOM     23  O   LIG d   1      -3.209  81.707 112.460  0.00  0.00    -0.241 OA
ATOM     24  O   LIG d   1      -2.205  81.458 114.356  0.00  0.00    -0.241 OA
ENDBRANCH   3  22
TORSDOF 7
ENDMDL
MODEL 2
REMARK VINA RESULT:      -6.5      1.338      2.131
REMARK  7 active torsions:
REMARK  status: ('A' for Active; 'I' for Inactive)
REMARK    1  A    between atoms: C_2  and  C_3 
REMARK    2  A    between atoms: C_3  and  O_6 
REMARK    3  A    between atoms: C_3  and  C_4 
REMARK    4  A    between atoms: C_7  and  O_6 
REMARK    5  A    between atoms: C_9  and  C_10 
REMARK    6  A    between atoms: N_15  and  C_14 
REMARK    7  A    between atoms: N_20  and  C_19 
REMARK       I    between atoms: C_22  and  N_20 
ROOT
ATOM      1  C   LIG d   1      -0.042  83.174 111.402  0.00  0.00     0.161 C 
ATOM      2  C   LIG d   1      -1.173  82.847 112.167  0.00  0.00     0.016 C 
ATOM      3  C   LIG d   1      -1.605  81.519 112.389  0.00  0.00     0.038 C 
ATOM      4  C   LIG d   1      -0.842  80.414 111.983  0.00  0.00     0.028 C 
ATOM      5  C   LIG d   1       0.042  80.699 110.774  0.00  0.00    -0.047 C 
ATOM      6  C   LIG d   1       0.866  81.978 111.045  0.00  0.00     0.091 C 
ENDROOT
BRANCH   1   7
ATOM      7  O   LIG d   1       0.720  84.199 112.071  0.00  0.00    -0.368 OA
BRANCH   7   8
ATOM      8  C   LIG d   1       0.953  85.414 111.317  0.00  0.00     0.119 C 
BRANCH   8   9
ATOM      9  C   LIG d   1       2.207  86.091 111.905  0.00  0.00     0.028 C 
ATOM     10  C   LIG d   1       3.464  85.835 111.057  0.00  0.00     0.006 C 
ENDBRANCH   8   9
BRANCH   8  11
ATOM     11  C   LIG d   1      -0.183  86.421 111.519  0.00  0.00     0.028 C 
ATOM     12  C   LIG d   1      -1.266  86.324 110.432  0.00  0.00     0.006 C 
ENDBRANCH   8  11
ENDBRANCH   7   8
ENDBRANCH   1   7
BRANCH   6  13
ATOM     13  N   LIG d   1       1.696  82.376 109.878  0.00  0.00    -0.311 N 
ATOM     14  C   LIG d   1       3.026  82.428 109.908  0.00  0.00     0.210 C 
ATOM     15  C   LIG d   1       3.685  82.882 108.602  0.00  0.00     0.109 C 
ATOM     16  O   LIG d   1       3.724  82.110 110.883  0.00  0.00    -0.276 OA
ATOM     17  H   LIG d   1       1.212  82.620 109.036  0.00  0.00     0.149 HD
ENDBRANCH   6  13
BRANCH   5  18
ATOM     18  N   LIG d   1       0.882  79.508 110.545  0.00  0.00     0.381 N 
ATOM     19  H   LIG d   1       1.782  79.788 110.211  0.00  0.00    -0.090 HD
ATOM     20  H   LIG d   1       0.448  78.935 109.843  0.00  0.00    -0.090 HD
ATOM     21  H   LIG d   1       0.979  78.992 111.392  0.00  0.00    -0.090 HD
ENDBRANCH   5  18
BRANCH   3  22
ATOM     22  C   LIG d   1      -2.834  81.287 112.989  0.00  0.00     0.382 C 
ATOM     23  O   LIG d   1      -3.335  80.137 112.967  0.00  0.00    -0.241 OA
ATOM     24  O   LIG d   1      -3.468  82.222 113.513  0.00  0.00    -0.241 OA
ENDBRANCH   3  22
TORSDOF 7
ENDMDL
MODEL 3
REMARK VINA RESULT:      -6.4      2.115      4.988
REMARK  7 active torsions:
REMARK  status: ('A' for Active; 'I' for Inactive)
REMARK    1  A    between atoms: C_2  and  C_3 
REMARK    2  A    between atoms: C_3  and  O_6 
REMARK    3  A    between atoms: C_3  and  C_4 
REMARK    4  A    between atoms: C_7  and  O_6 
REMARK    5  A    between atoms: C_9  and  C_10 
REMARK    6  A    between atoms: N_15  and  C_14 
REMARK    7  A    between atoms: N_20  and  C_19 
REMARK       I    between atoms: C_22  and  N_20 
ROOT
ATOM      1  C   LIG d   1       0.714  82.544 112.099  0.00  0.00     0.161 C 
ATOM      2  C   LIG d   1       1.720  82.354 111.137  0.00  0.00     0.016 C 
ATOM      3  C   LIG d   1       1.766  81.239 110.270  0.00  0.00     0.038 C 
ATOM      4  C   LIG d   1       0.720  80.307 110.203  0.00  0.00     0.028 C 
ATOM      5  C   LIG d   1      -0.066  80.184 111.505  0.00  0.00    -0.047 C 
ATOM      6  C   LIG d   1      -0.496  81.596 111.966  0.00  0.00     0.091 C 
ENDROOT
BRANCH   1   7
ATOM      7  O   LIG d   1       0.278  83.918 112.086  0.00  0.00    -0.368 OA
BRANCH   7   8
ATOM      8  C   LIG d   1       0.610  84.680 110.899  0.00  0.00     0.119 C 
BRANCH   8   9
ATOM      9  C   LIG d   1       1.249  86.003 111.363  0.00  0.00     0.028 C 
ATOM     10  C   LIG d   1       2.765  86.045 111.105  0.00  0.00     0.006 C 
ENDBRANCH   8   9
BRANCH   8  11
ATOM     11  C   LIG d   1      -0.649  85.087 110.128  0.00  0.00     0.028 C 
ATOM     12  C   LIG d   1      -1.254  86.408 110.628  0.00  0.00     0.006 C 
ENDBRANCH   8  11
ENDBRANCH   7   8
ENDBRANCH   1   7
BRANCH   6  13
ATOM     13  N   LIG d   1      -1.197  81.575 113.276  0.00  0.00    -0.311 N 
ATOM     14  C   LIG d   1      -2.521  81.501 113.398  0.00  0.00     0.210 C 
ATOM     15  C   LIG d   1      -3.040  81.513 114.839  0.00  0.00     0.109 C 
ATOM     16  O   LIG d   1      -3.314  81.395 112.450  0.00  0.00    -0.276 OA
ATOM     17  H   LIG d   1      -0.628  81.626 114.099  0.00  0.00     0.149 HD
ENDBRANCH   6  13
BRANCH   5  18
ATOM     18  N   LIG d   1      -1.208  79.285 111.254  0.00  0.00     0.381 N 
ATOM     19  H   LIG d   1      -1.407  79.257 110.274  0.00  0.00    -0.090 HD
ATOM     20  H   LIG d   1      -2.016  79.645 111.730  0.00  0.00    -0.090 HD
ATOM     21  H   LIG d   1      -0.999  78.369 111.584  0.00  0.00    -0.090 HD
ENDBRANCH   5  18
BRANCH   3  22
ATOM     22  C   LIG d   1       2.889  81.025 109.484  0.00  0.00     0.382 C 
ATOM     23  O   LIG d   1       2.859  81.299 108.260  0.00  0.00    -0.241 OA
ATOM     24  O   LIG d   1       3.916  80.520 109.975  0.00  0.00    -0.241 OA
ENDBRANCH   3  22
TORSDOF 7
ENDMDL
MODEL 4
REMARK VINA RESULT:      -6.3      2.017      4.700
REMARK  7 active torsions:
REMARK  status: ('A' for Active; 'I' for Inactive)
REMARK    1  A    between atoms: C_2  and  C_3 
REMARK    2  A    between atoms: C_3  and  O_6 
REMARK    3  A    between atoms: C_3  and  C_4 
REMARK    4  A    between atoms: C_7  and  O_6 
REMARK    5  A    between atoms: C_9  and  C_10 
REMARK    6  A    between atoms: N_15  and  C_14 
REMARK    7  A    between atoms: N_20  and  C_19 
REMARK       I    between atoms: C_22  and  N_20 
ROOT
ATOM      1  C   LIG d   1       1.774  83.538 111.515  0.00  0.00     0.161 C 
ATOM      2  C   LIG d   1       2.062  83.676 110.146  0.00  0.00     0.016 C 
ATOM      3  C   LIG d   1       1.752  82.689 109.183  0.00  0.00     0.038 C 
ATOM      4  C   LIG d   1       0.992  81.554 109.501  0.00  0.00     0.028 C 
ATOM      5  C   LIG d   1       1.118  81.131 110.961  0.00  0.00    -0.047 C 
ATOM      6  C   LIG d   1       0.846  82.356 111.864  0.00  0.00     0.091 C 
ENDROOT
BRANCH   1   7
ATOM      7  O   LIG d   1       1.230  84.771 112.026  0.00  0.00    -0.368 OA
BRANCH   7   8
ATOM      8  C   LIG d   1       1.069  85.843 111.066  0.00  0.00     0.119 C 
BRANCH   8   9
ATOM      9  C   LIG d   1       2.037  86.973 111.467  0.00  0.00     0.028 C 
ATOM     10  C   LIG d   1       1.511  87.806 112.648  0.00  0.00     0.006 C 
ENDBRANCH   8   9
BRANCH   8  11
ATOM     11  C   LIG d   1      -0.330  86.460 111.150  0.00  0.00     0.028 C 
ATOM     12  C   LIG d   1      -1.243  86.027 109.992  0.00  0.00     0.006 C 
ENDBRANCH   8  11
ENDBRANCH   7   8
ENDBRANCH   1   7
BRANCH   6  13
ATOM     13  N   LIG d   1       1.032  82.049 113.306  0.00  0.00    -0.311 N 
ATOM     14  C   LIG d   1       0.045  81.639 114.102  0.00  0.00     0.210 C 
ATOM     15  C   LIG d   1       0.448  81.398 115.560  0.00  0.00     0.109 C 
ATOM     16  O   LIG d   1      -1.118  81.421 113.731  0.00  0.00    -0.276 OA
ATOM     17  H   LIG d   1       1.952  82.169 113.683  0.00  0.00     0.149 HD
ENDBRANCH   6  13
BRANCH   5  18
ATOM     18  N   LIG d   1       0.171  80.024 111.188  0.00  0.00     0.381 N 
ATOM     19  H   LIG d   1       0.591  79.157 110.917  0.00  0.00    -0.090 HD
ATOM     20  H   LIG d   1      -0.644  80.171 110.618  0.00  0.00    -0.090 HD
ATOM     21  H   LIG d   1      -0.089  79.989 112.149  0.00  0.00    -0.090 HD
ENDBRANCH   5  18
BRANCH   3  22
ATOM     22  C   LIG d   1       2.239  82.814 107.890  0.00  0.00     0.382 C 
ATOM     23  O   LIG d   1       3.451  82.592 107.653  0.00  0.00    -0.241 OA
ATOM     24  O   LIG d   1       1.491  83.189 106.967  0.00  0.00    -0.241 OA
ENDBRANCH   3  22
TORSDOF 7
ENDMDL
MODEL 5
REMARK VINA RESULT:      -6.2      2.680      4.172
REMARK  7 active torsions:
REMARK  status: ('A' for Active; 'I' for Inactive)
REMARK    1  A    between atoms: C_2  and  C_3 
REMARK    2  A    between atoms: C_3  and  O_6 
REMARK    3  A    between atoms: C_3  and  C_4 
REMARK    4  A    between atoms: C_7  and  O_6 
REMARK    5  A    between atoms: C_9  and  C_10 
REMARK    6  A    between atoms: N_15  and  C_14 
REMARK    7  A    between atoms: N_20  and  C_19 
REMARK       I    between atoms: C_22  and  N_20 
ROOT
ATOM      1  C   LIG d   1       0.824  83.378 109.414  0.00  0.00     0.161 C 
ATOM      2  C   LIG d   1       0.543  84.704 109.785  0.00  0.00     0.016 C 
ATOM      3  C   LIG d   1      -0.309  85.047 110.859  0.00  0.00     0.038 C 
ATOM      4  C   LIG d   1      -0.823  84.081 111.736  0.00  0.00     0.028 C 
ATOM      5  C   LIG d   1      -0.975  82.704 111.099  0.00  0.00    -0.047 C 
ATOM      6  C   LIG d   1       0.362  82.311 110.429  0.00  0.00     0.091 C 
ENDROOT
BRANCH   1   7
ATOM      7  O   LIG d   1       2.233  83.234 109.144  0.00  0.00    -0.368 OA
BRANCH   7   8
ATOM      8  C   LIG d   1       3.117  84.114 109.881  0.00  0.00     0.119 C 
BRANCH   8   9
ATOM      9  C   LIG d   1       4.556  83.821 109.416  0.00  0.00     0.028 C 
ATOM     10  C   LIG d   1       4.711  82.401 108.846  0.00  0.00     0.006 C 
ENDBRANCH   8   9
BRANCH   8  11
ATOM     11  C   LIG d   1       3.101  83.792 111.379  0.00  0.00     0.028 C 
ATOM     12  C   LIG d   1       3.382  85.023 112.256  0.00  0.00     0.006 C 
ENDBRANCH   8  11
ENDBRANCH   7   8
ENDBRANCH   1   7
BRANCH   6  13
ATOM     13  N   LIG d   1       0.275  81.014 109.709  0.00  0.00    -0.311 N 
ATOM     14  C   LIG d   1       1.245  80.101 109.725  0.00  0.00     0.210 C 
ATOM     15  C   LIG d   1       0.960  78.842 108.900  0.00  0.00     0.109 C 
ATOM     16  O   LIG d   1       2.299  80.200 110.370  0.00  0.00    -0.276 OA
ATOM     17  H   LIG d   1      -0.560  80.837 109.186  0.00  0.00     0.149 HD
ENDBRANCH   6  13
BRANCH   5  18
ATOM     18  N   LIG d   1      -1.388  81.765 112.159  0.00  0.00     0.381 N 
ATOM     19  H   LIG d   1      -1.249  80.824 111.851  0.00  0.00    -0.090 HD
ATOM     20  H   LIG d   1      -2.367  81.895 112.345  0.00  0.00    -0.090 HD
ATOM     21  H   LIG d   1      -0.860  81.933 112.987  0.00  0.00    -0.090 HD
ENDBRANCH   5  18
BRANCH   3  22
ATOM     22  C   LIG d   1      -0.688  86.369 111.039  0.00  0.00     0.382 C 
ATOM     23  O   LIG d   1      -0.015  87.118 111.788  0.00  0.00    -0.241 OA
ATOM     24  O   LIG d   1      -1.720  86.810 110.498  0.00  0.00    -0.241 OA
ENDBRANCH   3  22
TORSDOF 7
ENDMDL
MODEL 6
REMARK VINA RESULT:      -5.9      2.451      4.360
REMARK  7 active torsions:
REMARK  status: ('A' for Active; 'I' for Inactive)
REMARK    1  A    between atoms: C_2  and  C_3 
REMARK    2  A    between atoms: C_3  and  O_6 
REMARK    3  A    between atoms: C_3  and  C_4 
REMARK    4  A    between atoms: C_7  and  O_6 
REMARK    5  A    between atoms: C_9  and  C_10 
REMARK    6  A    between atoms: N_15  and  C_14 
REMARK    7  A    between atoms: N_20  and  C_19 
REMARK       I    between atoms: C_22  and  N_20 
ROOT
ATOM      1  C   LIG d   1       0.713  82.782 110.914  0.00  0.00     0.161 C 
ATOM      2  C   LIG d   1       0.349  81.523 110.410  0.00  0.00     0.016 C 
ATOM      3  C   LIG d   1       1.255  80.652 109.761  0.00  0.00     0.038 C 
ATOM      4  C   LIG d   1       2.631  80.921 109.707  0.00  0.00     0.028 C 
ATOM      5  C   LIG d   1       2.960  82.409 109.756  0.00  0.00    -0.047 C 
ATOM      6  C   LIG d   1       2.233  83.045 110.963  0.00  0.00     0.091 C 
ENDROOT
BRANCH   1   7
ATOM      7  O   LIG d   1       0.129  82.974 112.218  0.00  0.00    -0.368 OA
BRANCH   7   8
ATOM      8  C   LIG d   1      -0.425  81.793 112.848  0.00  0.00     0.119 C 
BRANCH   8   9
ATOM      9  C   LIG d   1      -1.928  82.049 113.072  0.00  0.00     0.028 C 
ATOM     10  C   LIG d   1      -2.761  80.759 112.993  0.00  0.00     0.006 C 
ENDBRANCH   8   9
BRANCH   8  11
ATOM     11  C   LIG d   1       0.163  81.581 114.247  0.00  0.00     0.028 C 
ATOM     12  C   LIG d   1       1.673  81.297 114.222  0.00  0.00     0.006 C 
ENDBRANCH   8  11
ENDBRANCH   7   8
ENDBRANCH   1   7
BRANCH   6  13
ATOM     13  N   LIG d   1       2.433  84.515 111.035  0.00  0.00    -0.311 N 
ATOM     14  C   LIG d   1       2.986  85.130 112.079  0.00  0.00     0.210 C 
ATOM     15  C   LIG d   1       3.081  86.654 111.958  0.00  0.00     0.109 C 
ATOM     16  O   LIG d   1       3.438  84.554 113.081  0.00  0.00    -0.276 OA
ATOM     17  H   LIG d   1       2.124  85.057 110.251  0.00  0.00     0.149 HD
ENDBRANCH   6  13
BRANCH   5  18
ATOM     18  N   LIG d   1       4.427  82.539 109.831  0.00  0.00     0.381 N 
ATOM     19  H   LIG d   1       4.821  81.708 110.226  0.00  0.00    -0.090 HD
ATOM     20  H   LIG d   1       4.655  83.312 110.431  0.00  0.00    -0.090 HD
ATOM     21  H   LIG d   1       4.803  82.693 108.921  0.00  0.00    -0.090 HD
ENDBRANCH   5  18
BRANCH   3  22
ATOM     22  C   LIG d   1       0.780  79.517 109.123  0.00  0.00     0.382 C 
ATOM     23  O   LIG d   1      -0.436  79.425 108.829  0.00  0.00    -0.241 OA
ATOM     24  O   LIG d   1       1.544  78.564 108.878  0.00  0.00    -0.241 OA
ENDBRANCH   3  22
TORSDOF 7
ENDMDL
MODEL 7
REMARK VINA RESULT:      -5.8      1.736      2.510
REMARK  7 active torsions:
REMARK  status: ('A' for Active; 'I' for Inactive)
REMARK    1  A    between atoms: C_2  and  C_3 
REMARK    2  A    between atoms: C_3  and  O_6 
REMARK    3  A    between atoms: C_3  and  C_4 
REMARK    4  A    between atoms: C_7  and  O_6 
REMARK    5  A    between atoms: C_9  and  C_10 
REMARK    6  A    between atoms: N_15  and  C_14 
REMARK    7  A    between atoms: N_20  and  C_19 
REMARK       I    between atoms: C_22  and  N_20 
ROOT
ATOM      1  C   LIG d   1       0.099  82.602 111.894  0.00  0.00     0.161 C 
ATOM      2  C   LIG d   1      -1.253  82.509 112.265  0.00  0.00     0.016 C 
ATOM      3  C   LIG d   1      -1.703  81.770 113.383  0.00  0.00     0.038 C 
ATOM      4  C   LIG d   1      -0.811  81.195 114.300  0.00  0.00     0.028 C 
ATOM      5  C   LIG d   1       0.539  80.838 113.688  0.00  0.00    -0.047 C 
ATOM      6  C   LIG d   1       1.096  82.073 112.945  0.00  0.00     0.091 C 
ENDROOT
BRANCH   1   7
ATOM      7  O   LIG d   1       0.416  83.963 111.542  0.00  0.00    -0.368 OA
BRANCH   7   8
ATOM      8  C   LIG d   1       0.113  84.358 110.181  0.00  0.00     0.119 C 
BRANCH   8   9
ATOM      9  C   LIG d   1       1.315  83.958 109.305  0.00  0.00     0.028 C 
ATOM     10  C   LIG d   1       2.645  84.511 109.845  0.00  0.00     0.006 C 
ENDBRANCH   8   9
BRANCH   8  11
ATOM     11  C   LIG d   1       0.005  85.880 110.053  0.00  0.00     0.028 C 
ATOM     12  C   LIG d   1      -1.389  86.412 110.420  0.00  0.00     0.006 C 
ENDBRANCH   8  11
ENDBRANCH   7   8
ENDBRANCH   1   7
BRANCH   6  13
ATOM     13  N   LIG d   1       2.376  81.785 112.247  0.00  0.00    -0.311 N 
ATOM     14  C   LIG d   1       2.465  81.000 111.174  0.00  0.00     0.210 C 
ATOM     15  C   LIG d   1       3.882  80.820 110.621  0.00  0.00     0.109 C 
ATOM     16  O   LIG d   1       1.501  80.461 110.610  0.00  0.00    -0.276 OA
ATOM     17  H   LIG d   1       3.204  82.207 112.619  0.00  0.00     0.149 HD
ENDBRANCH   6  13
BRANCH   5  18
ATOM     18  N   LIG d   1       1.416  80.377 114.782  0.00  0.00     0.381 N 
ATOM     19  H   LIG d   1       0.935  80.450 115.656  0.00  0.00    -0.090 HD
ATOM     20  H   LIG d   1       2.228  80.967 114.818  0.00  0.00    -0.090 HD
ATOM     21  H   LIG d   1       1.690  79.432 114.624  0.00  0.00    -0.090 HD
ENDBRANCH   5  18
BRANCH   3  22
ATOM     22  C   LIG d   1      -3.062  81.568 113.571  0.00  0.00     0.382 C 
ATOM     23  O   LIG d   1      -3.505  81.308 114.715  0.00  0.00    -0.241 OA
ATOM     24  O   LIG d   1      -3.845  81.598 112.602  0.00  0.00    -0.241 OA
ENDBRANCH   3  22
TORSDOF 7
ENDMDL
MODEL 8
REMARK VINA RESULT:      -5.1      2.955      3.948
REMARK  7 active torsions:
REMARK  status: ('A' for Active; 'I' for Inactive)
REMARK    1  A    between atoms: C_2  and  C_3 
REMARK    2  A    between atoms: C_3  and  O_6 
REMARK    3  A    between atoms: C_3  and  C_4 
REMARK    4  A    between atoms: C_7  and  O_6 
REMARK    5  A    between atoms: C_9  and  C_10 
REMARK    6  A    between atoms: N_15  and  C_14 
REMARK    7  A    between atoms: N_20  and  C_19 
REMARK       I    between atoms: C_22  and  N_20 
ROOT
ATOM      1  C   LIG d   1      -0.461  81.319 111.123  0.00  0.00     0.161 C 
ATOM      2  C   LIG d   1      -1.131  80.312 111.837  0.00  0.00     0.016 C 
ATOM      3  C   LIG d   1      -1.238  78.977 111.384  0.00  0.00     0.038 C 
ATOM      4  C   LIG d   1      -0.548  78.521 110.251  0.00  0.00     0.028 C 
ATOM      5  C   LIG d   1      -0.275  79.617 109.227  0.00  0.00    -0.047 C 
ATOM      6  C   LIG d   1       0.392  80.816 109.940  0.00  0.00     0.091 C 
ENDROOT
BRANCH   1   7
ATOM      7  O   LIG d   1       0.346  82.103 112.024  0.00  0.00    -0.368 OA
BRANCH   7   8
ATOM      8  C   LIG d   1       1.780  81.944 111.898  0.00  0.00     0.119 C 
BRANCH   8   9
ATOM      9  C   LIG d   1       2.278  81.215 113.162  0.00  0.00     0.028 C 
ATOM     10  C   LIG d   1       1.364  81.453 114.375  0.00  0.00     0.006 C 
ENDBRANCH   8   9
BRANCH   8  11
ATOM     11  C   LIG d   1       2.494  83.298 111.904  0.00  0.00     0.028 C 
ATOM     12  C   LIG d   1       3.691  83.346 110.940  0.00  0.00     0.006 C 
ENDBRANCH   8  11
ENDBRANCH   7   8
ENDBRANCH   1   7
BRANCH   6  13
ATOM     13  N   LIG d   1       0.616  81.966 109.026  0.00  0.00    -0.311 N 
ATOM     14  C   LIG d   1       1.717  82.114 108.291  0.00  0.00     0.210 C 
ATOM     15  C   LIG d   1       1.755  83.381 107.431  0.00  0.00     0.109 C 
ATOM     16  O   LIG d   1       2.651  81.299 108.244  0.00  0.00    -0.276 OA
ATOM     17  H   LIG d   1      -0.105  82.659 108.979  0.00  0.00     0.149 HD
ENDBRANCH   6  13
BRANCH   5  18
ATOM     18  N   LIG d   1       0.567  79.035 108.165  0.00  0.00     0.381 N 
ATOM     19  H   LIG d   1       1.207  79.725 107.823  0.00  0.00    -0.090 HD
ATOM     20  H   LIG d   1      -0.022  78.747 107.403  0.00  0.00    -0.090 HD
ATOM     21  H   LIG d   1       1.070  78.252 108.519  0.00  0.00    -0.090 HD
ENDBRANCH   5  18
BRANCH   3  22
ATOM     22  C   LIG d   1      -2.075  78.091 112.046  0.00  0.00     0.382 C 
ATOM     23  O   LIG d   1      -1.944  77.909 113.281  0.00  0.00    -0.241 OA
ATOM     24  O   LIG d   1      -2.929  77.439 111.417  0.00  0.00    -0.241 OA
ENDBRANCH   3  22
TORSDOF 7
ENDMDL
MODEL 9
REMARK VINA RESULT:      -4.9      2.425      3.379
REMARK  7 active torsions:
REMARK  status: ('A' for Active; 'I' for Inactive)
REMARK    1  A    between atoms: C_2  and  C_3 
REMARK    2  A    between atoms: C_3  and  O_6 
REMARK    3  A    between atoms: C_3  and  C_4 
REMARK    4  A    between atoms: C_7  and  O_6 
REMARK    5  A    between atoms: C_9  and  C_10 
REMARK    6  A    between atoms: N_15  and  C_14 
REMARK    7  A    between atoms: N_20  and  C_19 
REMARK       I    between atoms: C_22  and  N_20 
ROOT
ATOM      1  C   LIG d   1       2.231  83.658 111.153  0.00  0.00     0.161 C 
ATOM      2  C   LIG d   1       2.075  83.079 112.423  0.00  0.00     0.016 C 
ATOM      3  C   LIG d   1       2.412  81.737 112.713  0.00  0.00     0.038 C 
ATOM      4  C   LIG d   1       3.074  80.921 111.783  0.00  0.00     0.028 C 
ATOM      5  C   LIG d   1       2.793  81.304 110.334  0.00  0.00    -0.047 C 
ATOM      6  C   LIG d   1       3.054  82.817 110.155  0.00  0.00     0.091 C 
ENDROOT
BRANCH   1   7
ATOM      7  O   LIG d   1       2.797  84.977 111.283  0.00  0.00    -0.368 OA
BRANCH   7   8
ATOM      8  C   LIG d   1       2.071  86.050 110.635  0.00  0.00     0.119 C 
BRANCH   8   9
ATOM      9  C   LIG d   1       2.049  87.247 111.606  0.00  0.00     0.028 C 
ATOM     10  C   LIG d   1       3.193  87.191 112.632  0.00  0.00     0.006 C 
ENDBRANCH   8   9
BRANCH   8  11
ATOM     11  C   LIG d   1       0.601  85.677 110.418  0.00  0.00     0.028 C 
ATOM     12  C   LIG d   1      -0.327  86.263 111.493  0.00  0.00     0.006 C 
ENDBRANCH   8  11
ENDBRANCH   7   8
ENDBRANCH   1   7
BRANCH   6  13
ATOM     13  N   LIG d   1       2.723  83.292 108.786  0.00  0.00    -0.311 N 
ATOM     14  C   LIG d   1       1.694  82.829 108.079  0.00  0.00     0.210 C 
ATOM     15  C   LIG d   1       1.543  83.439 106.682  0.00  0.00     0.109 C 
ATOM     16  O   LIG d   1       0.873  81.994 108.488  0.00  0.00    -0.276 OA
ATOM     17  H   LIG d   1       3.319  83.991 108.389  0.00  0.00     0.149 HD
ENDBRANCH   6  13
BRANCH   5  18
ATOM     18  N   LIG d   1       3.651  80.464 109.477  0.00  0.00     0.381 N 
ATOM     19  H   LIG d   1       3.793  79.573 109.909  0.00  0.00    -0.090 HD
ATOM     20  H   LIG d   1       4.545  80.911 109.374  0.00  0.00    -0.090 HD
ATOM     21  H   LIG d   1       3.227  80.344 108.583  0.00  0.00    -0.090 HD
ENDBRANCH   5  18
BRANCH   3  22
ATOM     22  C   LIG d   1       2.050  81.186 113.933  0.00  0.00     0.382 C 
ATOM     23  O   LIG d   1       0.838  81.068 114.233  0.00  0.00    -0.241 OA
ATOM     24  O   LIG d   1       2.922  80.845 114.755  0.00  0.00    -0.241 OA
ENDBRANCH   3  22
TORSDOF 7
ENDMDL
