MODEL 1
REMARK VINA RESULT:      -6.6      0.000      0.000
REMARK  7 active torsions:
REMARK  status: ('A' for Active; 'I' for Inactive)
REMARK    1  A    between atoms: C_2  and  C_3 
REMARK    2  A    between atoms: C_3  and  O_6 
REMARK    3  A    between atoms: C_3  and  C_4 
REMARK    4  A    between atoms: C_7  and  O_6 
REMARK    5  A    between atoms: C_9  and  C_10 
REMARK    6  A    between atoms: N_15  and  C_14 
REMARK    7  A    between atoms: N_20  and  C_19 
REMARK       I    between atoms: C_22  and  N_20 
ROOT
ATOM      1  C   LIG d   1       1.590  83.316 109.742  0.00  0.00     0.161 C 
ATOM      2  C   LIG d   1       1.713  84.685 110.028  0.00  0.00     0.016 C 
ATOM      3  C   LIG d   1       0.931  85.351 111.000  0.00  0.00     0.038 C 
ATOM      4  C   LIG d   1       0.072  84.655 111.864  0.00  0.00     0.028 C 
ATOM      5  C   LIG d   1      -0.456  83.352 111.273  0.00  0.00    -0.047 C 
ATOM      6  C   LIG d   1       0.737  82.518 110.751  0.00  0.00     0.091 C 
ENDROOT
BRANCH   1   7
ATOM      7  O   LIG d   1       2.898  82.723 109.614  0.00  0.00    -0.368 OA
BRANCH   7   8
ATOM      8  C   LIG d   1       3.420  82.070 110.796  0.00  0.00     0.119 C 
BRANCH   8   9
ATOM      9  C   LIG d   1       4.277  83.101 111.555  0.00  0.00     0.028 C 
ATOM     10  C   LIG d   1       3.636  83.532 112.885  0.00  0.00     0.006 C 
ENDBRANCH   8   9
BRANCH   8  11
ATOM     11  C   LIG d   1       4.382  80.936 110.427  0.00  0.00     0.028 C 
ATOM     12  C   LIG d   1       3.666  79.726 109.807  0.00  0.00     0.006 C 
ENDBRANCH   8  11
ENDBRANCH   7   8
ENDBRANCH   1   7
BRANCH   6  13
ATOM     13  N   LIG d   1       0.302  81.265 110.080  0.00  0.00    -0.311 N 
ATOM     14  C   LIG d   1       0.227  80.089 110.701  0.00  0.00     0.210 C 
ATOM     15  C   LIG d   1      -0.225  78.920 109.821  0.00  0.00     0.109 C 
ATOM     16  O   LIG d   1       0.462  79.910 111.906  0.00  0.00    -0.276 OA
ATOM     17  H   LIG d   1       0.063  81.326 109.110  0.00  0.00     0.149 HD
ENDBRANCH   6  13
BRANCH   5  18
ATOM     18  N   LIG d   1      -1.225  82.664 112.327  0.00  0.00     0.381 N 
ATOM     19  H   LIG d   1      -0.988  83.044 113.221  0.00  0.00    -0.090 HD
ATOM     20  H   LIG d   1      -0.981  81.689 112.323  0.00  0.00    -0.090 HD
ATOM     21  H   LIG d   1      -2.201  82.770 112.160  0.00  0.00    -0.090 HD
ENDBRANCH   5  18
BRANCH   3  22
ATOM     22  C   LIG d   1       0.976  86.734 111.089  0.00  0.00     0.382 C 
ATOM     23  O   LIG d   1      -0.042  87.372 111.452  0.00  0.00    -0.241 OA
ATOM     24  O   LIG d   1       2.007  87.355 110.768  0.00  0.00    -0.241 OA
ENDBRANCH   3  22
TORSDOF 7
ENDMDL
MODEL 2
REMARK VINA RESULT:      -6.2      2.349      3.957
REMARK  7 active torsions:
REMARK  status: ('A' for Active; 'I' for Inactive)
REMARK    1  A    between atoms: C_2  and  C_3 
REMARK    2  A    between atoms: C_3  and  O_6 
REMARK    3  A    between atoms: C_3  and  C_4 
REMARK    4  A    between atoms: C_7  and  O_6 
REMARK    5  A    between atoms: C_9  and  C_10 
REMARK    6  A    between atoms: N_15  and  C_14 
REMARK    7  A    between atoms: N_20  and  C_19 
REMARK       I    between atoms: C_22  and  N_20 
ROOT
ATOM      1  C   LIG d   1       2.353  85.188 110.986  0.00  0.00     0.161 C 
ATOM      2  C   LIG d   1       1.246  85.941 111.412  0.00  0.00     0.016 C 
ATOM      3  C   LIG d   1      -0.063  85.415 111.506  0.00  0.00     0.038 C 
ATOM      4  C   LIG d   1      -0.328  84.049 111.323  0.00  0.00     0.028 C 
ATOM      5  C   LIG d   1       0.670  83.356 110.402  0.00  0.00    -0.047 C 
ATOM      6  C   LIG d   1       2.103  83.669 110.889  0.00  0.00     0.091 C 
ENDROOT
BRANCH   1   7
ATOM      7  O   LIG d   1       3.484  85.457 111.839  0.00  0.00    -0.368 OA
BRANCH   7   8
ATOM      8  C   LIG d   1       3.282  86.456 112.869  0.00  0.00     0.119 C 
BRANCH   8   9
ATOM      9  C   LIG d   1       4.380  87.524 112.698  0.00  0.00     0.028 C 
ATOM     10  C   LIG d   1       4.910  88.040 114.046  0.00  0.00     0.006 C 
ENDBRANCH   8   9
BRANCH   8  11
ATOM     11  C   LIG d   1       3.502  85.868 114.266  0.00  0.00     0.028 C 
ATOM     12  C   LIG d   1       2.190  85.456 114.952  0.00  0.00     0.006 C 
ENDBRANCH   8  11
ENDBRANCH   7   8
ENDBRANCH   1   7
BRANCH   6  13
ATOM     13  N   LIG d   1       3.143  83.098 109.994  0.00  0.00    -0.311 N 
ATOM     14  C   LIG d   1       4.008  82.161 110.379  0.00  0.00     0.210 C 
ATOM     15  C   LIG d   1       5.011  81.726 109.305  0.00  0.00     0.109 C 
ATOM     16  O   LIG d   1       4.020  81.626 111.498  0.00  0.00    -0.276 OA
ATOM     17  H   LIG d   1       3.185  83.453 109.059  0.00  0.00     0.149 HD
ENDBRANCH   6  13
BRANCH   5  18
ATOM     18  N   LIG d   1       0.358  81.915 110.410  0.00  0.00     0.381 N 
ATOM     19  H   LIG d   1       1.043  81.417 109.878  0.00  0.00    -0.090 HD
ATOM     20  H   LIG d   1      -0.539  81.774 109.978  0.00  0.00    -0.090 HD
ATOM     21  H   LIG d   1       0.341  81.575 111.346  0.00  0.00    -0.090 HD
ENDBRANCH   5  18
BRANCH   3  22
ATOM     22  C   LIG d   1      -1.130  86.266 111.747  0.00  0.00     0.382 C 
ATOM     23  O   LIG d   1      -1.607  86.955 110.812  0.00  0.00    -0.241 OA
ATOM     24  O   LIG d   1      -1.594  86.389 112.896  0.00  0.00    -0.241 OA
ENDBRANCH   3  22
TORSDOF 7
ENDMDL
MODEL 3
REMARK VINA RESULT:      -6.1      2.448      4.983
REMARK  7 active torsions:
REMARK  status: ('A' for Active; 'I' for Inactive)
REMARK    1  A    between atoms: C_2  and  C_3 
REMARK    2  A    between atoms: C_3  and  O_6 
REMARK    3  A    between atoms: C_3  and  C_4 
REMARK    4  A    between atoms: C_7  and  O_6 
REMARK    5  A    between atoms: C_9  and  C_10 
REMARK    6  A    between atoms: N_15  and  C_14 
REMARK    7  A    between atoms: N_20  and  C_19 
REMARK       I    between atoms: C_22  and  N_20 
ROOT
ATOM      1  C   LIG d   1       0.769  82.382 111.659  0.00  0.00     0.161 C 
ATOM      2  C   LIG d   1      -0.479  82.156 112.264  0.00  0.00     0.016 C 
ATOM      3  C   LIG d   1      -1.076  80.878 112.363  0.00  0.00     0.038 C 
ATOM      4  C   LIG d   1      -0.392  79.710 111.994  0.00  0.00     0.028 C 
ATOM      5  C   LIG d   1       0.662  79.939 110.916  0.00  0.00    -0.047 C 
ATOM      6  C   LIG d   1       1.579  81.105 111.351  0.00  0.00     0.091 C 
ENDROOT
BRANCH   1   7
ATOM      7  O   LIG d   1       1.547  83.287 112.467  0.00  0.00    -0.368 OA
BRANCH   7   8
ATOM      8  C   LIG d   1       1.488  84.686 112.094  0.00  0.00     0.119 C 
BRANCH   8   9
ATOM      9  C   LIG d   1       2.087  84.814 110.681  0.00  0.00     0.028 C 
ATOM     10  C   LIG d   1       1.067  85.342 109.657  0.00  0.00     0.006 C 
ENDBRANCH   8   9
BRANCH   8  11
ATOM     11  C   LIG d   1       2.385  85.540 112.994  0.00  0.00     0.028 C 
ATOM     12  C   LIG d   1       3.559  86.177 112.233  0.00  0.00     0.006 C 
ENDBRANCH   8  11
ENDBRANCH   7   8
ENDBRANCH   1   7
BRANCH   6  13
ATOM     13  N   LIG d   1       2.586  81.451 110.314  0.00  0.00    -0.311 N 
ATOM     14  C   LIG d   1       3.899  81.325 110.498  0.00  0.00     0.210 C 
ATOM     15  C   LIG d   1       4.763  81.756 109.308  0.00  0.00     0.109 C 
ATOM     16  O   LIG d   1       4.430  80.868 111.521  0.00  0.00    -0.276 OA
ATOM     17  H   LIG d   1       2.241  81.800 109.442  0.00  0.00     0.149 HD
ENDBRANCH   6  13
BRANCH   5  18
ATOM     18  N   LIG d   1       1.390  78.670 110.728  0.00  0.00     0.381 N 
ATOM     19  H   LIG d   1       2.335  78.773 111.038  0.00  0.00    -0.090 HD
ATOM     20  H   LIG d   1       1.402  78.445 109.749  0.00  0.00    -0.090 HD
ATOM     21  H   LIG d   1       0.942  77.941 111.238  0.00  0.00    -0.090 HD
ENDBRANCH   5  18
BRANCH   3  22
ATOM     22  C   LIG d   1      -2.387  80.765 112.798  0.00  0.00     0.382 C 
ATOM     23  O   LIG d   1      -2.813  79.664 113.224  0.00  0.00    -0.241 OA
ATOM     24  O   LIG d   1      -3.163  81.737 112.728  0.00  0.00    -0.241 OA
ENDBRANCH   3  22
TORSDOF 7
ENDMDL
MODEL 4
REMARK VINA RESULT:      -5.9      2.599      3.518
REMARK  7 active torsions:
REMARK  status: ('A' for Active; 'I' for Inactive)
REMARK    1  A    between atoms: C_2  and  C_3 
REMARK    2  A    between atoms: C_3  and  O_6 
REMARK    3  A    between atoms: C_3  and  C_4 
REMARK    4  A    between atoms: C_7  and  O_6 
REMARK    5  A    between atoms: C_9  and  C_10 
REMARK    6  A    between atoms: N_15  and  C_14 
REMARK    7  A    between atoms: N_20  and  C_19 
REMARK       I    between atoms: C_22  and  N_20 
ROOT
ATOM      1  C   LIG d   1       2.915  83.287 112.262  0.00  0.00     0.161 C 
ATOM      2  C   LIG d   1       3.345  84.548 111.816  0.00  0.00     0.016 C 
ATOM      3  C   LIG d   1       3.269  85.719 112.605  0.00  0.00     0.038 C 
ATOM      4  C   LIG d   1       2.896  85.680 113.956  0.00  0.00     0.028 C 
ATOM      5  C   LIG d   1       1.975  84.514 114.297  0.00  0.00    -0.047 C 
ATOM      6  C   LIG d   1       2.608  83.205 113.772  0.00  0.00     0.091 C 
ENDROOT
BRANCH   1   7
ATOM      7  O   LIG d   1       3.880  82.283 111.891  0.00  0.00    -0.368 OA
BRANCH   7   8
ATOM      8  C   LIG d   1       3.364  81.141 111.163  0.00  0.00     0.119 C 
BRANCH   8   9
ATOM      9  C   LIG d   1       4.386  80.794 110.062  0.00  0.00     0.028 C 
ATOM     10  C   LIG d   1       4.880  82.039 109.307  0.00  0.00     0.006 C 
ENDBRANCH   8   9
BRANCH   8  11
ATOM     11  C   LIG d   1       2.071  81.492 110.420  0.00  0.00     0.028 C 
ATOM     12  C   LIG d   1       0.927  80.512 110.720  0.00  0.00     0.006 C 
ENDBRANCH   8  11
ENDBRANCH   7   8
ENDBRANCH   1   7
BRANCH   6  13
ATOM     13  N   LIG d   1       1.732  82.024 113.989  0.00  0.00    -0.311 N 
ATOM     14  C   LIG d   1       2.160  80.882 114.524  0.00  0.00     0.210 C 
ATOM     15  C   LIG d   1       1.097  79.784 114.641  0.00  0.00     0.109 C 
ATOM     16  O   LIG d   1       3.311  80.684 114.942  0.00  0.00    -0.276 OA
ATOM     17  H   LIG d   1       0.775  82.109 113.707  0.00  0.00     0.149 HD
ENDBRANCH   6  13
BRANCH   5  18
ATOM     18  N   LIG d   1       1.777  84.514 115.759  0.00  0.00     0.381 N 
ATOM     19  H   LIG d   1       2.554  84.069 116.206  0.00  0.00    -0.090 HD
ATOM     20  H   LIG d   1       0.947  83.991 115.975  0.00  0.00    -0.090 HD
ATOM     21  H   LIG d   1       1.685  85.449 116.090  0.00  0.00    -0.090 HD
ENDBRANCH   5  18
BRANCH   3  22
ATOM     22  C   LIG d   1       3.532  86.953 112.029  0.00  0.00     0.382 C 
ATOM     23  O   LIG d   1       4.717  87.338 111.884  0.00  0.00    -0.241 OA
ATOM     24  O   LIG d   1       2.598  87.705 111.694  0.00  0.00    -0.241 OA
ENDBRANCH   3  22
TORSDOF 7
ENDMDL
MODEL 5
REMARK VINA RESULT:      -5.8      2.273      3.252
REMARK  7 active torsions:
REMARK  status: ('A' for Active; 'I' for Inactive)
REMARK    1  A    between atoms: C_2  and  C_3 
REMARK    2  A    between atoms: C_3  and  O_6 
REMARK    3  A    between atoms: C_3  and  C_4 
REMARK    4  A    between atoms: C_7  and  O_6 
REMARK    5  A    between atoms: C_9  and  C_10 
REMARK    6  A    between atoms: N_15  and  C_14 
REMARK    7  A    between atoms: N_20  and  C_19 
REMARK       I    between atoms: C_22  and  N_20 
ROOT
ATOM      1  C   LIG d   1       3.835  83.824 112.038  0.00  0.00     0.161 C 
ATOM      2  C   LIG d   1       3.642  85.181 112.348  0.00  0.00     0.016 C 
ATOM      3  C   LIG d   1       2.679  85.996 111.710  0.00  0.00     0.038 C 
ATOM      4  C   LIG d   1       1.734  85.467 110.819  0.00  0.00     0.028 C 
ATOM      5  C   LIG d   1       2.215  84.211 110.100  0.00  0.00    -0.047 C 
ATOM      6  C   LIG d   1       2.739  83.203 111.148  0.00  0.00     0.091 C 
ENDROOT
BRANCH   1   7
ATOM      7  O   LIG d   1       3.986  83.063 113.252  0.00  0.00    -0.368 OA
BRANCH   7   8
ATOM      8  C   LIG d   1       2.772  82.808 114.001  0.00  0.00     0.119 C 
BRANCH   8   9
ATOM      9  C   LIG d   1       2.997  83.321 115.436  0.00  0.00     0.028 C 
ATOM     10  C   LIG d   1       2.131  84.549 115.763  0.00  0.00     0.006 C 
ENDBRANCH   8   9
BRANCH   8  11
ATOM     11  C   LIG d   1       2.509  81.306 114.143  0.00  0.00     0.028 C 
ATOM     12  C   LIG d   1       2.679  80.806 115.587  0.00  0.00     0.006 C 
ENDBRANCH   8  11
ENDBRANCH   7   8
ENDBRANCH   1   7
BRANCH   6  13
ATOM     13  N   LIG d   1       3.307  81.980 110.523  0.00  0.00    -0.311 N 
ATOM     14  C   LIG d   1       2.612  80.857 110.346  0.00  0.00     0.210 C 
ATOM     15  C   LIG d   1       3.394  79.708 109.701  0.00  0.00     0.109 C 
ATOM     16  O   LIG d   1       1.414  80.713 110.632  0.00  0.00    -0.276 OA
ATOM     17  H   LIG d   1       4.264  82.018 110.233  0.00  0.00     0.149 HD
ENDBRANCH   6  13
BRANCH   5  18
ATOM     18  N   LIG d   1       1.085  83.689 109.309  0.00  0.00     0.381 N 
ATOM     19  H   LIG d   1       0.663  84.433 108.789  0.00  0.00    -0.090 HD
ATOM     20  H   LIG d   1       0.396  83.313 109.936  0.00  0.00    -0.090 HD
ATOM     21  H   LIG d   1       1.403  82.978 108.687  0.00  0.00    -0.090 HD
ENDBRANCH   5  18
BRANCH   3  22
ATOM     22  C   LIG d   1       2.681  87.365 111.932  0.00  0.00     0.382 C 
ATOM     23  O   LIG d   1       1.724  88.067 111.527  0.00  0.00    -0.241 OA
ATOM     24  O   LIG d   1       3.649  87.912 112.494  0.00  0.00    -0.241 OA
ENDBRANCH   3  22
TORSDOF 7
ENDMDL
MODEL 6
REMARK VINA RESULT:      -5.7      3.175      4.658
REMARK  7 active torsions:
REMARK  status: ('A' for Active; 'I' for Inactive)
REMARK    1  A    between atoms: C_2  and  C_3 
REMARK    2  A    between atoms: C_3  and  O_6 
REMARK    3  A    between atoms: C_3  and  C_4 
REMARK    4  A    between atoms: C_7  and  O_6 
REMARK    5  A    between atoms: C_9  and  C_10 
REMARK    6  A    between atoms: N_15  and  C_14 
REMARK    7  A    between atoms: N_20  and  C_19 
REMARK       I    between atoms: C_22  and  N_20 
ROOT
ATOM      1  C   LIG d   1       2.681  86.114 112.180  0.00  0.00     0.161 C 
ATOM      2  C   LIG d   1       3.335  87.318 112.489  0.00  0.00     0.016 C 
ATOM      3  C   LIG d   1       4.077  87.519 113.676  0.00  0.00     0.038 C 
ATOM      4  C   LIG d   1       4.342  86.471 114.571  0.00  0.00     0.028 C 
ATOM      5  C   LIG d   1       3.281  85.375 114.552  0.00  0.00    -0.047 C 
ATOM      6  C   LIG d   1       3.051  84.925 113.091  0.00  0.00     0.091 C 
ENDROOT
BRANCH   1   7
ATOM      7  O   LIG d   1       2.908  85.775 110.798  0.00  0.00    -0.368 OA
BRANCH   7   8
ATOM      8  C   LIG d   1       1.752  85.846 109.927  0.00  0.00     0.119 C 
BRANCH   8   9
ATOM      9  C   LIG d   1       0.588  86.434 110.748  0.00  0.00     0.028 C 
ATOM     10  C   LIG d   1      -0.772  85.838 110.349  0.00  0.00     0.006 C 
ENDBRANCH   8   9
BRANCH   8  11
ATOM     11  C   LIG d   1       1.285  84.450 109.505  0.00  0.00     0.028 C 
ATOM     12  C   LIG d   1       2.445  83.450 109.369  0.00  0.00     0.006 C 
ENDBRANCH   8  11
ENDBRANCH   7   8
ENDBRANCH   1   7
BRANCH   6  13
ATOM     13  N   LIG d   1       1.968  83.914 112.974  0.00  0.00    -0.311 N 
ATOM     14  C   LIG d   1       2.193  82.603 112.900  0.00  0.00     0.210 C 
ATOM     15  C   LIG d   1       0.937  81.738 112.763  0.00  0.00     0.109 C 
ATOM     16  O   LIG d   1       3.313  82.073 112.967  0.00  0.00    -0.276 OA
ATOM     17  H   LIG d   1       1.027  84.255 112.944  0.00  0.00     0.149 HD
ENDBRANCH   6  13
BRANCH   5  18
ATOM     18  N   LIG d   1       3.751  84.285 115.426  0.00  0.00     0.381 N 
ATOM     19  H   LIG d   1       3.314  83.425 115.161  0.00  0.00    -0.090 HD
ATOM     20  H   LIG d   1       3.490  84.492 116.374  0.00  0.00    -0.090 HD
ATOM     21  H   LIG d   1       4.741  84.196 115.359  0.00  0.00    -0.090 HD
ENDBRANCH   5  18
BRANCH   3  22
ATOM     22  C   LIG d   1       4.529  88.789 113.998  0.00  0.00     0.382 C 
ATOM     23  O   LIG d   1       4.470  89.194 115.184  0.00  0.00    -0.241 OA
ATOM     24  O   LIG d   1       4.953  89.553 113.110  0.00  0.00    -0.241 OA
ENDBRANCH   3  22
TORSDOF 7
ENDMDL
MODEL 7
REMARK VINA RESULT:      -5.6      2.579      5.494
REMARK  7 active torsions:
REMARK  status: ('A' for Active; 'I' for Inactive)
REMARK    1  A    between atoms: C_2  and  C_3 
REMARK    2  A    between atoms: C_3  and  O_6 
REMARK    3  A    between atoms: C_3  and  C_4 
REMARK    4  A    between atoms: C_7  and  O_6 
REMARK    5  A    between atoms: C_9  and  C_10 
REMARK    6  A    between atoms: N_15  and  C_14 
REMARK    7  A    between atoms: N_20  and  C_19 
REMARK       I    between atoms: C_22  and  N_20 
ROOT
ATOM      1  C   LIG d   1       1.722  82.506 111.289  0.00  0.00     0.161 C 
ATOM      2  C   LIG d   1       1.126  81.489 110.525  0.00  0.00     0.016 C 
ATOM      3  C   LIG d   1       0.784  80.221 111.048  0.00  0.00     0.038 C 
ATOM      4  C   LIG d   1       0.877  79.935 112.418  0.00  0.00     0.028 C 
ATOM      5  C   LIG d   1       1.942  80.755 113.138  0.00  0.00    -0.047 C 
ATOM      6  C   LIG d   1       1.729  82.251 112.811  0.00  0.00     0.091 C 
ENDROOT
BRANCH   1   7
ATOM      7  O   LIG d   1       1.094  83.769 110.995  0.00  0.00    -0.368 OA
BRANCH   7   8
ATOM      8  C   LIG d   1       1.664  84.525 109.898  0.00  0.00     0.119 C 
BRANCH   8   9
ATOM      9  C   LIG d   1       3.023  85.075 110.372  0.00  0.00     0.028 C 
ATOM     10  C   LIG d   1       2.873  86.181 111.429  0.00  0.00     0.006 C 
ENDBRANCH   8   9
BRANCH   8  11
ATOM     11  C   LIG d   1       0.818  85.760 109.573  0.00  0.00     0.028 C 
ATOM     12  C   LIG d   1      -0.573  85.717 110.225  0.00  0.00     0.006 C 
ENDBRANCH   8  11
ENDBRANCH   7   8
ENDBRANCH   1   7
BRANCH   6  13
ATOM     13  N   LIG d   1       2.779  83.117 113.407  0.00  0.00    -0.311 N 
ATOM     14  C   LIG d   1       2.648  83.722 114.587  0.00  0.00     0.210 C 
ATOM     15  C   LIG d   1       3.842  84.585 115.007  0.00  0.00     0.109 C 
ATOM     16  O   LIG d   1       1.671  83.599 115.340  0.00  0.00    -0.276 OA
ATOM     17  H   LIG d   1       3.619  83.246 112.877  0.00  0.00     0.149 HD
ENDBRANCH   6  13
BRANCH   5  18
ATOM     18  N   LIG d   1       1.837  80.457 114.578  0.00  0.00     0.381 N 
ATOM     19  H   LIG d   1       1.950  81.299 115.107  0.00  0.00    -0.090 HD
ATOM     20  H   LIG d   1       2.573  79.823 114.834  0.00  0.00    -0.090 HD
ATOM     21  H   LIG d   1       0.951  80.047 114.778  0.00  0.00    -0.090 HD
ENDBRANCH   5  18
BRANCH   3  22
ATOM     22  C   LIG d   1       0.381  79.209 110.190  0.00  0.00     0.382 C 
ATOM     23  O   LIG d   1       1.156  78.256 109.936  0.00  0.00    -0.241 OA
ATOM     24  O   LIG d   1      -0.732  79.260 109.632  0.00  0.00    -0.241 OA
ENDBRANCH   3  22
TORSDOF 7
ENDMDL
MODEL 8
REMARK VINA RESULT:      -5.6      3.017      3.955
REMARK  7 active torsions:
REMARK  status: ('A' for Active; 'I' for Inactive)
REMARK    1  A    between atoms: C_2  and  C_3 
REMARK    2  A    between atoms: C_3  and  O_6 
REMARK    3  A    between atoms: C_3  and  C_4 
REMARK    4  A    between atoms: C_7  and  O_6 
REMARK    5  A    between atoms: C_9  and  C_10 
REMARK    6  A    between atoms: N_15  and  C_14 
REMARK    7  A    between atoms: N_20  and  C_19 
REMARK       I    between atoms: C_22  and  N_20 
ROOT
ATOM      1  C   LIG d   1       2.977  83.831 112.770  0.00  0.00     0.161 C 
ATOM      2  C   LIG d   1       3.226  85.111 112.245  0.00  0.00     0.016 C 
ATOM      3  C   LIG d   1       3.251  86.284 113.033  0.00  0.00     0.038 C 
ATOM      4  C   LIG d   1       3.178  86.238 114.434  0.00  0.00     0.028 C 
ATOM      5  C   LIG d   1       2.422  85.023 114.961  0.00  0.00    -0.047 C 
ATOM      6  C   LIG d   1       3.005  83.748 114.310  0.00  0.00     0.091 C 
ENDROOT
BRANCH   1   7
ATOM      7  O   LIG d   1       3.898  82.881 112.199  0.00  0.00    -0.368 OA
BRANCH   7   8
ATOM      8  C   LIG d   1       3.389  82.076 111.107  0.00  0.00     0.119 C 
BRANCH   8   9
ATOM      9  C   LIG d   1       3.033  80.691 111.680  0.00  0.00     0.028 C 
ATOM     10  C   LIG d   1       1.514  80.472 111.785  0.00  0.00     0.006 C 
ENDBRANCH   8   9
BRANCH   8  11
ATOM     11  C   LIG d   1       4.472  81.814 110.056  0.00  0.00     0.028 C 
ATOM     12  C   LIG d   1       4.648  80.320 109.742  0.00  0.00     0.006 C 
ENDBRANCH   8  11
ENDBRANCH   7   8
ENDBRANCH   1   7
BRANCH   6  13
ATOM     13  N   LIG d   1       2.266  82.520 114.707  0.00  0.00    -0.311 N 
ATOM     14  C   LIG d   1       2.826  81.511 115.371  0.00  0.00     0.210 C 
ATOM     15  C   LIG d   1       1.892  80.332 115.664  0.00  0.00     0.109 C 
ATOM     16  O   LIG d   1       4.000  81.493 115.773  0.00  0.00    -0.276 OA
ATOM     17  H   LIG d   1       1.301  82.465 114.448  0.00  0.00     0.149 HD
ENDBRANCH   6  13
BRANCH   5  18
ATOM     18  N   LIG d   1       2.541  85.028 116.431  0.00  0.00     0.381 N 
ATOM     19  H   LIG d   1       3.198  85.726 116.716  0.00  0.00    -0.090 HD
ATOM     20  H   LIG d   1       2.882  84.132 116.733  0.00  0.00    -0.090 HD
ATOM     21  H   LIG d   1       1.653  85.210 116.845  0.00  0.00    -0.090 HD
ENDBRANCH   5  18
BRANCH   3  22
ATOM     22  C   LIG d   1       3.311  87.525 112.418  0.00  0.00     0.382 C 
ATOM     23  O   LIG d   1       2.451  87.841 111.561  0.00  0.00    -0.241 OA
ATOM     24  O   LIG d   1       4.240  88.314 112.675  0.00  0.00    -0.241 OA
ENDBRANCH   3  22
TORSDOF 7
ENDMDL
MODEL 9
REMARK VINA RESULT:      -5.5      5.538      7.667
REMARK  7 active torsions:
REMARK  status: ('A' for Active; 'I' for Inactive)
REMARK    1  A    between atoms: C_2  and  C_3 
REMARK    2  A    between atoms: C_3  and  O_6 
REMARK    3  A    between atoms: C_3  and  C_4 
REMARK    4  A    between atoms: C_7  and  O_6 
REMARK    5  A    between atoms: C_9  and  C_10 
REMARK    6  A    between atoms: N_15  and  C_14 
REMARK    7  A    between atoms: N_20  and  C_19 
REMARK       I    between atoms: C_22  and  N_20 
ROOT
ATOM      1  C   LIG d   1       3.433  87.188 115.234  0.00  0.00     0.161 C 
ATOM      2  C   LIG d   1       2.658  86.932 114.091  0.00  0.00     0.016 C 
ATOM      3  C   LIG d   1       3.103  87.196 112.775  0.00  0.00     0.038 C 
ATOM      4  C   LIG d   1       4.420  87.597 112.504  0.00  0.00     0.028 C 
ATOM      5  C   LIG d   1       5.073  88.350 113.658  0.00  0.00    -0.047 C 
ATOM      6  C   LIG d   1       4.913  87.521 114.953  0.00  0.00     0.091 C 
ENDROOT
BRANCH   1   7
ATOM      7  O   LIG d   1       3.334  86.078 116.149  0.00  0.00    -0.368 OA
BRANCH   7   8
ATOM      8  C   LIG d   1       3.035  84.790 115.559  0.00  0.00     0.119 C 
BRANCH   8   9
ATOM      9  C   LIG d   1       2.006  84.091 116.468  0.00  0.00     0.028 C 
ATOM     10  C   LIG d   1       1.507  85.005 117.600  0.00  0.00     0.006 C 
ENDBRANCH   8   9
BRANCH   8  11
ATOM     11  C   LIG d   1       4.265  83.876 115.562  0.00  0.00     0.028 C 
ATOM     12  C   LIG d   1       5.277  84.243 116.659  0.00  0.00     0.006 C 
ENDBRANCH   8  11
ENDBRANCH   7   8
ENDBRANCH   1   7
BRANCH   6  13
ATOM     13  N   LIG d   1       5.451  88.224 116.146  0.00  0.00    -0.311 N 
ATOM     14  C   LIG d   1       6.672  88.013 116.633  0.00  0.00     0.210 C 
ATOM     15  C   LIG d   1       7.021  88.827 117.882  0.00  0.00     0.109 C 
ATOM     16  O   LIG d   1       7.513  87.252 116.129  0.00  0.00    -0.276 OA
ATOM     17  H   LIG d   1       4.847  88.882 116.599  0.00  0.00     0.149 HD
ENDBRANCH   6  13
BRANCH   5  18
ATOM     18  N   LIG d   1       6.483  88.586 113.294  0.00  0.00     0.381 N 
ATOM     19  H   LIG d   1       7.067  88.449 114.095  0.00  0.00    -0.090 HD
ATOM     20  H   LIG d   1       6.585  89.538 112.989  0.00  0.00    -0.090 HD
ATOM     21  H   LIG d   1       6.756  87.965 112.564  0.00  0.00    -0.090 HD
ENDBRANCH   5  18
BRANCH   3  22
ATOM     22  C   LIG d   1       2.213  87.098 111.716  0.00  0.00     0.382 C 
ATOM     23  O   LIG d   1       2.503  86.398 110.716  0.00  0.00    -0.241 OA
ATOM     24  O   LIG d   1       1.144  87.737 111.728  0.00  0.00    -0.241 OA
ENDBRANCH   3  22
TORSDOF 7
ENDMDL
