MODEL 1
REMARK VINA RESULT:      -6.5      0.000      0.000
REMARK  7 active torsions:
REMARK  status: ('A' for Active; 'I' for Inactive)
REMARK    1  A    between atoms: C_2  and  C_3 
REMARK    2  A    between atoms: C_3  and  O_6 
REMARK    3  A    between atoms: C_3  and  C_4 
REMARK    4  A    between atoms: C_7  and  O_6 
REMARK    5  A    between atoms: C_9  and  C_10 
REMARK    6  A    between atoms: N_15  and  C_14 
REMARK    7  A    between atoms: N_20  and  C_19 
REMARK       I    between atoms: C_22  and  N_20 
ROOT
ATOM      1  C   LIG d   1       0.123  82.966 110.644  0.00  0.00     0.161 C 
ATOM      2  C   LIG d   1      -0.109  84.334 110.862  0.00  0.00     0.016 C 
ATOM      3  C   LIG d   1       0.333  85.348 109.981  0.00  0.00     0.038 C 
ATOM      4  C   LIG d   1       0.908  85.051 108.737  0.00  0.00     0.028 C 
ATOM      5  C   LIG d   1       1.615  83.701 108.704  0.00  0.00    -0.047 C 
ATOM      6  C   LIG d   1       0.651  82.616 109.237  0.00  0.00     0.091 C 
ENDROOT
BRANCH   1   7
ATOM      7  O   LIG d   1      -1.074  82.216 110.930  0.00  0.00    -0.368 OA
BRANCH   7   8
ATOM      8  C   LIG d   1      -1.213  81.732 112.289  0.00  0.00     0.119 C 
BRANCH   8   9
ATOM      9  C   LIG d   1       0.046  80.905 112.616  0.00  0.00     0.028 C 
ATOM     10  C   LIG d   1       0.619  81.233 114.005  0.00  0.00     0.006 C 
ENDBRANCH   8   9
BRANCH   8  11
ATOM     11  C   LIG d   1      -2.384  80.753 112.415  0.00  0.00     0.028 C 
ATOM     12  C   LIG d   1      -2.174  79.464 111.605  0.00  0.00     0.006 C 
ENDBRANCH   8  11
ENDBRANCH   7   8
ENDBRANCH   1   7
BRANCH   6  13
ATOM     13  N   LIG d   1       1.292  81.278 109.317  0.00  0.00    -0.311 N 
ATOM     14  C   LIG d   1       0.694  80.154 108.927  0.00  0.00     0.210 C 
ATOM     15  C   LIG d   1       1.524  78.880 109.114  0.00  0.00     0.109 C 
ATOM     16  O   LIG d   1      -0.434  80.094 108.414  0.00  0.00    -0.276 OA
ATOM     17  H   LIG d   1       2.219  81.238 109.692  0.00  0.00     0.149 HD
ENDBRANCH   6  13
BRANCH   5  18
ATOM     18  N   LIG d   1       2.047  83.458 107.314  0.00  0.00     0.381 N 
ATOM     19  H   LIG d   1       1.632  84.136 106.707  0.00  0.00    -0.090 HD
ATOM     20  H   LIG d   1       1.733  82.546 107.031  0.00  0.00    -0.090 HD
ATOM     21  H   LIG d   1       3.040  83.509 107.252  0.00  0.00    -0.090 HD
ENDBRANCH   5  18
BRANCH   3  22
ATOM     22  C   LIG d   1       0.236  86.679 110.361  0.00  0.00     0.382 C 
ATOM     23  O   LIG d   1       1.276  87.353 110.553  0.00  0.00    -0.241 OA
ATOM     24  O   LIG d   1      -0.878  87.200 110.557  0.00  0.00    -0.241 OA
ENDBRANCH   3  22
TORSDOF 7
ENDMDL
MODEL 2
REMARK VINA RESULT:      -6.4      2.312      5.192
REMARK  7 active torsions:
REMARK  status: ('A' for Active; 'I' for Inactive)
REMARK    1  A    between atoms: C_2  and  C_3 
REMARK    2  A    between atoms: C_3  and  O_6 
REMARK    3  A    between atoms: C_3  and  C_4 
REMARK    4  A    between atoms: C_7  and  O_6 
REMARK    5  A    between atoms: C_9  and  C_10 
REMARK    6  A    between atoms: N_15  and  C_14 
REMARK    7  A    between atoms: N_20  and  C_19 
REMARK       I    between atoms: C_22  and  N_20 
ROOT
ATOM      1  C   LIG d   1      -0.129  82.701 111.117  0.00  0.00     0.161 C 
ATOM      2  C   LIG d   1      -1.265  82.389 111.881  0.00  0.00     0.016 C 
ATOM      3  C   LIG d   1      -1.779  81.078 112.012  0.00  0.00     0.038 C 
ATOM      4  C   LIG d   1      -1.099  79.961 111.505  0.00  0.00     0.028 C 
ATOM      5  C   LIG d   1      -0.221  80.281 110.300  0.00  0.00    -0.047 C 
ATOM      6  C   LIG d   1       0.691  81.480 110.648  0.00  0.00     0.091 C 
ENDROOT
BRANCH   1   7
ATOM      7  O   LIG d   1       0.712  83.620 111.843  0.00  0.00    -0.368 OA
BRANCH   7   8
ATOM      8  C   LIG d   1       0.828  84.953 111.287  0.00  0.00     0.119 C 
BRANCH   8   9
ATOM      9  C   LIG d   1      -0.099  85.024 110.058  0.00  0.00     0.028 C 
ATOM     10  C   LIG d   1       0.493  85.881 108.926  0.00  0.00     0.006 C 
ENDBRANCH   8   9
BRANCH   8  11
ATOM     11  C   LIG d   1       2.238  85.211 110.748  0.00  0.00     0.028 C 
ATOM     12  C   LIG d   1       3.339  84.789 111.733  0.00  0.00     0.006 C 
ENDBRANCH   8  11
ENDBRANCH   7   8
ENDBRANCH   1   7
BRANCH   6  13
ATOM     13  N   LIG d   1       1.523  81.913 109.495  0.00  0.00    -0.311 N 
ATOM     14  C   LIG d   1       2.853  81.836 109.482  0.00  0.00     0.210 C 
ATOM     15  C   LIG d   1       3.517  82.355 108.202  0.00  0.00     0.109 C 
ATOM     16  O   LIG d   1       3.543  81.359 110.394  0.00  0.00    -0.276 OA
ATOM     17  H   LIG d   1       1.042  82.284 108.700  0.00  0.00     0.149 HD
ENDBRANCH   6  13
BRANCH   5  18
ATOM     18  N   LIG d   1       0.534  79.060 109.962  0.00  0.00     0.381 N 
ATOM     19  H   LIG d   1       1.459  79.304 109.667  0.00  0.00    -0.090 HD
ATOM     20  H   LIG d   1       0.073  78.593 109.201  0.00  0.00    -0.090 HD
ATOM     21  H   LIG d   1       0.579  78.456 110.753  0.00  0.00    -0.090 HD
ENDBRANCH   5  18
BRANCH   3  22
ATOM     22  C   LIG d   1      -3.009  80.880 112.621  0.00  0.00     0.382 C 
ATOM     23  O   LIG d   1      -3.304  79.752 113.085  0.00  0.00    -0.241 OA
ATOM     24  O   LIG d   1      -3.844  81.802 112.673  0.00  0.00    -0.241 OA
ENDBRANCH   3  22
TORSDOF 7
ENDMDL
MODEL 3
REMARK VINA RESULT:      -6.3      3.044      6.146
REMARK  7 active torsions:
REMARK  status: ('A' for Active; 'I' for Inactive)
REMARK    1  A    between atoms: C_2  and  C_3 
REMARK    2  A    between atoms: C_3  and  O_6 
REMARK    3  A    between atoms: C_3  and  C_4 
REMARK    4  A    between atoms: C_7  and  O_6 
REMARK    5  A    between atoms: C_9  and  C_10 
REMARK    6  A    between atoms: N_15  and  C_14 
REMARK    7  A    between atoms: N_20  and  C_19 
REMARK       I    between atoms: C_22  and  N_20 
ROOT
ATOM      1  C   LIG d   1       1.660  84.217 111.676  0.00  0.00     0.161 C 
ATOM      2  C   LIG d   1       0.627  83.266 111.700  0.00  0.00     0.016 C 
ATOM      3  C   LIG d   1      -0.490  83.351 112.563  0.00  0.00     0.038 C 
ATOM      4  C   LIG d   1      -0.726  84.481 113.360  0.00  0.00     0.028 C 
ATOM      5  C   LIG d   1       0.546  85.231 113.740  0.00  0.00    -0.047 C 
ATOM      6  C   LIG d   1       1.364  85.513 112.459  0.00  0.00     0.091 C 
ENDROOT
BRANCH   1   7
ATOM      7  O   LIG d   1       2.009  84.524 110.312  0.00  0.00    -0.368 OA
BRANCH   7   8
ATOM      8  C   LIG d   1       0.926  84.479 109.351  0.00  0.00     0.119 C 
BRANCH   8   9
ATOM      9  C   LIG d   1       1.485  83.864 108.053  0.00  0.00     0.028 C 
ATOM     10  C   LIG d   1       2.671  82.920 108.313  0.00  0.00     0.006 C 
ENDBRANCH   8   9
BRANCH   8  11
ATOM     11  C   LIG d   1       0.463  85.887 108.966  0.00  0.00     0.028 C 
ATOM     12  C   LIG d   1      -0.833  86.304 109.679  0.00  0.00     0.006 C 
ENDBRANCH   8  11
ENDBRANCH   7   8
ENDBRANCH   1   7
BRANCH   6  13
ATOM     13  N   LIG d   1       2.665  86.170 112.750  0.00  0.00    -0.311 N 
ATOM     14  C   LIG d   1       3.058  87.306 112.176  0.00  0.00     0.210 C 
ATOM     15  C   LIG d   1       4.443  87.801 112.603  0.00  0.00     0.109 C 
ATOM     16  O   LIG d   1       2.376  87.967 111.378  0.00  0.00    -0.276 OA
ATOM     17  H   LIG d   1       3.267  85.717 113.410  0.00  0.00     0.149 HD
ENDBRANCH   6  13
BRANCH   5  18
ATOM     18  N   LIG d   1       0.144  86.459 114.452  0.00  0.00     0.381 N 
ATOM     19  H   LIG d   1      -0.728  86.789 114.091  0.00  0.00    -0.090 HD
ATOM     20  H   LIG d   1       0.839  87.168 114.295  0.00  0.00    -0.090 HD
ATOM     21  H   LIG d   1       0.061  86.276 115.427  0.00  0.00    -0.090 HD
ENDBRANCH   5  18
BRANCH   3  22
ATOM     22  C   LIG d   1      -1.364  82.280 112.664  0.00  0.00     0.382 C 
ATOM     23  O   LIG d   1      -2.348  82.198 111.889  0.00  0.00    -0.241 OA
ATOM     24  O   LIG d   1      -1.207  81.417 113.548  0.00  0.00    -0.241 OA
ENDBRANCH   3  22
TORSDOF 7
ENDMDL
MODEL 4
REMARK VINA RESULT:      -6.1      1.643      2.021
REMARK  7 active torsions:
REMARK  status: ('A' for Active; 'I' for Inactive)
REMARK    1  A    between atoms: C_2  and  C_3 
REMARK    2  A    between atoms: C_3  and  O_6 
REMARK    3  A    between atoms: C_3  and  C_4 
REMARK    4  A    between atoms: C_7  and  O_6 
REMARK    5  A    between atoms: C_9  and  C_10 
REMARK    6  A    between atoms: N_15  and  C_14 
REMARK    7  A    between atoms: N_20  and  C_19 
REMARK       I    between atoms: C_22  and  N_20 
ROOT
ATOM      1  C   LIG d   1       2.387  82.776 111.107  0.00  0.00     0.161 C 
ATOM      2  C   LIG d   1       2.485  84.129 111.473  0.00  0.00     0.016 C 
ATOM      3  C   LIG d   1       2.186  85.196 110.595  0.00  0.00     0.038 C 
ATOM      4  C   LIG d   1       1.620  84.979 109.330  0.00  0.00     0.028 C 
ATOM      5  C   LIG d   1       1.976  83.623 108.731  0.00  0.00    -0.047 C 
ATOM      6  C   LIG d   1       1.665  82.519 109.768  0.00  0.00     0.091 C 
ENDROOT
BRANCH   1   7
ATOM      7  O   LIG d   1       1.759  82.028 112.166  0.00  0.00    -0.368 OA
BRANCH   7   8
ATOM      8  C   LIG d   1       0.311  81.991 112.149  0.00  0.00     0.119 C 
BRANCH   8   9
ATOM      9  C   LIG d   1      -0.187  82.783 113.373  0.00  0.00     0.028 C 
ATOM     10  C   LIG d   1      -0.833  84.123 112.981  0.00  0.00     0.006 C 
ENDBRANCH   8   9
BRANCH   8  11
ATOM     11  C   LIG d   1      -0.212  80.565 112.348  0.00  0.00     0.028 C 
ATOM     12  C   LIG d   1      -1.687  80.409 111.943  0.00  0.00     0.006 C 
ENDBRANCH   8  11
ENDBRANCH   7   8
ENDBRANCH   1   7
BRANCH   6  13
ATOM     13  N   LIG d   1       2.063  81.168 109.294  0.00  0.00    -0.311 N 
ATOM     14  C   LIG d   1       1.191  80.249 108.884  0.00  0.00     0.210 C 
ATOM     15  C   LIG d   1       1.811  78.915 108.455  0.00  0.00     0.109 C 
ATOM     16  O   LIG d   1      -0.034  80.422 108.804  0.00  0.00    -0.276 OA
ATOM     17  H   LIG d   1       3.041  80.954 109.296  0.00  0.00     0.149 HD
ENDBRANCH   6  13
BRANCH   5  18
ATOM     18  N   LIG d   1       1.211  83.473 107.479  0.00  0.00     0.381 N 
ATOM     19  H   LIG d   1       1.653  83.993 106.748  0.00  0.00    -0.090 HD
ATOM     20  H   LIG d   1       0.287  83.845 107.617  0.00  0.00    -0.090 HD
ATOM     21  H   LIG d   1       1.155  82.511 107.227  0.00  0.00    -0.090 HD
ENDBRANCH   5  18
BRANCH   3  22
ATOM     22  C   LIG d   1       2.492  86.497 110.966  0.00  0.00     0.382 C 
ATOM     23  O   LIG d   1       1.638  87.405 110.826  0.00  0.00    -0.241 OA
ATOM     24  O   LIG d   1       3.625  86.781 111.397  0.00  0.00    -0.241 OA
ENDBRANCH   3  22
TORSDOF 7
ENDMDL
MODEL 5
REMARK VINA RESULT:      -5.8      2.116      3.881
REMARK  7 active torsions:
REMARK  status: ('A' for Active; 'I' for Inactive)
REMARK    1  A    between atoms: C_2  and  C_3 
REMARK    2  A    between atoms: C_3  and  O_6 
REMARK    3  A    between atoms: C_3  and  C_4 
REMARK    4  A    between atoms: C_7  and  O_6 
REMARK    5  A    between atoms: C_9  and  C_10 
REMARK    6  A    between atoms: N_15  and  C_14 
REMARK    7  A    between atoms: N_20  and  C_19 
REMARK       I    between atoms: C_22  and  N_20 
ROOT
ATOM      1  C   LIG d   1       0.175  82.971 109.943  0.00  0.00     0.161 C 
ATOM      2  C   LIG d   1       0.803  84.228 109.940  0.00  0.00     0.016 C 
ATOM      3  C   LIG d   1       0.909  85.048 111.087  0.00  0.00     0.038 C 
ATOM      4  C   LIG d   1       0.525  84.597 112.359  0.00  0.00     0.028 C 
ATOM      5  C   LIG d   1      -0.572  83.538 112.320  0.00  0.00    -0.047 C 
ATOM      6  C   LIG d   1      -0.151  82.415 111.345  0.00  0.00     0.091 C 
ENDROOT
BRANCH   1   7
ATOM      7  O   LIG d   1       0.971  82.026 109.202  0.00  0.00    -0.368 OA
BRANCH   7   8
ATOM      8  C   LIG d   1       2.223  81.628 109.814  0.00  0.00     0.119 C 
BRANCH   8   9
ATOM      9  C   LIG d   1       3.344  81.899 108.793  0.00  0.00     0.028 C 
ATOM     10  C   LIG d   1       4.280  83.036 109.237  0.00  0.00     0.006 C 
ENDBRANCH   8   9
BRANCH   8  11
ATOM     11  C   LIG d   1       2.263  80.118 110.070  0.00  0.00     0.028 C 
ATOM     12  C   LIG d   1       1.184  79.353 109.288  0.00  0.00     0.006 C 
ENDBRANCH   8  11
ENDBRANCH   7   8
ENDBRANCH   1   7
BRANCH   6  13
ATOM     13  N   LIG d   1      -1.206  81.380 111.184  0.00  0.00    -0.311 N 
ATOM     14  C   LIG d   1      -1.290  80.294 111.950  0.00  0.00     0.210 C 
ATOM     15  C   LIG d   1      -2.441  79.345 111.602  0.00  0.00     0.109 C 
ATOM     16  O   LIG d   1      -0.540  80.043 112.905  0.00  0.00    -0.276 OA
ATOM     17  H   LIG d   1      -1.874  81.520 110.452  0.00  0.00     0.149 HD
ENDBRANCH   6  13
BRANCH   5  18
ATOM     18  N   LIG d   1      -0.778  83.059 113.700  0.00  0.00     0.381 N 
ATOM     19  H   LIG d   1       0.106  82.922 114.146  0.00  0.00    -0.090 HD
ATOM     20  H   LIG d   1      -1.256  82.176 113.669  0.00  0.00    -0.090 HD
ATOM     21  H   LIG d   1      -1.319  83.720 114.213  0.00  0.00    -0.090 HD
ENDBRANCH   5  18
BRANCH   3  22
ATOM     22  C   LIG d   1       1.368  86.350 110.961  0.00  0.00     0.382 C 
ATOM     23  O   LIG d   1       1.380  86.905 109.836  0.00  0.00    -0.241 OA
ATOM     24  O   LIG d   1       1.812  86.962 111.951  0.00  0.00    -0.241 OA
ENDBRANCH   3  22
TORSDOF 7
ENDMDL
MODEL 6
REMARK VINA RESULT:      -5.7      3.654      6.234
REMARK  7 active torsions:
REMARK  status: ('A' for Active; 'I' for Inactive)
REMARK    1  A    between atoms: C_2  and  C_3 
REMARK    2  A    between atoms: C_3  and  O_6 
REMARK    3  A    between atoms: C_3  and  C_4 
REMARK    4  A    between atoms: C_7  and  O_6 
REMARK    5  A    between atoms: C_9  and  C_10 
REMARK    6  A    between atoms: N_15  and  C_14 
REMARK    7  A    between atoms: N_20  and  C_19 
REMARK       I    between atoms: C_22  and  N_20 
ROOT
ATOM      1  C   LIG d   1       2.620  84.671 111.394  0.00  0.00     0.161 C 
ATOM      2  C   LIG d   1       3.412  84.047 110.416  0.00  0.00     0.016 C 
ATOM      3  C   LIG d   1       2.896  83.152 109.450  0.00  0.00     0.038 C 
ATOM      4  C   LIG d   1       1.518  82.936 109.302  0.00  0.00     0.028 C 
ATOM      5  C   LIG d   1       0.728  83.153 110.588  0.00  0.00    -0.047 C 
ATOM      6  C   LIG d   1       1.098  84.533 111.177  0.00  0.00     0.091 C 
ENDROOT
BRANCH   1   7
ATOM      7  O   LIG d   1       2.986  86.060 111.507  0.00  0.00    -0.368 OA
BRANCH   7   8
ATOM      8  C   LIG d   1       3.999  86.373 112.494  0.00  0.00     0.119 C 
BRANCH   8   9
ATOM      9  C   LIG d   1       3.487  85.871 113.858  0.00  0.00     0.028 C 
ATOM     10  C   LIG d   1       4.486  84.927 114.549  0.00  0.00     0.006 C 
ENDBRANCH   8   9
BRANCH   8  11
ATOM     11  C   LIG d   1       4.168  87.887 112.658  0.00  0.00     0.028 C 
ATOM     12  C   LIG d   1       5.618  88.295 112.964  0.00  0.00     0.006 C 
ENDBRANCH   8  11
ENDBRANCH   7   8
ENDBRANCH   1   7
BRANCH   6  13
ATOM     13  N   LIG d   1       0.433  84.790 112.482  0.00  0.00    -0.311 N 
ATOM     14  C   LIG d   1      -0.691  85.493 112.606  0.00  0.00     0.210 C 
ATOM     15  C   LIG d   1      -1.197  85.655 114.043  0.00  0.00     0.109 C 
ATOM     16  O   LIG d   1      -1.335  85.971 111.659  0.00  0.00    -0.276 OA
ATOM     17  H   LIG d   1       0.871  84.412 113.299  0.00  0.00     0.149 HD
ENDBRANCH   6  13
BRANCH   5  18
ATOM     18  N   LIG d   1      -0.704  83.030 110.258  0.00  0.00     0.381 N 
ATOM     19  H   LIG d   1      -1.258  83.343 111.031  0.00  0.00    -0.090 HD
ATOM     20  H   LIG d   1      -0.917  82.063 110.090  0.00  0.00    -0.090 HD
ATOM     21  H   LIG d   1      -0.915  83.570 109.448  0.00  0.00    -0.090 HD
ENDBRANCH   5  18
BRANCH   3  22
ATOM     22  C   LIG d   1       3.766  82.432 108.646  0.00  0.00     0.382 C 
ATOM     23  O   LIG d   1       3.394  81.349 108.134  0.00  0.00    -0.241 OA
ATOM     24  O   LIG d   1       4.932  82.829 108.463  0.00  0.00    -0.241 OA
ENDBRANCH   3  22
TORSDOF 7
ENDMDL
MODEL 7
REMARK VINA RESULT:      -5.6      1.996      5.112
REMARK  7 active torsions:
REMARK  status: ('A' for Active; 'I' for Inactive)
REMARK    1  A    between atoms: C_2  and  C_3 
REMARK    2  A    between atoms: C_3  and  O_6 
REMARK    3  A    between atoms: C_3  and  C_4 
REMARK    4  A    between atoms: C_7  and  O_6 
REMARK    5  A    between atoms: C_9  and  C_10 
REMARK    6  A    between atoms: N_15  and  C_14 
REMARK    7  A    between atoms: N_20  and  C_19 
REMARK       I    between atoms: C_22  and  N_20 
ROOT
ATOM      1  C   LIG d   1       0.326  82.279 109.532  0.00  0.00     0.161 C 
ATOM      2  C   LIG d   1       0.567  80.935 109.204  0.00  0.00     0.016 C 
ATOM      3  C   LIG d   1       1.855  80.352 109.207  0.00  0.00     0.038 C 
ATOM      4  C   LIG d   1       2.979  81.039 109.688  0.00  0.00     0.028 C 
ATOM      5  C   LIG d   1       2.867  82.554 109.553  0.00  0.00    -0.047 C 
ATOM      6  C   LIG d   1       1.525  83.014 110.167  0.00  0.00     0.091 C 
ENDROOT
BRANCH   1   7
ATOM      7  O   LIG d   1      -0.830  82.373 110.388  0.00  0.00    -0.368 OA
BRANCH   7   8
ATOM      8  C   LIG d   1      -0.650  81.925 111.754  0.00  0.00     0.119 C 
BRANCH   8   9
ATOM      9  C   LIG d   1      -1.596  80.730 111.977  0.00  0.00     0.028 C 
ATOM     10  C   LIG d   1      -2.933  81.150 112.610  0.00  0.00     0.006 C 
ENDBRANCH   8   9
BRANCH   8  11
ATOM     11  C   LIG d   1      -1.102  82.992 112.755  0.00  0.00     0.028 C 
ATOM     12  C   LIG d   1      -0.047  83.282 113.834  0.00  0.00     0.006 C 
ENDBRANCH   8  11
ENDBRANCH   7   8
ENDBRANCH   1   7
BRANCH   6  13
ATOM     13  N   LIG d   1       1.297  84.474 110.002  0.00  0.00    -0.311 N 
ATOM     14  C   LIG d   1       1.655  85.379 110.910  0.00  0.00     0.210 C 
ATOM     15  C   LIG d   1       1.309  86.828 110.550  0.00  0.00     0.109 C 
ATOM     16  O   LIG d   1       2.255  85.124 111.965  0.00  0.00    -0.276 OA
ATOM     17  H   LIG d   1       0.844  84.772 109.160  0.00  0.00     0.149 HD
ENDBRANCH   6  13
BRANCH   5  18
ATOM     18  N   LIG d   1       4.042  83.149 110.217  0.00  0.00     0.381 N 
ATOM     19  H   LIG d   1       3.990  84.147 110.166  0.00  0.00    -0.090 HD
ATOM     20  H   LIG d   1       4.872  82.851 109.737  0.00  0.00    -0.090 HD
ATOM     21  H   LIG d   1       4.078  82.860 111.170  0.00  0.00    -0.090 HD
ENDBRANCH   5  18
BRANCH   3  22
ATOM     22  C   LIG d   1       2.035  79.079 108.686  0.00  0.00     0.382 C 
ATOM     23  O   LIG d   1       2.728  78.239 109.309  0.00  0.00    -0.241 OA
ATOM     24  O   LIG d   1       1.549  78.774 107.580  0.00  0.00    -0.241 OA
ENDBRANCH   3  22
TORSDOF 7
ENDMDL
MODEL 8
REMARK VINA RESULT:      -5.6      2.707      5.414
REMARK  7 active torsions:
REMARK  status: ('A' for Active; 'I' for Inactive)
REMARK    1  A    between atoms: C_2  and  C_3 
REMARK    2  A    between atoms: C_3  and  O_6 
REMARK    3  A    between atoms: C_3  and  C_4 
REMARK    4  A    between atoms: C_7  and  O_6 
REMARK    5  A    between atoms: C_9  and  C_10 
REMARK    6  A    between atoms: N_15  and  C_14 
REMARK    7  A    between atoms: N_20  and  C_19 
REMARK       I    between atoms: C_22  and  N_20 
ROOT
ATOM      1  C   LIG d   1       0.987  83.198 110.490  0.00  0.00     0.161 C 
ATOM      2  C   LIG d   1       0.497  81.995 109.954  0.00  0.00     0.016 C 
ATOM      3  C   LIG d   1       1.301  81.075 109.244  0.00  0.00     0.038 C 
ATOM      4  C   LIG d   1       2.693  81.223 109.153  0.00  0.00     0.028 C 
ATOM      5  C   LIG d   1       3.155  82.674 109.243  0.00  0.00    -0.047 C 
ATOM      6  C   LIG d   1       2.525  83.324 110.496  0.00  0.00     0.091 C 
ENDROOT
BRANCH   1   7
ATOM      7  O   LIG d   1       0.463  83.390 111.819  0.00  0.00    -0.368 OA
BRANCH   7   8
ATOM      8  C   LIG d   1      -0.540  84.425 111.966  0.00  0.00     0.119 C 
BRANCH   8   9
ATOM      9  C   LIG d   1      -0.771  85.047 110.575  0.00  0.00     0.028 C 
ATOM     10  C   LIG d   1      -0.791  86.584 110.614  0.00  0.00     0.006 C 
ENDBRANCH   8   9
BRANCH   8  11
ATOM     11  C   LIG d   1      -0.032  85.573 112.843  0.00  0.00     0.028 C 
ATOM     12  C   LIG d   1      -0.698  85.605 114.228  0.00  0.00     0.006 C 
ENDBRANCH   8  11
ENDBRANCH   7   8
ENDBRANCH   1   7
BRANCH   6  13
ATOM     13  N   LIG d   1       2.857  84.768 110.613  0.00  0.00    -0.311 N 
ATOM     14  C   LIG d   1       3.528  85.284 111.642  0.00  0.00     0.210 C 
ATOM     15  C   LIG d   1       3.747  86.799 111.576  0.00  0.00     0.109 C 
ATOM     16  O   LIG d   1       3.990  84.627 112.587  0.00  0.00    -0.276 OA
ATOM     17  H   LIG d   1       2.547  85.369 109.875  0.00  0.00     0.149 HD
ENDBRANCH   6  13
BRANCH   5  18
ATOM     18  N   LIG d   1       4.629  82.672 109.272  0.00  0.00     0.381 N 
ATOM     19  H   LIG d   1       4.971  83.611 109.214  0.00  0.00    -0.090 HD
ATOM     20  H   LIG d   1       4.970  82.163 108.475  0.00  0.00    -0.090 HD
ATOM     21  H   LIG d   1       4.953  82.244 110.112  0.00  0.00    -0.090 HD
ENDBRANCH   5  18
BRANCH   3  22
ATOM     22  C   LIG d   1       0.708  80.010 108.583  0.00  0.00     0.382 C 
ATOM     23  O   LIG d   1       1.408  79.044 108.195  0.00  0.00    -0.241 OA
ATOM     24  O   LIG d   1      -0.512  80.025 108.331  0.00  0.00    -0.241 OA
ENDBRANCH   3  22
TORSDOF 7
ENDMDL
MODEL 9
REMARK VINA RESULT:      -5.5      2.490      4.653
REMARK  7 active torsions:
REMARK  status: ('A' for Active; 'I' for Inactive)
REMARK    1  A    between atoms: C_2  and  C_3 
REMARK    2  A    between atoms: C_3  and  O_6 
REMARK    3  A    between atoms: C_3  and  C_4 
REMARK    4  A    between atoms: C_7  and  O_6 
REMARK    5  A    between atoms: C_9  and  C_10 
REMARK    6  A    between atoms: N_15  and  C_14 
REMARK    7  A    between atoms: N_20  and  C_19 
REMARK       I    between atoms: C_22  and  N_20 
ROOT
ATOM      1  C   LIG d   1       0.403  82.930 110.915  0.00  0.00     0.161 C 
ATOM      2  C   LIG d   1       1.316  83.203 109.883  0.00  0.00     0.016 C 
ATOM      3  C   LIG d   1       1.845  82.209 109.028  0.00  0.00     0.038 C 
ATOM      4  C   LIG d   1       1.377  80.887 109.050  0.00  0.00     0.028 C 
ATOM      5  C   LIG d   1       0.827  80.462 110.408  0.00  0.00    -0.047 C 
ATOM      6  C   LIG d   1      -0.204  81.511 110.883  0.00  0.00     0.091 C 
ENDROOT
BRANCH   1   7
ATOM      7  O   LIG d   1      -0.643  83.922 110.917  0.00  0.00    -0.368 OA
BRANCH   7   8
ATOM      8  C   LIG d   1      -0.748  84.733 112.113  0.00  0.00     0.119 C 
BRANCH   8   9
ATOM      9  C   LIG d   1      -0.669  86.210 111.678  0.00  0.00     0.028 C 
ATOM     10  C   LIG d   1      -1.050  86.408 110.201  0.00  0.00     0.006 C 
ENDBRANCH   8   9
BRANCH   8  11
ATOM     11  C   LIG d   1       0.451  84.519 113.040  0.00  0.00     0.028 C 
ATOM     12  C   LIG d   1       0.039  84.109 114.463  0.00  0.00     0.006 C 
ENDBRANCH   8  11
ENDBRANCH   7   8
ENDBRANCH   1   7
BRANCH   6  13
ATOM     13  N   LIG d   1      -0.729  81.216 112.241  0.00  0.00    -0.311 N 
ATOM     14  C   LIG d   1      -2.023  81.253 112.551  0.00  0.00     0.210 C 
ATOM     15  C   LIG d   1      -2.348  80.934 114.014  0.00  0.00     0.109 C 
ATOM     16  O   LIG d   1      -2.937  81.487 111.745  0.00  0.00    -0.276 OA
ATOM     17  H   LIG d   1      -0.059  80.985 112.949  0.00  0.00     0.149 HD
ENDBRANCH   6  13
BRANCH   5  18
ATOM     18  N   LIG d   1       0.249  79.113 110.252  0.00  0.00     0.381 N 
ATOM     19  H   LIG d   1       0.979  78.448 110.094  0.00  0.00    -0.090 HD
ATOM     20  H   LIG d   1      -0.359  79.110 109.452  0.00  0.00    -0.090 HD
ATOM     21  H   LIG d   1      -0.264  78.866 111.069  0.00  0.00    -0.090 HD
ENDBRANCH   5  18
BRANCH   3  22
ATOM     22  C   LIG d   1       2.882  82.526 108.164  0.00  0.00     0.382 C 
ATOM     23  O   LIG d   1       4.059  82.199 108.451  0.00  0.00    -0.241 OA
ATOM     24  O   LIG d   1       2.662  83.173 107.123  0.00  0.00    -0.241 OA
ENDBRANCH   3  22
TORSDOF 7
ENDMDL
