MODEL 1
REMARK VINA RESULT:      -6.2      0.000      0.000
REMARK  7 active torsions:
REMARK  status: ('A' for Active; 'I' for Inactive)
REMARK    1  A    between atoms: C_2  and  C_3 
REMARK    2  A    between atoms: C_3  and  O_6 
REMARK    3  A    between atoms: C_3  and  C_4 
REMARK    4  A    between atoms: C_7  and  O_6 
REMARK    5  A    between atoms: C_9  and  C_10 
REMARK    6  A    between atoms: N_15  and  C_14 
REMARK    7  A    between atoms: N_20  and  C_19 
REMARK       I    between atoms: C_22  and  N_20 
ROOT
ATOM      1  C   LIG d   1       2.109  84.564 110.201  0.00  0.00     0.161 C 
ATOM      2  C   LIG d   1       1.357  85.712 110.501  0.00  0.00     0.016 C 
ATOM      3  C   LIG d   1      -0.010  85.676 110.856  0.00  0.00     0.038 C 
ATOM      4  C   LIG d   1      -0.685  84.468 111.085  0.00  0.00     0.028 C 
ATOM      5  C   LIG d   1      -0.105  83.293 110.306  0.00  0.00    -0.047 C 
ATOM      6  C   LIG d   1       1.420  83.230 110.554  0.00  0.00     0.091 C 
ENDROOT
BRANCH   1   7
ATOM      7  O   LIG d   1       3.400  84.645 110.839  0.00  0.00    -0.368 OA
BRANCH   7   8
ATOM      8  C   LIG d   1       3.524  85.619 111.905  0.00  0.00     0.119 C 
BRANCH   8   9
ATOM      9  C   LIG d   1       4.762  86.484 111.599  0.00  0.00     0.028 C 
ATOM     10  C   LIG d   1       5.286  87.218 112.844  0.00  0.00     0.006 C 
ENDBRANCH   8   9
BRANCH   8  11
ATOM     11  C   LIG d   1       3.824  84.941 113.245  0.00  0.00     0.028 C 
ATOM     12  C   LIG d   1       2.551  84.512 113.993  0.00  0.00     0.006 C 
ENDBRANCH   8  11
ENDBRANCH   7   8
ENDBRANCH   1   7
BRANCH   6  13
ATOM     13  N   LIG d   1       2.079  82.159 109.762  0.00  0.00    -0.311 N 
ATOM     14  C   LIG d   1       2.546  81.032 110.297  0.00  0.00     0.210 C 
ATOM     15  C   LIG d   1       3.208  80.071 109.305  0.00  0.00     0.109 C 
ATOM     16  O   LIG d   1       2.445  80.723 111.494  0.00  0.00    -0.276 OA
ATOM     17  H   LIG d   1       2.175  82.314 108.777  0.00  0.00     0.149 HD
ENDBRANCH   6  13
BRANCH   5  18
ATOM     18  N   LIG d   1      -0.813  82.075 110.743  0.00  0.00     0.381 N 
ATOM     19  H   LIG d   1      -0.194  81.290 110.701  0.00  0.00    -0.090 HD
ATOM     20  H   LIG d   1      -1.581  81.904 110.119  0.00  0.00    -0.090 HD
ATOM     21  H   LIG d   1      -1.150  82.192 111.673  0.00  0.00    -0.090 HD
ENDBRANCH   5  18
BRANCH   3  22
ATOM     22  C   LIG d   1      -0.728  86.859 110.947  0.00  0.00     0.382 C 
ATOM     23  O   LIG d   1      -0.237  87.847 111.544  0.00  0.00    -0.241 OA
ATOM     24  O   LIG d   1      -1.880  86.937 110.478  0.00  0.00    -0.241 OA
ENDBRANCH   3  22
TORSDOF 7
ENDMDL
MODEL 2
REMARK VINA RESULT:      -5.8      2.739      4.815
REMARK  7 active torsions:
REMARK  status: ('A' for Active; 'I' for Inactive)
REMARK    1  A    between atoms: C_2  and  C_3 
REMARK    2  A    between atoms: C_3  and  O_6 
REMARK    3  A    between atoms: C_3  and  C_4 
REMARK    4  A    between atoms: C_7  and  O_6 
REMARK    5  A    between atoms: C_9  and  C_10 
REMARK    6  A    between atoms: N_15  and  C_14 
REMARK    7  A    between atoms: N_20  and  C_19 
REMARK       I    between atoms: C_22  and  N_20 
ROOT
ATOM      1  C   LIG d   1       1.653  84.799 112.682  0.00  0.00     0.161 C 
ATOM      2  C   LIG d   1       0.556  84.977 111.822  0.00  0.00     0.016 C 
ATOM      3  C   LIG d   1       0.194  86.228 111.272  0.00  0.00     0.038 C 
ATOM      4  C   LIG d   1       1.000  87.366 111.425  0.00  0.00     0.028 C 
ATOM      5  C   LIG d   1       1.841  87.347 112.697  0.00  0.00    -0.047 C 
ATOM      6  C   LIG d   1       2.608  86.007 112.771  0.00  0.00     0.091 C 
ENDROOT
BRANCH   1   7
ATOM      7  O   LIG d   1       2.380  83.612 112.307  0.00  0.00    -0.368 OA
BRANCH   7   8
ATOM      8  C   LIG d   1       2.513  83.369 110.885  0.00  0.00     0.119 C 
BRANCH   8   9
ATOM      9  C   LIG d   1       2.109  81.904 110.626  0.00  0.00     0.028 C 
ATOM     10  C   LIG d   1       1.389  81.272 111.829  0.00  0.00     0.006 C 
ENDBRANCH   8   9
BRANCH   8  11
ATOM     11  C   LIG d   1       3.973  83.472 110.436  0.00  0.00     0.028 C 
ATOM     12  C   LIG d   1       4.321  82.488 109.308  0.00  0.00     0.006 C 
ENDBRANCH   8  11
ENDBRANCH   7   8
ENDBRANCH   1   7
BRANCH   6  13
ATOM     13  N   LIG d   1       3.391  85.871 114.027  0.00  0.00    -0.311 N 
ATOM     14  C   LIG d   1       4.662  86.249 114.143  0.00  0.00     0.210 C 
ATOM     15  C   LIG d   1       5.287  86.001 115.520  0.00  0.00     0.109 C 
ATOM     16  O   LIG d   1       5.323  86.795 113.247  0.00  0.00    -0.276 OA
ATOM     17  H   LIG d   1       2.923  85.465 114.814  0.00  0.00     0.149 HD
ENDBRANCH   6  13
BRANCH   5  18
ATOM     18  N   LIG d   1       2.732  88.522 112.660  0.00  0.00     0.381 N 
ATOM     19  H   LIG d   1       2.933  88.824 113.593  0.00  0.00    -0.090 HD
ATOM     20  H   LIG d   1       2.263  89.270 112.181  0.00  0.00    -0.090 HD
ATOM     21  H   LIG d   1       3.578  88.294 112.187  0.00  0.00    -0.090 HD
ENDBRANCH   5  18
BRANCH   3  22
ATOM     22  C   LIG d   1      -1.007  86.358 110.592  0.00  0.00     0.382 C 
ATOM     23  O   LIG d   1      -1.948  87.014 111.101  0.00  0.00    -0.241 OA
ATOM     24  O   LIG d   1      -1.178  85.791 109.496  0.00  0.00    -0.241 OA
ENDBRANCH   3  22
TORSDOF 7
ENDMDL
MODEL 3
REMARK VINA RESULT:      -5.7      2.799      5.382
REMARK  7 active torsions:
REMARK  status: ('A' for Active; 'I' for Inactive)
REMARK    1  A    between atoms: C_2  and  C_3 
REMARK    2  A    between atoms: C_3  and  O_6 
REMARK    3  A    between atoms: C_3  and  C_4 
REMARK    4  A    between atoms: C_7  and  O_6 
REMARK    5  A    between atoms: C_9  and  C_10 
REMARK    6  A    between atoms: N_15  and  C_14 
REMARK    7  A    between atoms: N_20  and  C_19 
REMARK       I    between atoms: C_22  and  N_20 
ROOT
ATOM      1  C   LIG d   1       2.838  85.355 111.664  0.00  0.00     0.161 C 
ATOM      2  C   LIG d   1       3.995  85.655 112.403  0.00  0.00     0.016 C 
ATOM      3  C   LIG d   1       4.229  86.911 113.007  0.00  0.00     0.038 C 
ATOM      4  C   LIG d   1       3.247  87.913 113.040  0.00  0.00     0.028 C 
ATOM      5  C   LIG d   1       2.265  87.836 111.875  0.00  0.00    -0.047 C 
ATOM      6  C   LIG d   1       1.707  86.397 111.783  0.00  0.00     0.091 C 
ENDROOT
BRANCH   1   7
ATOM      7  O   LIG d   1       2.354  84.046 112.024  0.00  0.00    -0.368 OA
BRANCH   7   8
ATOM      8  C   LIG d   1       2.507  83.012 111.022  0.00  0.00     0.119 C 
BRANCH   8   9
ATOM      9  C   LIG d   1       3.284  83.624 109.840  0.00  0.00     0.028 C 
ATOM     10  C   LIG d   1       4.378  82.683 109.306  0.00  0.00     0.006 C 
ENDBRANCH   8   9
BRANCH   8  11
ATOM     11  C   LIG d   1       1.153  82.591 110.442  0.00  0.00     0.028 C 
ATOM     12  C   LIG d   1       0.009  82.702 111.462  0.00  0.00     0.006 C 
ENDBRANCH   8  11
ENDBRANCH   7   8
ENDBRANCH   1   7
BRANCH   6  13
ATOM     13  N   LIG d   1       0.802  86.214 110.618  0.00  0.00    -0.311 N 
ATOM     14  C   LIG d   1      -0.526  86.230 110.712  0.00  0.00     0.210 C 
ATOM     15  C   LIG d   1      -1.271  86.001 109.393  0.00  0.00     0.109 C 
ATOM     16  O   LIG d   1      -1.159  86.443 111.757  0.00  0.00    -0.276 OA
ATOM     17  H   LIG d   1       1.232  86.066 109.726  0.00  0.00     0.149 HD
ENDBRANCH   6  13
BRANCH   5  18
ATOM     18  N   LIG d   1       1.218  88.849 112.108  0.00  0.00     0.381 N 
ATOM     19  H   LIG d   1       0.384  88.404 112.438  0.00  0.00    -0.090 HD
ATOM     20  H   LIG d   1       1.008  89.305 111.238  0.00  0.00    -0.090 HD
ATOM     21  H   LIG d   1       1.533  89.518 112.775  0.00  0.00    -0.090 HD
ENDBRANCH   5  18
BRANCH   3  22
ATOM     22  C   LIG d   1       5.473  87.191 113.552  0.00  0.00     0.382 C 
ATOM     23  O   LIG d   1       5.711  86.904 114.750  0.00  0.00    -0.241 OA
ATOM     24  O   LIG d   1       6.345  87.767 112.874  0.00  0.00    -0.241 OA
ENDBRANCH   3  22
TORSDOF 7
ENDMDL
MODEL 4
REMARK VINA RESULT:      -5.7      3.290      5.675
REMARK  7 active torsions:
REMARK  status: ('A' for Active; 'I' for Inactive)
REMARK    1  A    between atoms: C_2  and  C_3 
REMARK    2  A    between atoms: C_3  and  O_6 
REMARK    3  A    between atoms: C_3  and  C_4 
REMARK    4  A    between atoms: C_7  and  O_6 
REMARK    5  A    between atoms: C_9  and  C_10 
REMARK    6  A    between atoms: N_15  and  C_14 
REMARK    7  A    between atoms: N_20  and  C_19 
REMARK       I    between atoms: C_22  and  N_20 
ROOT
ATOM      1  C   LIG d   1       1.837  86.035 114.152  0.00  0.00     0.161 C 
ATOM      2  C   LIG d   1       2.398  87.099 113.427  0.00  0.00     0.016 C 
ATOM      3  C   LIG d   1       3.774  87.420 113.457  0.00  0.00     0.038 C 
ATOM      4  C   LIG d   1       4.713  86.600 114.100  0.00  0.00     0.028 C 
ATOM      5  C   LIG d   1       4.127  85.803 115.260  0.00  0.00    -0.047 C 
ATOM      6  C   LIG d   1       2.862  85.062 114.771  0.00  0.00     0.091 C 
ENDROOT
BRANCH   1   7
ATOM      7  O   LIG d   1       0.903  85.316 113.322  0.00  0.00    -0.368 OA
BRANCH   7   8
ATOM      8  C   LIG d   1       0.771  85.786 111.958  0.00  0.00     0.119 C 
BRANCH   8   9
ATOM      9  C   LIG d   1      -0.726  86.049 111.701  0.00  0.00     0.028 C 
ATOM     10  C   LIG d   1      -1.064  86.106 110.202  0.00  0.00     0.006 C 
ENDBRANCH   8   9
BRANCH   8  11
ATOM     11  C   LIG d   1       1.169  84.701 110.953  0.00  0.00     0.028 C 
ATOM     12  C   LIG d   1       2.595  84.885 110.411  0.00  0.00     0.006 C 
ENDBRANCH   8  11
ENDBRANCH   7   8
ENDBRANCH   1   7
BRANCH   6  13
ATOM     13  N   LIG d   1       2.179  84.324 115.865  0.00  0.00    -0.311 N 
ATOM     14  C   LIG d   1       2.432  83.051 116.161  0.00  0.00     0.210 C 
ATOM     15  C   LIG d   1       1.602  82.476 117.313  0.00  0.00     0.109 C 
ATOM     16  O   LIG d   1       3.289  82.351 115.600  0.00  0.00    -0.276 OA
ATOM     17  H   LIG d   1       1.490  84.825 116.393  0.00  0.00     0.149 HD
ENDBRANCH   6  13
BRANCH   5  18
ATOM     18  N   LIG d   1       5.178  84.891 115.750  0.00  0.00     0.381 N 
ATOM     19  H   LIG d   1       4.765  84.157 116.289  0.00  0.00    -0.090 HD
ATOM     20  H   LIG d   1       5.804  85.406 116.344  0.00  0.00    -0.090 HD
ATOM     21  H   LIG d   1       5.681  84.505 114.981  0.00  0.00    -0.090 HD
ENDBRANCH   5  18
BRANCH   3  22
ATOM     22  C   LIG d   1       4.218  88.596 112.871  0.00  0.00     0.382 C 
ATOM     23  O   LIG d   1       3.404  89.517 112.618  0.00  0.00    -0.241 OA
ATOM     24  O   LIG d   1       5.415  88.730 112.551  0.00  0.00    -0.241 OA
ENDBRANCH   3  22
TORSDOF 7
ENDMDL
MODEL 5
REMARK VINA RESULT:      -5.5      2.655      4.073
REMARK  7 active torsions:
REMARK  status: ('A' for Active; 'I' for Inactive)
REMARK    1  A    between atoms: C_2  and  C_3 
REMARK    2  A    between atoms: C_3  and  O_6 
REMARK    3  A    between atoms: C_3  and  C_4 
REMARK    4  A    between atoms: C_7  and  O_6 
REMARK    5  A    between atoms: C_9  and  C_10 
REMARK    6  A    between atoms: N_15  and  C_14 
REMARK    7  A    between atoms: N_20  and  C_19 
REMARK       I    between atoms: C_22  and  N_20 
ROOT
ATOM      1  C   LIG d   1       4.075  85.020 112.752  0.00  0.00     0.161 C 
ATOM      2  C   LIG d   1       4.466  86.334 113.058  0.00  0.00     0.016 C 
ATOM      3  C   LIG d   1       3.847  87.479 112.507  0.00  0.00     0.038 C 
ATOM      4  C   LIG d   1       2.687  87.389 111.722  0.00  0.00     0.028 C 
ATOM      5  C   LIG d   1       2.560  86.064 110.979  0.00  0.00    -0.047 C 
ATOM      6  C   LIG d   1       2.741  84.904 111.985  0.00  0.00     0.091 C 
ENDROOT
BRANCH   1   7
ATOM      7  O   LIG d   1       4.031  84.230 113.956  0.00  0.00    -0.368 OA
BRANCH   7   8
ATOM      8  C   LIG d   1       3.825  84.961 115.190  0.00  0.00     0.119 C 
BRANCH   8   9
ATOM      9  C   LIG d   1       4.596  84.221 116.301  0.00  0.00     0.028 C 
ATOM     10  C   LIG d   1       5.872  84.966 116.725  0.00  0.00     0.006 C 
ENDBRANCH   8   9
BRANCH   8  11
ATOM     11  C   LIG d   1       2.356  84.922 115.622  0.00  0.00     0.028 C 
ATOM     12  C   LIG d   1       1.701  86.313 115.631  0.00  0.00     0.006 C 
ENDBRANCH   8  11
ENDBRANCH   7   8
ENDBRANCH   1   7
BRANCH   6  13
ATOM     13  N   LIG d   1       2.715  83.573 111.326  0.00  0.00    -0.311 N 
ATOM     14  C   LIG d   1       1.792  82.646 111.581  0.00  0.00     0.210 C 
ATOM     15  C   LIG d   1       1.961  81.335 110.807  0.00  0.00     0.109 C 
ATOM     16  O   LIG d   1       0.832  82.798 112.351  0.00  0.00    -0.276 OA
ATOM     17  H   LIG d   1       3.440  83.377 110.664  0.00  0.00     0.149 HD
ENDBRANCH   6  13
BRANCH   5  18
ATOM     18  N   LIG d   1       1.243  86.051 110.313  0.00  0.00     0.381 N 
ATOM     19  H   LIG d   1       0.703  85.278 110.646  0.00  0.00    -0.090 HD
ATOM     20  H   LIG d   1       1.381  85.938 109.324  0.00  0.00    -0.090 HD
ATOM     21  H   LIG d   1       0.762  86.904 110.493  0.00  0.00    -0.090 HD
ENDBRANCH   5  18
BRANCH   3  22
ATOM     22  C   LIG d   1       4.412  88.729 112.706  0.00  0.00     0.382 C 
ATOM     23  O   LIG d   1       5.659  88.859 112.716  0.00  0.00    -0.241 OA
ATOM     24  O   LIG d   1       3.690  89.722 112.921  0.00  0.00    -0.241 OA
ENDBRANCH   3  22
TORSDOF 7
ENDMDL
MODEL 6
REMARK VINA RESULT:      -5.4     14.105     15.621
REMARK  7 active torsions:
REMARK  status: ('A' for Active; 'I' for Inactive)
REMARK    1  A    between atoms: C_2  and  C_3 
REMARK    2  A    between atoms: C_3  and  O_6 
REMARK    3  A    between atoms: C_3  and  C_4 
REMARK    4  A    between atoms: C_7  and  O_6 
REMARK    5  A    between atoms: C_9  and  C_10 
REMARK    6  A    between atoms: N_15  and  C_14 
REMARK    7  A    between atoms: N_20  and  C_19 
REMARK       I    between atoms: C_22  and  N_20 
ROOT
ATOM      1  C   LIG d   1      -8.145  74.821 117.528  0.00  0.00     0.161 C 
ATOM      2  C   LIG d   1      -8.196  76.190 117.836  0.00  0.00     0.016 C 
ATOM      3  C   LIG d   1      -9.330  76.820 118.397  0.00  0.00     0.038 C 
ATOM      4  C   LIG d   1     -10.446  76.089 118.831  0.00  0.00     0.028 C 
ATOM      5  C   LIG d   1     -10.640  74.777 118.078  0.00  0.00    -0.047 C 
ATOM      6  C   LIG d   1      -9.312  73.986 118.096  0.00  0.00     0.091 C 
ENDROOT
BRANCH   1   7
ATOM      7  O   LIG d   1      -6.882  74.270 117.952  0.00  0.00    -0.368 OA
BRANCH   7   8
ATOM      8  C   LIG d   1      -6.078  73.650 116.919  0.00  0.00     0.119 C 
BRANCH   8   9
ATOM      9  C   LIG d   1      -4.666  74.262 117.002  0.00  0.00     0.028 C 
ATOM     10  C   LIG d   1      -4.376  74.884 118.379  0.00  0.00     0.006 C 
ENDBRANCH   8   9
BRANCH   8  11
ATOM     11  C   LIG d   1      -6.593  74.008 115.522  0.00  0.00     0.028 C 
ATOM     12  C   LIG d   1      -5.661  74.973 114.772  0.00  0.00     0.006 C 
ENDBRANCH   8  11
ENDBRANCH   7   8
ENDBRANCH   1   7
BRANCH   6  13
ATOM     13  N   LIG d   1      -9.391  72.728 117.309  0.00  0.00    -0.311 N 
ATOM     14  C   LIG d   1      -8.974  71.549 117.769  0.00  0.00     0.210 C 
ATOM     15  C   LIG d   1      -9.127  70.382 116.788  0.00  0.00     0.109 C 
ATOM     16  O   LIG d   1      -8.522  71.353 118.907  0.00  0.00    -0.276 OA
ATOM     17  H   LIG d   1      -9.773  72.790 116.386  0.00  0.00     0.149 HD
ENDBRANCH   6  13
BRANCH   5  18
ATOM     18  N   LIG d   1     -11.753  74.054 118.722  0.00  0.00     0.381 N 
ATOM     19  H   LIG d   1     -11.886  74.396 119.652  0.00  0.00    -0.090 HD
ATOM     20  H   LIG d   1     -11.519  73.078 118.775  0.00  0.00    -0.090 HD
ATOM     21  H   LIG d   1     -12.589  74.174 118.193  0.00  0.00    -0.090 HD
ENDBRANCH   5  18
BRANCH   3  22
ATOM     22  C   LIG d   1      -9.372  78.203 118.492  0.00  0.00     0.382 C 
ATOM     23  O   LIG d   1     -10.442  78.778 118.805  0.00  0.00    -0.241 OA
ATOM     24  O   LIG d   1      -8.364  78.885 118.226  0.00  0.00    -0.241 OA
ENDBRANCH   3  22
TORSDOF 7
ENDMDL
MODEL 7
REMARK VINA RESULT:      -5.2      3.663      6.288
REMARK  7 active torsions:
REMARK  status: ('A' for Active; 'I' for Inactive)
REMARK    1  A    between atoms: C_2  and  C_3 
REMARK    2  A    between atoms: C_3  and  O_6 
REMARK    3  A    between atoms: C_3  and  C_4 
REMARK    4  A    between atoms: C_7  and  O_6 
REMARK    5  A    between atoms: C_9  and  C_10 
REMARK    6  A    between atoms: N_15  and  C_14 
REMARK    7  A    between atoms: N_20  and  C_19 
REMARK       I    between atoms: C_22  and  N_20 
ROOT
ATOM      1  C   LIG d   1       3.858  85.750 113.952  0.00  0.00     0.161 C 
ATOM      2  C   LIG d   1       3.983  84.838 112.890  0.00  0.00     0.016 C 
ATOM      3  C   LIG d   1       3.483  85.084 111.591  0.00  0.00     0.038 C 
ATOM      4  C   LIG d   1       2.953  86.329 111.223  0.00  0.00     0.028 C 
ATOM      5  C   LIG d   1       2.349  87.100 112.393  0.00  0.00    -0.047 C 
ATOM      6  C   LIG d   1       3.382  87.159 113.541  0.00  0.00     0.091 C 
ENDROOT
BRANCH   1   7
ATOM      7  O   LIG d   1       5.102  85.832 114.675  0.00  0.00    -0.368 OA
BRANCH   7   8
ATOM      8  C   LIG d   1       5.086  85.325 116.032  0.00  0.00     0.119 C 
BRANCH   8   9
ATOM      9  C   LIG d   1       3.672  84.777 116.304  0.00  0.00     0.028 C 
ATOM     10  C   LIG d   1       3.013  85.434 117.528  0.00  0.00     0.006 C 
ENDBRANCH   8   9
BRANCH   8  11
ATOM     11  C   LIG d   1       5.287  86.452 117.050  0.00  0.00     0.028 C 
ATOM     12  C   LIG d   1       6.151  87.600 116.505  0.00  0.00     0.006 C 
ENDBRANCH   8  11
ENDBRANCH   7   8
ENDBRANCH   1   7
BRANCH   6  13
ATOM     13  N   LIG d   1       2.841  87.823 114.756  0.00  0.00    -0.311 N 
ATOM     14  C   LIG d   1       3.066  89.101 115.055  0.00  0.00     0.210 C 
ATOM     15  C   LIG d   1       2.432  89.580 116.364  0.00  0.00     0.109 C 
ATOM     16  O   LIG d   1       3.704  89.892 114.344  0.00  0.00    -0.276 OA
ATOM     17  H   LIG d   1       2.286  87.262 115.373  0.00  0.00     0.149 HD
ENDBRANCH   6  13
BRANCH   5  18
ATOM     18  N   LIG d   1       1.961  88.433 111.895  0.00  0.00     0.381 N 
ATOM     19  H   LIG d   1       2.356  88.584 110.988  0.00  0.00    -0.090 HD
ATOM     20  H   LIG d   1       2.325  89.131 112.519  0.00  0.00    -0.090 HD
ATOM     21  H   LIG d   1       0.968  88.503 111.848  0.00  0.00    -0.090 HD
ENDBRANCH   5  18
BRANCH   3  22
ATOM     22  C   LIG d   1       3.474  84.062 110.654  0.00  0.00     0.382 C 
ATOM     23  O   LIG d   1       2.750  84.153 109.633  0.00  0.00    -0.241 OA
ATOM     24  O   LIG d   1       4.147  83.030 110.838  0.00  0.00    -0.241 OA
ENDBRANCH   3  22
TORSDOF 7
ENDMDL
MODEL 8
REMARK VINA RESULT:      -5.0      3.116      4.794
REMARK  7 active torsions:
REMARK  status: ('A' for Active; 'I' for Inactive)
REMARK    1  A    between atoms: C_2  and  C_3 
REMARK    2  A    between atoms: C_3  and  O_6 
REMARK    3  A    between atoms: C_3  and  C_4 
REMARK    4  A    between atoms: C_7  and  O_6 
REMARK    5  A    between atoms: C_9  and  C_10 
REMARK    6  A    between atoms: N_15  and  C_14 
REMARK    7  A    between atoms: N_20  and  C_19 
REMARK       I    between atoms: C_22  and  N_20 
ROOT
ATOM      1  C   LIG d   1       2.471  84.429 112.739  0.00  0.00     0.161 C 
ATOM      2  C   LIG d   1       2.643  85.747 112.285  0.00  0.00     0.016 C 
ATOM      3  C   LIG d   1       2.874  86.844 113.148  0.00  0.00     0.038 C 
ATOM      4  C   LIG d   1       3.101  86.671 114.521  0.00  0.00     0.028 C 
ATOM      5  C   LIG d   1       2.438  85.423 115.093  0.00  0.00    -0.047 C 
ATOM      6  C   LIG d   1       2.826  84.205 114.224  0.00  0.00     0.091 C 
ENDROOT
BRANCH   1   7
ATOM      7  O   LIG d   1       3.219  83.523 111.903  0.00  0.00    -0.368 OA
BRANCH   7   8
ATOM      8  C   LIG d   1       2.440  82.697 111.003  0.00  0.00     0.119 C 
BRANCH   8   9
ATOM      9  C   LIG d   1       2.854  83.063 109.565  0.00  0.00     0.028 C 
ATOM     10  C   LIG d   1       4.350  82.823 109.305  0.00  0.00     0.006 C 
ENDBRANCH   8   9
BRANCH   8  11
ATOM     11  C   LIG d   1       0.947  83.029 111.093  0.00  0.00     0.028 C 
ATOM     12  C   LIG d   1       0.049  81.817 110.801  0.00  0.00     0.006 C 
ENDBRANCH   8  11
ENDBRANCH   7   8
ENDBRANCH   1   7
BRANCH   6  13
ATOM     13  N   LIG d   1       2.152  82.956 114.665  0.00  0.00    -0.311 N 
ATOM     14  C   LIG d   1       2.647  82.146 115.599  0.00  0.00     0.210 C 
ATOM     15  C   LIG d   1       1.802  80.902 115.889  0.00  0.00     0.109 C 
ATOM     16  O   LIG d   1       3.688  82.357 116.239  0.00  0.00    -0.276 OA
ATOM     17  H   LIG d   1       1.286  82.725 114.220  0.00  0.00     0.149 HD
ENDBRANCH   6  13
BRANCH   5  18
ATOM     18  N   LIG d   1       2.869  85.293 116.498  0.00  0.00     0.381 N 
ATOM     19  H   LIG d   1       3.812  84.960 116.533  0.00  0.00    -0.090 HD
ATOM     20  H   LIG d   1       2.280  84.620 116.957  0.00  0.00    -0.090 HD
ATOM     21  H   LIG d   1       2.802  86.174 116.958  0.00  0.00    -0.090 HD
ENDBRANCH   5  18
BRANCH   3  22
ATOM     22  C   LIG d   1       2.840  88.135 112.643  0.00  0.00     0.382 C 
ATOM     23  O   LIG d   1       1.738  88.705 112.455  0.00  0.00    -0.241 OA
ATOM     24  O   LIG d   1       3.895  88.719 112.330  0.00  0.00    -0.241 OA
ENDBRANCH   3  22
TORSDOF 7
ENDMDL
MODEL 9
REMARK VINA RESULT:      -5.0      2.618      4.409
REMARK  7 active torsions:
REMARK  status: ('A' for Active; 'I' for Inactive)
REMARK    1  A    between atoms: C_2  and  C_3 
REMARK    2  A    between atoms: C_3  and  O_6 
REMARK    3  A    between atoms: C_3  and  C_4 
REMARK    4  A    between atoms: C_7  and  O_6 
REMARK    5  A    between atoms: C_9  and  C_10 
REMARK    6  A    between atoms: N_15  and  C_14 
REMARK    7  A    between atoms: N_20  and  C_19 
REMARK       I    between atoms: C_22  and  N_20 
ROOT
ATOM      1  C   LIG d   1       1.918  85.675 113.032  0.00  0.00     0.161 C 
ATOM      2  C   LIG d   1       0.651  85.319 112.539  0.00  0.00     0.016 C 
ATOM      3  C   LIG d   1       0.455  84.648 111.310  0.00  0.00     0.038 C 
ATOM      4  C   LIG d   1       1.529  84.148 110.558  0.00  0.00     0.028 C 
ATOM      5  C   LIG d   1       2.825  84.925 110.764  0.00  0.00    -0.047 C 
ATOM      6  C   LIG d   1       3.106  85.041 112.280  0.00  0.00     0.091 C 
ENDROOT
BRANCH   1   7
ATOM      7  O   LIG d   1       1.996  85.373 114.439  0.00  0.00    -0.368 OA
BRANCH   7   8
ATOM      8  C   LIG d   1       1.772  86.483 115.343  0.00  0.00     0.119 C 
BRANCH   8   9
ATOM      9  C   LIG d   1       3.097  87.260 115.460  0.00  0.00     0.028 C 
ATOM     10  C   LIG d   1       2.928  88.758 115.156  0.00  0.00     0.006 C 
ENDBRANCH   8   9
BRANCH   8  11
ATOM     11  C   LIG d   1       1.462  85.993 116.760  0.00  0.00     0.028 C 
ATOM     12  C   LIG d   1       2.158  84.665 117.098  0.00  0.00     0.006 C 
ENDBRANCH   8  11
ENDBRANCH   7   8
ENDBRANCH   1   7
BRANCH   6  13
ATOM     13  N   LIG d   1       4.312  85.859 112.572  0.00  0.00    -0.311 N 
ATOM     14  C   LIG d   1       4.452  87.124 112.180  0.00  0.00     0.210 C 
ATOM     15  C   LIG d   1       5.782  87.778 112.569  0.00  0.00     0.109 C 
ATOM     16  O   LIG d   1       3.588  87.777 111.576  0.00  0.00    -0.276 OA
ATOM     17  H   LIG d   1       5.049  85.417 113.086  0.00  0.00     0.149 HD
ENDBRANCH   6  13
BRANCH   5  18
ATOM     18  N   LIG d   1       3.891  84.216 110.031  0.00  0.00     0.381 N 
ATOM     19  H   LIG d   1       3.794  84.381 109.049  0.00  0.00    -0.090 HD
ATOM     20  H   LIG d   1       3.798  83.229 110.196  0.00  0.00    -0.090 HD
ATOM     21  H   LIG d   1       4.785  84.529 110.341  0.00  0.00    -0.090 HD
ENDBRANCH   5  18
BRANCH   3  22
ATOM     22  C   LIG d   1      -0.827  84.505 110.802  0.00  0.00     0.382 C 
ATOM     23  O   LIG d   1      -1.275  83.361 110.544  0.00  0.00    -0.241 OA
ATOM     24  O   LIG d   1      -1.525  85.507 110.556  0.00  0.00    -0.241 OA
ENDBRANCH   3  22
TORSDOF 7
ENDMDL
