MODEL 1
REMARK VINA RESULT:      -6.0      0.000      0.000
REMARK  7 active torsions:
REMARK  status: ('A' for Active; 'I' for Inactive)
REMARK    1  A    between atoms: C_2  and  C_3 
REMARK    2  A    between atoms: C_3  and  O_6 
REMARK    3  A    between atoms: C_3  and  C_4 
REMARK    4  A    between atoms: C_7  and  O_6 
REMARK    5  A    between atoms: C_9  and  C_10 
REMARK    6  A    between atoms: N_15  and  C_14 
REMARK    7  A    between atoms: N_20  and  C_19 
REMARK       I    between atoms: C_22  and  N_20 
ROOT
ATOM      1  C   LIG d   1       1.617  84.122 109.178  0.00  0.00     0.161 C 
ATOM      2  C   LIG d   1       1.820  85.434 109.638  0.00  0.00     0.016 C 
ATOM      3  C   LIG d   1       1.244  85.939 110.827  0.00  0.00     0.038 C 
ATOM      4  C   LIG d   1       0.544  85.115 111.720  0.00  0.00     0.028 C 
ATOM      5  C   LIG d   1      -0.111  83.913 111.049  0.00  0.00    -0.047 C 
ATOM      6  C   LIG d   1       0.947  83.176 110.196  0.00  0.00     0.091 C 
ENDROOT
BRANCH   1   7
ATOM      7  O   LIG d   1       2.866  83.566 108.722  0.00  0.00    -0.368 OA
BRANCH   7   8
ATOM      8  C   LIG d   1       3.601  82.775 109.688  0.00  0.00     0.119 C 
BRANCH   8   9
ATOM      9  C   LIG d   1       4.836  83.593 110.112  0.00  0.00     0.028 C 
ATOM     10  C   LIG d   1       4.892  83.829 111.631  0.00  0.00     0.006 C 
ENDBRANCH   8   9
BRANCH   8  11
ATOM     11  C   LIG d   1       4.158  81.497 109.054  0.00  0.00     0.028 C 
ATOM     12  C   LIG d   1       3.980  80.261 109.949  0.00  0.00     0.006 C 
ENDBRANCH   8  11
ENDBRANCH   7   8
ENDBRANCH   1   7
BRANCH   6  13
ATOM     13  N   LIG d   1       0.370  82.035 109.438  0.00  0.00    -0.311 N 
ATOM     14  C   LIG d   1       0.292  80.797 109.923  0.00  0.00     0.210 C 
ATOM     15  C   LIG d   1      -0.320  79.767 108.969  0.00  0.00     0.109 C 
ATOM     16  O   LIG d   1       0.641  80.462 111.065  0.00  0.00    -0.276 OA
ATOM     17  H   LIG d   1       0.034  82.225 108.514  0.00  0.00     0.149 HD
ENDBRANCH   6  13
BRANCH   5  18
ATOM     18  N   LIG d   1      -0.687  83.068 112.112  0.00  0.00     0.381 N 
ATOM     19  H   LIG d   1      -0.142  82.236 112.216  0.00  0.00    -0.090 HD
ATOM     20  H   LIG d   1      -1.620  82.803 111.847  0.00  0.00    -0.090 HD
ATOM     21  H   LIG d   1      -0.708  83.570 112.972  0.00  0.00    -0.090 HD
ENDBRANCH   5  18
BRANCH   3  22
ATOM     22  C   LIG d   1       1.333  87.294 111.111  0.00  0.00     0.382 C 
ATOM     23  O   LIG d   1       0.294  87.996 111.149  0.00  0.00    -0.241 OA
ATOM     24  O   LIG d   1       2.443  87.831 111.288  0.00  0.00    -0.241 OA
ENDBRANCH   3  22
TORSDOF 7
ENDMDL
MODEL 2
REMARK VINA RESULT:      -5.9      3.324      5.306
REMARK  7 active torsions:
REMARK  status: ('A' for Active; 'I' for Inactive)
REMARK    1  A    between atoms: C_2  and  C_3 
REMARK    2  A    between atoms: C_3  and  O_6 
REMARK    3  A    between atoms: C_3  and  C_4 
REMARK    4  A    between atoms: C_7  and  O_6 
REMARK    5  A    between atoms: C_9  and  C_10 
REMARK    6  A    between atoms: N_15  and  C_14 
REMARK    7  A    between atoms: N_20  and  C_19 
REMARK       I    between atoms: C_22  and  N_20 
ROOT
ATOM      1  C   LIG d   1       3.028  85.736 111.713  0.00  0.00     0.161 C 
ATOM      2  C   LIG d   1       1.834  85.483 111.018  0.00  0.00     0.016 C 
ATOM      3  C   LIG d   1       0.797  86.434 110.881  0.00  0.00     0.038 C 
ATOM      4  C   LIG d   1       0.948  87.762 111.304  0.00  0.00     0.028 C 
ATOM      5  C   LIG d   1       1.934  87.922 112.457  0.00  0.00    -0.047 C 
ATOM      6  C   LIG d   1       3.258  87.215 112.086  0.00  0.00     0.091 C 
ENDROOT
BRANCH   1   7
ATOM      7  O   LIG d   1       4.149  85.229 110.961  0.00  0.00    -0.368 OA
BRANCH   7   8
ATOM      8  C   LIG d   1       4.160  83.800 110.720  0.00  0.00     0.119 C 
BRANCH   8   9
ATOM      9  C   LIG d   1       5.094  83.162 111.766  0.00  0.00     0.028 C 
ATOM     10  C   LIG d   1       4.327  82.329 112.807  0.00  0.00     0.006 C 
ENDBRANCH   8   9
BRANCH   8  11
ATOM     11  C   LIG d   1       4.786  83.470 109.362  0.00  0.00     0.028 C 
ATOM     12  C   LIG d   1       4.061  82.326 108.634  0.00  0.00     0.006 C 
ENDBRANCH   8  11
ENDBRANCH   7   8
ENDBRANCH   1   7
BRANCH   6  13
ATOM     13  N   LIG d   1       4.249  87.251 113.194  0.00  0.00    -0.311 N 
ATOM     14  C   LIG d   1       5.143  88.227 113.346  0.00  0.00     0.210 C 
ATOM     15  C   LIG d   1       6.084  88.060 114.543  0.00  0.00     0.109 C 
ATOM     16  O   LIG d   1       5.224  89.231 112.622  0.00  0.00    -0.276 OA
ATOM     17  H   LIG d   1       4.232  86.491 113.845  0.00  0.00     0.149 HD
ENDBRANCH   6  13
BRANCH   5  18
ATOM     18  N   LIG d   1       2.099  89.367 112.705  0.00  0.00     0.381 N 
ATOM     19  H   LIG d   1       3.067  89.613 112.641  0.00  0.00    -0.090 HD
ATOM     20  H   LIG d   1       1.781  89.575 113.635  0.00  0.00    -0.090 HD
ATOM     21  H   LIG d   1       1.572  89.889 112.040  0.00  0.00    -0.090 HD
ENDBRANCH   5  18
BRANCH   3  22
ATOM     22  C   LIG d   1      -0.424  86.047 110.349  0.00  0.00     0.382 C 
ATOM     23  O   LIG d   1      -1.309  86.906 110.120  0.00  0.00    -0.241 OA
ATOM     24  O   LIG d   1      -0.668  84.844 110.138  0.00  0.00    -0.241 OA
ENDBRANCH   3  22
TORSDOF 7
ENDMDL
MODEL 3
REMARK VINA RESULT:      -5.8      2.373      3.854
REMARK  7 active torsions:
REMARK  status: ('A' for Active; 'I' for Inactive)
REMARK    1  A    between atoms: C_2  and  C_3 
REMARK    2  A    between atoms: C_3  and  O_6 
REMARK    3  A    between atoms: C_3  and  C_4 
REMARK    4  A    between atoms: C_7  and  O_6 
REMARK    5  A    between atoms: C_9  and  C_10 
REMARK    6  A    between atoms: N_15  and  C_14 
REMARK    7  A    between atoms: N_20  and  C_19 
REMARK       I    between atoms: C_22  and  N_20 
ROOT
ATOM      1  C   LIG d   1       0.383  82.831 110.557  0.00  0.00     0.161 C 
ATOM      2  C   LIG d   1       0.231  84.203 110.817  0.00  0.00     0.016 C 
ATOM      3  C   LIG d   1       0.645  85.216 109.922  0.00  0.00     0.038 C 
ATOM      4  C   LIG d   1       1.103  84.921 108.629  0.00  0.00     0.028 C 
ATOM      5  C   LIG d   1       1.745  83.542 108.515  0.00  0.00    -0.047 C 
ATOM      6  C   LIG d   1       0.780  82.489 109.105  0.00  0.00     0.091 C 
ENDROOT
BRANCH   1   7
ATOM      7  O   LIG d   1      -0.819  82.127 110.927  0.00  0.00    -0.368 OA
BRANCH   7   8
ATOM      8  C   LIG d   1      -0.947  81.778 112.327  0.00  0.00     0.119 C 
BRANCH   8   9
ATOM      9  C   LIG d   1       0.216  80.830 112.676  0.00  0.00     0.028 C 
ATOM     10  C   LIG d   1       0.937  81.238 113.972  0.00  0.00     0.006 C 
ENDBRANCH   8   9
BRANCH   8  11
ATOM     11  C   LIG d   1      -2.221  80.968 112.584  0.00  0.00     0.028 C 
ATOM     12  C   LIG d   1      -2.116  79.517 112.086  0.00  0.00     0.006 C 
ENDBRANCH   8  11
ENDBRANCH   7   8
ENDBRANCH   1   7
BRANCH   6  13
ATOM     13  N   LIG d   1       1.365  81.123 109.109  0.00  0.00    -0.311 N 
ATOM     14  C   LIG d   1       0.685  80.033 108.758  0.00  0.00     0.210 C 
ATOM     15  C   LIG d   1       1.471  78.721 108.853  0.00  0.00     0.109 C 
ATOM     16  O   LIG d   1      -0.485  80.031 108.346  0.00  0.00    -0.276 OA
ATOM     17  H   LIG d   1       2.319  81.036 109.400  0.00  0.00     0.149 HD
ENDBRANCH   6  13
BRANCH   5  18
ATOM     18  N   LIG d   1       2.052  83.310 107.090  0.00  0.00     0.381 N 
ATOM     19  H   LIG d   1       2.698  84.002 106.767  0.00  0.00    -0.090 HD
ATOM     20  H   LIG d   1       1.205  83.396 106.557  0.00  0.00    -0.090 HD
ATOM     21  H   LIG d   1       2.439  82.401 106.969  0.00  0.00    -0.090 HD
ENDBRANCH   5  18
BRANCH   3  22
ATOM     22  C   LIG d   1       0.638  86.541 110.332  0.00  0.00     0.382 C 
ATOM     23  O   LIG d   1      -0.448  87.109 110.599  0.00  0.00    -0.241 OA
ATOM     24  O   LIG d   1       1.701  87.188 110.395  0.00  0.00    -0.241 OA
ENDBRANCH   3  22
TORSDOF 7
ENDMDL
MODEL 4
REMARK VINA RESULT:      -5.7      2.893      4.510
REMARK  7 active torsions:
REMARK  status: ('A' for Active; 'I' for Inactive)
REMARK    1  A    between atoms: C_2  and  C_3 
REMARK    2  A    between atoms: C_3  and  O_6 
REMARK    3  A    between atoms: C_3  and  C_4 
REMARK    4  A    between atoms: C_7  and  O_6 
REMARK    5  A    between atoms: C_9  and  C_10 
REMARK    6  A    between atoms: N_15  and  C_14 
REMARK    7  A    between atoms: N_20  and  C_19 
REMARK       I    between atoms: C_22  and  N_20 
ROOT
ATOM      1  C   LIG d   1       2.345  85.722 111.648  0.00  0.00     0.161 C 
ATOM      2  C   LIG d   1       2.125  87.088 111.892  0.00  0.00     0.016 C 
ATOM      3  C   LIG d   1       2.794  87.816 112.902  0.00  0.00     0.038 C 
ATOM      4  C   LIG d   1       3.846  87.259 113.644  0.00  0.00     0.028 C 
ATOM      5  C   LIG d   1       3.757  85.743 113.778  0.00  0.00    -0.047 C 
ATOM      6  C   LIG d   1       3.570  85.125 112.373  0.00  0.00     0.091 C 
ENDROOT
BRANCH   1   7
ATOM      7  O   LIG d   1       2.440  85.488 110.229  0.00  0.00    -0.368 OA
BRANCH   7   8
ATOM      8  C   LIG d   1       1.298  84.845 109.611  0.00  0.00     0.119 C 
BRANCH   8   9
ATOM      9  C   LIG d   1       1.837  83.861 108.554  0.00  0.00     0.028 C 
ATOM     10  C   LIG d   1       1.758  82.398 109.021  0.00  0.00     0.006 C 
ENDBRANCH   8   9
BRANCH   8  11
ATOM     11  C   LIG d   1       0.446  85.851 108.832  0.00  0.00     0.028 C 
ATOM     12  C   LIG d   1      -0.775  86.339 109.627  0.00  0.00     0.006 C 
ENDBRANCH   8  11
ENDBRANCH   7   8
ENDBRANCH   1   7
BRANCH   6  13
ATOM     13  N   LIG d   1       3.389  83.651 112.421  0.00  0.00    -0.311 N 
ATOM     14  C   LIG d   1       4.395  82.785 112.310  0.00  0.00     0.210 C 
ATOM     15  C   LIG d   1       3.987  81.310 112.366  0.00  0.00     0.109 C 
ATOM     16  O   LIG d   1       5.590  83.099 112.202  0.00  0.00    -0.276 OA
ATOM     17  H   LIG d   1       2.455  83.309 112.537  0.00  0.00     0.149 HD
ENDBRANCH   6  13
BRANCH   5  18
ATOM     18  N   LIG d   1       4.985  85.282 114.453  0.00  0.00     0.381 N 
ATOM     19  H   LIG d   1       5.202  85.892 115.215  0.00  0.00    -0.090 HD
ATOM     20  H   LIG d   1       5.747  85.313 113.798  0.00  0.00    -0.090 HD
ATOM     21  H   LIG d   1       4.862  84.351 114.787  0.00  0.00    -0.090 HD
ENDBRANCH   5  18
BRANCH   3  22
ATOM     22  C   LIG d   1       2.383  89.105 113.207  0.00  0.00     0.382 C 
ATOM     23  O   LIG d   1       1.191  89.324 113.529  0.00  0.00    -0.241 OA
ATOM     24  O   LIG d   1       3.180  90.059 113.121  0.00  0.00    -0.241 OA
ENDBRANCH   3  22
TORSDOF 7
ENDMDL
MODEL 5
REMARK VINA RESULT:      -5.7      2.037      2.499
REMARK  7 active torsions:
REMARK  status: ('A' for Active; 'I' for Inactive)
REMARK    1  A    between atoms: C_2  and  C_3 
REMARK    2  A    between atoms: C_3  and  O_6 
REMARK    3  A    between atoms: C_3  and  C_4 
REMARK    4  A    between atoms: C_7  and  O_6 
REMARK    5  A    between atoms: C_9  and  C_10 
REMARK    6  A    between atoms: N_15  and  C_14 
REMARK    7  A    between atoms: N_20  and  C_19 
REMARK       I    between atoms: C_22  and  N_20 
ROOT
ATOM      1  C   LIG d   1      -0.081  83.767 110.552  0.00  0.00     0.161 C 
ATOM      2  C   LIG d   1      -0.111  84.685 111.615  0.00  0.00     0.016 C 
ATOM      3  C   LIG d   1      -0.189  84.302 112.973  0.00  0.00     0.038 C 
ATOM      4  C   LIG d   1      -0.089  82.960 113.371  0.00  0.00     0.028 C 
ATOM      5  C   LIG d   1      -0.566  81.976 112.309  0.00  0.00    -0.047 C 
ATOM      6  C   LIG d   1       0.141  82.299 110.972  0.00  0.00     0.091 C 
ENDROOT
BRANCH   1   7
ATOM      7  O   LIG d   1       0.912  84.168 109.588  0.00  0.00    -0.368 OA
BRANCH   7   8
ATOM      8  C   LIG d   1       2.237  83.610 109.768  0.00  0.00     0.119 C 
BRANCH   8   9
ATOM      9  C   LIG d   1       3.191  84.777 110.089  0.00  0.00     0.028 C 
ATOM     10  C   LIG d   1       3.637  84.783 111.561  0.00  0.00     0.006 C 
ENDBRANCH   8   9
BRANCH   8  11
ATOM     11  C   LIG d   1       2.767  82.999 108.468  0.00  0.00     0.028 C 
ATOM     12  C   LIG d   1       4.016  82.130 108.683  0.00  0.00     0.006 C 
ENDBRANCH   8  11
ENDBRANCH   7   8
ENDBRANCH   1   7
BRANCH   6  13
ATOM     13  N   LIG d   1      -0.331  81.436 109.858  0.00  0.00    -0.311 N 
ATOM     14  C   LIG d   1       0.347  80.381 109.410  0.00  0.00     0.210 C 
ATOM     15  C   LIG d   1      -0.309  79.640 108.241  0.00  0.00     0.109 C 
ATOM     16  O   LIG d   1       1.413  79.969 109.891  0.00  0.00    -0.276 OA
ATOM     17  H   LIG d   1      -1.203  81.680 109.431  0.00  0.00     0.149 HD
ENDBRANCH   6  13
BRANCH   5  18
ATOM     18  N   LIG d   1      -0.278  80.615 112.801  0.00  0.00     0.381 N 
ATOM     19  H   LIG d   1      -1.068  80.262 113.303  0.00  0.00    -0.090 HD
ATOM     20  H   LIG d   1       0.504  80.656 113.430  0.00  0.00    -0.090 HD
ATOM     21  H   LIG d   1      -0.066  80.014 112.035  0.00  0.00    -0.090 HD
ENDBRANCH   5  18
BRANCH   3  22
ATOM     22  C   LIG d   1      -0.409  85.263 113.948  0.00  0.00     0.382 C 
ATOM     23  O   LIG d   1      -1.529  85.344 114.507  0.00  0.00    -0.241 OA
ATOM     24  O   LIG d   1       0.485  86.079 114.243  0.00  0.00    -0.241 OA
ENDBRANCH   3  22
TORSDOF 7
ENDMDL
MODEL 6
REMARK VINA RESULT:      -5.6      2.248      3.671
REMARK  7 active torsions:
REMARK  status: ('A' for Active; 'I' for Inactive)
REMARK    1  A    between atoms: C_2  and  C_3 
REMARK    2  A    between atoms: C_3  and  O_6 
REMARK    3  A    between atoms: C_3  and  C_4 
REMARK    4  A    between atoms: C_7  and  O_6 
REMARK    5  A    between atoms: C_9  and  C_10 
REMARK    6  A    between atoms: N_15  and  C_14 
REMARK    7  A    between atoms: N_20  and  C_19 
REMARK       I    between atoms: C_22  and  N_20 
ROOT
ATOM      1  C   LIG d   1       2.386  82.453 111.079  0.00  0.00     0.161 C 
ATOM      2  C   LIG d   1       2.622  83.787 111.452  0.00  0.00     0.016 C 
ATOM      3  C   LIG d   1       2.452  84.882 110.574  0.00  0.00     0.038 C 
ATOM      4  C   LIG d   1       1.885  84.730 109.301  0.00  0.00     0.028 C 
ATOM      5  C   LIG d   1       2.104  83.345 108.702  0.00  0.00    -0.047 C 
ATOM      6  C   LIG d   1       1.661  82.278 109.729  0.00  0.00     0.091 C 
ENDROOT
BRANCH   1   7
ATOM      7  O   LIG d   1       1.666  81.773 112.127  0.00  0.00    -0.368 OA
BRANCH   7   8
ATOM      8  C   LIG d   1       0.236  82.002 112.170  0.00  0.00     0.119 C 
BRANCH   8   9
ATOM      9  C   LIG d   1      -0.064  82.815 113.444  0.00  0.00     0.028 C 
ATOM     10  C   LIG d   1      -0.498  84.257 113.132  0.00  0.00     0.006 C 
ENDBRANCH   8   9
BRANCH   8  11
ATOM     11  C   LIG d   1      -0.534  80.689 112.335  0.00  0.00     0.028 C 
ATOM     12  C   LIG d   1      -2.032  80.906 112.598  0.00  0.00     0.006 C 
ENDBRANCH   8  11
ENDBRANCH   7   8
ENDBRANCH   1   7
BRANCH   6  13
ATOM     13  N   LIG d   1       1.920  80.893 109.256  0.00  0.00    -0.311 N 
ATOM     14  C   LIG d   1       0.953  80.036 108.931  0.00  0.00     0.210 C 
ATOM     15  C   LIG d   1       1.438  78.653 108.486  0.00  0.00     0.109 C 
ATOM     16  O   LIG d   1      -0.258  80.301 108.939  0.00  0.00    -0.276 OA
ATOM     17  H   LIG d   1       2.877  80.605 109.190  0.00  0.00     0.149 HD
ENDBRANCH   6  13
BRANCH   5  18
ATOM     18  N   LIG d   1       1.345  83.280 107.438  0.00  0.00     0.381 N 
ATOM     19  H   LIG d   1       0.896  84.158 107.268  0.00  0.00    -0.090 HD
ATOM     20  H   LIG d   1       0.636  82.573 107.520  0.00  0.00    -0.090 HD
ATOM     21  H   LIG d   1       1.958  83.061 106.683  0.00  0.00    -0.090 HD
ENDBRANCH   5  18
BRANCH   3  22
ATOM     22  C   LIG d   1       2.888  86.142 110.955  0.00  0.00     0.382 C 
ATOM     23  O   LIG d   1       2.150  87.141 110.779  0.00  0.00    -0.241 OA
ATOM     24  O   LIG d   1       4.029  86.298 111.431  0.00  0.00    -0.241 OA
ENDBRANCH   3  22
TORSDOF 7
ENDMDL
MODEL 7
REMARK VINA RESULT:      -5.6      2.422      4.941
REMARK  7 active torsions:
REMARK  status: ('A' for Active; 'I' for Inactive)
REMARK    1  A    between atoms: C_2  and  C_3 
REMARK    2  A    between atoms: C_3  and  O_6 
REMARK    3  A    between atoms: C_3  and  C_4 
REMARK    4  A    between atoms: C_7  and  O_6 
REMARK    5  A    between atoms: C_9  and  C_10 
REMARK    6  A    between atoms: N_15  and  C_14 
REMARK    7  A    between atoms: N_20  and  C_19 
REMARK       I    between atoms: C_22  and  N_20 
ROOT
ATOM      1  C   LIG d   1       1.033  83.152 111.647  0.00  0.00     0.161 C 
ATOM      2  C   LIG d   1       2.030  82.761 110.737  0.00  0.00     0.016 C 
ATOM      3  C   LIG d   1       2.015  81.525 110.051  0.00  0.00     0.038 C 
ATOM      4  C   LIG d   1       0.916  80.655 110.113  0.00  0.00     0.028 C 
ATOM      5  C   LIG d   1       0.119  80.778 111.408  0.00  0.00    -0.047 C 
ATOM      6  C   LIG d   1      -0.229  82.265 111.644  0.00  0.00     0.091 C 
ENDROOT
BRANCH   1   7
ATOM      7  O   LIG d   1       0.678  84.530 111.419  0.00  0.00    -0.368 OA
BRANCH   7   8
ATOM      8  C   LIG d   1       1.347  85.187 110.314  0.00  0.00     0.119 C 
BRANCH   8   9
ATOM      9  C   LIG d   1       2.010  86.464 110.866  0.00  0.00     0.028 C 
ATOM     10  C   LIG d   1       3.448  86.216 111.352  0.00  0.00     0.006 C 
ENDBRANCH   8   9
BRANCH   8  11
ATOM     11  C   LIG d   1       0.344  85.672 109.264  0.00  0.00     0.028 C 
ATOM     12  C   LIG d   1      -0.827  86.457 109.877  0.00  0.00     0.006 C 
ENDBRANCH   8  11
ENDBRANCH   7   8
ENDBRANCH   1   7
BRANCH   6  13
ATOM     13  N   LIG d   1      -0.936  82.485 112.933  0.00  0.00    -0.311 N 
ATOM     14  C   LIG d   1      -2.248  82.316 113.087  0.00  0.00     0.210 C 
ATOM     15  C   LIG d   1      -2.777  82.615 114.493  0.00  0.00     0.109 C 
ATOM     16  O   LIG d   1      -3.019  81.915 112.202  0.00  0.00    -0.276 OA
ATOM     17  H   LIG d   1      -0.382  82.781 113.712  0.00  0.00     0.149 HD
ENDBRANCH   6  13
BRANCH   5  18
ATOM     18  N   LIG d   1      -1.072  79.918 111.282  0.00  0.00     0.381 N 
ATOM     19  H   LIG d   1      -1.794  80.247 111.891  0.00  0.00    -0.090 HD
ATOM     20  H   LIG d   1      -0.829  78.983 111.558  0.00  0.00    -0.090 HD
ATOM     21  H   LIG d   1      -1.396  79.920 110.339  0.00  0.00    -0.090 HD
ENDBRANCH   5  18
BRANCH   3  22
ATOM     22  C   LIG d   1       3.126  81.130 109.322  0.00  0.00     0.382 C 
ATOM     23  O   LIG d   1       3.889  80.243 109.774  0.00  0.00    -0.241 OA
ATOM     24  O   LIG d   1       3.400  81.681 108.239  0.00  0.00    -0.241 OA
ENDBRANCH   3  22
TORSDOF 7
ENDMDL
MODEL 8
REMARK VINA RESULT:      -5.5      2.154      5.155
REMARK  7 active torsions:
REMARK  status: ('A' for Active; 'I' for Inactive)
REMARK    1  A    between atoms: C_2  and  C_3 
REMARK    2  A    between atoms: C_3  and  O_6 
REMARK    3  A    between atoms: C_3  and  C_4 
REMARK    4  A    between atoms: C_7  and  O_6 
REMARK    5  A    between atoms: C_9  and  C_10 
REMARK    6  A    between atoms: N_15  and  C_14 
REMARK    7  A    between atoms: N_20  and  C_19 
REMARK       I    between atoms: C_22  and  N_20 
ROOT
ATOM      1  C   LIG d   1       1.731  82.039 110.676  0.00  0.00     0.161 C 
ATOM      2  C   LIG d   1       1.961  81.054 109.701  0.00  0.00     0.016 C 
ATOM      3  C   LIG d   1       1.034  80.032 109.394  0.00  0.00     0.038 C 
ATOM      4  C   LIG d   1      -0.258  80.015 109.939  0.00  0.00     0.028 C 
ATOM      5  C   LIG d   1      -0.351  80.695 111.300  0.00  0.00    -0.047 C 
ATOM      6  C   LIG d   1       0.282  82.102 111.202  0.00  0.00     0.091 C 
ENDROOT
BRANCH   1   7
ATOM      7  O   LIG d   1       2.139  83.327 110.176  0.00  0.00    -0.368 OA
BRANCH   7   8
ATOM      8  C   LIG d   1       3.239  83.963 110.873  0.00  0.00     0.119 C 
BRANCH   8   9
ATOM      9  C   LIG d   1       2.738  85.331 111.376  0.00  0.00     0.028 C 
ATOM     10  C   LIG d   1       1.917  86.083 110.315  0.00  0.00     0.006 C 
ENDBRANCH   8   9
BRANCH   8  11
ATOM     11  C   LIG d   1       4.394  84.280 109.919  0.00  0.00     0.028 C 
ATOM     12  C   LIG d   1       4.819  83.069 109.074  0.00  0.00     0.006 C 
ENDBRANCH   8  11
ENDBRANCH   7   8
ENDBRANCH   1   7
BRANCH   6  13
ATOM     13  N   LIG d   1       0.309  82.804 112.512  0.00  0.00    -0.311 N 
ATOM     14  C   LIG d   1      -0.254  83.993 112.719  0.00  0.00     0.210 C 
ATOM     15  C   LIG d   1      -0.093  84.547 114.137  0.00  0.00     0.109 C 
ATOM     16  O   LIG d   1      -0.900  84.627 111.870  0.00  0.00    -0.276 OA
ATOM     17  H   LIG d   1       0.785  82.346 113.265  0.00  0.00     0.149 HD
ENDBRANCH   6  13
BRANCH   5  18
ATOM     18  N   LIG d   1      -1.774  80.727 111.687  0.00  0.00     0.381 N 
ATOM     19  H   LIG d   1      -1.917  80.158 112.498  0.00  0.00    -0.090 HD
ATOM     20  H   LIG d   1      -2.323  80.349 110.936  0.00  0.00    -0.090 HD
ATOM     21  H   LIG d   1      -2.055  81.663 111.876  0.00  0.00    -0.090 HD
ENDBRANCH   5  18
BRANCH   3  22
ATOM     22  C   LIG d   1       1.412  78.990 108.561  0.00  0.00     0.382 C 
ATOM     23  O   LIG d   1       0.907  78.886 107.417  0.00  0.00    -0.241 OA
ATOM     24  O   LIG d   1       2.218  78.126 108.956  0.00  0.00    -0.241 OA
ENDBRANCH   3  22
TORSDOF 7
ENDMDL
MODEL 9
REMARK VINA RESULT:      -5.5      2.596      4.887
REMARK  7 active torsions:
REMARK  status: ('A' for Active; 'I' for Inactive)
REMARK    1  A    between atoms: C_2  and  C_3 
REMARK    2  A    between atoms: C_3  and  O_6 
REMARK    3  A    between atoms: C_3  and  C_4 
REMARK    4  A    between atoms: C_7  and  O_6 
REMARK    5  A    between atoms: C_9  and  C_10 
REMARK    6  A    between atoms: N_15  and  C_14 
REMARK    7  A    between atoms: N_20  and  C_19 
REMARK       I    between atoms: C_22  and  N_20 
ROOT
ATOM      1  C   LIG d   1       0.594  81.458 111.464  0.00  0.00     0.161 C 
ATOM      2  C   LIG d   1      -0.775  81.251 111.705  0.00  0.00     0.016 C 
ATOM      3  C   LIG d   1      -1.538  82.046 112.590  0.00  0.00     0.038 C 
ATOM      4  C   LIG d   1      -1.015  83.204 113.185  0.00  0.00     0.028 C 
ATOM      5  C   LIG d   1       0.498  83.162 113.366  0.00  0.00    -0.047 C 
ATOM      6  C   LIG d   1       1.154  82.784 112.018  0.00  0.00     0.091 C 
ENDROOT
BRANCH   1   7
ATOM      7  O   LIG d   1       0.863  81.351 110.052  0.00  0.00    -0.368 OA
BRANCH   7   8
ATOM      8  C   LIG d   1       1.849  80.362 109.665  0.00  0.00     0.119 C 
BRANCH   8   9
ATOM      9  C   LIG d   1       2.955  81.093 108.881  0.00  0.00     0.028 C 
ATOM     10  C   LIG d   1       2.526  82.501 108.435  0.00  0.00     0.006 C 
ENDBRANCH   8   9
BRANCH   8  11
ATOM     11  C   LIG d   1       1.260  79.344 108.682  0.00  0.00     0.028 C 
ATOM     12  C   LIG d   1      -0.218  79.613 108.361  0.00  0.00     0.006 C 
ENDBRANCH   8  11
ENDBRANCH   7   8
ENDBRANCH   1   7
BRANCH   6  13
ATOM     13  N   LIG d   1       2.629  82.639 112.127  0.00  0.00    -0.311 N 
ATOM     14  C   LIG d   1       3.487  83.611 111.821  0.00  0.00     0.210 C 
ATOM     15  C   LIG d   1       4.965  83.245 111.985  0.00  0.00     0.109 C 
ATOM     16  O   LIG d   1       3.162  84.752 111.459  0.00  0.00    -0.276 OA
ATOM     17  H   LIG d   1       2.978  81.755 112.442  0.00  0.00     0.149 HD
ENDBRANCH   6  13
BRANCH   5  18
ATOM     18  N   LIG d   1       0.924  84.482 113.866  0.00  0.00     0.381 N 
ATOM     19  H   LIG d   1       1.278  85.033 113.110  0.00  0.00    -0.090 HD
ATOM     20  H   LIG d   1       1.662  84.354 114.536  0.00  0.00    -0.090 HD
ATOM     21  H   LIG d   1       0.155  84.949 114.295  0.00  0.00    -0.090 HD
ENDBRANCH   5  18
BRANCH   3  22
ATOM     22  C   LIG d   1      -2.829  81.661 112.920  0.00  0.00     0.382 C 
ATOM     23  O   LIG d   1      -3.207  80.485 112.702  0.00  0.00    -0.241 OA
ATOM     24  O   LIG d   1      -3.633  82.487 113.393  0.00  0.00    -0.241 OA
ENDBRANCH   3  22
TORSDOF 7
ENDMDL
