MODEL 1
REMARK VINA RESULT:      -6.8      0.000      0.000
REMARK  7 active torsions:
REMARK  status: ('A' for Active; 'I' for Inactive)
REMARK    1  A    between atoms: C_2  and  C_3 
REMARK    2  A    between atoms: C_3  and  O_6 
REMARK    3  A    between atoms: C_3  and  C_4 
REMARK    4  A    between atoms: C_7  and  O_6 
REMARK    5  A    between atoms: C_9  and  C_10 
REMARK    6  A    between atoms: N_15  and  C_14 
REMARK    7  A    between atoms: N_20  and  C_19 
REMARK       I    between atoms: C_22  and  N_20 
ROOT
ATOM      1  C   LIG d   1       0.908  84.036 109.266  0.00  0.00     0.161 C 
ATOM      2  C   LIG d   1       0.670  85.336 109.743  0.00  0.00     0.016 C 
ATOM      3  C   LIG d   1      -0.111  85.614 110.888  0.00  0.00     0.038 C 
ATOM      4  C   LIG d   1      -0.585  84.594 111.727  0.00  0.00     0.028 C 
ATOM      5  C   LIG d   1      -0.796  83.266 111.007  0.00  0.00    -0.047 C 
ATOM      6  C   LIG d   1       0.492  82.907 110.231  0.00  0.00     0.091 C 
ENDROOT
BRANCH   1   7
ATOM      7  O   LIG d   1       2.295  83.897 108.900  0.00  0.00    -0.368 OA
BRANCH   7   8
ATOM      8  C   LIG d   1       3.213  83.602 109.981  0.00  0.00     0.119 C 
BRANCH   8   9
ATOM      9  C   LIG d   1       3.935  84.914 110.346  0.00  0.00     0.028 C 
ATOM     10  C   LIG d   1       3.724  85.310 111.817  0.00  0.00     0.006 C 
ENDBRANCH   8   9
BRANCH   8  11
ATOM     11  C   LIG d   1       4.318  82.643 109.528  0.00  0.00     0.028 C 
ATOM     12  C   LIG d   1       4.059  82.051 108.134  0.00  0.00     0.006 C 
ENDBRANCH   8  11
ENDBRANCH   7   8
ENDBRANCH   1   7
BRANCH   6  13
ATOM     13  N   LIG d   1       0.342  81.663 109.431  0.00  0.00    -0.311 N 
ATOM     14  C   LIG d   1       1.032  80.550 109.671  0.00  0.00     0.210 C 
ATOM     15  C   LIG d   1       0.741  79.389 108.714  0.00  0.00     0.109 C 
ATOM     16  O   LIG d   1       1.834  80.402 110.605  0.00  0.00    -0.276 OA
ATOM     17  H   LIG d   1      -0.310  81.685 108.672  0.00  0.00     0.149 HD
ENDBRANCH   6  13
BRANCH   5  18
ATOM     18  N   LIG d   1      -1.157  82.261 112.024  0.00  0.00     0.381 N 
ATOM     19  H   LIG d   1      -1.452  82.718 112.864  0.00  0.00    -0.090 HD
ATOM     20  H   LIG d   1      -0.347  81.706 112.235  0.00  0.00    -0.090 HD
ATOM     21  H   LIG d   1      -1.889  81.677 111.682  0.00  0.00    -0.090 HD
ENDBRANCH   5  18
BRANCH   3  22
ATOM     22  C   LIG d   1      -0.459  86.923 111.182  0.00  0.00     0.382 C 
ATOM     23  O   LIG d   1      -1.667  87.260 111.209  0.00  0.00    -0.241 OA
ATOM     24  O   LIG d   1       0.422  87.782 111.376  0.00  0.00    -0.241 OA
ENDBRANCH   3  22
TORSDOF 7
ENDMDL
MODEL 2
REMARK VINA RESULT:      -6.2      2.546      4.269
REMARK  7 active torsions:
REMARK  status: ('A' for Active; 'I' for Inactive)
REMARK    1  A    between atoms: C_2  and  C_3 
REMARK    2  A    between atoms: C_3  and  O_6 
REMARK    3  A    between atoms: C_3  and  C_4 
REMARK    4  A    between atoms: C_7  and  O_6 
REMARK    5  A    between atoms: C_9  and  C_10 
REMARK    6  A    between atoms: N_15  and  C_14 
REMARK    7  A    between atoms: N_20  and  C_19 
REMARK       I    between atoms: C_22  and  N_20 
ROOT
ATOM      1  C   LIG d   1       0.427  82.225 110.993  0.00  0.00     0.161 C 
ATOM      2  C   LIG d   1      -0.683  82.059 111.838  0.00  0.00     0.016 C 
ATOM      3  C   LIG d   1      -1.376  80.834 111.981  0.00  0.00     0.038 C 
ATOM      4  C   LIG d   1      -0.909  79.646 111.400  0.00  0.00     0.028 C 
ATOM      5  C   LIG d   1      -0.085  79.872 110.137  0.00  0.00    -0.047 C 
ATOM      6  C   LIG d   1       1.019  80.912 110.437  0.00  0.00     0.091 C 
ENDROOT
BRANCH   1   7
ATOM      7  O   LIG d   1       1.447  82.986 111.671  0.00  0.00    -0.368 OA
BRANCH   7   8
ATOM      8  C   LIG d   1       1.475  84.407 111.388  0.00  0.00     0.119 C 
BRANCH   8   9
ATOM      9  C   LIG d   1       1.262  84.581 109.872  0.00  0.00     0.028 C 
ATOM     10  C   LIG d   1       0.295  85.731 109.543  0.00  0.00     0.006 C 
ENDBRANCH   8   9
BRANCH   8  11
ATOM     11  C   LIG d   1       2.855  85.005 111.675  0.00  0.00     0.028 C 
ATOM     12  C   LIG d   1       3.847  84.797 110.519  0.00  0.00     0.006 C 
ENDBRANCH   8  11
ENDBRANCH   7   8
ENDBRANCH   1   7
BRANCH   6  13
ATOM     13  N   LIG d   1       1.818  81.255 109.232  0.00  0.00    -0.311 N 
ATOM     14  C   LIG d   1       3.146  81.362 109.239  0.00  0.00     0.210 C 
ATOM     15  C   LIG d   1       3.771  81.743 107.894  0.00  0.00     0.109 C 
ATOM     16  O   LIG d   1       3.868  81.145 110.224  0.00  0.00    -0.276 OA
ATOM     17  H   LIG d   1       1.315  81.416 108.382  0.00  0.00     0.149 HD
ENDBRANCH   6  13
BRANCH   5  18
ATOM     18  N   LIG d   1       0.453  78.565 109.715  0.00  0.00     0.381 N 
ATOM     19  H   LIG d   1      -0.238  78.069 109.188  0.00  0.00    -0.090 HD
ATOM     20  H   LIG d   1       0.672  78.024 110.533  0.00  0.00    -0.090 HD
ATOM     21  H   LIG d   1       1.272  78.695 109.163  0.00  0.00    -0.090 HD
ENDBRANCH   5  18
BRANCH   3  22
ATOM     22  C   LIG d   1      -2.572  80.800 112.680  0.00  0.00     0.382 C 
ATOM     23  O   LIG d   1      -3.082  81.865 113.105  0.00  0.00    -0.241 OA
ATOM     24  O   LIG d   1      -3.127  79.712 112.930  0.00  0.00    -0.241 OA
ENDBRANCH   3  22
TORSDOF 7
ENDMDL
MODEL 3
REMARK VINA RESULT:      -6.2      2.355      4.618
REMARK  7 active torsions:
REMARK  status: ('A' for Active; 'I' for Inactive)
REMARK    1  A    between atoms: C_2  and  C_3 
REMARK    2  A    between atoms: C_3  and  O_6 
REMARK    3  A    between atoms: C_3  and  C_4 
REMARK    4  A    between atoms: C_7  and  O_6 
REMARK    5  A    between atoms: C_9  and  C_10 
REMARK    6  A    between atoms: N_15  and  C_14 
REMARK    7  A    between atoms: N_20  and  C_19 
REMARK       I    between atoms: C_22  and  N_20 
ROOT
ATOM      1  C   LIG d   1       1.258  82.028 111.788  0.00  0.00     0.161 C 
ATOM      2  C   LIG d   1       2.339  82.630 111.122  0.00  0.00     0.016 C 
ATOM      3  C   LIG d   1       2.555  82.518 109.730  0.00  0.00     0.038 C 
ATOM      4  C   LIG d   1       1.613  81.919 108.879  0.00  0.00     0.028 C 
ATOM      5  C   LIG d   1       0.760  80.861 109.570  0.00  0.00    -0.047 C 
ATOM      6  C   LIG d   1       0.160  81.464 110.861  0.00  0.00     0.091 C 
ENDROOT
BRANCH   1   7
ATOM      7  O   LIG d   1       0.688  82.956 112.732  0.00  0.00    -0.368 OA
BRANCH   7   8
ATOM      8  C   LIG d   1       0.774  84.359 112.378  0.00  0.00     0.119 C 
BRANCH   8   9
ATOM      9  C   LIG d   1       1.164  85.134 113.652  0.00  0.00     0.028 C 
ATOM     10  C   LIG d   1       2.393  86.033 113.438  0.00  0.00     0.006 C 
ENDBRANCH   8   9
BRANCH   8  11
ATOM     11  C   LIG d   1      -0.592  84.915 111.967  0.00  0.00     0.028 C 
ATOM     12  C   LIG d   1      -0.717  85.127 110.450  0.00  0.00     0.006 C 
ENDBRANCH   8  11
ENDBRANCH   7   8
ENDBRANCH   1   7
BRANCH   6  13
ATOM     13  N   LIG d   1      -0.621  80.470 111.642  0.00  0.00    -0.311 N 
ATOM     14  C   LIG d   1      -1.778  80.751 112.238  0.00  0.00     0.210 C 
ATOM     15  C   LIG d   1      -2.409  79.587 113.008  0.00  0.00     0.109 C 
ATOM     16  O   LIG d   1      -2.359  81.845 112.174  0.00  0.00    -0.276 OA
ATOM     17  H   LIG d   1      -0.238  79.548 111.718  0.00  0.00     0.149 HD
ENDBRANCH   6  13
BRANCH   5  18
ATOM     18  N   LIG d   1      -0.267  80.419 108.608  0.00  0.00     0.381 N 
ATOM     19  H   LIG d   1      -0.031  80.738 107.690  0.00  0.00    -0.090 HD
ATOM     20  H   LIG d   1      -1.150  80.824 108.865  0.00  0.00    -0.090 HD
ATOM     21  H   LIG d   1      -0.336  79.425 108.615  0.00  0.00    -0.090 HD
ENDBRANCH   5  18
BRANCH   3  22
ATOM     22  C   LIG d   1       3.743  82.975 109.179  0.00  0.00     0.382 C 
ATOM     23  O   LIG d   1       4.221  82.411 108.166  0.00  0.00    -0.241 OA
ATOM     24  O   LIG d   1       4.365  83.914 109.710  0.00  0.00    -0.241 OA
ENDBRANCH   3  22
TORSDOF 7
ENDMDL
MODEL 4
REMARK VINA RESULT:      -5.9      2.573      4.922
REMARK  7 active torsions:
REMARK  status: ('A' for Active; 'I' for Inactive)
REMARK    1  A    between atoms: C_2  and  C_3 
REMARK    2  A    between atoms: C_3  and  O_6 
REMARK    3  A    between atoms: C_3  and  C_4 
REMARK    4  A    between atoms: C_7  and  O_6 
REMARK    5  A    between atoms: C_9  and  C_10 
REMARK    6  A    between atoms: N_15  and  C_14 
REMARK    7  A    between atoms: N_20  and  C_19 
REMARK       I    between atoms: C_22  and  N_20 
ROOT
ATOM      1  C   LIG d   1       2.232  83.532 112.198  0.00  0.00     0.161 C 
ATOM      2  C   LIG d   1       1.565  82.299 112.108  0.00  0.00     0.016 C 
ATOM      3  C   LIG d   1       0.163  82.180 111.964  0.00  0.00     0.038 C 
ATOM      4  C   LIG d   1      -0.656  83.297 111.747  0.00  0.00     0.028 C 
ATOM      5  C   LIG d   1      -0.092  84.587 112.334  0.00  0.00    -0.047 C 
ATOM      6  C   LIG d   1       1.366  84.761 111.851  0.00  0.00     0.091 C 
ENDROOT
BRANCH   1   7
ATOM      7  O   LIG d   1       3.418  83.507 111.379  0.00  0.00    -0.368 OA
BRANCH   7   8
ATOM      8  C   LIG d   1       3.369  82.648 110.214  0.00  0.00     0.119 C 
BRANCH   8   9
ATOM      9  C   LIG d   1       4.772  82.036 110.031  0.00  0.00     0.028 C 
ATOM     10  C   LIG d   1       4.718  80.580 109.540  0.00  0.00     0.006 C 
ENDBRANCH   8   9
BRANCH   8  11
ATOM     11  C   LIG d   1       3.109  83.453 108.937  0.00  0.00     0.028 C 
ATOM     12  C   LIG d   1       1.734  83.158 108.317  0.00  0.00     0.006 C 
ENDBRANCH   8  11
ENDBRANCH   7   8
ENDBRANCH   1   7
BRANCH   6  13
ATOM     13  N   LIG d   1       2.021  85.955 112.447  0.00  0.00    -0.311 N 
ATOM     14  C   LIG d   1       2.456  86.988 111.728  0.00  0.00     0.210 C 
ATOM     15  C   LIG d   1       3.120  88.106 112.538  0.00  0.00     0.109 C 
ATOM     16  O   LIG d   1       2.327  87.099 110.499  0.00  0.00    -0.276 OA
ATOM     17  H   LIG d   1       2.139  85.962 113.441  0.00  0.00     0.149 HD
ENDBRANCH   6  13
BRANCH   5  18
ATOM     18  N   LIG d   1      -0.976  85.691 111.916  0.00  0.00     0.381 N 
ATOM     19  H   LIG d   1      -1.649  85.876 112.633  0.00  0.00    -0.090 HD
ATOM     20  H   LIG d   1      -1.467  85.417 111.084  0.00  0.00    -0.090 HD
ATOM     21  H   LIG d   1      -0.437  86.510 111.738  0.00  0.00    -0.090 HD
ENDBRANCH   5  18
BRANCH   3  22
ATOM     22  C   LIG d   1      -0.436  80.935 112.077  0.00  0.00     0.382 C 
ATOM     23  O   LIG d   1      -0.542  80.390 113.202  0.00  0.00    -0.241 OA
ATOM     24  O   LIG d   1      -0.833  80.331 111.063  0.00  0.00    -0.241 OA
ENDBRANCH   3  22
TORSDOF 7
ENDMDL
MODEL 5
REMARK VINA RESULT:      -5.5      3.442      5.143
REMARK  7 active torsions:
REMARK  status: ('A' for Active; 'I' for Inactive)
REMARK    1  A    between atoms: C_2  and  C_3 
REMARK    2  A    between atoms: C_3  and  O_6 
REMARK    3  A    between atoms: C_3  and  C_4 
REMARK    4  A    between atoms: C_7  and  O_6 
REMARK    5  A    between atoms: C_9  and  C_10 
REMARK    6  A    between atoms: N_15  and  C_14 
REMARK    7  A    between atoms: N_20  and  C_19 
REMARK       I    between atoms: C_22  and  N_20 
ROOT
ATOM      1  C   LIG d   1       0.900  81.340 111.254  0.00  0.00     0.161 C 
ATOM      2  C   LIG d   1      -0.221  80.784 111.894  0.00  0.00     0.016 C 
ATOM      3  C   LIG d   1      -0.969  79.710 111.360  0.00  0.00     0.038 C 
ATOM      4  C   LIG d   1      -0.553  79.014 110.215  0.00  0.00     0.028 C 
ATOM      5  C   LIG d   1       0.286  79.860 109.263  0.00  0.00    -0.047 C 
ATOM      6  C   LIG d   1       1.434  80.522 110.060  0.00  0.00     0.091 C 
ENDROOT
BRANCH   1   7
ATOM      7  O   LIG d   1       1.949  81.565 112.216  0.00  0.00    -0.368 OA
BRANCH   7   8
ATOM      8  C   LIG d   1       2.212  82.948 112.560  0.00  0.00     0.119 C 
BRANCH   8   9
ATOM      9  C   LIG d   1       3.603  83.308 112.003  0.00  0.00     0.028 C 
ATOM     10  C   LIG d   1       4.665  82.252 112.353  0.00  0.00     0.006 C 
ENDBRANCH   8   9
BRANCH   8  11
ATOM     11  C   LIG d   1       2.321  83.134 114.076  0.00  0.00     0.028 C 
ATOM     12  C   LIG d   1       2.098  84.589 114.516  0.00  0.00     0.006 C 
ENDBRANCH   8  11
ENDBRANCH   7   8
ENDBRANCH   1   7
BRANCH   6  13
ATOM     13  N   LIG d   1       2.253  81.434 109.220  0.00  0.00    -0.311 N 
ATOM     14  C   LIG d   1       3.549  81.242 108.979  0.00  0.00     0.210 C 
ATOM     15  C   LIG d   1       4.210  82.313 108.105  0.00  0.00     0.109 C 
ATOM     16  O   LIG d   1       4.207  80.270 109.379  0.00  0.00    -0.276 OA
ATOM     17  H   LIG d   1       1.792  82.233 108.830  0.00  0.00     0.149 HD
ENDBRANCH   6  13
BRANCH   5  18
ATOM     18  N   LIG d   1       0.765  78.975 108.185  0.00  0.00     0.381 N 
ATOM     19  H   LIG d   1       1.764  78.920 108.211  0.00  0.00    -0.090 HD
ATOM     20  H   LIG d   1       0.494  79.365 107.299  0.00  0.00    -0.090 HD
ATOM     21  H   LIG d   1       0.372  78.066 108.290  0.00  0.00    -0.090 HD
ENDBRANCH   5  18
BRANCH   3  22
ATOM     22  C   LIG d   1      -2.169  79.347 111.951  0.00  0.00     0.382 C 
ATOM     23  O   LIG d   1      -2.956  80.232 112.367  0.00  0.00    -0.241 OA
ATOM     24  O   LIG d   1      -2.456  78.146 112.114  0.00  0.00    -0.241 OA
ENDBRANCH   3  22
TORSDOF 7
ENDMDL
MODEL 6
REMARK VINA RESULT:      -5.2      2.473      4.458
REMARK  7 active torsions:
REMARK  status: ('A' for Active; 'I' for Inactive)
REMARK    1  A    between atoms: C_2  and  C_3 
REMARK    2  A    between atoms: C_3  and  O_6 
REMARK    3  A    between atoms: C_3  and  C_4 
REMARK    4  A    between atoms: C_7  and  O_6 
REMARK    5  A    between atoms: C_9  and  C_10 
REMARK    6  A    between atoms: N_15  and  C_14 
REMARK    7  A    between atoms: N_20  and  C_19 
REMARK       I    between atoms: C_22  and  N_20 
ROOT
ATOM      1  C   LIG d   1       1.922  83.434 110.571  0.00  0.00     0.161 C 
ATOM      2  C   LIG d   1       0.916  82.516 110.914  0.00  0.00     0.016 C 
ATOM      3  C   LIG d   1      -0.373  82.901 111.350  0.00  0.00     0.038 C 
ATOM      4  C   LIG d   1      -0.794  84.238 111.328  0.00  0.00     0.028 C 
ATOM      5  C   LIG d   1       0.350  85.236 111.470  0.00  0.00    -0.047 C 
ATOM      6  C   LIG d   1       1.445  84.895 110.434  0.00  0.00     0.091 C 
ENDROOT
BRANCH   1   7
ATOM      7  O   LIG d   1       2.582  83.007 109.363  0.00  0.00    -0.368 OA
BRANCH   7   8
ATOM      8  C   LIG d   1       3.918  82.471 109.522  0.00  0.00     0.119 C 
BRANCH   8   9
ATOM      9  C   LIG d   1       4.019  81.210 108.641  0.00  0.00     0.028 C 
ATOM     10  C   LIG d   1       2.988  80.138 109.030  0.00  0.00     0.006 C 
ENDBRANCH   8   9
BRANCH   8  11
ATOM     11  C   LIG d   1       4.157  81.984 110.954  0.00  0.00     0.028 C 
ATOM     12  C   LIG d   1       5.314  82.720 111.648  0.00  0.00     0.006 C 
ENDBRANCH   8  11
ENDBRANCH   7   8
ENDBRANCH   1   7
BRANCH   6  13
ATOM     13  N   LIG d   1       2.639  85.772 110.562  0.00  0.00    -0.311 N 
ATOM     14  C   LIG d   1       3.335  85.902 111.689  0.00  0.00     0.210 C 
ATOM     15  C   LIG d   1       4.518  86.872 111.610  0.00  0.00     0.109 C 
ATOM     16  O   LIG d   1       3.105  85.283 112.739  0.00  0.00    -0.276 OA
ATOM     17  H   LIG d   1       2.914  86.288 109.749  0.00  0.00     0.149 HD
ENDBRANCH   6  13
BRANCH   5  18
ATOM     18  N   LIG d   1      -0.213  86.588 111.292  0.00  0.00     0.381 N 
ATOM     19  H   LIG d   1       0.161  87.005 110.463  0.00  0.00    -0.090 HD
ATOM     20  H   LIG d   1       0.051  87.156 112.078  0.00  0.00    -0.090 HD
ATOM     21  H   LIG d   1      -1.206  86.538 111.228  0.00  0.00    -0.090 HD
ENDBRANCH   5  18
BRANCH   3  22
ATOM     22  C   LIG d   1      -1.242  81.944 111.853  0.00  0.00     0.382 C 
ATOM     23  O   LIG d   1      -2.165  82.284 112.632  0.00  0.00    -0.241 OA
ATOM     24  O   LIG d   1      -1.089  80.741 111.571  0.00  0.00    -0.241 OA
ENDBRANCH   3  22
TORSDOF 7
ENDMDL
MODEL 7
REMARK VINA RESULT:      -5.0      2.207      5.060
REMARK  7 active torsions:
REMARK  status: ('A' for Active; 'I' for Inactive)
REMARK    1  A    between atoms: C_2  and  C_3 
REMARK    2  A    between atoms: C_3  and  O_6 
REMARK    3  A    between atoms: C_3  and  C_4 
REMARK    4  A    between atoms: C_7  and  O_6 
REMARK    5  A    between atoms: C_9  and  C_10 
REMARK    6  A    between atoms: N_15  and  C_14 
REMARK    7  A    between atoms: N_20  and  C_19 
REMARK       I    between atoms: C_22  and  N_20 
ROOT
ATOM      1  C   LIG d   1       1.465  82.657 111.284  0.00  0.00     0.161 C 
ATOM      2  C   LIG d   1       2.801  82.400 110.934  0.00  0.00     0.016 C 
ATOM      3  C   LIG d   1       3.179  81.496 109.915  0.00  0.00     0.038 C 
ATOM      4  C   LIG d   1       2.234  80.897 109.068  0.00  0.00     0.028 C 
ATOM      5  C   LIG d   1       0.860  80.737 109.710  0.00  0.00    -0.047 C 
ATOM      6  C   LIG d   1       0.419  82.097 110.297  0.00  0.00     0.091 C 
ENDROOT
BRANCH   1   7
ATOM      7  O   LIG d   1       1.273  84.074 111.468  0.00  0.00    -0.368 OA
BRANCH   7   8
ATOM      8  C   LIG d   1       1.682  84.612 112.749  0.00  0.00     0.119 C 
BRANCH   8   9
ATOM      9  C   LIG d   1       0.501  85.429 113.307  0.00  0.00     0.028 C 
ATOM     10  C   LIG d   1      -0.664  85.535 112.308  0.00  0.00     0.006 C 
ENDBRANCH   8   9
BRANCH   8  11
ATOM     11  C   LIG d   1       2.830  85.613 112.592  0.00  0.00     0.028 C 
ATOM     12  C   LIG d   1       2.763  86.762 113.611  0.00  0.00     0.006 C 
ENDBRANCH   8  11
ENDBRANCH   7   8
ENDBRANCH   1   7
BRANCH   6  13
ATOM     13  N   LIG d   1      -0.877  82.010 111.018  0.00  0.00    -0.311 N 
ATOM     14  C   LIG d   1      -1.047  81.312 112.139  0.00  0.00     0.210 C 
ATOM     15  C   LIG d   1      -2.469  81.339 112.708  0.00  0.00     0.109 C 
ATOM     16  O   LIG d   1      -0.148  80.699 112.734  0.00  0.00    -0.276 OA
ATOM     17  H   LIG d   1      -1.653  82.503 110.622  0.00  0.00     0.149 HD
ENDBRANCH   6  13
BRANCH   5  18
ATOM     18  N   LIG d   1      -0.059  80.228 108.675  0.00  0.00     0.381 N 
ATOM     19  H   LIG d   1      -0.408  80.990 108.129  0.00  0.00    -0.090 HD
ATOM     20  H   LIG d   1      -0.838  79.779 109.124  0.00  0.00    -0.090 HD
ATOM     21  H   LIG d   1       0.415  79.579 108.087  0.00  0.00    -0.090 HD
ENDBRANCH   5  18
BRANCH   3  22
ATOM     22  C   LIG d   1       4.513  81.152 109.761  0.00  0.00     0.382 C 
ATOM     23  O   LIG d   1       4.825  79.986 109.418  0.00  0.00    -0.241 OA
ATOM     24  O   LIG d   1       5.411  81.981 110.003  0.00  0.00    -0.241 OA
ENDBRANCH   3  22
TORSDOF 7
ENDMDL
MODEL 8
REMARK VINA RESULT:      -4.7      1.781      2.402
REMARK  7 active torsions:
REMARK  status: ('A' for Active; 'I' for Inactive)
REMARK    1  A    between atoms: C_2  and  C_3 
REMARK    2  A    between atoms: C_3  and  O_6 
REMARK    3  A    between atoms: C_3  and  C_4 
REMARK    4  A    between atoms: C_7  and  O_6 
REMARK    5  A    between atoms: C_9  and  C_10 
REMARK    6  A    between atoms: N_15  and  C_14 
REMARK    7  A    between atoms: N_20  and  C_19 
REMARK       I    between atoms: C_22  and  N_20 
ROOT
ATOM      1  C   LIG d   1       1.344  82.253 109.942  0.00  0.00     0.161 C 
ATOM      2  C   LIG d   1       1.261  83.615 109.610  0.00  0.00     0.016 C 
ATOM      3  C   LIG d   1       0.328  84.503 110.193  0.00  0.00     0.038 C 
ATOM      4  C   LIG d   1      -0.491  84.118 111.265  0.00  0.00     0.028 C 
ATOM      5  C   LIG d   1      -0.794  82.624 111.290  0.00  0.00    -0.047 C 
ATOM      6  C   LIG d   1       0.534  81.840 111.189  0.00  0.00     0.091 C 
ENDROOT
BRANCH   1   7
ATOM      7  O   LIG d   1       2.726  81.870 110.092  0.00  0.00    -0.368 OA
BRANCH   7   8
ATOM      8  C   LIG d   1       3.504  82.650 111.032  0.00  0.00     0.119 C 
BRANCH   8   9
ATOM      9  C   LIG d   1       4.656  83.306 110.247  0.00  0.00     0.028 C 
ATOM     10  C   LIG d   1       4.739  82.803 108.796  0.00  0.00     0.006 C 
ENDBRANCH   8   9
BRANCH   8  11
ATOM     11  C   LIG d   1       4.182  81.754 112.073  0.00  0.00     0.028 C 
ATOM     12  C   LIG d   1       3.675  82.010 113.501  0.00  0.00     0.006 C 
ENDBRANCH   8  11
ENDBRANCH   7   8
ENDBRANCH   1   7
BRANCH   6  13
ATOM     13  N   LIG d   1       0.322  80.371 111.121  0.00  0.00    -0.311 N 
ATOM     14  C   LIG d   1      -0.097  79.740 110.026  0.00  0.00     0.210 C 
ATOM     15  C   LIG d   1      -0.269  78.225 110.177  0.00  0.00     0.109 C 
ATOM     16  O   LIG d   1      -0.311  80.287 108.933  0.00  0.00    -0.276 OA
ATOM     17  H   LIG d   1       0.502  79.845 111.954  0.00  0.00     0.149 HD
ENDBRANCH   6  13
BRANCH   5  18
ATOM     18  N   LIG d   1      -1.539  82.341 112.532  0.00  0.00     0.381 N 
ATOM     19  H   LIG d   1      -1.646  83.182 113.062  0.00  0.00    -0.090 HD
ATOM     20  H   LIG d   1      -1.014  81.685 113.083  0.00  0.00    -0.090 HD
ATOM     21  H   LIG d   1      -2.434  81.961 112.313  0.00  0.00    -0.090 HD
ENDBRANCH   5  18
BRANCH   3  22
ATOM     22  C   LIG d   1       0.179  85.781 109.676  0.00  0.00     0.382 C 
ATOM     23  O   LIG d   1       0.637  86.055 108.541  0.00  0.00    -0.241 OA
ATOM     24  O   LIG d   1      -0.369  86.674 110.349  0.00  0.00    -0.241 OA
ENDBRANCH   3  22
TORSDOF 7
ENDMDL
MODEL 9
REMARK VINA RESULT:      -4.0      2.517      4.997
REMARK  7 active torsions:
REMARK  status: ('A' for Active; 'I' for Inactive)
REMARK    1  A    between atoms: C_2  and  C_3 
REMARK    2  A    between atoms: C_3  and  O_6 
REMARK    3  A    between atoms: C_3  and  C_4 
REMARK    4  A    between atoms: C_7  and  O_6 
REMARK    5  A    between atoms: C_9  and  C_10 
REMARK    6  A    between atoms: N_15  and  C_14 
REMARK    7  A    between atoms: N_20  and  C_19 
REMARK       I    between atoms: C_22  and  N_20 
ROOT
ATOM      1  C   LIG d   1       2.693  82.614 110.790  0.00  0.00     0.161 C 
ATOM      2  C   LIG d   1       2.720  81.344 110.191  0.00  0.00     0.016 C 
ATOM      3  C   LIG d   1       1.579  80.720 109.637  0.00  0.00     0.038 C 
ATOM      4  C   LIG d   1       0.355  81.394 109.509  0.00  0.00     0.028 C 
ATOM      5  C   LIG d   1       0.152  82.486 110.553  0.00  0.00    -0.047 C 
ATOM      6  C   LIG d   1       1.391  83.410 110.560  0.00  0.00     0.091 C 
ENDROOT
BRANCH   1   7
ATOM      7  O   LIG d   1       3.833  83.383 110.357  0.00  0.00    -0.368 OA
BRANCH   7   8
ATOM      8  C   LIG d   1       4.797  83.726 111.383  0.00  0.00     0.119 C 
BRANCH   8   9
ATOM      9  C   LIG d   1       4.719  82.640 112.473  0.00  0.00     0.028 C 
ATOM     10  C   LIG d   1       4.487  83.230 113.874  0.00  0.00     0.006 C 
ENDBRANCH   8   9
BRANCH   8  11
ATOM     11  C   LIG d   1       4.421  85.034 112.086  0.00  0.00     0.028 C 
ATOM     12  C   LIG d   1       4.290  86.216 111.114  0.00  0.00     0.006 C 
ENDBRANCH   8  11
ENDBRANCH   7   8
ENDBRANCH   1   7
BRANCH   6  13
ATOM     13  N   LIG d   1       1.312  84.457 111.612  0.00  0.00    -0.311 N 
ATOM     14  C   LIG d   1       1.156  84.185 112.906  0.00  0.00     0.210 C 
ATOM     15  C   LIG d   1       1.079  85.412 113.820  0.00  0.00     0.109 C 
ATOM     16  O   LIG d   1       1.105  83.043 113.388  0.00  0.00    -0.276 OA
ATOM     17  H   LIG d   1       1.376  85.410 111.312  0.00  0.00     0.149 HD
ENDBRANCH   6  13
BRANCH   5  18
ATOM     18  N   LIG d   1      -1.097  83.196 110.219  0.00  0.00     0.381 N 
ATOM     19  H   LIG d   1      -1.882  82.681 110.564  0.00  0.00    -0.090 HD
ATOM     20  H   LIG d   1      -1.176  83.261 109.220  0.00  0.00    -0.090 HD
ATOM     21  H   LIG d   1      -1.088  84.109 110.619  0.00  0.00    -0.090 HD
ENDBRANCH   5  18
BRANCH   3  22
ATOM     22  C   LIG d   1       1.645  79.393 109.240  0.00  0.00     0.382 C 
ATOM     23  O   LIG d   1       0.595  78.713 109.149  0.00  0.00    -0.241 OA
ATOM     24  O   LIG d   1       2.746  78.855 109.016  0.00  0.00    -0.241 OA
ENDBRANCH   3  22
TORSDOF 7
ENDMDL
