MODEL 1
REMARK VINA RESULT:      -6.5      0.000      0.000
REMARK  7 active torsions:
REMARK  status: ('A' for Active; 'I' for Inactive)
REMARK    1  A    between atoms: C_2  and  C_3 
REMARK    2  A    between atoms: C_3  and  O_6 
REMARK    3  A    between atoms: C_3  and  C_4 
REMARK    4  A    between atoms: C_7  and  O_6 
REMARK    5  A    between atoms: C_9  and  C_10 
REMARK    6  A    between atoms: N_15  and  C_14 
REMARK    7  A    between atoms: N_20  and  C_19 
REMARK       I    between atoms: C_22  and  N_20 
ROOT
ATOM      1  C   LIG d   1       1.804  83.367 111.424  0.00  0.00     0.161 C 
ATOM      2  C   LIG d   1       2.767  83.277 110.405  0.00  0.00     0.016 C 
ATOM      3  C   LIG d   1       2.838  82.198 109.495  0.00  0.00     0.038 C 
ATOM      4  C   LIG d   1       1.851  81.202 109.447  0.00  0.00     0.028 C 
ATOM      5  C   LIG d   1       1.146  80.983 110.782  0.00  0.00    -0.047 C 
ATOM      6  C   LIG d   1       0.652  82.346 111.317  0.00  0.00     0.091 C 
ENDROOT
BRANCH   1   7
ATOM      7  O   LIG d   1       1.281  84.709 111.485  0.00  0.00    -0.368 OA
BRANCH   7   8
ATOM      8  C   LIG d   1       1.753  85.624 110.466  0.00  0.00     0.119 C 
BRANCH   8   9
ATOM      9  C   LIG d   1       1.950  86.999 111.133  0.00  0.00     0.028 C 
ATOM     10  C   LIG d   1       3.247  87.071 111.957  0.00  0.00     0.006 C 
ENDBRANCH   8   9
BRANCH   8  11
ATOM     11  C   LIG d   1       0.693  85.847 109.383  0.00  0.00     0.028 C 
ATOM     12  C   LIG d   1      -0.726  85.990 109.958  0.00  0.00     0.006 C 
ENDBRANCH   8  11
ENDBRANCH   7   8
ENDBRANCH   1   7
BRANCH   6  13
ATOM     13  N   LIG d   1       0.025  82.234 112.660  0.00  0.00    -0.311 N 
ATOM     14  C   LIG d   1      -1.284  82.071 112.846  0.00  0.00     0.210 C 
ATOM     15  C   LIG d   1      -1.724  81.998 114.312  0.00  0.00     0.109 C 
ATOM     16  O   LIG d   1      -2.118  81.947 111.937  0.00  0.00    -0.276 OA
ATOM     17  H   LIG d   1       0.632  82.293 113.454  0.00  0.00     0.149 HD
ENDBRANCH   6  13
BRANCH   5  18
ATOM     18  N   LIG d   1       0.053  80.020 110.555  0.00  0.00     0.381 N 
ATOM     19  H   LIG d   1      -0.511  79.947 111.379  0.00  0.00    -0.090 HD
ATOM     20  H   LIG d   1       0.449  79.117 110.364  0.00  0.00    -0.090 HD
ATOM     21  H   LIG d   1      -0.507  80.314 109.786  0.00  0.00    -0.090 HD
ENDBRANCH   5  18
BRANCH   3  22
ATOM     22  C   LIG d   1       3.929  82.086 108.646  0.00  0.00     0.382 C 
ATOM     23  O   LIG d   1       4.056  81.070 107.920  0.00  0.00    -0.241 OA
ATOM     24  O   LIG d   1       4.809  82.967 108.628  0.00  0.00    -0.241 OA
ENDBRANCH   3  22
TORSDOF 7
ENDMDL
MODEL 2
REMARK VINA RESULT:      -6.1      2.044      2.461
REMARK  7 active torsions:
REMARK  status: ('A' for Active; 'I' for Inactive)
REMARK    1  A    between atoms: C_2  and  C_3 
REMARK    2  A    between atoms: C_3  and  O_6 
REMARK    3  A    between atoms: C_3  and  C_4 
REMARK    4  A    between atoms: C_7  and  O_6 
REMARK    5  A    between atoms: C_9  and  C_10 
REMARK    6  A    between atoms: N_15  and  C_14 
REMARK    7  A    between atoms: N_20  and  C_19 
REMARK       I    between atoms: C_22  and  N_20 
ROOT
ATOM      1  C   LIG d   1       1.297  81.402 112.005  0.00  0.00     0.161 C 
ATOM      2  C   LIG d   1       2.380  82.119 111.469  0.00  0.00     0.016 C 
ATOM      3  C   LIG d   1       2.645  82.207 110.083  0.00  0.00     0.038 C 
ATOM      4  C   LIG d   1       1.753  81.706 109.124  0.00  0.00     0.028 C 
ATOM      5  C   LIG d   1       0.911  80.540 109.631  0.00  0.00    -0.047 C 
ATOM      6  C   LIG d   1       0.250  80.942 110.969  0.00  0.00     0.091 C 
ENDROOT
BRANCH   1   7
ATOM      7  O   LIG d   1       0.666  82.174 113.045  0.00  0.00    -0.368 OA
BRANCH   7   8
ATOM      8  C   LIG d   1       0.826  83.612 112.958  0.00  0.00     0.119 C 
BRANCH   8   9
ATOM      9  C   LIG d   1       0.993  84.147 114.393  0.00  0.00     0.028 C 
ATOM     10  C   LIG d   1       0.778  85.668 114.481  0.00  0.00     0.006 C 
ENDBRANCH   8   9
BRANCH   8  11
ATOM     11  C   LIG d   1      -0.442  84.282 112.420  0.00  0.00     0.028 C 
ATOM     12  C   LIG d   1      -0.352  84.611 110.922  0.00  0.00     0.006 C 
ENDBRANCH   8  11
ENDBRANCH   7   8
ENDBRANCH   1   7
BRANCH   6  13
ATOM     13  N   LIG d   1      -0.524  79.828 111.576  0.00  0.00    -0.311 N 
ATOM     14  C   LIG d   1      -1.728  79.985 112.124  0.00  0.00     0.210 C 
ATOM     15  C   LIG d   1      -2.343  78.711 112.711  0.00  0.00     0.109 C 
ATOM     16  O   LIG d   1      -2.358  81.053 112.152  0.00  0.00    -0.276 OA
ATOM     17  H   LIG d   1      -0.101  78.921 111.568  0.00  0.00     0.149 HD
ENDBRANCH   6  13
BRANCH   5  18
ATOM     18  N   LIG d   1      -0.068  80.207 108.579  0.00  0.00     0.381 N 
ATOM     19  H   LIG d   1      -0.978  80.108 108.983  0.00  0.00    -0.090 HD
ATOM     20  H   LIG d   1       0.189  79.331 108.161  0.00  0.00    -0.090 HD
ATOM     21  H   LIG d   1      -0.081  80.923 107.886  0.00  0.00    -0.090 HD
ENDBRANCH   5  18
BRANCH   3  22
ATOM     22  C   LIG d   1       3.836  82.768 109.646  0.00  0.00     0.382 C 
ATOM     23  O   LIG d   1       4.107  82.787 108.421  0.00  0.00    -0.241 OA
ATOM     24  O   LIG d   1       4.662  83.215 110.464  0.00  0.00    -0.241 OA
ENDBRANCH   3  22
TORSDOF 7
ENDMDL
MODEL 3
REMARK VINA RESULT:      -6.0      1.545      4.667
REMARK  7 active torsions:
REMARK  status: ('A' for Active; 'I' for Inactive)
REMARK    1  A    between atoms: C_2  and  C_3 
REMARK    2  A    between atoms: C_3  and  O_6 
REMARK    3  A    between atoms: C_3  and  C_4 
REMARK    4  A    between atoms: C_7  and  O_6 
REMARK    5  A    between atoms: C_9  and  C_10 
REMARK    6  A    between atoms: N_15  and  C_14 
REMARK    7  A    between atoms: N_20  and  C_19 
REMARK       I    between atoms: C_22  and  N_20 
ROOT
ATOM      1  C   LIG d   1       0.638  83.313 111.061  0.00  0.00     0.161 C 
ATOM      2  C   LIG d   1      -0.443  83.142 111.941  0.00  0.00     0.016 C 
ATOM      3  C   LIG d   1      -1.034  81.887 112.213  0.00  0.00     0.038 C 
ATOM      4  C   LIG d   1      -0.483  80.689 111.734  0.00  0.00     0.028 C 
ATOM      5  C   LIG d   1       0.301  80.858 110.437  0.00  0.00    -0.047 C 
ATOM      6  C   LIG d   1       1.323  82.004 110.615  0.00  0.00     0.091 C 
ENDROOT
BRANCH   1   7
ATOM      7  O   LIG d   1       1.604  84.212 111.641  0.00  0.00    -0.368 OA
BRANCH   7   8
ATOM      8  C   LIG d   1       2.201  85.175 110.739  0.00  0.00     0.119 C 
BRANCH   8   9
ATOM      9  C   LIG d   1       3.216  86.003 111.552  0.00  0.00     0.028 C 
ATOM     10  C   LIG d   1       2.576  86.675 112.778  0.00  0.00     0.006 C 
ENDBRANCH   8   9
BRANCH   8  11
ATOM     11  C   LIG d   1       1.165  86.184 110.236  0.00  0.00     0.028 C 
ATOM     12  C   LIG d   1       0.552  85.785 108.885  0.00  0.00     0.006 C 
ENDBRANCH   8  11
ENDBRANCH   7   8
ENDBRANCH   1   7
BRANCH   6  13
ATOM     13  N   LIG d   1       2.075  82.293 109.366  0.00  0.00    -0.311 N 
ATOM     14  C   LIG d   1       3.296  81.821 109.119  0.00  0.00     0.210 C 
ATOM     15  C   LIG d   1       3.898  82.256 107.780  0.00  0.00     0.109 C 
ATOM     16  O   LIG d   1       3.924  81.059 109.869  0.00  0.00    -0.276 OA
ATOM     17  H   LIG d   1       1.626  82.879 108.689  0.00  0.00     0.149 HD
ENDBRANCH   6  13
BRANCH   5  18
ATOM     18  N   LIG d   1       0.934  79.563 110.126  0.00  0.00     0.381 N 
ATOM     19  H   LIG d   1       1.699  79.401 110.751  0.00  0.00    -0.090 HD
ATOM     20  H   LIG d   1       1.293  79.593 109.188  0.00  0.00    -0.090 HD
ATOM     21  H   LIG d   1       0.266  78.828 110.210  0.00  0.00    -0.090 HD
ENDBRANCH   5  18
BRANCH   3  22
ATOM     22  C   LIG d   1      -2.213  81.825 112.939  0.00  0.00     0.382 C 
ATOM     23  O   LIG d   1      -3.249  81.349 112.415  0.00  0.00    -0.241 OA
ATOM     24  O   LIG d   1      -2.266  82.281 114.097  0.00  0.00    -0.241 OA
ENDBRANCH   3  22
TORSDOF 7
ENDMDL
MODEL 4
REMARK VINA RESULT:      -5.9      1.320      2.067
REMARK  7 active torsions:
REMARK  status: ('A' for Active; 'I' for Inactive)
REMARK    1  A    between atoms: C_2  and  C_3 
REMARK    2  A    between atoms: C_3  and  O_6 
REMARK    3  A    between atoms: C_3  and  C_4 
REMARK    4  A    between atoms: C_7  and  O_6 
REMARK    5  A    between atoms: C_9  and  C_10 
REMARK    6  A    between atoms: N_15  and  C_14 
REMARK    7  A    between atoms: N_20  and  C_19 
REMARK       I    between atoms: C_22  and  N_20 
ROOT
ATOM      1  C   LIG d   1       1.883  83.184 111.728  0.00  0.00     0.161 C 
ATOM      2  C   LIG d   1       2.859  83.158 110.719  0.00  0.00     0.016 C 
ATOM      3  C   LIG d   1       2.891  82.187 109.691  0.00  0.00     0.038 C 
ATOM      4  C   LIG d   1       1.853  81.259 109.515  0.00  0.00     0.028 C 
ATOM      5  C   LIG d   1       1.111  80.929 110.805  0.00  0.00    -0.047 C 
ATOM      6  C   LIG d   1       0.680  82.248 111.488  0.00  0.00     0.091 C 
ENDROOT
BRANCH   1   7
ATOM      7  O   LIG d   1       1.431  84.537 111.936  0.00  0.00    -0.368 OA
BRANCH   7   8
ATOM      8  C   LIG d   1       1.929  85.200 113.123  0.00  0.00     0.119 C 
BRANCH   8   9
ATOM      9  C   LIG d   1       0.741  85.378 114.087  0.00  0.00     0.028 C 
ATOM     10  C   LIG d   1      -0.586  85.615 113.346  0.00  0.00     0.006 C 
ENDBRANCH   8   9
BRANCH   8  11
ATOM     11  C   LIG d   1       2.412  86.619 112.808  0.00  0.00     0.028 C 
ATOM     12  C   LIG d   1       3.469  86.655 111.693  0.00  0.00     0.006 C 
ENDBRANCH   8  11
ENDBRANCH   7   8
ENDBRANCH   1   7
BRANCH   6  13
ATOM     13  N   LIG d   1       0.020  82.018 112.800  0.00  0.00    -0.311 N 
ATOM     14  C   LIG d   1      -1.301  81.932 112.951  0.00  0.00     0.210 C 
ATOM     15  C   LIG d   1      -1.773  81.712 114.392  0.00  0.00     0.109 C 
ATOM     16  O   LIG d   1      -2.124  81.985 112.025  0.00  0.00    -0.276 OA
ATOM     17  H   LIG d   1       0.615  81.932 113.600  0.00  0.00     0.149 HD
ENDBRANCH   6  13
BRANCH   5  18
ATOM     18  N   LIG d   1      -0.029  80.061 110.454  0.00  0.00     0.381 N 
ATOM     19  H   LIG d   1       0.195  79.521 109.642  0.00  0.00    -0.090 HD
ATOM     20  H   LIG d   1      -0.823  80.637 110.241  0.00  0.00    -0.090 HD
ATOM     21  H   LIG d   1      -0.243  79.455 111.216  0.00  0.00    -0.090 HD
ENDBRANCH   5  18
BRANCH   3  22
ATOM     22  C   LIG d   1       3.991  82.112 108.850  0.00  0.00     0.382 C 
ATOM     23  O   LIG d   1       4.819  83.054 108.815  0.00  0.00    -0.241 OA
ATOM     24  O   LIG d   1       4.142  81.134 108.093  0.00  0.00    -0.241 OA
ENDBRANCH   3  22
TORSDOF 7
ENDMDL
MODEL 5
REMARK VINA RESULT:      -5.9      2.824      5.514
REMARK  7 active torsions:
REMARK  status: ('A' for Active; 'I' for Inactive)
REMARK    1  A    between atoms: C_2  and  C_3 
REMARK    2  A    between atoms: C_3  and  O_6 
REMARK    3  A    between atoms: C_3  and  C_4 
REMARK    4  A    between atoms: C_7  and  O_6 
REMARK    5  A    between atoms: C_9  and  C_10 
REMARK    6  A    between atoms: N_15  and  C_14 
REMARK    7  A    between atoms: N_20  and  C_19 
REMARK       I    between atoms: C_22  and  N_20 
ROOT
ATOM      1  C   LIG d   1       2.790  85.513 111.928  0.00  0.00     0.161 C 
ATOM      2  C   LIG d   1       3.395  86.780 111.953  0.00  0.00     0.016 C 
ATOM      3  C   LIG d   1       3.435  87.601 113.104  0.00  0.00     0.038 C 
ATOM      4  C   LIG d   1       3.002  87.142 114.357  0.00  0.00     0.028 C 
ATOM      5  C   LIG d   1       1.927  86.065 114.269  0.00  0.00    -0.047 C 
ATOM      6  C   LIG d   1       2.410  84.950 113.314  0.00  0.00     0.091 C 
ENDROOT
BRANCH   1   7
ATOM      7  O   LIG d   1       3.634  84.582 111.223  0.00  0.00    -0.368 OA
BRANCH   7   8
ATOM      8  C   LIG d   1       3.360  84.416 109.810  0.00  0.00     0.119 C 
BRANCH   8   9
ATOM      9  C   LIG d   1       1.890  83.974 109.673  0.00  0.00     0.028 C 
ATOM     10  C   LIG d   1       1.097  84.866 108.704  0.00  0.00     0.006 C 
ENDBRANCH   8   9
BRANCH   8  11
ATOM     11  C   LIG d   1       4.185  83.272 109.213  0.00  0.00     0.028 C 
ATOM     12  C   LIG d   1       3.929  81.926 109.909  0.00  0.00     0.006 C 
ENDBRANCH   8  11
ENDBRANCH   7   8
ENDBRANCH   1   7
BRANCH   6  13
ATOM     13  N   LIG d   1       1.383  83.897 113.106  0.00  0.00    -0.311 N 
ATOM     14  C   LIG d   1       1.637  82.593 113.210  0.00  0.00     0.210 C 
ATOM     15  C   LIG d   1       0.441  81.677 112.936  0.00  0.00     0.109 C 
ATOM     16  O   LIG d   1       2.732  82.110 113.535  0.00  0.00    -0.276 OA
ATOM     17  H   LIG d   1       0.459  84.201 112.869  0.00  0.00     0.149 HD
ENDBRANCH   6  13
BRANCH   5  18
ATOM     18  N   LIG d   1       1.668  85.581 115.638  0.00  0.00     0.381 N 
ATOM     19  H   LIG d   1       1.403  84.617 115.612  0.00  0.00    -0.090 HD
ATOM     20  H   LIG d   1       0.907  86.107 116.030  0.00  0.00    -0.090 HD
ATOM     21  H   LIG d   1       2.483  85.694 116.200  0.00  0.00    -0.090 HD
ENDBRANCH   5  18
BRANCH   3  22
ATOM     22  C   LIG d   1       3.876  88.911 112.998  0.00  0.00     0.382 C 
ATOM     23  O   LIG d   1       3.212  89.840 113.518  0.00  0.00    -0.241 OA
ATOM     24  O   LIG d   1       4.907  89.181 112.352  0.00  0.00    -0.241 OA
ENDBRANCH   3  22
TORSDOF 7
ENDMDL
MODEL 6
REMARK VINA RESULT:      -5.7      2.028      4.375
REMARK  7 active torsions:
REMARK  status: ('A' for Active; 'I' for Inactive)
REMARK    1  A    between atoms: C_2  and  C_3 
REMARK    2  A    between atoms: C_3  and  O_6 
REMARK    3  A    between atoms: C_3  and  C_4 
REMARK    4  A    between atoms: C_7  and  O_6 
REMARK    5  A    between atoms: C_9  and  C_10 
REMARK    6  A    between atoms: N_15  and  C_14 
REMARK    7  A    between atoms: N_20  and  C_19 
REMARK       I    between atoms: C_22  and  N_20 
ROOT
ATOM      1  C   LIG d   1       0.493  83.757 110.521  0.00  0.00     0.161 C 
ATOM      2  C   LIG d   1       1.392  84.834 110.435  0.00  0.00     0.016 C 
ATOM      3  C   LIG d   1       1.934  85.486 111.566  0.00  0.00     0.038 C 
ATOM      4  C   LIG d   1       1.730  85.006 112.868  0.00  0.00     0.028 C 
ATOM      5  C   LIG d   1       0.427  84.231 113.031  0.00  0.00    -0.047 C 
ATOM      6  C   LIG d   1       0.346  83.148 111.931  0.00  0.00     0.091 C 
ENDROOT
BRANCH   1   7
ATOM      7  O   LIG d   1       0.860  82.738 109.570  0.00  0.00    -0.368 OA
BRANCH   7   8
ATOM      8  C   LIG d   1       1.916  81.835 109.980  0.00  0.00     0.119 C 
BRANCH   8   9
ATOM      9  C   LIG d   1       3.079  81.998 108.982  0.00  0.00     0.028 C 
ATOM     10  C   LIG d   1       4.289  82.716 109.602  0.00  0.00     0.006 C 
ENDBRANCH   8   9
BRANCH   8  11
ATOM     11  C   LIG d   1       1.478  80.372 109.857  0.00  0.00     0.028 C 
ATOM     12  C   LIG d   1       2.533  79.490 109.170  0.00  0.00     0.006 C 
ENDBRANCH   8  11
ENDBRANCH   7   8
ENDBRANCH   1   7
BRANCH   6  13
ATOM     13  N   LIG d   1      -0.937  82.399 111.965  0.00  0.00    -0.311 N 
ATOM     14  C   LIG d   1      -1.102  81.258 112.633  0.00  0.00     0.210 C 
ATOM     15  C   LIG d   1      -2.499  80.640 112.520  0.00  0.00     0.109 C 
ATOM     16  O   LIG d   1      -0.234  80.717 113.333  0.00  0.00    -0.276 OA
ATOM     17  H   LIG d   1      -1.704  82.784 111.449  0.00  0.00     0.149 HD
ENDBRANCH   6  13
BRANCH   5  18
ATOM     18  N   LIG d   1       0.408  83.671 114.396  0.00  0.00     0.381 N 
ATOM     19  H   LIG d   1       0.771  84.343 115.042  0.00  0.00    -0.090 HD
ATOM     20  H   LIG d   1       0.998  82.858 114.421  0.00  0.00    -0.090 HD
ATOM     21  H   LIG d   1      -0.523  83.424 114.650  0.00  0.00    -0.090 HD
ENDBRANCH   5  18
BRANCH   3  22
ATOM     22  C   LIG d   1       2.658  86.658 111.403  0.00  0.00     0.382 C 
ATOM     23  O   LIG d   1       3.896  86.607 111.209  0.00  0.00    -0.241 OA
ATOM     24  O   LIG d   1       2.095  87.766 111.490  0.00  0.00    -0.241 OA
ENDBRANCH   3  22
TORSDOF 7
ENDMDL
MODEL 7
REMARK VINA RESULT:      -5.6      2.437      4.899
REMARK  7 active torsions:
REMARK  status: ('A' for Active; 'I' for Inactive)
REMARK    1  A    between atoms: C_2  and  C_3 
REMARK    2  A    between atoms: C_3  and  O_6 
REMARK    3  A    between atoms: C_3  and  C_4 
REMARK    4  A    between atoms: C_7  and  O_6 
REMARK    5  A    between atoms: C_9  and  C_10 
REMARK    6  A    between atoms: N_15  and  C_14 
REMARK    7  A    between atoms: N_20  and  C_19 
REMARK       I    between atoms: C_22  and  N_20 
ROOT
ATOM      1  C   LIG d   1       2.110  82.937 111.894  0.00  0.00     0.161 C 
ATOM      2  C   LIG d   1       2.045  84.255 112.375  0.00  0.00     0.016 C 
ATOM      3  C   LIG d   1       1.749  85.369 111.556  0.00  0.00     0.038 C 
ATOM      4  C   LIG d   1       1.349  85.221 110.220  0.00  0.00     0.028 C 
ATOM      5  C   LIG d   1       1.891  83.957 109.561  0.00  0.00    -0.047 C 
ATOM      6  C   LIG d   1       1.567  82.743 110.462  0.00  0.00     0.091 C 
ENDROOT
BRANCH   1   7
ATOM      7  O   LIG d   1       1.439  82.048 112.809  0.00  0.00    -0.368 OA
BRANCH   7   8
ATOM      8  C   LIG d   1       0.019  82.275 112.991  0.00  0.00     0.119 C 
BRANCH   8   9
ATOM      9  C   LIG d   1      -0.220  82.525 114.492  0.00  0.00     0.028 C 
ATOM     10  C   LIG d   1      -0.697  83.959 114.779  0.00  0.00     0.006 C 
ENDBRANCH   8   9
BRANCH   8  11
ATOM     11  C   LIG d   1      -0.792  81.020 112.655  0.00  0.00     0.028 C 
ATOM     12  C   LIG d   1      -2.303  81.215 112.863  0.00  0.00     0.006 C 
ENDBRANCH   8  11
ENDBRANCH   7   8
ENDBRANCH   1   7
BRANCH   6  13
ATOM     13  N   LIG d   1       2.136  81.476 109.933  0.00  0.00    -0.311 N 
ATOM     14  C   LIG d   1       1.390  80.476 109.467  0.00  0.00     0.210 C 
ATOM     15  C   LIG d   1       2.176  79.252 108.987  0.00  0.00     0.109 C 
ATOM     16  O   LIG d   1       0.153  80.499 109.375  0.00  0.00    -0.276 OA
ATOM     17  H   LIG d   1       3.133  81.385 109.941  0.00  0.00     0.149 HD
ENDBRANCH   6  13
BRANCH   5  18
ATOM     18  N   LIG d   1       1.285  83.858 108.220  0.00  0.00     0.381 N 
ATOM     19  H   LIG d   1       1.951  83.482 107.574  0.00  0.00    -0.090 HD
ATOM     20  H   LIG d   1       1.031  84.780 107.909  0.00  0.00    -0.090 HD
ATOM     21  H   LIG d   1       0.477  83.276 108.252  0.00  0.00    -0.090 HD
ENDBRANCH   5  18
BRANCH   3  22
ATOM     22  C   LIG d   1       1.893  86.651 112.062  0.00  0.00     0.382 C 
ATOM     23  O   LIG d   1       2.147  87.606 111.289  0.00  0.00    -0.241 OA
ATOM     24  O   LIG d   1       1.816  86.859 113.288  0.00  0.00    -0.241 OA
ENDBRANCH   3  22
TORSDOF 7
ENDMDL
MODEL 8
REMARK VINA RESULT:      -5.6      2.185      4.971
REMARK  7 active torsions:
REMARK  status: ('A' for Active; 'I' for Inactive)
REMARK    1  A    between atoms: C_2  and  C_3 
REMARK    2  A    between atoms: C_3  and  O_6 
REMARK    3  A    between atoms: C_3  and  C_4 
REMARK    4  A    between atoms: C_7  and  O_6 
REMARK    5  A    between atoms: C_9  and  C_10 
REMARK    6  A    between atoms: N_15  and  C_14 
REMARK    7  A    between atoms: N_20  and  C_19 
REMARK       I    between atoms: C_22  and  N_20 
ROOT
ATOM      1  C   LIG d   1       1.833  84.368 111.313  0.00  0.00     0.161 C 
ATOM      2  C   LIG d   1       2.625  85.526 111.253  0.00  0.00     0.016 C 
ATOM      3  C   LIG d   1       2.606  86.533 112.245  0.00  0.00     0.038 C 
ATOM      4  C   LIG d   1       1.901  86.377 113.447  0.00  0.00     0.028 C 
ATOM      5  C   LIG d   1       0.693  85.454 113.325  0.00  0.00    -0.047 C 
ATOM      6  C   LIG d   1       1.140  84.127 112.670  0.00  0.00     0.091 C 
ENDROOT
BRANCH   1   7
ATOM      7  O   LIG d   1       2.619  83.218 110.941  0.00  0.00    -0.368 OA
BRANCH   7   8
ATOM      8  C   LIG d   1       2.154  82.474 109.788  0.00  0.00     0.119 C 
BRANCH   8   9
ATOM      9  C   LIG d   1       2.172  80.979 110.164  0.00  0.00     0.028 C 
ATOM     10  C   LIG d   1       1.090  80.175 109.425  0.00  0.00     0.006 C 
ENDBRANCH   8   9
BRANCH   8  11
ATOM     11  C   LIG d   1       3.123  82.607 108.610  0.00  0.00     0.028 C 
ATOM     12  C   LIG d   1       4.597  82.601 109.047  0.00  0.00     0.006 C 
ENDBRANCH   8  11
ENDBRANCH   7   8
ENDBRANCH   1   7
BRANCH   6  13
ATOM     13  N   LIG d   1       0.003  83.199 112.437  0.00  0.00    -0.311 N 
ATOM     14  C   LIG d   1      -0.075  81.985 112.978  0.00  0.00     0.210 C 
ATOM     15  C   LIG d   1      -1.322  81.183 112.591  0.00  0.00     0.109 C 
ATOM     16  O   LIG d   1       0.754  81.507 113.768  0.00  0.00    -0.276 OA
ATOM     17  H   LIG d   1      -0.730  83.518 111.833  0.00  0.00     0.149 HD
ENDBRANCH   6  13
BRANCH   5  18
ATOM     18  N   LIG d   1       0.133  85.271 114.678  0.00  0.00     0.381 N 
ATOM     19  H   LIG d   1      -0.775  85.688 114.727  0.00  0.00    -0.090 HD
ATOM     20  H   LIG d   1       0.729  85.733 115.341  0.00  0.00    -0.090 HD
ATOM     21  H   LIG d   1       0.073  84.301 114.894  0.00  0.00    -0.090 HD
ENDBRANCH   5  18
BRANCH   3  22
ATOM     22  C   LIG d   1       3.268  87.731 112.021  0.00  0.00     0.382 C 
ATOM     23  O   LIG d   1       2.639  88.815 112.077  0.00  0.00    -0.241 OA
ATOM     24  O   LIG d   1       4.477  87.738 111.720  0.00  0.00    -0.241 OA
ENDBRANCH   3  22
TORSDOF 7
ENDMDL
MODEL 9
REMARK VINA RESULT:      -5.5      3.591      6.386
REMARK  7 active torsions:
REMARK  status: ('A' for Active; 'I' for Inactive)
REMARK    1  A    between atoms: C_2  and  C_3 
REMARK    2  A    between atoms: C_3  and  O_6 
REMARK    3  A    between atoms: C_3  and  C_4 
REMARK    4  A    between atoms: C_7  and  O_6 
REMARK    5  A    between atoms: C_9  and  C_10 
REMARK    6  A    between atoms: N_15  and  C_14 
REMARK    7  A    between atoms: N_20  and  C_19 
REMARK       I    between atoms: C_22  and  N_20 
ROOT
ATOM      1  C   LIG d   1       2.557  85.721 112.954  0.00  0.00     0.161 C 
ATOM      2  C   LIG d   1       1.557  84.751 113.140  0.00  0.00     0.016 C 
ATOM      3  C   LIG d   1       0.593  84.816 114.172  0.00  0.00     0.038 C 
ATOM      4  C   LIG d   1       0.469  85.940 115.002  0.00  0.00     0.028 C 
ATOM      5  C   LIG d   1       1.773  86.711 115.176  0.00  0.00    -0.047 C 
ATOM      6  C   LIG d   1       2.369  87.010 113.781  0.00  0.00     0.091 C 
ENDROOT
BRANCH   1   7
ATOM      7  O   LIG d   1       2.677  86.037 111.553  0.00  0.00    -0.368 OA
BRANCH   7   8
ATOM      8  C   LIG d   1       1.953  85.175 110.641  0.00  0.00     0.119 C 
BRANCH   8   9
ATOM      9  C   LIG d   1       2.990  84.491 109.729  0.00  0.00     0.028 C 
ATOM     10  C   LIG d   1       3.492  83.158 110.308  0.00  0.00     0.006 C 
ENDBRANCH   8   9
BRANCH   8  11
ATOM     11  C   LIG d   1       1.057  85.987 109.700  0.00  0.00     0.028 C 
ATOM     12  C   LIG d   1      -0.440  85.764 109.964  0.00  0.00     0.006 C 
ENDBRANCH   8  11
ENDBRANCH   7   8
ENDBRANCH   1   7
BRANCH   6  13
ATOM     13  N   LIG d   1       3.689  87.689 113.862  0.00  0.00    -0.311 N 
ATOM     14  C   LIG d   1       3.964  88.834 113.240  0.00  0.00     0.210 C 
ATOM     15  C   LIG d   1       5.391  89.352 113.440  0.00  0.00     0.109 C 
ATOM     16  O   LIG d   1       3.151  89.487 112.568  0.00  0.00    -0.276 OA
ATOM     17  H   LIG d   1       4.397  87.244 114.412  0.00  0.00     0.149 HD
ENDBRANCH   6  13
BRANCH   5  18
ATOM     18  N   LIG d   1       1.470  87.930 115.949  0.00  0.00     0.381 N 
ATOM     19  H   LIG d   1       2.304  88.471 116.069  0.00  0.00    -0.090 HD
ATOM     20  H   LIG d   1       1.133  87.664 116.857  0.00  0.00    -0.090 HD
ATOM     21  H   LIG d   1       0.780  88.471 115.475  0.00  0.00    -0.090 HD
ENDBRANCH   5  18
BRANCH   3  22
ATOM     22  C   LIG d   1      -0.235  83.729 114.407  0.00  0.00     0.382 C 
ATOM     23  O   LIG d   1      -1.368  83.676 113.870  0.00  0.00    -0.241 OA
ATOM     24  O   LIG d   1       0.118  82.822 115.185  0.00  0.00    -0.241 OA
ENDBRANCH   3  22
TORSDOF 7
ENDMDL
