MODEL 1
REMARK VINA RESULT:      -6.8      0.000      0.000
REMARK  7 active torsions:
REMARK  status: ('A' for Active; 'I' for Inactive)
REMARK    1  A    between atoms: C_2  and  C_3 
REMARK    2  A    between atoms: C_3  and  O_6 
REMARK    3  A    between atoms: C_3  and  C_4 
REMARK    4  A    between atoms: C_7  and  O_6 
REMARK    5  A    between atoms: C_9  and  C_10 
REMARK    6  A    between atoms: N_15  and  C_14 
REMARK    7  A    between atoms: N_20  and  C_19 
REMARK       I    between atoms: C_22  and  N_20 
ROOT
ATOM      1  C   LIG d   1       0.948  83.943 109.610  0.00  0.00     0.161 C 
ATOM      2  C   LIG d   1       0.527  85.202 110.068  0.00  0.00     0.016 C 
ATOM      3  C   LIG d   1      -0.330  85.380 111.178  0.00  0.00     0.038 C 
ATOM      4  C   LIG d   1      -0.706  84.309 112.003  0.00  0.00     0.028 C 
ATOM      5  C   LIG d   1      -0.716  82.964 111.284  0.00  0.00    -0.047 C 
ATOM      6  C   LIG d   1       0.638  82.771 110.564  0.00  0.00     0.091 C 
ENDROOT
BRANCH   1   7
ATOM      7  O   LIG d   1       2.356  83.980 109.302  0.00  0.00    -0.368 OA
BRANCH   7   8
ATOM      8  C   LIG d   1       3.256  83.702 110.403  0.00  0.00     0.119 C 
BRANCH   8   9
ATOM      9  C   LIG d   1       3.881  85.041 110.840  0.00  0.00     0.028 C 
ATOM     10  C   LIG d   1       3.519  85.412 112.288  0.00  0.00     0.006 C 
ENDBRANCH   8   9
BRANCH   8  11
ATOM     11  C   LIG d   1       4.434  82.832 109.953  0.00  0.00     0.028 C 
ATOM     12  C   LIG d   1       4.189  82.154 108.595  0.00  0.00     0.006 C 
ENDBRANCH   8  11
ENDBRANCH   7   8
ENDBRANCH   1   7
BRANCH   6  13
ATOM     13  N   LIG d   1       0.682  81.518 109.766  0.00  0.00    -0.311 N 
ATOM     14  C   LIG d   1       1.425  80.463 110.097  0.00  0.00     0.210 C 
ATOM     15  C   LIG d   1       1.339  79.281 109.126  0.00  0.00     0.109 C 
ATOM     16  O   LIG d   1       2.122  80.382 111.119  0.00  0.00    -0.276 OA
ATOM     17  H   LIG d   1       0.122  81.485 108.937  0.00  0.00     0.149 HD
ENDBRANCH   6  13
BRANCH   5  18
ATOM     18  N   LIG d   1      -0.989  81.922 112.291  0.00  0.00     0.381 N 
ATOM     19  H   LIG d   1      -0.622  81.045 111.980  0.00  0.00    -0.090 HD
ATOM     20  H   LIG d   1      -1.984  81.827 112.399  0.00  0.00    -0.090 HD
ATOM     21  H   LIG d   1      -0.576  82.173 113.163  0.00  0.00    -0.090 HD
ENDBRANCH   5  18
BRANCH   3  22
ATOM     22  C   LIG d   1      -0.853  86.635 111.449  0.00  0.00     0.382 C 
ATOM     23  O   LIG d   1      -0.163  87.482 112.065  0.00  0.00    -0.241 OA
ATOM     24  O   LIG d   1      -2.023  86.915 111.124  0.00  0.00    -0.241 OA
ENDBRANCH   3  22
TORSDOF 7
ENDMDL
MODEL 2
REMARK VINA RESULT:      -6.4      2.431      4.738
REMARK  7 active torsions:
REMARK  status: ('A' for Active; 'I' for Inactive)
REMARK    1  A    between atoms: C_2  and  C_3 
REMARK    2  A    between atoms: C_3  and  O_6 
REMARK    3  A    between atoms: C_3  and  C_4 
REMARK    4  A    between atoms: C_7  and  O_6 
REMARK    5  A    between atoms: C_9  and  C_10 
REMARK    6  A    between atoms: N_15  and  C_14 
REMARK    7  A    between atoms: N_20  and  C_19 
REMARK       I    between atoms: C_22  and  N_20 
ROOT
ATOM      1  C   LIG d   1       1.127  81.789 112.113  0.00  0.00     0.161 C 
ATOM      2  C   LIG d   1       2.257  82.323 111.472  0.00  0.00     0.016 C 
ATOM      3  C   LIG d   1       2.513  82.168 110.090  0.00  0.00     0.038 C 
ATOM      4  C   LIG d   1       1.572  81.595 109.221  0.00  0.00     0.028 C 
ATOM      5  C   LIG d   1       0.646  80.595 109.906  0.00  0.00    -0.047 C 
ATOM      6  C   LIG d   1       0.034  81.257 111.162  0.00  0.00     0.091 C 
ENDROOT
BRANCH   1   7
ATOM      7  O   LIG d   1       0.571  82.765 113.017  0.00  0.00    -0.368 OA
BRANCH   7   8
ATOM      8  C   LIG d   1       0.739  84.153 112.637  0.00  0.00     0.119 C 
BRANCH   8   9
ATOM      9  C   LIG d   1       1.080  84.945 113.914  0.00  0.00     0.028 C 
ATOM     10  C   LIG d   1       1.388  86.424 113.624  0.00  0.00     0.006 C 
ENDBRANCH   8   9
BRANCH   8  11
ATOM     11  C   LIG d   1      -0.574  84.754 112.126  0.00  0.00     0.028 C 
ATOM     12  C   LIG d   1      -0.599  84.918 110.598  0.00  0.00     0.006 C 
ENDBRANCH   8  11
ENDBRANCH   7   8
ENDBRANCH   1   7
BRANCH   6  13
ATOM     13  N   LIG d   1      -0.819  80.319 111.938  0.00  0.00    -0.311 N 
ATOM     14  C   LIG d   1      -1.973  80.673 112.501  0.00  0.00     0.210 C 
ATOM     15  C   LIG d   1      -2.685  79.558 113.272  0.00  0.00     0.109 C 
ATOM     16  O   LIG d   1      -2.489  81.797 112.409  0.00  0.00    -0.276 OA
ATOM     17  H   LIG d   1      -0.490  79.378 112.036  0.00  0.00     0.149 HD
ENDBRANCH   6  13
BRANCH   5  18
ATOM     18  N   LIG d   1      -0.369  80.180 108.919  0.00  0.00     0.381 N 
ATOM     19  H   LIG d   1      -0.555  79.202 109.016  0.00  0.00    -0.090 HD
ATOM     20  H   LIG d   1      -0.010  80.343 107.995  0.00  0.00    -0.090 HD
ATOM     21  H   LIG d   1      -1.208  80.700 109.054  0.00  0.00    -0.090 HD
ENDBRANCH   5  18
BRANCH   3  22
ATOM     22  C   LIG d   1       3.739  82.555 109.570  0.00  0.00     0.382 C 
ATOM     23  O   LIG d   1       4.398  83.463 110.130  0.00  0.00    -0.241 OA
ATOM     24  O   LIG d   1       4.173  82.037 108.524  0.00  0.00    -0.241 OA
ENDBRANCH   3  22
TORSDOF 7
ENDMDL
MODEL 3
REMARK VINA RESULT:      -6.2      2.604      4.743
REMARK  7 active torsions:
REMARK  status: ('A' for Active; 'I' for Inactive)
REMARK    1  A    between atoms: C_2  and  C_3 
REMARK    2  A    between atoms: C_3  and  O_6 
REMARK    3  A    between atoms: C_3  and  C_4 
REMARK    4  A    between atoms: C_7  and  O_6 
REMARK    5  A    between atoms: C_9  and  C_10 
REMARK    6  A    between atoms: N_15  and  C_14 
REMARK    7  A    between atoms: N_20  and  C_19 
REMARK       I    between atoms: C_22  and  N_20 
ROOT
ATOM      1  C   LIG d   1       2.035  83.036 112.128  0.00  0.00     0.161 C 
ATOM      2  C   LIG d   1       0.964  82.131 112.056  0.00  0.00     0.016 C 
ATOM      3  C   LIG d   1      -0.392  82.531 112.026  0.00  0.00     0.038 C 
ATOM      4  C   LIG d   1      -0.766  83.878 111.913  0.00  0.00     0.028 C 
ATOM      5  C   LIG d   1       0.265  84.843 112.490  0.00  0.00    -0.047 C 
ATOM      6  C   LIG d   1       1.652  84.512 111.893  0.00  0.00     0.091 C 
ENDROOT
BRANCH   1   7
ATOM      7  O   LIG d   1       3.075  82.637 111.212  0.00  0.00    -0.368 OA
BRANCH   7   8
ATOM      8  C   LIG d   1       2.638  81.955 110.011  0.00  0.00     0.119 C 
BRANCH   8   9
ATOM      9  C   LIG d   1       3.463  80.659 109.889  0.00  0.00     0.028 C 
ATOM     10  C   LIG d   1       2.577  79.415 109.710  0.00  0.00     0.006 C 
ENDBRANCH   8   9
BRANCH   8  11
ATOM     11  C   LIG d   1       2.972  82.767 108.756  0.00  0.00     0.028 C 
ATOM     12  C   LIG d   1       1.754  82.984 107.845  0.00  0.00     0.006 C 
ENDBRANCH   8  11
ENDBRANCH   7   8
ENDBRANCH   1   7
BRANCH   6  13
ATOM     13  N   LIG d   1       2.732  85.355 112.469  0.00  0.00    -0.311 N 
ATOM     14  C   LIG d   1       3.083  86.539 111.971  0.00  0.00     0.210 C 
ATOM     15  C   LIG d   1       4.234  87.234 112.704  0.00  0.00     0.109 C 
ATOM     16  O   LIG d   1       2.528  87.095 111.011  0.00  0.00    -0.276 OA
ATOM     17  H   LIG d   1       3.214  84.995 113.269  0.00  0.00     0.149 HD
ENDBRANCH   6  13
BRANCH   5  18
ATOM     18  N   LIG d   1      -0.186  86.213 112.183  0.00  0.00     0.381 N 
ATOM     19  H   LIG d   1       0.249  86.861 112.808  0.00  0.00    -0.090 HD
ATOM     20  H   LIG d   1      -1.181  86.266 112.316  0.00  0.00    -0.090 HD
ATOM     21  H   LIG d   1       0.043  86.444 111.241  0.00  0.00    -0.090 HD
ENDBRANCH   5  18
BRANCH   3  22
ATOM     22  C   LIG d   1      -1.392  81.578 112.149  0.00  0.00     0.382 C 
ATOM     23  O   LIG d   1      -1.141  80.371 111.917  0.00  0.00    -0.241 OA
ATOM     24  O   LIG d   1      -2.553  81.916 112.447  0.00  0.00    -0.241 OA
ENDBRANCH   3  22
TORSDOF 7
ENDMDL
MODEL 4
REMARK VINA RESULT:      -5.9      2.463      4.201
REMARK  7 active torsions:
REMARK  status: ('A' for Active; 'I' for Inactive)
REMARK    1  A    between atoms: C_2  and  C_3 
REMARK    2  A    between atoms: C_3  and  O_6 
REMARK    3  A    between atoms: C_3  and  C_4 
REMARK    4  A    between atoms: C_7  and  O_6 
REMARK    5  A    between atoms: C_9  and  C_10 
REMARK    6  A    between atoms: N_15  and  C_14 
REMARK    7  A    between atoms: N_20  and  C_19 
REMARK       I    between atoms: C_22  and  N_20 
ROOT
ATOM      1  C   LIG d   1       0.232  82.700 111.187  0.00  0.00     0.161 C 
ATOM      2  C   LIG d   1      -0.884  82.431 111.997  0.00  0.00     0.016 C 
ATOM      3  C   LIG d   1      -1.338  81.124 112.289  0.00  0.00     0.038 C 
ATOM      4  C   LIG d   1      -0.610  79.986 111.912  0.00  0.00     0.028 C 
ATOM      5  C   LIG d   1       0.245  80.198 110.667  0.00  0.00    -0.047 C 
ATOM      6  C   LIG d   1       1.103  81.469 110.859  0.00  0.00     0.091 C 
ENDROOT
BRANCH   1   7
ATOM      7  O   LIG d   1       1.034  83.735 111.789  0.00  0.00    -0.368 OA
BRANCH   7   8
ATOM      8  C   LIG d   1       1.088  84.995 111.075  0.00  0.00     0.119 C 
BRANCH   8   9
ATOM      9  C   LIG d   1       2.573  85.369 110.906  0.00  0.00     0.028 C 
ATOM     10  C   LIG d   1       2.957  86.624 111.708  0.00  0.00     0.006 C 
ENDBRANCH   8   9
BRANCH   8  11
ATOM     11  C   LIG d   1       0.476  86.130 111.902  0.00  0.00     0.028 C 
ATOM     12  C   LIG d   1      -0.996  86.398 111.549  0.00  0.00     0.006 C 
ENDBRANCH   8  11
ENDBRANCH   7   8
ENDBRANCH   1   7
BRANCH   6  13
ATOM     13  N   LIG d   1       1.908  81.797 109.653  0.00  0.00    -0.311 N 
ATOM     14  C   LIG d   1       3.226  81.983 109.680  0.00  0.00     0.210 C 
ATOM     15  C   LIG d   1       3.858  82.332 108.328  0.00  0.00     0.109 C 
ATOM     16  O   LIG d   1       3.937  81.860 110.688  0.00  0.00    -0.276 OA
ATOM     17  H   LIG d   1       1.415  81.884 108.786  0.00  0.00     0.149 HD
ENDBRANCH   6  13
BRANCH   5  18
ATOM     18  N   LIG d   1       1.052  78.980 110.468  0.00  0.00     0.381 N 
ATOM     19  H   LIG d   1       1.413  78.961 109.535  0.00  0.00    -0.090 HD
ATOM     20  H   LIG d   1       0.464  78.175 110.595  0.00  0.00    -0.090 HD
ATOM     21  H   LIG d   1       1.803  78.958 111.122  0.00  0.00    -0.090 HD
ENDBRANCH   5  18
BRANCH   3  22
ATOM     22  C   LIG d   1      -2.553  80.946 112.932  0.00  0.00     0.382 C 
ATOM     23  O   LIG d   1      -3.513  81.714 112.681  0.00  0.00    -0.241 OA
ATOM     24  O   LIG d   1      -2.688  80.056 113.792  0.00  0.00    -0.241 OA
ENDBRANCH   3  22
TORSDOF 7
ENDMDL
MODEL 5
REMARK VINA RESULT:      -5.6      2.171      3.150
REMARK  7 active torsions:
REMARK  status: ('A' for Active; 'I' for Inactive)
REMARK    1  A    between atoms: C_2  and  C_3 
REMARK    2  A    between atoms: C_3  and  O_6 
REMARK    3  A    between atoms: C_3  and  C_4 
REMARK    4  A    between atoms: C_7  and  O_6 
REMARK    5  A    between atoms: C_9  and  C_10 
REMARK    6  A    between atoms: N_15  and  C_14 
REMARK    7  A    between atoms: N_20  and  C_19 
REMARK       I    between atoms: C_22  and  N_20 
ROOT
ATOM      1  C   LIG d   1       0.361  84.165 111.444  0.00  0.00     0.161 C 
ATOM      2  C   LIG d   1       0.928  85.446 111.559  0.00  0.00     0.016 C 
ATOM      3  C   LIG d   1       1.834  85.806 112.583  0.00  0.00     0.038 C 
ATOM      4  C   LIG d   1       2.356  84.861 113.478  0.00  0.00     0.028 C 
ATOM      5  C   LIG d   1       1.429  83.673 113.713  0.00  0.00    -0.047 C 
ATOM      6  C   LIG d   1       1.004  83.090 112.345  0.00  0.00     0.091 C 
ENDROOT
BRANCH   1   7
ATOM      7  O   LIG d   1       0.385  83.743 110.066  0.00  0.00    -0.368 OA
BRANCH   7   8
ATOM      8  C   LIG d   1       1.542  84.149 109.295  0.00  0.00     0.119 C 
BRANCH   8   9
ATOM      9  C   LIG d   1       1.051  84.508 107.878  0.00  0.00     0.028 C 
ATOM     10  C   LIG d   1       1.432  83.442 106.838  0.00  0.00     0.006 C 
ENDBRANCH   8   9
BRANCH   8  11
ATOM     11  C   LIG d   1       2.520  82.987 109.103  0.00  0.00     0.028 C 
ATOM     12  C   LIG d   1       3.789  83.129 109.957  0.00  0.00     0.006 C 
ENDBRANCH   8  11
ENDBRANCH   7   8
ENDBRANCH   1   7
BRANCH   6  13
ATOM     13  N   LIG d   1       0.029  81.977 112.482  0.00  0.00    -0.311 N 
ATOM     14  C   LIG d   1       0.203  80.779 111.926  0.00  0.00     0.210 C 
ATOM     15  C   LIG d   1      -0.933  79.780 112.174  0.00  0.00     0.109 C 
ATOM     16  O   LIG d   1       1.204  80.437 111.278  0.00  0.00    -0.276 OA
ATOM     17  H   LIG d   1      -0.797  82.157 113.018  0.00  0.00     0.149 HD
ENDBRANCH   6  13
BRANCH   5  18
ATOM     18  N   LIG d   1       2.153  82.702 114.555  0.00  0.00     0.381 N 
ATOM     19  H   LIG d   1       3.080  83.033 114.733  0.00  0.00    -0.090 HD
ATOM     20  H   LIG d   1       2.219  81.829 114.061  0.00  0.00    -0.090 HD
ATOM     21  H   LIG d   1       1.669  82.569 115.416  0.00  0.00    -0.090 HD
ENDBRANCH   5  18
BRANCH   3  22
ATOM     22  C   LIG d   1       2.197  87.135 112.743  0.00  0.00     0.382 C 
ATOM     23  O   LIG d   1       1.690  87.817 113.666  0.00  0.00    -0.241 OA
ATOM     24  O   LIG d   1       2.992  87.673 111.948  0.00  0.00    -0.241 OA
ENDBRANCH   3  22
TORSDOF 7
ENDMDL
MODEL 6
REMARK VINA RESULT:      -5.5      2.195      2.998
REMARK  7 active torsions:
REMARK  status: ('A' for Active; 'I' for Inactive)
REMARK    1  A    between atoms: C_2  and  C_3 
REMARK    2  A    between atoms: C_3  and  O_6 
REMARK    3  A    between atoms: C_3  and  C_4 
REMARK    4  A    between atoms: C_7  and  O_6 
REMARK    5  A    between atoms: C_9  and  C_10 
REMARK    6  A    between atoms: N_15  and  C_14 
REMARK    7  A    between atoms: N_20  and  C_19 
REMARK       I    between atoms: C_22  and  N_20 
ROOT
ATOM      1  C   LIG d   1       0.740  82.496 110.764  0.00  0.00     0.161 C 
ATOM      2  C   LIG d   1       0.934  83.862 110.496  0.00  0.00     0.016 C 
ATOM      3  C   LIG d   1       1.303  84.804 111.483  0.00  0.00     0.038 C 
ATOM      4  C   LIG d   1       1.655  84.415 112.784  0.00  0.00     0.028 C 
ATOM      5  C   LIG d   1       0.987  83.118 113.230  0.00  0.00    -0.047 C 
ATOM      6  C   LIG d   1       1.227  82.035 112.154  0.00  0.00     0.091 C 
ENDROOT
BRANCH   1   7
ATOM      7  O   LIG d   1       1.355  81.703 109.729  0.00  0.00    -0.368 OA
BRANCH   7   8
ATOM      8  C   LIG d   1       2.706  81.250 109.991  0.00  0.00     0.119 C 
BRANCH   8   9
ATOM      9  C   LIG d   1       3.648  82.038 109.061  0.00  0.00     0.028 C 
ATOM     10  C   LIG d   1       4.467  83.098 109.816  0.00  0.00     0.006 C 
ENDBRANCH   8   9
BRANCH   8  11
ATOM     11  C   LIG d   1       2.886  79.780 109.600  0.00  0.00     0.028 C 
ATOM     12  C   LIG d   1       1.574  78.982 109.660  0.00  0.00     0.006 C 
ENDBRANCH   8  11
ENDBRANCH   7   8
ENDBRANCH   1   7
BRANCH   6  13
ATOM     13  N   LIG d   1       0.536  80.758 112.471  0.00  0.00    -0.311 N 
ATOM     14  C   LIG d   1      -0.789  80.633 112.515  0.00  0.00     0.210 C 
ATOM     15  C   LIG d   1      -1.295  79.234 112.882  0.00  0.00     0.109 C 
ATOM     16  O   LIG d   1      -1.594  81.539 112.255  0.00  0.00    -0.276 OA
ATOM     17  H   LIG d   1       1.113  79.963 112.665  0.00  0.00     0.149 HD
ENDBRANCH   6  13
BRANCH   5  18
ATOM     18  N   LIG d   1       1.547  82.759 114.547  0.00  0.00     0.381 N 
ATOM     19  H   LIG d   1       1.705  83.587 115.085  0.00  0.00    -0.090 HD
ATOM     20  H   LIG d   1       2.429  82.298 114.410  0.00  0.00    -0.090 HD
ATOM     21  H   LIG d   1       0.920  82.154 115.030  0.00  0.00    -0.090 HD
ENDBRANCH   5  18
BRANCH   3  22
ATOM     22  C   LIG d   1       1.286  86.157 111.182  0.00  0.00     0.382 C 
ATOM     23  O   LIG d   1       2.293  86.697 110.664  0.00  0.00    -0.241 OA
ATOM     24  O   LIG d   1       0.293  86.854 111.464  0.00  0.00    -0.241 OA
ENDBRANCH   3  22
TORSDOF 7
ENDMDL
MODEL 7
REMARK VINA RESULT:      -5.5      2.509      4.828
REMARK  7 active torsions:
REMARK  status: ('A' for Active; 'I' for Inactive)
REMARK    1  A    between atoms: C_2  and  C_3 
REMARK    2  A    between atoms: C_3  and  O_6 
REMARK    3  A    between atoms: C_3  and  C_4 
REMARK    4  A    between atoms: C_7  and  O_6 
REMARK    5  A    between atoms: C_9  and  C_10 
REMARK    6  A    between atoms: N_15  and  C_14 
REMARK    7  A    between atoms: N_20  and  C_19 
REMARK       I    between atoms: C_22  and  N_20 
ROOT
ATOM      1  C   LIG d   1       0.573  82.299 111.366  0.00  0.00     0.161 C 
ATOM      2  C   LIG d   1       1.247  82.796 110.239  0.00  0.00     0.016 C 
ATOM      3  C   LIG d   1       1.663  81.984 109.159  0.00  0.00     0.038 C 
ATOM      4  C   LIG d   1       1.297  80.633 109.064  0.00  0.00     0.028 C 
ATOM      5  C   LIG d   1       1.053  79.975 110.418  0.00  0.00    -0.047 C 
ATOM      6  C   LIG d   1       0.068  80.847 111.229  0.00  0.00     0.091 C 
ENDROOT
BRANCH   1   7
ATOM      7  O   LIG d   1      -0.515  83.178 111.712  0.00  0.00    -0.368 OA
BRANCH   7   8
ATOM      8  C   LIG d   1      -0.173  84.324 112.530  0.00  0.00     0.119 C 
BRANCH   8   9
ATOM      9  C   LIG d   1       0.025  85.525 111.584  0.00  0.00     0.028 C 
ATOM     10  C   LIG d   1      -1.041  86.615 111.788  0.00  0.00     0.006 C 
ENDBRANCH   8   9
BRANCH   8  11
ATOM     11  C   LIG d   1       1.177  84.130 113.225  0.00  0.00     0.028 C 
ATOM     12  C   LIG d   1       1.290  84.920 114.539  0.00  0.00     0.006 C 
ENDBRANCH   8  11
ENDBRANCH   7   8
ENDBRANCH   1   7
BRANCH   6  13
ATOM     13  N   LIG d   1      -0.161  80.319 112.599  0.00  0.00    -0.311 N 
ATOM     14  C   LIG d   1      -1.200  79.552 112.925  0.00  0.00     0.210 C 
ATOM     15  C   LIG d   1      -1.257  79.133 114.398  0.00  0.00     0.109 C 
ATOM     16  O   LIG d   1      -2.062  79.152 112.128  0.00  0.00    -0.276 OA
ATOM     17  H   LIG d   1       0.507  80.569 113.302  0.00  0.00     0.149 HD
ENDBRANCH   6  13
BRANCH   5  18
ATOM     18  N   LIG d   1       0.546  78.612 110.166  0.00  0.00     0.381 N 
ATOM     19  H   LIG d   1       0.380  78.488 109.188  0.00  0.00    -0.090 HD
ATOM     20  H   LIG d   1      -0.326  78.495 110.651  0.00  0.00    -0.090 HD
ATOM     21  H   LIG d   1       1.206  77.939 110.487  0.00  0.00    -0.090 HD
ENDBRANCH   5  18
BRANCH   3  22
ATOM     22  C   LIG d   1       2.489  82.513 108.179  0.00  0.00     0.382 C 
ATOM     23  O   LIG d   1       1.993  82.966 107.119  0.00  0.00    -0.241 OA
ATOM     24  O   LIG d   1       3.726  82.502 108.321  0.00  0.00    -0.241 OA
ENDBRANCH   3  22
TORSDOF 7
ENDMDL
MODEL 8
REMARK VINA RESULT:      -5.2      2.319      5.362
REMARK  7 active torsions:
REMARK  status: ('A' for Active; 'I' for Inactive)
REMARK    1  A    between atoms: C_2  and  C_3 
REMARK    2  A    between atoms: C_3  and  O_6 
REMARK    3  A    between atoms: C_3  and  C_4 
REMARK    4  A    between atoms: C_7  and  O_6 
REMARK    5  A    between atoms: C_9  and  C_10 
REMARK    6  A    between atoms: N_15  and  C_14 
REMARK    7  A    between atoms: N_20  and  C_19 
REMARK       I    between atoms: C_22  and  N_20 
ROOT
ATOM      1  C   LIG d   1       2.200  83.279 110.770  0.00  0.00     0.161 C 
ATOM      2  C   LIG d   1       1.723  82.186 110.028  0.00  0.00     0.016 C 
ATOM      3  C   LIG d   1       1.165  81.029 110.618  0.00  0.00     0.038 C 
ATOM      4  C   LIG d   1       0.906  80.950 111.995  0.00  0.00     0.028 C 
ATOM      5  C   LIG d   1       1.833  81.822 112.836  0.00  0.00    -0.047 C 
ATOM      6  C   LIG d   1       1.825  83.259 112.267  0.00  0.00     0.091 C 
ENDROOT
BRANCH   1   7
ATOM      7  O   LIG d   1       1.765  84.511 110.161  0.00  0.00    -0.368 OA
BRANCH   7   8
ATOM      8  C   LIG d   1       0.401  84.532 109.672  0.00  0.00     0.119 C 
BRANCH   8   9
ATOM      9  C   LIG d   1       0.317  85.621 108.584  0.00  0.00     0.028 C 
ATOM     10  C   LIG d   1       0.813  85.123 107.216  0.00  0.00     0.006 C 
ENDBRANCH   8   9
BRANCH   8  11
ATOM     11  C   LIG d   1      -0.576  84.975 110.765  0.00  0.00     0.028 C 
ATOM     12  C   LIG d   1      -0.219  86.344 111.365  0.00  0.00     0.006 C 
ENDBRANCH   8  11
ENDBRANCH   7   8
ENDBRANCH   1   7
BRANCH   6  13
ATOM     13  N   LIG d   1       2.770  84.156 112.980  0.00  0.00    -0.311 N 
ATOM     14  C   LIG d   1       2.404  84.969 113.970  0.00  0.00     0.210 C 
ATOM     15  C   LIG d   1       3.532  85.825 114.555  0.00  0.00     0.109 C 
ATOM     16  O   LIG d   1       1.259  85.039 114.440  0.00  0.00    -0.276 OA
ATOM     17  H   LIG d   1       3.726  84.141 112.683  0.00  0.00     0.149 HD
ENDBRANCH   6  13
BRANCH   5  18
ATOM     18  N   LIG d   1       1.364  81.751 114.233  0.00  0.00     0.381 N 
ATOM     19  H   LIG d   1       1.869  82.409 114.793  0.00  0.00    -0.090 HD
ATOM     20  H   LIG d   1       1.545  80.829 114.590  0.00  0.00    -0.090 HD
ATOM     21  H   LIG d   1       0.388  81.946 114.276  0.00  0.00    -0.090 HD
ENDBRANCH   5  18
BRANCH   3  22
ATOM     22  C   LIG d   1       0.896  79.919 109.833  0.00  0.00     0.382 C 
ATOM     23  O   LIG d   1      -0.242  79.770 109.325  0.00  0.00    -0.241 OA
ATOM     24  O   LIG d   1       1.763  79.041 109.663  0.00  0.00    -0.241 OA
ENDBRANCH   3  22
TORSDOF 7
ENDMDL
MODEL 9
REMARK VINA RESULT:      -4.8      2.455      4.888
REMARK  7 active torsions:
REMARK  status: ('A' for Active; 'I' for Inactive)
REMARK    1  A    between atoms: C_2  and  C_3 
REMARK    2  A    between atoms: C_3  and  O_6 
REMARK    3  A    between atoms: C_3  and  C_4 
REMARK    4  A    between atoms: C_7  and  O_6 
REMARK    5  A    between atoms: C_9  and  C_10 
REMARK    6  A    between atoms: N_15  and  C_14 
REMARK    7  A    between atoms: N_20  and  C_19 
REMARK       I    between atoms: C_22  and  N_20 
ROOT
ATOM      1  C   LIG d   1       1.096  81.415 110.300  0.00  0.00     0.161 C 
ATOM      2  C   LIG d   1       0.194  80.338 110.326  0.00  0.00     0.016 C 
ATOM      3  C   LIG d   1      -0.394  79.845 111.514  0.00  0.00     0.038 C 
ATOM      4  C   LIG d   1      -0.235  80.495 112.746  0.00  0.00     0.028 C 
ATOM      5  C   LIG d   1       1.068  81.282 112.851  0.00  0.00    -0.047 C 
ATOM      6  C   LIG d   1       1.196  82.207 111.620  0.00  0.00     0.091 C 
ENDROOT
BRANCH   1   7
ATOM      7  O   LIG d   1       0.771  82.298 109.208  0.00  0.00    -0.368 OA
BRANCH   7   8
ATOM      8  C   LIG d   1       1.820  83.205 108.788  0.00  0.00     0.119 C 
BRANCH   8   9
ATOM      9  C   LIG d   1       1.170  84.288 107.906  0.00  0.00     0.028 C 
ATOM     10  C   LIG d   1       0.556  85.429 108.734  0.00  0.00     0.006 C 
ENDBRANCH   8   9
BRANCH   8  11
ATOM     11  C   LIG d   1       2.836  82.501 107.884  0.00  0.00     0.028 C 
ATOM     12  C   LIG d   1       4.174  82.229 108.589  0.00  0.00     0.006 C 
ENDBRANCH   8  11
ENDBRANCH   7   8
ENDBRANCH   1   7
BRANCH   6  13
ATOM     13  N   LIG d   1       2.482  82.951 111.601  0.00  0.00    -0.311 N 
ATOM     14  C   LIG d   1       2.607  84.210 112.020  0.00  0.00     0.210 C 
ATOM     15  C   LIG d   1       4.018  84.795 111.896  0.00  0.00     0.109 C 
ATOM     16  O   LIG d   1       1.692  84.886 112.513  0.00  0.00    -0.276 OA
ATOM     17  H   LIG d   1       3.284  82.468 111.247  0.00  0.00     0.149 HD
ENDBRANCH   6  13
BRANCH   5  18
ATOM     18  N   LIG d   1       1.040  82.020 114.129  0.00  0.00     0.381 N 
ATOM     19  H   LIG d   1       1.965  82.078 114.506  0.00  0.00    -0.090 HD
ATOM     20  H   LIG d   1       0.465  81.518 114.782  0.00  0.00    -0.090 HD
ATOM     21  H   LIG d   1       0.673  82.935 113.986  0.00  0.00    -0.090 HD
ENDBRANCH   5  18
BRANCH   3  22
ATOM     22  C   LIG d   1      -1.120  78.663 111.481  0.00  0.00     0.382 C 
ATOM     23  O   LIG d   1      -0.881  77.804 110.599  0.00  0.00    -0.241 OA
ATOM     24  O   LIG d   1      -2.040  78.465 112.297  0.00  0.00    -0.241 OA
ENDBRANCH   3  22
TORSDOF 7
ENDMDL
