MODEL 1
REMARK VINA RESULT:      -5.9      0.000      0.000
REMARK  7 active torsions:
REMARK  status: ('A' for Active; 'I' for Inactive)
REMARK    1  A    between atoms: C_2  and  C_3 
REMARK    2  A    between atoms: C_3  and  O_6 
REMARK    3  A    between atoms: C_3  and  C_4 
REMARK    4  A    between atoms: C_7  and  O_6 
REMARK    5  A    between atoms: C_9  and  C_10 
REMARK    6  A    between atoms: N_15  and  C_14 
REMARK    7  A    between atoms: N_20  and  C_19 
REMARK       I    between atoms: C_22  and  N_20 
ROOT
ATOM      1  C   LIG d   1       2.403  85.504 111.464  0.00  0.00     0.161 C 
ATOM      2  C   LIG d   1       2.578  86.828 111.898  0.00  0.00     0.016 C 
ATOM      3  C   LIG d   1       3.720  87.270 112.605  0.00  0.00     0.038 C 
ATOM      4  C   LIG d   1       4.840  86.447 112.794  0.00  0.00     0.028 C 
ATOM      5  C   LIG d   1       4.502  84.960 112.816  0.00  0.00    -0.047 C 
ATOM      6  C   LIG d   1       3.662  84.618 111.564  0.00  0.00     0.091 C 
ENDROOT
BRANCH   1   7
ATOM      7  O   LIG d   1       1.890  85.495 110.117  0.00  0.00    -0.368 OA
BRANCH   7   8
ATOM      8  C   LIG d   1       0.586  84.890 109.935  0.00  0.00     0.119 C 
BRANCH   8   9
ATOM      9  C   LIG d   1      -0.362  85.983 109.405  0.00  0.00     0.028 C 
ATOM     10  C   LIG d   1      -1.043  86.769 110.539  0.00  0.00     0.006 C 
ENDBRANCH   8   9
BRANCH   8  11
ATOM     11  C   LIG d   1      -0.014  84.446 111.273  0.00  0.00     0.028 C 
ATOM     12  C   LIG d   1      -0.348  82.946 111.308  0.00  0.00     0.006 C 
ENDBRANCH   8  11
ENDBRANCH   7   8
ENDBRANCH   1   7
BRANCH   6  13
ATOM     13  N   LIG d   1       3.217  83.200 111.550  0.00  0.00    -0.311 N 
ATOM     14  C   LIG d   1       3.417  82.379 110.520  0.00  0.00     0.210 C 
ATOM     15  C   LIG d   1       2.861  80.964 110.705  0.00  0.00     0.109 C 
ATOM     16  O   LIG d   1       4.030  82.679 109.485  0.00  0.00    -0.276 OA
ATOM     17  H   LIG d   1       2.739  82.864 112.363  0.00  0.00     0.149 HD
ENDBRANCH   6  13
BRANCH   5  18
ATOM     18  N   LIG d   1       5.773  84.214 112.882  0.00  0.00     0.381 N 
ATOM     19  H   LIG d   1       5.591  83.231 112.843  0.00  0.00    -0.090 HD
ATOM     20  H   LIG d   1       6.224  84.418 113.756  0.00  0.00    -0.090 HD
ATOM     21  H   LIG d   1       6.363  84.480 112.125  0.00  0.00    -0.090 HD
ENDBRANCH   5  18
BRANCH   3  22
ATOM     22  C   LIG d   1       3.733  88.538 113.165  0.00  0.00     0.382 C 
ATOM     23  O   LIG d   1       3.016  88.790 114.164  0.00  0.00    -0.241 OA
ATOM     24  O   LIG d   1       4.419  89.446 112.658  0.00  0.00    -0.241 OA
ENDBRANCH   3  22
TORSDOF 7
ENDMDL
MODEL 2
REMARK VINA RESULT:      -5.8      3.432      7.277
REMARK  7 active torsions:
REMARK  status: ('A' for Active; 'I' for Inactive)
REMARK    1  A    between atoms: C_2  and  C_3 
REMARK    2  A    between atoms: C_3  and  O_6 
REMARK    3  A    between atoms: C_3  and  C_4 
REMARK    4  A    between atoms: C_7  and  O_6 
REMARK    5  A    between atoms: C_9  and  C_10 
REMARK    6  A    between atoms: N_15  and  C_14 
REMARK    7  A    between atoms: N_20  and  C_19 
REMARK       I    between atoms: C_22  and  N_20 
ROOT
ATOM      1  C   LIG d   1       1.142  81.446 110.527  0.00  0.00     0.161 C 
ATOM      2  C   LIG d   1       1.136  80.079 110.205  0.00  0.00     0.016 C 
ATOM      3  C   LIG d   1       0.147  79.177 110.659  0.00  0.00     0.038 C 
ATOM      4  C   LIG d   1      -0.995  79.613 111.348  0.00  0.00     0.028 C 
ATOM      5  C   LIG d   1      -0.774  80.905 112.128  0.00  0.00    -0.047 C 
ATOM      6  C   LIG d   1      -0.155  81.961 111.185  0.00  0.00     0.091 C 
ENDROOT
BRANCH   1   7
ATOM      7  O   LIG d   1       1.452  82.224 109.354  0.00  0.00    -0.368 OA
BRANCH   7   8
ATOM      8  C   LIG d   1       2.779  82.803 109.305  0.00  0.00     0.119 C 
BRANCH   8   9
ATOM      9  C   LIG d   1       3.507  82.404 110.604  0.00  0.00     0.028 C 
ATOM     10  C   LIG d   1       4.737  81.519 110.339  0.00  0.00     0.006 C 
ENDBRANCH   8   9
BRANCH   8  11
ATOM     11  C   LIG d   1       2.721  84.333 109.327  0.00  0.00     0.028 C 
ATOM     12  C   LIG d   1       3.476  84.941 110.520  0.00  0.00     0.006 C 
ENDBRANCH   8  11
ENDBRANCH   7   8
ENDBRANCH   1   7
BRANCH   6  13
ATOM     13  N   LIG d   1       0.171  83.229 111.890  0.00  0.00    -0.311 N 
ATOM     14  C   LIG d   1      -0.193  84.430 111.445  0.00  0.00     0.210 C 
ATOM     15  C   LIG d   1       0.262  85.607 112.313  0.00  0.00     0.109 C 
ATOM     16  O   LIG d   1      -0.878  84.630 110.430  0.00  0.00    -0.276 OA
ATOM     17  H   LIG d   1       0.698  83.156 112.739  0.00  0.00     0.149 HD
ENDBRANCH   6  13
BRANCH   5  18
ATOM     18  N   LIG d   1      -2.077  81.318 112.683  0.00  0.00     0.381 N 
ATOM     19  H   LIG d   1      -2.802  80.733 112.318  0.00  0.00    -0.090 HD
ATOM     20  H   LIG d   1      -2.264  82.265 112.403  0.00  0.00    -0.090 HD
ATOM     21  H   LIG d   1      -2.059  81.255 113.678  0.00  0.00    -0.090 HD
ENDBRANCH   5  18
BRANCH   3  22
ATOM     22  C   LIG d   1       0.315  77.815 110.460  0.00  0.00     0.382 C 
ATOM     23  O   LIG d   1      -0.609  77.019 110.754  0.00  0.00    -0.241 OA
ATOM     24  O   LIG d   1       1.395  77.368 110.030  0.00  0.00    -0.241 OA
ENDBRANCH   3  22
TORSDOF 7
ENDMDL
MODEL 3
REMARK VINA RESULT:      -5.8      2.261      4.567
REMARK  7 active torsions:
REMARK  status: ('A' for Active; 'I' for Inactive)
REMARK    1  A    between atoms: C_2  and  C_3 
REMARK    2  A    between atoms: C_3  and  O_6 
REMARK    3  A    between atoms: C_3  and  C_4 
REMARK    4  A    between atoms: C_7  and  O_6 
REMARK    5  A    between atoms: C_9  and  C_10 
REMARK    6  A    between atoms: N_15  and  C_14 
REMARK    7  A    between atoms: N_20  and  C_19 
REMARK       I    between atoms: C_22  and  N_20 
ROOT
ATOM      1  C   LIG d   1       2.687  84.541 109.935  0.00  0.00     0.161 C 
ATOM      2  C   LIG d   1       1.719  85.550 110.073  0.00  0.00     0.016 C 
ATOM      3  C   LIG d   1       0.342  85.287 110.254  0.00  0.00     0.038 C 
ATOM      4  C   LIG d   1      -0.144  83.988 110.462  0.00  0.00     0.028 C 
ATOM      5  C   LIG d   1       0.725  82.907 109.828  0.00  0.00    -0.047 C 
ATOM      6  C   LIG d   1       2.191  83.119 110.270  0.00  0.00     0.091 C 
ENDROOT
BRANCH   1   7
ATOM      7  O   LIG d   1       3.848  84.866 110.725  0.00  0.00    -0.368 OA
BRANCH   7   8
ATOM      8  C   LIG d   1       3.611  85.677 111.902  0.00  0.00     0.119 C 
BRANCH   8   9
ATOM      9  C   LIG d   1       4.581  86.873 111.844  0.00  0.00     0.028 C 
ATOM     10  C   LIG d   1       4.103  88.059 112.698  0.00  0.00     0.006 C 
ENDBRANCH   8   9
BRANCH   8  11
ATOM     11  C   LIG d   1       3.976  84.921 113.183  0.00  0.00     0.028 C 
ATOM     12  C   LIG d   1       5.419  84.390 113.170  0.00  0.00     0.006 C 
ENDBRANCH   8  11
ENDBRANCH   7   8
ENDBRANCH   1   7
BRANCH   6  13
ATOM     13  N   LIG d   1       3.122  82.155 109.628  0.00  0.00    -0.311 N 
ATOM     14  C   LIG d   1       4.010  81.430 110.306  0.00  0.00     0.210 C 
ATOM     15  C   LIG d   1       4.886  80.512 109.448  0.00  0.00     0.109 C 
ATOM     16  O   LIG d   1       4.133  81.436 111.540  0.00  0.00    -0.276 OA
ATOM     17  H   LIG d   1       3.068  82.064 108.632  0.00  0.00     0.149 HD
ENDBRANCH   6  13
BRANCH   5  18
ATOM     18  N   LIG d   1       0.180  81.599 110.238  0.00  0.00     0.381 N 
ATOM     19  H   LIG d   1       0.388  81.433 111.202  0.00  0.00    -0.090 HD
ATOM     20  H   LIG d   1       0.620  80.879 109.692  0.00  0.00    -0.090 HD
ATOM     21  H   LIG d   1      -0.805  81.580 110.094  0.00  0.00    -0.090 HD
ENDBRANCH   5  18
BRANCH   3  22
ATOM     22  C   LIG d   1      -0.571  86.329 110.188  0.00  0.00     0.382 C 
ATOM     23  O   LIG d   1      -0.343  87.401 110.799  0.00  0.00    -0.241 OA
ATOM     24  O   LIG d   1      -1.639  86.195 109.562  0.00  0.00    -0.241 OA
ENDBRANCH   3  22
TORSDOF 7
ENDMDL
MODEL 4
REMARK VINA RESULT:      -5.7      8.975     11.191
REMARK  7 active torsions:
REMARK  status: ('A' for Active; 'I' for Inactive)
REMARK    1  A    between atoms: C_2  and  C_3 
REMARK    2  A    between atoms: C_3  and  O_6 
REMARK    3  A    between atoms: C_3  and  C_4 
REMARK    4  A    between atoms: C_7  and  O_6 
REMARK    5  A    between atoms: C_9  and  C_10 
REMARK    6  A    between atoms: N_15  and  C_14 
REMARK    7  A    between atoms: N_20  and  C_19 
REMARK       I    between atoms: C_22  and  N_20 
ROOT
ATOM      1  C   LIG d   1      -2.837  77.386 116.187  0.00  0.00     0.161 C 
ATOM      2  C   LIG d   1      -3.162  78.265 115.140  0.00  0.00     0.016 C 
ATOM      3  C   LIG d   1      -2.356  78.440 113.991  0.00  0.00     0.038 C 
ATOM      4  C   LIG d   1      -1.240  77.629 113.740  0.00  0.00     0.028 C 
ATOM      5  C   LIG d   1      -0.592  77.080 115.006  0.00  0.00    -0.047 C 
ATOM      6  C   LIG d   1      -1.681  76.413 115.878  0.00  0.00     0.091 C 
ENDROOT
BRANCH   1   7
ATOM      7  O   LIG d   1      -4.011  76.656 116.594  0.00  0.00    -0.368 OA
BRANCH   7   8
ATOM      8  C   LIG d   1      -5.167  76.774 115.728  0.00  0.00     0.119 C 
BRANCH   8   9
ATOM      9  C   LIG d   1      -6.381  77.101 116.619  0.00  0.00     0.028 C 
ATOM     10  C   LIG d   1      -6.216  78.432 117.371  0.00  0.00     0.006 C 
ENDBRANCH   8   9
BRANCH   8  11
ATOM     11  C   LIG d   1      -5.502  75.436 115.061  0.00  0.00     0.028 C 
ATOM     12  C   LIG d   1      -6.525  75.577 113.923  0.00  0.00     0.006 C 
ENDBRANCH   8  11
ENDBRANCH   7   8
ENDBRANCH   1   7
BRANCH   6  13
ATOM     13  N   LIG d   1      -1.147  75.923 117.175  0.00  0.00    -0.311 N 
ATOM     14  C   LIG d   1      -1.298  74.671 117.605  0.00  0.00     0.210 C 
ATOM     15  C   LIG d   1      -0.687  74.381 118.979  0.00  0.00     0.109 C 
ATOM     16  O   LIG d   1      -1.853  73.766 116.964  0.00  0.00    -0.276 OA
ATOM     17  H   LIG d   1      -0.656  76.584 117.745  0.00  0.00     0.149 HD
ENDBRANCH   6  13
BRANCH   5  18
ATOM     18  N   LIG d   1       0.471  76.144 114.593  0.00  0.00     0.381 N 
ATOM     19  H   LIG d   1       1.366  76.574 114.714  0.00  0.00    -0.090 HD
ATOM     20  H   LIG d   1       0.354  75.928 113.619  0.00  0.00    -0.090 HD
ATOM     21  H   LIG d   1       0.420  75.309 115.134  0.00  0.00    -0.090 HD
ENDBRANCH   5  18
BRANCH   3  22
ATOM     22  C   LIG d   1      -2.643  79.461 113.099  0.00  0.00     0.382 C 
ATOM     23  O   LIG d   1      -2.371  79.326 111.882  0.00  0.00    -0.241 OA
ATOM     24  O   LIG d   1      -3.130  80.534 113.503  0.00  0.00    -0.241 OA
ENDBRANCH   3  22
TORSDOF 7
ENDMDL
MODEL 5
REMARK VINA RESULT:      -5.5      2.912      6.645
REMARK  7 active torsions:
REMARK  status: ('A' for Active; 'I' for Inactive)
REMARK    1  A    between atoms: C_2  and  C_3 
REMARK    2  A    between atoms: C_3  and  O_6 
REMARK    3  A    between atoms: C_3  and  C_4 
REMARK    4  A    between atoms: C_7  and  O_6 
REMARK    5  A    between atoms: C_9  and  C_10 
REMARK    6  A    between atoms: N_15  and  C_14 
REMARK    7  A    between atoms: N_20  and  C_19 
REMARK       I    between atoms: C_22  and  N_20 
ROOT
ATOM      1  C   LIG d   1       2.011  82.703 111.287  0.00  0.00     0.161 C 
ATOM      2  C   LIG d   1       2.462  81.596 110.548  0.00  0.00     0.016 C 
ATOM      3  C   LIG d   1       1.686  80.434 110.336  0.00  0.00     0.038 C 
ATOM      4  C   LIG d   1       0.340  80.360 110.724  0.00  0.00     0.028 C 
ATOM      5  C   LIG d   1       0.002  81.254 111.912  0.00  0.00    -0.047 C 
ATOM      6  C   LIG d   1       0.505  82.686 111.622  0.00  0.00     0.091 C 
ENDROOT
BRANCH   1   7
ATOM      7  O   LIG d   1       2.358  83.922 110.600  0.00  0.00    -0.368 OA
BRANCH   7   8
ATOM      8  C   LIG d   1       3.522  84.626 111.100  0.00  0.00     0.119 C 
BRANCH   8   9
ATOM      9  C   LIG d   1       3.900  83.993 112.453  0.00  0.00     0.028 C 
ATOM     10  C   LIG d   1       5.325  83.414 112.452  0.00  0.00     0.006 C 
ENDBRANCH   8   9
BRANCH   8  11
ATOM     11  C   LIG d   1       3.196  86.089 111.414  0.00  0.00     0.028 C 
ATOM     12  C   LIG d   1       4.442  86.914 111.771  0.00  0.00     0.006 C 
ENDBRANCH   8  11
ENDBRANCH   7   8
ENDBRANCH   1   7
BRANCH   6  13
ATOM     13  N   LIG d   1       0.290  83.606 112.769  0.00  0.00    -0.311 N 
ATOM     14  C   LIG d   1      -0.399  84.743 112.678  0.00  0.00     0.210 C 
ATOM     15  C   LIG d   1      -0.484  85.553 113.976  0.00  0.00     0.109 C 
ATOM     16  O   LIG d   1      -0.974  85.141 111.655  0.00  0.00    -0.276 OA
ATOM     17  H   LIG d   1       0.695  83.344 113.646  0.00  0.00     0.149 HD
ENDBRANCH   6  13
BRANCH   5  18
ATOM     18  N   LIG d   1      -1.457  81.185 112.121  0.00  0.00     0.381 N 
ATOM     19  H   LIG d   1      -1.816  82.100 112.307  0.00  0.00    -0.090 HD
ATOM     20  H   LIG d   1      -1.644  80.605 112.920  0.00  0.00    -0.090 HD
ATOM     21  H   LIG d   1      -1.899  80.804 111.314  0.00  0.00    -0.090 HD
ENDBRANCH   5  18
BRANCH   3  22
ATOM     22  C   LIG d   1       2.269  79.313 109.766  0.00  0.00     0.382 C 
ATOM     23  O   LIG d   1       3.518  79.239 109.663  0.00  0.00    -0.241 OA
ATOM     24  O   LIG d   1       1.561  78.394 109.312  0.00  0.00    -0.241 OA
ENDBRANCH   3  22
TORSDOF 7
ENDMDL
MODEL 6
REMARK VINA RESULT:      -5.4      1.590      5.091
REMARK  7 active torsions:
REMARK  status: ('A' for Active; 'I' for Inactive)
REMARK    1  A    between atoms: C_2  and  C_3 
REMARK    2  A    between atoms: C_3  and  O_6 
REMARK    3  A    between atoms: C_3  and  C_4 
REMARK    4  A    between atoms: C_7  and  O_6 
REMARK    5  A    between atoms: C_9  and  C_10 
REMARK    6  A    between atoms: N_15  and  C_14 
REMARK    7  A    between atoms: N_20  and  C_19 
REMARK       I    between atoms: C_22  and  N_20 
ROOT
ATOM      1  C   LIG d   1       3.474  84.394 109.949  0.00  0.00     0.161 C 
ATOM      2  C   LIG d   1       3.387  83.056 109.531  0.00  0.00     0.016 C 
ATOM      3  C   LIG d   1       3.756  81.961 110.345  0.00  0.00     0.038 C 
ATOM      4  C   LIG d   1       4.096  82.123 111.696  0.00  0.00     0.028 C 
ATOM      5  C   LIG d   1       4.682  83.495 112.013  0.00  0.00    -0.047 C 
ATOM      6  C   LIG d   1       3.737  84.585 111.458  0.00  0.00     0.091 C 
ENDROOT
BRANCH   1   7
ATOM      7  O   LIG d   1       2.286  85.108 109.554  0.00  0.00    -0.368 OA
BRANCH   7   8
ATOM      8  C   LIG d   1       1.243  85.213 110.555  0.00  0.00     0.119 C 
BRANCH   8   9
ATOM      9  C   LIG d   1       0.067  84.331 110.093  0.00  0.00     0.028 C 
ATOM     10  C   LIG d   1      -0.029  83.018 110.889  0.00  0.00     0.006 C 
ENDBRANCH   8   9
BRANCH   8  11
ATOM     11  C   LIG d   1       0.680  86.636 110.624  0.00  0.00     0.028 C 
ATOM     12  C   LIG d   1      -0.857  86.668 110.639  0.00  0.00     0.006 C 
ENDBRANCH   8  11
ENDBRANCH   7   8
ENDBRANCH   1   7
BRANCH   6  13
ATOM     13  N   LIG d   1       4.278  85.955 111.651  0.00  0.00    -0.311 N 
ATOM     14  C   LIG d   1       3.964  86.728 112.690  0.00  0.00     0.210 C 
ATOM     15  C   LIG d   1       4.617  88.114 112.685  0.00  0.00     0.109 C 
ATOM     16  O   LIG d   1       3.233  86.384 113.631  0.00  0.00    -0.276 OA
ATOM     17  H   LIG d   1       4.903  86.302 110.950  0.00  0.00     0.149 HD
ENDBRANCH   6  13
BRANCH   5  18
ATOM     18  N   LIG d   1       4.862  83.576 113.475  0.00  0.00     0.381 N 
ATOM     19  H   LIG d   1       5.759  83.211 113.727  0.00  0.00    -0.090 HD
ATOM     20  H   LIG d   1       4.157  83.015 113.921  0.00  0.00    -0.090 HD
ATOM     21  H   LIG d   1       4.783  84.522 113.776  0.00  0.00    -0.090 HD
ENDBRANCH   5  18
BRANCH   3  22
ATOM     22  C   LIG d   1       3.825  80.689 109.797  0.00  0.00     0.382 C 
ATOM     23  O   LIG d   1       4.935  80.118 109.676  0.00  0.00    -0.241 OA
ATOM     24  O   LIG d   1       2.796  80.124 109.380  0.00  0.00    -0.241 OA
ENDBRANCH   3  22
TORSDOF 7
ENDMDL
MODEL 7
REMARK VINA RESULT:      -5.2      2.320      4.035
REMARK  7 active torsions:
REMARK  status: ('A' for Active; 'I' for Inactive)
REMARK    1  A    between atoms: C_2  and  C_3 
REMARK    2  A    between atoms: C_3  and  O_6 
REMARK    3  A    between atoms: C_3  and  C_4 
REMARK    4  A    between atoms: C_7  and  O_6 
REMARK    5  A    between atoms: C_9  and  C_10 
REMARK    6  A    between atoms: N_15  and  C_14 
REMARK    7  A    between atoms: N_20  and  C_19 
REMARK       I    between atoms: C_22  and  N_20 
ROOT
ATOM      1  C   LIG d   1       2.889  85.524 111.611  0.00  0.00     0.161 C 
ATOM      2  C   LIG d   1       3.807  86.577 111.756  0.00  0.00     0.016 C 
ATOM      3  C   LIG d   1       3.861  87.411 112.897  0.00  0.00     0.038 C 
ATOM      4  C   LIG d   1       3.093  87.152 114.042  0.00  0.00     0.028 C 
ATOM      5  C   LIG d   1       1.796  86.407 113.745  0.00  0.00    -0.047 C 
ATOM      6  C   LIG d   1       2.118  85.156 112.896  0.00  0.00     0.091 C 
ENDROOT
BRANCH   1   7
ATOM      7  O   LIG d   1       3.556  84.363 111.077  0.00  0.00    -0.368 OA
BRANCH   7   8
ATOM      8  C   LIG d   1       3.929  83.345 112.038  0.00  0.00     0.119 C 
BRANCH   8   9
ATOM      9  C   LIG d   1       5.402  83.587 112.421  0.00  0.00     0.028 C 
ATOM     10  C   LIG d   1       5.551  84.188 113.828  0.00  0.00     0.006 C 
ENDBRANCH   8   9
BRANCH   8  11
ATOM     11  C   LIG d   1       3.897  81.948 111.410  0.00  0.00     0.028 C 
ATOM     12  C   LIG d   1       4.761  81.845 110.142  0.00  0.00     0.006 C 
ENDBRANCH   8  11
ENDBRANCH   7   8
ENDBRANCH   1   7
BRANCH   6  13
ATOM     13  N   LIG d   1       0.894  84.416 112.490  0.00  0.00    -0.311 N 
ATOM     14  C   LIG d   1       0.375  83.414 113.198  0.00  0.00     0.210 C 
ATOM     15  C   LIG d   1      -0.877  82.775 112.591  0.00  0.00     0.109 C 
ATOM     16  O   LIG d   1       0.814  83.016 114.287  0.00  0.00    -0.276 OA
ATOM     17  H   LIG d   1       0.455  84.695 111.635  0.00  0.00     0.149 HD
ENDBRANCH   6  13
BRANCH   5  18
ATOM     18  N   LIG d   1       1.163  86.081 115.037  0.00  0.00     0.381 N 
ATOM     19  H   LIG d   1       0.360  85.504 114.886  0.00  0.00    -0.090 HD
ATOM     20  H   LIG d   1       0.860  86.934 115.475  0.00  0.00    -0.090 HD
ATOM     21  H   LIG d   1       1.814  85.610 115.626  0.00  0.00    -0.090 HD
ENDBRANCH   5  18
BRANCH   3  22
ATOM     22  C   LIG d   1       4.661  88.543 112.883  0.00  0.00     0.382 C 
ATOM     23  O   LIG d   1       5.813  88.491 112.388  0.00  0.00    -0.241 OA
ATOM     24  O   LIG d   1       4.263  89.604 113.399  0.00  0.00    -0.241 OA
ENDBRANCH   3  22
TORSDOF 7
ENDMDL
MODEL 8
REMARK VINA RESULT:      -5.2      3.867      5.661
REMARK  7 active torsions:
REMARK  status: ('A' for Active; 'I' for Inactive)
REMARK    1  A    between atoms: C_2  and  C_3 
REMARK    2  A    between atoms: C_3  and  O_6 
REMARK    3  A    between atoms: C_3  and  C_4 
REMARK    4  A    between atoms: C_7  and  O_6 
REMARK    5  A    between atoms: C_9  and  C_10 
REMARK    6  A    between atoms: N_15  and  C_14 
REMARK    7  A    between atoms: N_20  and  C_19 
REMARK       I    between atoms: C_22  and  N_20 
ROOT
ATOM      1  C   LIG d   1       1.434  81.709 112.864  0.00  0.00     0.161 C 
ATOM      2  C   LIG d   1       2.557  82.387 112.361  0.00  0.00     0.016 C 
ATOM      3  C   LIG d   1       2.816  82.548 110.980  0.00  0.00     0.038 C 
ATOM      4  C   LIG d   1       1.884  82.169 110.002  0.00  0.00     0.028 C 
ATOM      5  C   LIG d   1       0.972  81.029 110.444  0.00  0.00    -0.047 C 
ATOM      6  C   LIG d   1       0.351  81.386 111.814  0.00  0.00     0.091 C 
ENDROOT
BRANCH   1   7
ATOM      7  O   LIG d   1       0.865  82.452 113.959  0.00  0.00    -0.368 OA
BRANCH   7   8
ATOM      8  C   LIG d   1       1.130  83.876 113.970  0.00  0.00     0.119 C 
BRANCH   8   9
ATOM      9  C   LIG d   1       1.544  84.259 115.404  0.00  0.00     0.028 C 
ATOM     10  C   LIG d   1       1.982  83.041 116.234  0.00  0.00     0.006 C 
ENDBRANCH   8   9
BRANCH   8  11
ATOM     11  C   LIG d   1      -0.141  84.682 113.685  0.00  0.00     0.028 C 
ATOM     12  C   LIG d   1      -0.388  84.894 112.183  0.00  0.00     0.006 C 
ENDBRANCH   8  11
ENDBRANCH   7   8
ENDBRANCH   1   7
BRANCH   6  13
ATOM     13  N   LIG d   1      -0.490  80.288 112.358  0.00  0.00    -0.311 N 
ATOM     14  C   LIG d   1      -1.799  80.404 112.572  0.00  0.00     0.210 C 
ATOM     15  C   LIG d   1      -2.472  79.158 113.157  0.00  0.00     0.109 C 
ATOM     16  O   LIG d   1      -2.474  81.409 112.302  0.00  0.00    -0.276 OA
ATOM     17  H   LIG d   1      -0.029  79.426 112.575  0.00  0.00     0.149 HD
ENDBRANCH   6  13
BRANCH   5  18
ATOM     18  N   LIG d   1      -0.036  80.830 109.386  0.00  0.00     0.381 N 
ATOM     19  H   LIG d   1      -0.123  81.663 108.839  0.00  0.00    -0.090 HD
ATOM     20  H   LIG d   1      -0.925  80.640 109.815  0.00  0.00    -0.090 HD
ATOM     21  H   LIG d   1       0.229  80.067 108.802  0.00  0.00    -0.090 HD
ENDBRANCH   5  18
BRANCH   3  22
ATOM     22  C   LIG d   1       4.037  83.057 110.565  0.00  0.00     0.382 C 
ATOM     23  O   LIG d   1       4.089  83.841 109.586  0.00  0.00    -0.241 OA
ATOM     24  O   LIG d   1       5.092  82.708 111.127  0.00  0.00    -0.241 OA
ENDBRANCH   3  22
TORSDOF 7
ENDMDL
MODEL 9
REMARK VINA RESULT:      -5.1      2.919      5.898
REMARK  7 active torsions:
REMARK  status: ('A' for Active; 'I' for Inactive)
REMARK    1  A    between atoms: C_2  and  C_3 
REMARK    2  A    between atoms: C_3  and  O_6 
REMARK    3  A    between atoms: C_3  and  C_4 
REMARK    4  A    between atoms: C_7  and  O_6 
REMARK    5  A    between atoms: C_9  and  C_10 
REMARK    6  A    between atoms: N_15  and  C_14 
REMARK    7  A    between atoms: N_20  and  C_19 
REMARK       I    between atoms: C_22  and  N_20 
ROOT
ATOM      1  C   LIG d   1       2.217  84.617 112.912  0.00  0.00     0.161 C 
ATOM      2  C   LIG d   1       1.213  83.800 112.366  0.00  0.00     0.016 C 
ATOM      3  C   LIG d   1      -0.139  83.852 112.774  0.00  0.00     0.038 C 
ATOM      4  C   LIG d   1      -0.611  84.837 113.655  0.00  0.00     0.028 C 
ATOM      5  C   LIG d   1       0.458  85.357 114.611  0.00  0.00    -0.047 C 
ATOM      6  C   LIG d   1       1.702  85.774 113.794  0.00  0.00     0.091 C 
ENDROOT
BRANCH   1   7
ATOM      7  O   LIG d   1       3.059  85.127 111.858  0.00  0.00    -0.368 OA
BRANCH   7   8
ATOM      8  C   LIG d   1       4.349  84.487 111.707  0.00  0.00     0.119 C 
BRANCH   8   9
ATOM      9  C   LIG d   1       4.233  83.481 110.545  0.00  0.00     0.028 C 
ATOM     10  C   LIG d   1       3.555  84.091 109.306  0.00  0.00     0.006 C 
ENDBRANCH   8   9
BRANCH   8  11
ATOM     11  C   LIG d   1       4.702  83.645 112.937  0.00  0.00     0.028 C 
ATOM     12  C   LIG d   1       5.029  82.185 112.587  0.00  0.00     0.006 C 
ENDBRANCH   8  11
ENDBRANCH   7   8
ENDBRANCH   1   7
BRANCH   6  13
ATOM     13  N   LIG d   1       2.827  86.215 114.659  0.00  0.00    -0.311 N 
ATOM     14  C   LIG d   1       3.107  87.495 114.902  0.00  0.00     0.210 C 
ATOM     15  C   LIG d   1       4.321  87.731 115.805  0.00  0.00     0.109 C 
ATOM     16  O   LIG d   1       2.446  88.456 114.480  0.00  0.00    -0.276 OA
ATOM     17  H   LIG d   1       3.396  85.500 115.068  0.00  0.00     0.149 HD
ENDBRANCH   6  13
BRANCH   5  18
ATOM     18  N   LIG d   1      -0.132  86.471 115.376  0.00  0.00     0.381 N 
ATOM     19  H   LIG d   1      -0.136  86.248 116.351  0.00  0.00    -0.090 HD
ATOM     20  H   LIG d   1      -1.083  86.603 115.078  0.00  0.00    -0.090 HD
ATOM     21  H   LIG d   1       0.390  87.306 115.220  0.00  0.00    -0.090 HD
ENDBRANCH   5  18
BRANCH   3  22
ATOM     22  C   LIG d   1      -1.029  82.886 112.330  0.00  0.00     0.382 C 
ATOM     23  O   LIG d   1      -0.924  82.424 111.168  0.00  0.00    -0.241 OA
ATOM     24  O   LIG d   1      -1.962  82.502 113.060  0.00  0.00    -0.241 OA
ENDBRANCH   3  22
TORSDOF 7
ENDMDL
