MODEL 1
REMARK VINA RESULT:      -6.9      0.000      0.000
REMARK  7 active torsions:
REMARK  status: ('A' for Active; 'I' for Inactive)
REMARK    1  A    between atoms: C_2  and  C_3 
REMARK    2  A    between atoms: C_3  and  O_6 
REMARK    3  A    between atoms: C_3  and  C_4 
REMARK    4  A    between atoms: C_7  and  O_6 
REMARK    5  A    between atoms: C_9  and  C_10 
REMARK    6  A    between atoms: N_15  and  C_14 
REMARK    7  A    between atoms: N_20  and  C_19 
REMARK       I    between atoms: C_22  and  N_20 
ROOT
ATOM      1  C   LIG d   1       1.891  85.667 110.240  0.00  0.00     0.161 C 
ATOM      2  C   LIG d   1       0.863  86.367 110.893  0.00  0.00     0.016 C 
ATOM      3  C   LIG d   1      -0.352  85.767 111.297  0.00  0.00     0.038 C 
ATOM      4  C   LIG d   1      -0.560  84.382 111.209  0.00  0.00     0.028 C 
ATOM      5  C   LIG d   1       0.245  83.718 110.098  0.00  0.00    -0.047 C 
ATOM      6  C   LIG d   1       1.728  84.133 110.235  0.00  0.00     0.091 C 
ENDROOT
BRANCH   1   7
ATOM      7  O   LIG d   1       3.166  86.034 110.804  0.00  0.00    -0.368 OA
BRANCH   7   8
ATOM      8  C   LIG d   1       3.151  86.470 112.185  0.00  0.00     0.119 C 
BRANCH   8   9
ATOM      9  C   LIG d   1       4.328  87.445 112.376  0.00  0.00     0.028 C 
ATOM     10  C   LIG d   1       3.898  88.760 113.047  0.00  0.00     0.006 C 
ENDBRANCH   8   9
BRANCH   8  11
ATOM     11  C   LIG d   1       3.430  85.306 113.140  0.00  0.00     0.028 C 
ATOM     12  C   LIG d   1       2.220  84.955 114.022  0.00  0.00     0.006 C 
ENDBRANCH   8  11
ENDBRANCH   7   8
ENDBRANCH   1   7
BRANCH   6  13
ATOM     13  N   LIG d   1       2.572  83.594 109.137  0.00  0.00    -0.311 N 
ATOM     14  C   LIG d   1       3.299  82.483 109.248  0.00  0.00     0.210 C 
ATOM     15  C   LIG d   1       4.112  82.115 108.004  0.00  0.00     0.109 C 
ATOM     16  O   LIG d   1       3.322  81.750 110.249  0.00  0.00    -0.276 OA
ATOM     17  H   LIG d   1       2.587  84.109 108.279  0.00  0.00     0.149 HD
ENDBRANCH   6  13
BRANCH   5  18
ATOM     18  N   LIG d   1       0.040  82.261 110.208  0.00  0.00     0.381 N 
ATOM     19  H   LIG d   1       0.597  81.896 110.954  0.00  0.00    -0.090 HD
ATOM     20  H   LIG d   1       0.335  81.826 109.352  0.00  0.00    -0.090 HD
ATOM     21  H   LIG d   1      -0.922  82.064 110.375  0.00  0.00    -0.090 HD
ENDBRANCH   5  18
BRANCH   3  22
ATOM     22  C   LIG d   1      -1.390  86.561 111.759  0.00  0.00     0.382 C 
ATOM     23  O   LIG d   1      -1.800  86.434 112.938  0.00  0.00    -0.241 OA
ATOM     24  O   LIG d   1      -1.952  87.372 110.998  0.00  0.00    -0.241 OA
ENDBRANCH   3  22
TORSDOF 7
ENDMDL
MODEL 2
REMARK VINA RESULT:      -6.8      1.762      2.926
REMARK  7 active torsions:
REMARK  status: ('A' for Active; 'I' for Inactive)
REMARK    1  A    between atoms: C_2  and  C_3 
REMARK    2  A    between atoms: C_3  and  O_6 
REMARK    3  A    between atoms: C_3  and  C_4 
REMARK    4  A    between atoms: C_7  and  O_6 
REMARK    5  A    between atoms: C_9  and  C_10 
REMARK    6  A    between atoms: N_15  and  C_14 
REMARK    7  A    between atoms: N_20  and  C_19 
REMARK       I    between atoms: C_22  and  N_20 
ROOT
ATOM      1  C   LIG d   1       0.875  84.168 109.339  0.00  0.00     0.161 C 
ATOM      2  C   LIG d   1       0.546  85.430 109.860  0.00  0.00     0.016 C 
ATOM      3  C   LIG d   1      -0.263  85.613 111.005  0.00  0.00     0.038 C 
ATOM      4  C   LIG d   1      -0.677  84.534 111.800  0.00  0.00     0.028 C 
ATOM      5  C   LIG d   1      -0.791  83.222 111.030  0.00  0.00    -0.047 C 
ATOM      6  C   LIG d   1       0.525  82.978 110.257  0.00  0.00     0.091 C 
ENDROOT
BRANCH   1   7
ATOM      7  O   LIG d   1       2.272  84.134 108.986  0.00  0.00    -0.368 OA
BRANCH   7   8
ATOM      8  C   LIG d   1       3.181  83.685 110.021  0.00  0.00     0.119 C 
BRANCH   8   9
ATOM      9  C   LIG d   1       3.739  84.939 110.722  0.00  0.00     0.028 C 
ATOM     10  C   LIG d   1       3.358  84.997 112.211  0.00  0.00     0.006 C 
ENDBRANCH   8   9
BRANCH   8  11
ATOM     11  C   LIG d   1       4.401  82.978 109.424  0.00  0.00     0.028 C 
ATOM     12  C   LIG d   1       4.069  82.198 108.142  0.00  0.00     0.006 C 
ENDBRANCH   8  11
ENDBRANCH   7   8
ENDBRANCH   1   7
BRANCH   6  13
ATOM     13  N   LIG d   1       0.467  81.758 109.410  0.00  0.00    -0.311 N 
ATOM     14  C   LIG d   1       1.209  80.675 109.633  0.00  0.00     0.210 C 
ATOM     15  C   LIG d   1       1.008  79.536 108.628  0.00  0.00     0.109 C 
ATOM     16  O   LIG d   1       1.990  80.536 110.586  0.00  0.00    -0.276 OA
ATOM     17  H   LIG d   1      -0.164  81.772 108.633  0.00  0.00     0.149 HD
ENDBRANCH   6  13
BRANCH   5  18
ATOM     18  N   LIG d   1      -1.096  82.158 112.005  0.00  0.00     0.381 N 
ATOM     19  H   LIG d   1      -2.087  82.052 112.092  0.00  0.00    -0.090 HD
ATOM     20  H   LIG d   1      -0.727  82.423 112.901  0.00  0.00    -0.090 HD
ATOM     21  H   LIG d   1      -0.687  81.299 111.710  0.00  0.00    -0.090 HD
ENDBRANCH   5  18
BRANCH   3  22
ATOM     22  C   LIG d   1      -0.700  86.885 111.342  0.00  0.00     0.382 C 
ATOM     23  O   LIG d   1      -1.922  87.162 111.291  0.00  0.00    -0.241 OA
ATOM     24  O   LIG d   1       0.118  87.771 111.654  0.00  0.00    -0.241 OA
ENDBRANCH   3  22
TORSDOF 7
ENDMDL
MODEL 3
REMARK VINA RESULT:      -6.4      3.038      4.080
REMARK  7 active torsions:
REMARK  status: ('A' for Active; 'I' for Inactive)
REMARK    1  A    between atoms: C_2  and  C_3 
REMARK    2  A    between atoms: C_3  and  O_6 
REMARK    3  A    between atoms: C_3  and  C_4 
REMARK    4  A    between atoms: C_7  and  O_6 
REMARK    5  A    between atoms: C_9  and  C_10 
REMARK    6  A    between atoms: N_15  and  C_14 
REMARK    7  A    between atoms: N_20  and  C_19 
REMARK       I    between atoms: C_22  and  N_20 
ROOT
ATOM      1  C   LIG d   1       0.406  82.389 111.028  0.00  0.00     0.161 C 
ATOM      2  C   LIG d   1      -0.694  82.132 111.863  0.00  0.00     0.016 C 
ATOM      3  C   LIG d   1      -1.369  80.891 111.902  0.00  0.00     0.038 C 
ATOM      4  C   LIG d   1      -0.892  79.766 111.213  0.00  0.00     0.028 C 
ATOM      5  C   LIG d   1      -0.083  80.115 109.969  0.00  0.00    -0.047 C 
ATOM      6  C   LIG d   1       1.009  81.140 110.352  0.00  0.00     0.091 C 
ENDROOT
BRANCH   1   7
ATOM      7  O   LIG d   1       1.421  83.101 111.763  0.00  0.00    -0.368 OA
BRANCH   7   8
ATOM      8  C   LIG d   1       1.632  84.483 111.383  0.00  0.00     0.119 C 
BRANCH   8   9
ATOM      9  C   LIG d   1       0.913  84.708 110.039  0.00  0.00     0.028 C 
ATOM     10  C   LIG d   1      -0.020  85.931 110.069  0.00  0.00     0.006 C 
ENDBRANCH   8   9
BRANCH   8  11
ATOM     11  C   LIG d   1       3.111  84.765 111.103  0.00  0.00     0.028 C 
ATOM     12  C   LIG d   1       3.479  86.247 111.281  0.00  0.00     0.006 C 
ENDBRANCH   8  11
ENDBRANCH   7   8
ENDBRANCH   1   7
BRANCH   6  13
ATOM     13  N   LIG d   1       1.793  81.599 109.176  0.00  0.00    -0.311 N 
ATOM     14  C   LIG d   1       3.125  81.612 109.142  0.00  0.00     0.210 C 
ATOM     15  C   LIG d   1       3.733  82.143 107.840  0.00  0.00     0.109 C 
ATOM     16  O   LIG d   1       3.859  81.204 110.054  0.00  0.00    -0.276 OA
ATOM     17  H   LIG d   1       1.276  81.918 108.380  0.00  0.00     0.149 HD
ENDBRANCH   6  13
BRANCH   5  18
ATOM     18  N   LIG d   1       0.468  78.858 109.428  0.00  0.00     0.381 N 
ATOM     19  H   LIG d   1       1.306  78.617 109.917  0.00  0.00    -0.090 HD
ATOM     20  H   LIG d   1       0.696  78.994 108.459  0.00  0.00    -0.090 HD
ATOM     21  H   LIG d   1      -0.201  78.126 109.519  0.00  0.00    -0.090 HD
ENDBRANCH   5  18
BRANCH   3  22
ATOM     22  C   LIG d   1      -2.559  80.777 112.605  0.00  0.00     0.382 C 
ATOM     23  O   LIG d   1      -2.849  79.698 113.176  0.00  0.00    -0.241 OA
ATOM     24  O   LIG d   1      -3.366  81.725 112.639  0.00  0.00    -0.241 OA
ENDBRANCH   3  22
TORSDOF 7
ENDMDL
MODEL 4
REMARK VINA RESULT:      -6.2      2.408      4.894
REMARK  7 active torsions:
REMARK  status: ('A' for Active; 'I' for Inactive)
REMARK    1  A    between atoms: C_2  and  C_3 
REMARK    2  A    between atoms: C_3  and  O_6 
REMARK    3  A    between atoms: C_3  and  C_4 
REMARK    4  A    between atoms: C_7  and  O_6 
REMARK    5  A    between atoms: C_9  and  C_10 
REMARK    6  A    between atoms: N_15  and  C_14 
REMARK    7  A    between atoms: N_20  and  C_19 
REMARK       I    between atoms: C_22  and  N_20 
ROOT
ATOM      1  C   LIG d   1       1.476  84.048 110.615  0.00  0.00     0.161 C 
ATOM      2  C   LIG d   1       2.207  85.248 110.580  0.00  0.00     0.016 C 
ATOM      3  C   LIG d   1       2.783  85.842 111.726  0.00  0.00     0.038 C 
ATOM      4  C   LIG d   1       2.796  85.194 112.970  0.00  0.00     0.028 C 
ATOM      5  C   LIG d   1       1.635  84.224 113.159  0.00  0.00    -0.047 C 
ATOM      6  C   LIG d   1       1.574  83.270 111.944  0.00  0.00     0.091 C 
ENDROOT
BRANCH   1   7
ATOM      7  O   LIG d   1       1.865  83.207 109.512  0.00  0.00    -0.368 OA
BRANCH   7   8
ATOM      8  C   LIG d   1       2.767  82.118 109.827  0.00  0.00     0.119 C 
BRANCH   8   9
ATOM      9  C   LIG d   1       4.160  82.502 109.291  0.00  0.00     0.028 C 
ATOM     10  C   LIG d   1       4.302  82.236 107.783  0.00  0.00     0.006 C 
ENDBRANCH   8   9
BRANCH   8  11
ATOM     11  C   LIG d   1       2.382  80.839 109.078  0.00  0.00     0.028 C 
ATOM     12  C   LIG d   1       0.871  80.734 108.817  0.00  0.00     0.006 C 
ENDBRANCH   8  11
ENDBRANCH   7   8
ENDBRANCH   1   7
BRANCH   6  13
ATOM     13  N   LIG d   1       0.415  82.342 112.009  0.00  0.00    -0.311 N 
ATOM     14  C   LIG d   1       0.482  81.122 112.538  0.00  0.00     0.210 C 
ATOM     15  C   LIG d   1      -0.823  80.322 112.485  0.00  0.00     0.109 C 
ATOM     16  O   LIG d   1       1.490  80.637 113.074  0.00  0.00    -0.276 OA
ATOM     17  H   LIG d   1      -0.450  82.666 111.625  0.00  0.00     0.149 HD
ENDBRANCH   6  13
BRANCH   5  18
ATOM     18  N   LIG d   1       1.848  83.518 114.437  0.00  0.00     0.381 N 
ATOM     19  H   LIG d   1       2.827  83.469 114.638  0.00  0.00    -0.090 HD
ATOM     20  H   LIG d   1       1.496  82.581 114.354  0.00  0.00    -0.090 HD
ATOM     21  H   LIG d   1       1.374  83.995 115.173  0.00  0.00    -0.090 HD
ENDBRANCH   5  18
BRANCH   3  22
ATOM     22  C   LIG d   1       3.320  87.118 111.642  0.00  0.00     0.382 C 
ATOM     23  O   LIG d   1       2.585  88.089 111.338  0.00  0.00    -0.241 OA
ATOM     24  O   LIG d   1       4.538  87.303 111.822  0.00  0.00    -0.241 OA
ENDBRANCH   3  22
TORSDOF 7
ENDMDL
MODEL 5
REMARK VINA RESULT:      -6.2      2.692      5.245
REMARK  7 active torsions:
REMARK  status: ('A' for Active; 'I' for Inactive)
REMARK    1  A    between atoms: C_2  and  C_3 
REMARK    2  A    between atoms: C_3  and  O_6 
REMARK    3  A    between atoms: C_3  and  C_4 
REMARK    4  A    between atoms: C_7  and  O_6 
REMARK    5  A    between atoms: C_9  and  C_10 
REMARK    6  A    between atoms: N_15  and  C_14 
REMARK    7  A    between atoms: N_20  and  C_19 
REMARK       I    between atoms: C_22  and  N_20 
ROOT
ATOM      1  C   LIG d   1       0.831  82.457 111.865  0.00  0.00     0.161 C 
ATOM      2  C   LIG d   1       1.823  82.955 111.005  0.00  0.00     0.016 C 
ATOM      3  C   LIG d   1       2.057  82.443 109.708  0.00  0.00     0.038 C 
ATOM      4  C   LIG d   1       1.209  81.493 109.121  0.00  0.00     0.028 C 
ATOM      5  C   LIG d   1       0.503  80.602 110.138  0.00  0.00    -0.047 C 
ATOM      6  C   LIG d   1      -0.177  81.495 111.201  0.00  0.00     0.091 C 
ENDROOT
BRANCH   1   7
ATOM      7  O   LIG d   1       0.137  83.551 112.497  0.00  0.00    -0.368 OA
BRANCH   7   8
ATOM      8  C   LIG d   1       0.374  84.865 111.934  0.00  0.00     0.119 C 
BRANCH   8   9
ATOM      9  C   LIG d   1       0.497  85.856 113.107  0.00  0.00     0.028 C 
ATOM     10  C   LIG d   1       1.960  86.202 113.433  0.00  0.00     0.006 C 
ENDBRANCH   8   9
BRANCH   8  11
ATOM     11  C   LIG d   1      -0.831  85.348 111.120  0.00  0.00     0.028 C 
ATOM     12  C   LIG d   1      -1.244  86.788 111.464  0.00  0.00     0.006 C 
ENDBRANCH   8  11
ENDBRANCH   7   8
ENDBRANCH   1   7
BRANCH   6  13
ATOM     13  N   LIG d   1      -0.820  80.702 112.281  0.00  0.00    -0.311 N 
ATOM     14  C   LIG d   1      -2.041  80.956 112.750  0.00  0.00     0.210 C 
ATOM     15  C   LIG d   1      -2.506  80.030 113.878  0.00  0.00     0.109 C 
ATOM     16  O   LIG d   1      -2.794  81.841 112.317  0.00  0.00    -0.276 OA
ATOM     17  H   LIG d   1      -0.291  79.945 112.668  0.00  0.00     0.149 HD
ENDBRANCH   6  13
BRANCH   5  18
ATOM     18  N   LIG d   1      -0.452  79.753 109.400  0.00  0.00     0.381 N 
ATOM     19  H   LIG d   1      -0.967  80.310 108.749  0.00  0.00    -0.090 HD
ATOM     20  H   LIG d   1      -1.101  79.350 110.053  0.00  0.00    -0.090 HD
ATOM     21  H   LIG d   1       0.037  79.031 108.918  0.00  0.00    -0.090 HD
ENDBRANCH   5  18
BRANCH   3  22
ATOM     22  C   LIG d   1       3.175  82.855 108.998  0.00  0.00     0.382 C 
ATOM     23  O   LIG d   1       3.543  82.217 107.982  0.00  0.00    -0.241 OA
ATOM     24  O   LIG d   1       3.847  83.830 109.387  0.00  0.00    -0.241 OA
ENDBRANCH   3  22
TORSDOF 7
ENDMDL
MODEL 6
REMARK VINA RESULT:      -5.2      2.375      4.953
REMARK  7 active torsions:
REMARK  status: ('A' for Active; 'I' for Inactive)
REMARK    1  A    between atoms: C_2  and  C_3 
REMARK    2  A    between atoms: C_3  and  O_6 
REMARK    3  A    between atoms: C_3  and  C_4 
REMARK    4  A    between atoms: C_7  and  O_6 
REMARK    5  A    between atoms: C_9  and  C_10 
REMARK    6  A    between atoms: N_15  and  C_14 
REMARK    7  A    between atoms: N_20  and  C_19 
REMARK       I    between atoms: C_22  and  N_20 
ROOT
ATOM      1  C   LIG d   1       1.246  83.005 109.968  0.00  0.00     0.161 C 
ATOM      2  C   LIG d   1       1.569  84.364 110.119  0.00  0.00     0.016 C 
ATOM      3  C   LIG d   1       0.892  85.231 111.007  0.00  0.00     0.038 C 
ATOM      4  C   LIG d   1      -0.061  84.759 111.922  0.00  0.00     0.028 C 
ATOM      5  C   LIG d   1      -0.774  83.494 111.455  0.00  0.00    -0.047 C 
ATOM      6  C   LIG d   1       0.284  82.447 111.037  0.00  0.00     0.091 C 
ENDROOT
BRANCH   1   7
ATOM      7  O   LIG d   1       2.453  82.219 109.920  0.00  0.00    -0.368 OA
BRANCH   7   8
ATOM      8  C   LIG d   1       2.674  81.465 108.703  0.00  0.00     0.119 C 
BRANCH   8   9
ATOM      9  C   LIG d   1       2.713  79.972 109.083  0.00  0.00     0.028 C 
ATOM     10  C   LIG d   1       1.724  79.130 108.260  0.00  0.00     0.006 C 
ENDBRANCH   8   9
BRANCH   8  11
ATOM     11  C   LIG d   1       4.051  81.767 108.103  0.00  0.00     0.028 C 
ATOM     12  C   LIG d   1       4.819  82.843 108.886  0.00  0.00     0.006 C 
ENDBRANCH   8  11
ENDBRANCH   7   8
ENDBRANCH   1   7
BRANCH   6  13
ATOM     13  N   LIG d   1      -0.330  81.210 110.488  0.00  0.00    -0.311 N 
ATOM     14  C   LIG d   1      -0.607  80.138 111.229  0.00  0.00     0.210 C 
ATOM     15  C   LIG d   1      -1.219  78.962 110.461  0.00  0.00     0.109 C 
ATOM     16  O   LIG d   1      -0.434  80.061 112.454  0.00  0.00    -0.276 OA
ATOM     17  H   LIG d   1      -0.533  81.198 109.508  0.00  0.00     0.149 HD
ENDBRANCH   6  13
BRANCH   5  18
ATOM     18  N   LIG d   1      -1.637  83.036 112.560  0.00  0.00     0.381 N 
ATOM     19  H   LIG d   1      -1.965  82.110 112.372  0.00  0.00    -0.090 HD
ATOM     20  H   LIG d   1      -2.433  83.645 112.625  0.00  0.00    -0.090 HD
ATOM     21  H   LIG d   1      -1.129  83.048 113.417  0.00  0.00    -0.090 HD
ENDBRANCH   5  18
BRANCH   3  22
ATOM     22  C   LIG d   1       1.139  86.595 110.959  0.00  0.00     0.382 C 
ATOM     23  O   LIG d   1       0.314  87.399 111.455  0.00  0.00    -0.241 OA
ATOM     24  O   LIG d   1       2.155  87.033 110.385  0.00  0.00    -0.241 OA
ENDBRANCH   3  22
TORSDOF 7
ENDMDL
MODEL 7
REMARK VINA RESULT:      -4.5      2.899      5.409
REMARK  7 active torsions:
REMARK  status: ('A' for Active; 'I' for Inactive)
REMARK    1  A    between atoms: C_2  and  C_3 
REMARK    2  A    between atoms: C_3  and  O_6 
REMARK    3  A    between atoms: C_3  and  C_4 
REMARK    4  A    between atoms: C_7  and  O_6 
REMARK    5  A    between atoms: C_9  and  C_10 
REMARK    6  A    between atoms: N_15  and  C_14 
REMARK    7  A    between atoms: N_20  and  C_19 
REMARK       I    between atoms: C_22  and  N_20 
ROOT
ATOM      1  C   LIG d   1       1.074  82.205 110.279  0.00  0.00     0.161 C 
ATOM      2  C   LIG d   1       0.393  81.094 110.803  0.00  0.00     0.016 C 
ATOM      3  C   LIG d   1      -0.669  81.199 111.732  0.00  0.00     0.038 C 
ATOM      4  C   LIG d   1      -1.224  82.437 112.086  0.00  0.00     0.028 C 
ATOM      5  C   LIG d   1      -0.241  83.597 111.972  0.00  0.00    -0.047 C 
ATOM      6  C   LIG d   1       0.409  83.567 110.569  0.00  0.00     0.091 C 
ENDROOT
BRANCH   1   7
ATOM      7  O   LIG d   1       1.269  82.035 108.862  0.00  0.00    -0.368 OA
BRANCH   7   8
ATOM      8  C   LIG d   1       2.544  81.480 108.456  0.00  0.00     0.119 C 
BRANCH   8   9
ATOM      9  C   LIG d   1       2.455  79.950 108.617  0.00  0.00     0.028 C 
ATOM     10  C   LIG d   1       3.536  79.395 109.560  0.00  0.00     0.006 C 
ENDBRANCH   8   9
BRANCH   8  11
ATOM     11  C   LIG d   1       3.669  81.922 109.396  0.00  0.00     0.028 C 
ATOM     12  C   LIG d   1       4.662  82.884 108.726  0.00  0.00     0.006 C 
ENDBRANCH   8  11
ENDBRANCH   7   8
ENDBRANCH   1   7
BRANCH   6  13
ATOM     13  N   LIG d   1       1.446  84.619 110.403  0.00  0.00    -0.311 N 
ATOM     14  C   LIG d   1       2.490  84.755 111.219  0.00  0.00     0.210 C 
ATOM     15  C   LIG d   1       3.429  85.917 110.879  0.00  0.00     0.109 C 
ATOM     16  O   LIG d   1       2.745  84.004 112.172  0.00  0.00    -0.276 OA
ATOM     17  H   LIG d   1       1.334  85.252 109.636  0.00  0.00     0.149 HD
ENDBRANCH   6  13
BRANCH   5  18
ATOM     18  N   LIG d   1      -0.987  84.842 112.237  0.00  0.00     0.381 N 
ATOM     19  H   LIG d   1      -0.505  85.386 112.924  0.00  0.00    -0.090 HD
ATOM     20  H   LIG d   1      -1.894  84.606 112.600  0.00  0.00    -0.090 HD
ATOM     21  H   LIG d   1      -1.085  85.366 111.395  0.00  0.00    -0.090 HD
ENDBRANCH   5  18
BRANCH   3  22
ATOM     22  C   LIG d   1      -1.159  80.057 112.347  0.00  0.00     0.382 C 
ATOM     23  O   LIG d   1      -1.259  80.011 113.596  0.00  0.00    -0.241 OA
ATOM     24  O   LIG d   1      -1.460  79.055 111.670  0.00  0.00    -0.241 OA
ENDBRANCH   3  22
TORSDOF 7
ENDMDL
MODEL 8
REMARK VINA RESULT:      -3.9     28.991     31.253
REMARK  7 active torsions:
REMARK  status: ('A' for Active; 'I' for Inactive)
REMARK    1  A    between atoms: C_2  and  C_3 
REMARK    2  A    between atoms: C_3  and  O_6 
REMARK    3  A    between atoms: C_3  and  C_4 
REMARK    4  A    between atoms: C_7  and  O_6 
REMARK    5  A    between atoms: C_9  and  C_10 
REMARK    6  A    between atoms: N_15  and  C_14 
REMARK    7  A    between atoms: N_20  and  C_19 
REMARK       I    between atoms: C_22  and  N_20 
ROOT
ATOM      1  C   LIG d   1     -26.541  72.412 112.205  0.00  0.00     0.161 C 
ATOM      2  C   LIG d   1     -26.306  73.531 113.021  0.00  0.00     0.016 C 
ATOM      3  C   LIG d   1     -26.174  74.846 112.521  0.00  0.00     0.038 C 
ATOM      4  C   LIG d   1     -26.421  75.155 111.175  0.00  0.00     0.028 C 
ATOM      5  C   LIG d   1     -26.165  73.988 110.228  0.00  0.00    -0.047 C 
ATOM      6  C   LIG d   1     -26.924  72.745 110.747  0.00  0.00     0.091 C 
ENDROOT
BRANCH   1   7
ATOM      7  O   LIG d   1     -27.544  71.570 112.806  0.00  0.00    -0.368 OA
BRANCH   7   8
ATOM      8  C   LIG d   1     -27.095  70.271 113.265  0.00  0.00     0.119 C 
BRANCH   8   9
ATOM      9  C   LIG d   1     -25.574  70.198 113.029  0.00  0.00     0.028 C 
ATOM     10  C   LIG d   1     -25.176  69.021 112.122  0.00  0.00     0.006 C 
ENDBRANCH   8   9
BRANCH   8  11
ATOM     11  C   LIG d   1     -27.691  69.144 112.417  0.00  0.00     0.028 C 
ATOM     12  C   LIG d   1     -29.060  69.508 111.820  0.00  0.00     0.006 C 
ENDBRANCH   8  11
ENDBRANCH   7   8
ENDBRANCH   1   7
BRANCH   6  13
ATOM     13  N   LIG d   1     -26.660  71.535 109.925  0.00  0.00    -0.311 N 
ATOM     14  C   LIG d   1     -27.429  71.160 108.905  0.00  0.00     0.210 C 
ATOM     15  C   LIG d   1     -26.989  69.871 108.204  0.00  0.00     0.109 C 
ATOM     16  O   LIG d   1     -28.414  71.790 108.493  0.00  0.00    -0.276 OA
ATOM     17  H   LIG d   1     -25.862  70.982 110.171  0.00  0.00     0.149 HD
ENDBRANCH   6  13
BRANCH   5  18
ATOM     18  N   LIG d   1     -26.593  74.405 108.880  0.00  0.00     0.381 N 
ATOM     19  H   LIG d   1     -27.511  74.054 108.692  0.00  0.00    -0.090 HD
ATOM     20  H   LIG d   1     -25.962  74.014 108.203  0.00  0.00    -0.090 HD
ATOM     21  H   LIG d   1     -26.590  75.399 108.813  0.00  0.00    -0.090 HD
ENDBRANCH   5  18
BRANCH   3  22
ATOM     22  C   LIG d   1     -25.752  75.863 113.363  0.00  0.00     0.382 C 
ATOM     23  O   LIG d   1     -24.594  76.332 113.250  0.00  0.00    -0.241 OA
ATOM     24  O   LIG d   1     -26.500  76.288 114.265  0.00  0.00    -0.241 OA
ENDBRANCH   3  22
TORSDOF 7
ENDMDL
