MODEL 1
REMARK VINA RESULT:      -6.7      0.000      0.000
REMARK  7 active torsions:
REMARK  status: ('A' for Active; 'I' for Inactive)
REMARK    1  A    between atoms: C_2  and  C_3 
REMARK    2  A    between atoms: C_3  and  O_6 
REMARK    3  A    between atoms: C_3  and  C_4 
REMARK    4  A    between atoms: C_7  and  O_6 
REMARK    5  A    between atoms: C_9  and  C_10 
REMARK    6  A    between atoms: N_15  and  C_14 
REMARK    7  A    between atoms: N_20  and  C_19 
REMARK       I    between atoms: C_22  and  N_20 
ROOT
ATOM      1  C   LIG d   1       1.036  83.643 109.599  0.00  0.00     0.161 C 
ATOM      2  C   LIG d   1       0.776  84.944 110.059  0.00  0.00     0.016 C 
ATOM      3  C   LIG d   1       0.001  85.223 111.208  0.00  0.00     0.038 C 
ATOM      4  C   LIG d   1      -0.443  84.206 112.067  0.00  0.00     0.028 C 
ATOM      5  C   LIG d   1      -0.633  82.864 111.370  0.00  0.00    -0.047 C 
ATOM      6  C   LIG d   1       0.653  82.519 110.585  0.00  0.00     0.091 C 
ENDROOT
BRANCH   1   7
ATOM      7  O   LIG d   1       2.422  83.526 109.220  0.00  0.00    -0.368 OA
BRANCH   7   8
ATOM      8  C   LIG d   1       3.360  83.289 110.299  0.00  0.00     0.119 C 
BRANCH   8   9
ATOM      9  C   LIG d   1       4.039  84.633 110.625  0.00  0.00     0.028 C 
ATOM     10  C   LIG d   1       3.803  85.073 112.080  0.00  0.00     0.006 C 
ENDBRANCH   8   9
BRANCH   8  11
ATOM     11  C   LIG d   1       4.493  82.358 109.858  0.00  0.00     0.028 C 
ATOM     12  C   LIG d   1       4.222  81.691 108.500  0.00  0.00     0.006 C 
ENDBRANCH   8  11
ENDBRANCH   7   8
ENDBRANCH   1   7
BRANCH   6  13
ATOM     13  N   LIG d   1       0.521  81.261 109.805  0.00  0.00    -0.311 N 
ATOM     14  C   LIG d   1       1.233  80.164 110.058  0.00  0.00     0.210 C 
ATOM     15  C   LIG d   1       0.956  78.984 109.121  0.00  0.00     0.109 C 
ATOM     16  O   LIG d   1       2.043  80.045 110.989  0.00  0.00    -0.276 OA
ATOM     17  H   LIG d   1      -0.136  81.260 109.050  0.00  0.00     0.149 HD
ENDBRANCH   6  13
BRANCH   5  18
ATOM     18  N   LIG d   1      -0.964  81.866 112.405  0.00  0.00     0.381 N 
ATOM     19  H   LIG d   1      -1.101  82.324 113.284  0.00  0.00    -0.090 HD
ATOM     20  H   LIG d   1      -0.193  81.228 112.499  0.00  0.00    -0.090 HD
ATOM     21  H   LIG d   1      -1.788  81.369 112.149  0.00  0.00    -0.090 HD
ENDBRANCH   5  18
BRANCH   3  22
ATOM     22  C   LIG d   1      -0.371  86.529 111.487  0.00  0.00     0.382 C 
ATOM     23  O   LIG d   1       0.507  87.418 111.611  0.00  0.00    -0.241 OA
ATOM     24  O   LIG d   1      -1.569  86.822 111.658  0.00  0.00    -0.241 OA
ENDBRANCH   3  22
TORSDOF 7
ENDMDL
MODEL 2
REMARK VINA RESULT:      -6.5      1.911      5.115
REMARK  7 active torsions:
REMARK  status: ('A' for Active; 'I' for Inactive)
REMARK    1  A    between atoms: C_2  and  C_3 
REMARK    2  A    between atoms: C_3  and  O_6 
REMARK    3  A    between atoms: C_3  and  C_4 
REMARK    4  A    between atoms: C_7  and  O_6 
REMARK    5  A    between atoms: C_9  and  C_10 
REMARK    6  A    between atoms: N_15  and  C_14 
REMARK    7  A    between atoms: N_20  and  C_19 
REMARK       I    between atoms: C_22  and  N_20 
ROOT
ATOM      1  C   LIG d   1       1.024  81.276 111.025  0.00  0.00     0.161 C 
ATOM      2  C   LIG d   1       1.093  79.963 110.529  0.00  0.00     0.016 C 
ATOM      3  C   LIG d   1       0.096  78.989 110.764  0.00  0.00     0.038 C 
ATOM      4  C   LIG d   1      -1.119  79.307 111.389  0.00  0.00     0.028 C 
ATOM      5  C   LIG d   1      -1.016  80.488 112.348  0.00  0.00    -0.047 C 
ATOM      6  C   LIG d   1      -0.346  81.673 111.615  0.00  0.00     0.091 C 
ENDROOT
BRANCH   1   7
ATOM      7  O   LIG d   1       1.417  82.208 109.999  0.00  0.00    -0.368 OA
BRANCH   7   8
ATOM      8  C   LIG d   1       2.810  82.604 109.996  0.00  0.00     0.119 C 
BRANCH   8   9
ATOM      9  C   LIG d   1       2.856  84.139 110.125  0.00  0.00     0.028 C 
ATOM     10  C   LIG d   1       3.739  84.604 111.295  0.00  0.00     0.006 C 
ENDBRANCH   8   9
BRANCH   8  11
ATOM     11  C   LIG d   1       3.477  82.289 108.654  0.00  0.00     0.028 C 
ATOM     12  C   LIG d   1       4.929  81.810 108.807  0.00  0.00     0.006 C 
ENDBRANCH   8  11
ENDBRANCH   7   8
ENDBRANCH   1   7
BRANCH   6  13
ATOM     13  N   LIG d   1      -0.130  82.842 112.506  0.00  0.00    -0.311 N 
ATOM     14  C   LIG d   1      -0.357  84.100 112.133  0.00  0.00     0.210 C 
ATOM     15  C   LIG d   1      -0.050  85.156 113.200  0.00  0.00     0.109 C 
ATOM     16  O   LIG d   1      -0.813  84.440 111.031  0.00  0.00    -0.276 OA
ATOM     17  H   LIG d   1       0.209  82.655 113.429  0.00  0.00     0.149 HD
ENDBRANCH   6  13
BRANCH   5  18
ATOM     18  N   LIG d   1      -2.378  80.797 112.822  0.00  0.00     0.381 N 
ATOM     19  H   LIG d   1      -3.051  80.434 112.177  0.00  0.00    -0.090 HD
ATOM     20  H   LIG d   1      -2.488  81.795 112.865  0.00  0.00    -0.090 HD
ATOM     21  H   LIG d   1      -2.523  80.400 113.724  0.00  0.00    -0.090 HD
ENDBRANCH   5  18
BRANCH   3  22
ATOM     22  C   LIG d   1       0.328  77.669 110.407  0.00  0.00     0.382 C 
ATOM     23  O   LIG d   1       1.428  77.340 109.903  0.00  0.00    -0.241 OA
ATOM     24  O   LIG d   1      -0.566  76.812 110.541  0.00  0.00    -0.241 OA
ENDBRANCH   3  22
TORSDOF 7
ENDMDL
MODEL 3
REMARK VINA RESULT:      -6.4      2.482      4.195
REMARK  7 active torsions:
REMARK  status: ('A' for Active; 'I' for Inactive)
REMARK    1  A    between atoms: C_2  and  C_3 
REMARK    2  A    between atoms: C_3  and  O_6 
REMARK    3  A    between atoms: C_3  and  C_4 
REMARK    4  A    between atoms: C_7  and  O_6 
REMARK    5  A    between atoms: C_9  and  C_10 
REMARK    6  A    between atoms: N_15  and  C_14 
REMARK    7  A    between atoms: N_20  and  C_19 
REMARK       I    between atoms: C_22  and  N_20 
ROOT
ATOM      1  C   LIG d   1       0.503  82.133 111.280  0.00  0.00     0.161 C 
ATOM      2  C   LIG d   1      -0.673  81.962 112.029  0.00  0.00     0.016 C 
ATOM      3  C   LIG d   1      -1.285  80.705 112.240  0.00  0.00     0.038 C 
ATOM      4  C   LIG d   1      -0.675  79.507 111.840  0.00  0.00     0.028 C 
ATOM      5  C   LIG d   1       0.256  79.671 110.643  0.00  0.00    -0.047 C 
ATOM      6  C   LIG d   1       1.243  80.825 110.930  0.00  0.00     0.091 C 
ENDROOT
BRANCH   1   7
ATOM      7  O   LIG d   1       1.389  83.043 111.962  0.00  0.00    -0.368 OA
BRANCH   7   8
ATOM      8  C   LIG d   1       1.281  84.439 111.589  0.00  0.00     0.119 C 
BRANCH   8   9
ATOM      9  C   LIG d   1       1.041  84.494 110.068  0.00  0.00     0.028 C 
ATOM     10  C   LIG d   1       0.405  85.822 109.622  0.00  0.00     0.006 C 
ENDBRANCH   8   9
BRANCH   8  11
ATOM     11  C   LIG d   1       2.600  85.181 111.820  0.00  0.00     0.028 C 
ATOM     12  C   LIG d   1       3.732  84.681 110.909  0.00  0.00     0.006 C 
ENDBRANCH   8  11
ENDBRANCH   7   8
ENDBRANCH   1   7
BRANCH   6  13
ATOM     13  N   LIG d   1       2.135  81.108 109.775  0.00  0.00    -0.311 N 
ATOM     14  C   LIG d   1       3.461  81.189 109.875  0.00  0.00     0.210 C 
ATOM     15  C   LIG d   1       4.190  81.509 108.566  0.00  0.00     0.109 C 
ATOM     16  O   LIG d   1       4.104  80.993 110.917  0.00  0.00    -0.276 OA
ATOM     17  H   LIG d   1       1.698  81.249 108.885  0.00  0.00     0.149 HD
ENDBRANCH   6  13
BRANCH   5  18
ATOM     18  N   LIG d   1       0.928  78.377 110.420  0.00  0.00     0.381 N 
ATOM     19  H   LIG d   1       1.546  78.181 111.181  0.00  0.00    -0.090 HD
ATOM     20  H   LIG d   1       1.473  78.435 109.578  0.00  0.00    -0.090 HD
ATOM     21  H   LIG d   1       0.250  77.651 110.337  0.00  0.00    -0.090 HD
ENDBRANCH   5  18
BRANCH   3  22
ATOM     22  C   LIG d   1      -2.542  80.642 112.823  0.00  0.00     0.382 C 
ATOM     23  O   LIG d   1      -3.213  81.690 112.981  0.00  0.00    -0.241 OA
ATOM     24  O   LIG d   1      -2.994  79.557 113.233  0.00  0.00    -0.241 OA
ENDBRANCH   3  22
TORSDOF 7
ENDMDL
MODEL 4
REMARK VINA RESULT:      -6.3      1.813      3.120
REMARK  7 active torsions:
REMARK  status: ('A' for Active; 'I' for Inactive)
REMARK    1  A    between atoms: C_2  and  C_3 
REMARK    2  A    between atoms: C_3  and  O_6 
REMARK    3  A    between atoms: C_3  and  C_4 
REMARK    4  A    between atoms: C_7  and  O_6 
REMARK    5  A    between atoms: C_9  and  C_10 
REMARK    6  A    between atoms: N_15  and  C_14 
REMARK    7  A    between atoms: N_20  and  C_19 
REMARK       I    between atoms: C_22  and  N_20 
ROOT
ATOM      1  C   LIG d   1       2.635  84.753 110.614  0.00  0.00     0.161 C 
ATOM      2  C   LIG d   1       1.561  85.523 111.091  0.00  0.00     0.016 C 
ATOM      3  C   LIG d   1       0.235  85.039 111.180  0.00  0.00     0.038 C 
ATOM      4  C   LIG d   1      -0.081  83.694 110.937  0.00  0.00     0.028 C 
ATOM      5  C   LIG d   1       0.880  83.011 109.970  0.00  0.00    -0.047 C 
ATOM      6  C   LIG d   1       2.330  83.249 110.450  0.00  0.00     0.091 C 
ENDROOT
BRANCH   1   7
ATOM      7  O   LIG d   1       3.785  84.941 111.462  0.00  0.00    -0.368 OA
BRANCH   7   8
ATOM      8  C   LIG d   1       3.732  86.071 112.367  0.00  0.00     0.119 C 
BRANCH   8   9
ATOM      9  C   LIG d   1       4.798  87.084 111.907  0.00  0.00     0.028 C 
ATOM     10  C   LIG d   1       4.848  88.332 112.804  0.00  0.00     0.006 C 
ENDBRANCH   8   9
BRANCH   8  11
ATOM     11  C   LIG d   1       4.142  85.668 113.786  0.00  0.00     0.028 C 
ATOM     12  C   LIG d   1       3.042  84.890 114.526  0.00  0.00     0.006 C 
ENDBRANCH   8  11
ENDBRANCH   7   8
ENDBRANCH   1   7
BRANCH   6  13
ATOM     13  N   LIG d   1       3.337  82.686 109.514  0.00  0.00    -0.311 N 
ATOM     14  C   LIG d   1       4.087  81.622 109.797  0.00  0.00     0.210 C 
ATOM     15  C   LIG d   1       5.077  81.218 108.701  0.00  0.00     0.109 C 
ATOM     16  O   LIG d   1       4.003  80.955 110.840  0.00  0.00    -0.276 OA
ATOM     17  H   LIG d   1       3.448  83.146 108.632  0.00  0.00     0.149 HD
ENDBRANCH   6  13
BRANCH   5  18
ATOM     18  N   LIG d   1       0.517  81.582 109.915  0.00  0.00     0.381 N 
ATOM     19  H   LIG d   1       0.956  81.151 109.127  0.00  0.00    -0.090 HD
ATOM     20  H   LIG d   1      -0.479  81.504 109.803  0.00  0.00    -0.090 HD
ATOM     21  H   LIG d   1       0.800  81.126 110.754  0.00  0.00    -0.090 HD
ENDBRANCH   5  18
BRANCH   3  22
ATOM     22  C   LIG d   1      -0.798  85.915 111.476  0.00  0.00     0.382 C 
ATOM     23  O   LIG d   1      -1.017  86.247 112.666  0.00  0.00    -0.241 OA
ATOM     24  O   LIG d   1      -1.541  86.344 110.573  0.00  0.00    -0.241 OA
ENDBRANCH   3  22
TORSDOF 7
ENDMDL
MODEL 5
REMARK VINA RESULT:      -6.1      2.427      4.686
REMARK  7 active torsions:
REMARK  status: ('A' for Active; 'I' for Inactive)
REMARK    1  A    between atoms: C_2  and  C_3 
REMARK    2  A    between atoms: C_3  and  O_6 
REMARK    3  A    between atoms: C_3  and  C_4 
REMARK    4  A    between atoms: C_7  and  O_6 
REMARK    5  A    between atoms: C_9  and  C_10 
REMARK    6  A    between atoms: N_15  and  C_14 
REMARK    7  A    between atoms: N_20  and  C_19 
REMARK       I    between atoms: C_22  and  N_20 
ROOT
ATOM      1  C   LIG d   1       1.148  81.643 112.258  0.00  0.00     0.161 C 
ATOM      2  C   LIG d   1       2.300  82.143 111.628  0.00  0.00     0.016 C 
ATOM      3  C   LIG d   1       2.522  82.062 110.234  0.00  0.00     0.038 C 
ATOM      4  C   LIG d   1       1.531  81.608 109.351  0.00  0.00     0.028 C 
ATOM      5  C   LIG d   1       0.553  80.628 109.990  0.00  0.00    -0.047 C 
ATOM      6  C   LIG d   1       0.007  81.245 111.298  0.00  0.00     0.091 C 
ENDROOT
BRANCH   1   7
ATOM      7  O   LIG d   1       0.673  82.593 113.233  0.00  0.00    -0.368 OA
BRANCH   7   8
ATOM      8  C   LIG d   1       0.936  83.988 112.944  0.00  0.00     0.119 C 
BRANCH   8   9
ATOM      9  C   LIG d   1       1.321  84.671 114.270  0.00  0.00     0.028 C 
ATOM     10  C   LIG d   1       2.473  85.675 114.101  0.00  0.00     0.006 C 
ENDBRANCH   8   9
BRANCH   8  11
ATOM     11  C   LIG d   1      -0.331  84.707 112.470  0.00  0.00     0.028 C 
ATOM     12  C   LIG d   1      -0.353  84.935 110.950  0.00  0.00     0.006 C 
ENDBRANCH   8  11
ENDBRANCH   7   8
ENDBRANCH   1   7
BRANCH   6  13
ATOM     13  N   LIG d   1      -0.893  80.316 112.030  0.00  0.00    -0.311 N 
ATOM     14  C   LIG d   1      -2.014  80.707 112.635  0.00  0.00     0.210 C 
ATOM     15  C   LIG d   1      -2.785  79.592 113.349  0.00  0.00     0.109 C 
ATOM     16  O   LIG d   1      -2.459  81.864 112.621  0.00  0.00    -0.276 OA
ATOM     17  H   LIG d   1      -0.624  79.353 112.065  0.00  0.00     0.149 HD
ENDBRANCH   6  13
BRANCH   5  18
ATOM     18  N   LIG d   1      -0.503  80.344 109.000  0.00  0.00     0.381 N 
ATOM     19  H   LIG d   1      -0.931  79.463 109.204  0.00  0.00    -0.090 HD
ATOM     20  H   LIG d   1      -0.087  80.288 108.087  0.00  0.00    -0.090 HD
ATOM     21  H   LIG d   1      -1.190  81.066 109.016  0.00  0.00    -0.090 HD
ENDBRANCH   5  18
BRANCH   3  22
ATOM     22  C   LIG d   1       3.762  82.401 109.715  0.00  0.00     0.382 C 
ATOM     23  O   LIG d   1       4.604  82.989 110.436  0.00  0.00    -0.241 OA
ATOM     24  O   LIG d   1       4.034  82.166 108.522  0.00  0.00    -0.241 OA
ENDBRANCH   3  22
TORSDOF 7
ENDMDL
MODEL 6
REMARK VINA RESULT:      -6.1      2.543      4.817
REMARK  7 active torsions:
REMARK  status: ('A' for Active; 'I' for Inactive)
REMARK    1  A    between atoms: C_2  and  C_3 
REMARK    2  A    between atoms: C_3  and  O_6 
REMARK    3  A    between atoms: C_3  and  C_4 
REMARK    4  A    between atoms: C_7  and  O_6 
REMARK    5  A    between atoms: C_9  and  C_10 
REMARK    6  A    between atoms: N_15  and  C_14 
REMARK    7  A    between atoms: N_20  and  C_19 
REMARK       I    between atoms: C_22  and  N_20 
ROOT
ATOM      1  C   LIG d   1       2.240  83.137 112.110  0.00  0.00     0.161 C 
ATOM      2  C   LIG d   1       1.304  82.089 112.100  0.00  0.00     0.016 C 
ATOM      3  C   LIG d   1      -0.095  82.295 112.087  0.00  0.00     0.038 C 
ATOM      4  C   LIG d   1      -0.655  83.571 111.930  0.00  0.00     0.028 C 
ATOM      5  C   LIG d   1       0.241  84.693 112.444  0.00  0.00    -0.047 C 
ATOM      6  C   LIG d   1       1.649  84.534 111.827  0.00  0.00     0.091 C 
ENDROOT
BRANCH   1   7
ATOM      7  O   LIG d   1       3.307  82.848 111.187  0.00  0.00    -0.368 OA
BRANCH   7   8
ATOM      8  C   LIG d   1       2.983  81.947 110.099  0.00  0.00     0.119 C 
BRANCH   8   9
ATOM      9  C   LIG d   1       4.183  81.000 109.908  0.00  0.00     0.028 C 
ATOM     10  C   LIG d   1       5.024  81.360 108.671  0.00  0.00     0.006 C 
ENDBRANCH   8   9
BRANCH   8  11
ATOM     11  C   LIG d   1       2.846  82.701 108.773  0.00  0.00     0.028 C 
ATOM     12  C   LIG d   1       1.393  83.085 108.453  0.00  0.00     0.006 C 
ENDBRANCH   8  11
ENDBRANCH   7   8
ENDBRANCH   1   7
BRANCH   6  13
ATOM     13  N   LIG d   1       2.611  85.542 112.343  0.00  0.00    -0.311 N 
ATOM     14  C   LIG d   1       2.796  86.735 111.779  0.00  0.00     0.210 C 
ATOM     15  C   LIG d   1       3.851  87.615 112.458  0.00  0.00     0.109 C 
ATOM     16  O   LIG d   1       2.164  87.160 110.801  0.00  0.00    -0.276 OA
ATOM     17  H   LIG d   1       3.144  85.292 113.153  0.00  0.00     0.149 HD
ENDBRANCH   6  13
BRANCH   5  18
ATOM     18  N   LIG d   1      -0.403  85.974 112.093  0.00  0.00     0.381 N 
ATOM     19  H   LIG d   1      -0.650  86.468 112.927  0.00  0.00    -0.090 HD
ATOM     20  H   LIG d   1      -1.244  85.784 111.578  0.00  0.00    -0.090 HD
ATOM     21  H   LIG d   1       0.216  86.527 111.542  0.00  0.00    -0.090 HD
ENDBRANCH   5  18
BRANCH   3  22
ATOM     22  C   LIG d   1      -0.949  81.219 112.273  0.00  0.00     0.382 C 
ATOM     23  O   LIG d   1      -2.160  81.418 112.535  0.00  0.00    -0.241 OA
ATOM     24  O   LIG d   1      -0.516  80.052 112.225  0.00  0.00    -0.241 OA
ENDBRANCH   3  22
TORSDOF 7
ENDMDL
MODEL 7
REMARK VINA RESULT:      -5.9      2.018      3.148
REMARK  7 active torsions:
REMARK  status: ('A' for Active; 'I' for Inactive)
REMARK    1  A    between atoms: C_2  and  C_3 
REMARK    2  A    between atoms: C_3  and  O_6 
REMARK    3  A    between atoms: C_3  and  C_4 
REMARK    4  A    between atoms: C_7  and  O_6 
REMARK    5  A    between atoms: C_9  and  C_10 
REMARK    6  A    between atoms: N_15  and  C_14 
REMARK    7  A    between atoms: N_20  and  C_19 
REMARK       I    between atoms: C_22  and  N_20 
ROOT
ATOM      1  C   LIG d   1       2.476  83.060 110.745  0.00  0.00     0.161 C 
ATOM      2  C   LIG d   1       3.138  84.297 110.811  0.00  0.00     0.016 C 
ATOM      3  C   LIG d   1       2.698  85.373 111.616  0.00  0.00     0.038 C 
ATOM      4  C   LIG d   1       1.644  85.232 112.531  0.00  0.00     0.028 C 
ATOM      5  C   LIG d   1       0.634  84.162 112.131  0.00  0.00    -0.047 C 
ATOM      6  C   LIG d   1       1.389  82.850 111.820  0.00  0.00     0.091 C 
ENDROOT
BRANCH   1   7
ATOM      7  O   LIG d   1       3.438  81.988 110.789  0.00  0.00    -0.368 OA
BRANCH   7   8
ATOM      8  C   LIG d   1       3.507  81.144 109.613  0.00  0.00     0.119 C 
BRANCH   8   9
ATOM      9  C   LIG d   1       3.265  79.693 110.069  0.00  0.00     0.028 C 
ATOM     10  C   LIG d   1       2.033  79.064 109.398  0.00  0.00     0.006 C 
ENDBRANCH   8   9
BRANCH   8  11
ATOM     11  C   LIG d   1       4.913  81.150 109.005  0.00  0.00     0.028 C 
ATOM     12  C   LIG d   1       5.296  82.511 108.402  0.00  0.00     0.006 C 
ENDBRANCH   8  11
ENDBRANCH   7   8
ENDBRANCH   1   7
BRANCH   6  13
ATOM     13  N   LIG d   1       0.483  81.774 111.339  0.00  0.00    -0.311 N 
ATOM     14  C   LIG d   1      -0.012  80.824 112.130  0.00  0.00     0.210 C 
ATOM     15  C   LIG d   1      -0.910  79.801 111.428  0.00  0.00     0.109 C 
ATOM     16  O   LIG d   1       0.182  80.750 113.353  0.00  0.00    -0.276 OA
ATOM     17  H   LIG d   1       0.248  81.777 110.365  0.00  0.00     0.149 HD
ENDBRANCH   6  13
BRANCH   5  18
ATOM     18  N   LIG d   1      -0.332  84.025 113.238  0.00  0.00     0.381 N 
ATOM     19  H   LIG d   1       0.074  83.486 113.977  0.00  0.00    -0.090 HD
ATOM     20  H   LIG d   1      -1.144  83.537 112.902  0.00  0.00    -0.090 HD
ATOM     21  H   LIG d   1      -0.592  84.925 113.577  0.00  0.00    -0.090 HD
ENDBRANCH   5  18
BRANCH   3  22
ATOM     22  C   LIG d   1       3.290  86.619 111.481  0.00  0.00     0.382 C 
ATOM     23  O   LIG d   1       4.537  86.734 111.568  0.00  0.00    -0.241 OA
ATOM     24  O   LIG d   1       2.590  87.637 111.317  0.00  0.00    -0.241 OA
ENDBRANCH   3  22
TORSDOF 7
ENDMDL
MODEL 8
REMARK VINA RESULT:      -5.8      2.053      2.876
REMARK  7 active torsions:
REMARK  status: ('A' for Active; 'I' for Inactive)
REMARK    1  A    between atoms: C_2  and  C_3 
REMARK    2  A    between atoms: C_3  and  O_6 
REMARK    3  A    between atoms: C_3  and  C_4 
REMARK    4  A    between atoms: C_7  and  O_6 
REMARK    5  A    between atoms: C_9  and  C_10 
REMARK    6  A    between atoms: N_15  and  C_14 
REMARK    7  A    between atoms: N_20  and  C_19 
REMARK       I    between atoms: C_22  and  N_20 
ROOT
ATOM      1  C   LIG d   1       0.705  82.269 110.354  0.00  0.00     0.161 C 
ATOM      2  C   LIG d   1       0.912  83.574 109.878  0.00  0.00     0.016 C 
ATOM      3  C   LIG d   1       1.213  84.670 110.720  0.00  0.00     0.038 C 
ATOM      4  C   LIG d   1       1.479  84.504 112.087  0.00  0.00     0.028 C 
ATOM      5  C   LIG d   1       0.787  83.288 112.695  0.00  0.00    -0.047 C 
ATOM      6  C   LIG d   1       1.100  82.047 111.829  0.00  0.00     0.091 C 
ENDROOT
BRANCH   1   7
ATOM      7  O   LIG d   1       1.389  81.326 109.505  0.00  0.00    -0.368 OA
BRANCH   7   8
ATOM      8  C   LIG d   1       2.727  80.950 109.917  0.00  0.00     0.119 C 
BRANCH   8   9
ATOM      9  C   LIG d   1       3.714  81.589 108.922  0.00  0.00     0.028 C 
ATOM     10  C   LIG d   1       4.595  82.666 109.578  0.00  0.00     0.006 C 
ENDBRANCH   8   9
BRANCH   8  11
ATOM     11  C   LIG d   1       2.945  79.440 109.792  0.00  0.00     0.028 C 
ATOM     12  C   LIG d   1       1.628  78.653 109.695  0.00  0.00     0.006 C 
ENDBRANCH   8  11
ENDBRANCH   7   8
ENDBRANCH   1   7
BRANCH   6  13
ATOM     13  N   LIG d   1       0.393  80.830 112.306  0.00  0.00    -0.311 N 
ATOM     14  C   LIG d   1      -0.925  80.772 112.488  0.00  0.00     0.210 C 
ATOM     15  C   LIG d   1      -1.447  79.427 113.005  0.00  0.00     0.109 C 
ATOM     16  O   LIG d   1      -1.714  81.696 112.241  0.00  0.00    -0.276 OA
ATOM     17  H   LIG d   1       0.954  80.024 112.501  0.00  0.00     0.149 HD
ENDBRANCH   6  13
BRANCH   5  18
ATOM     18  N   LIG d   1       1.259  83.157 114.086  0.00  0.00     0.381 N 
ATOM     19  H   LIG d   1       2.254  83.260 114.118  0.00  0.00    -0.090 HD
ATOM     20  H   LIG d   1       1.027  82.239 114.423  0.00  0.00    -0.090 HD
ATOM     21  H   LIG d   1       0.828  83.847 114.660  0.00  0.00    -0.090 HD
ENDBRANCH   5  18
BRANCH   3  22
ATOM     22  C   LIG d   1       1.212  85.956 110.200  0.00  0.00     0.382 C 
ATOM     23  O   LIG d   1       1.991  86.821 110.667  0.00  0.00    -0.241 OA
ATOM     24  O   LIG d   1       0.410  86.273 109.302  0.00  0.00    -0.241 OA
ENDBRANCH   3  22
TORSDOF 7
ENDMDL
MODEL 9
REMARK VINA RESULT:      -5.8      2.869      3.863
REMARK  7 active torsions:
REMARK  status: ('A' for Active; 'I' for Inactive)
REMARK    1  A    between atoms: C_2  and  C_3 
REMARK    2  A    between atoms: C_3  and  O_6 
REMARK    3  A    between atoms: C_3  and  C_4 
REMARK    4  A    between atoms: C_7  and  O_6 
REMARK    5  A    between atoms: C_9  and  C_10 
REMARK    6  A    between atoms: N_15  and  C_14 
REMARK    7  A    between atoms: N_20  and  C_19 
REMARK       I    between atoms: C_22  and  N_20 
ROOT
ATOM      1  C   LIG d   1       3.164  84.642 111.593  0.00  0.00     0.161 C 
ATOM      2  C   LIG d   1       3.864  85.860 111.577  0.00  0.00     0.016 C 
ATOM      3  C   LIG d   1       3.856  86.776 112.654  0.00  0.00     0.038 C 
ATOM      4  C   LIG d   1       3.266  86.465 113.888  0.00  0.00     0.028 C 
ATOM      5  C   LIG d   1       2.122  85.464 113.777  0.00  0.00    -0.047 C 
ATOM      6  C   LIG d   1       2.606  84.235 112.973  0.00  0.00     0.091 C 
ENDROOT
BRANCH   1   7
ATOM      7  O   LIG d   1       3.997  83.593 111.061  0.00  0.00    -0.368 OA
BRANCH   7   8
ATOM      8  C   LIG d   1       3.845  83.315 109.647  0.00  0.00     0.119 C 
BRANCH   8   9
ATOM      9  C   LIG d   1       2.557  82.486 109.474  0.00  0.00     0.028 C 
ATOM     10  C   LIG d   1       1.561  83.147 108.506  0.00  0.00     0.006 C 
ENDBRANCH   8   9
BRANCH   8  11
ATOM     11  C   LIG d   1       4.975  82.419 109.131  0.00  0.00     0.028 C 
ATOM     12  C   LIG d   1       4.639  80.923 109.223  0.00  0.00     0.006 C 
ENDBRANCH   8  11
ENDBRANCH   7   8
ENDBRANCH   1   7
BRANCH   6  13
ATOM     13  N   LIG d   1       1.522  83.244 112.746  0.00  0.00    -0.311 N 
ATOM     14  C   LIG d   1       1.656  81.942 112.993  0.00  0.00     0.210 C 
ATOM     15  C   LIG d   1       0.423  81.092 112.669  0.00  0.00     0.109 C 
ATOM     16  O   LIG d   1       2.668  81.415 113.479  0.00  0.00    -0.276 OA
ATOM     17  H   LIG d   1       0.656  83.590 112.381  0.00  0.00     0.149 HD
ENDBRANCH   6  13
BRANCH   5  18
ATOM     18  N   LIG d   1       1.691  85.126 115.146  0.00  0.00     0.381 N 
ATOM     19  H   LIG d   1       0.896  85.679 115.398  0.00  0.00    -0.090 HD
ATOM     20  H   LIG d   1       2.437  85.339 115.784  0.00  0.00    -0.090 HD
ATOM     21  H   LIG d   1       1.462  84.158 115.203  0.00  0.00    -0.090 HD
ENDBRANCH   5  18
BRANCH   3  22
ATOM     22  C   LIG d   1       4.410  88.037 112.487  0.00  0.00     0.382 C 
ATOM     23  O   LIG d   1       5.605  88.153 112.123  0.00  0.00    -0.241 OA
ATOM     24  O   LIG d   1       3.743  89.058 112.740  0.00  0.00    -0.241 OA
ENDBRANCH   3  22
TORSDOF 7
ENDMDL
