MODEL 1
REMARK VINA RESULT:      -5.8      0.000      0.000
REMARK  7 active torsions:
REMARK  status: ('A' for Active; 'I' for Inactive)
REMARK    1  A    between atoms: C_2  and  C_3 
REMARK    2  A    between atoms: C_3  and  O_6 
REMARK    3  A    between atoms: C_3  and  C_4 
REMARK    4  A    between atoms: C_7  and  O_6 
REMARK    5  A    between atoms: C_9  and  C_10 
REMARK    6  A    between atoms: N_15  and  C_14 
REMARK    7  A    between atoms: N_20  and  C_19 
REMARK       I    between atoms: C_22  and  N_20 
ROOT
ATOM      1  C   LIG d   1       1.022  82.148 112.432  0.00  0.00     0.161 C 
ATOM      2  C   LIG d   1       2.112  82.700 111.737  0.00  0.00     0.016 C 
ATOM      3  C   LIG d   1       2.353  82.475 110.362  0.00  0.00     0.038 C 
ATOM      4  C   LIG d   1       1.430  81.801 109.548  0.00  0.00     0.028 C 
ATOM      5  C   LIG d   1       0.571  80.798 110.310  0.00  0.00    -0.047 C 
ATOM      6  C   LIG d   1      -0.055  81.501 111.536  0.00  0.00     0.091 C 
ENDROOT
BRANCH   1   7
ATOM      7  O   LIG d   1       0.430  83.147 113.286  0.00  0.00    -0.368 OA
BRANCH   7   8
ATOM      8  C   LIG d   1       0.689  84.526 112.927  0.00  0.00     0.119 C 
BRANCH   8   9
ATOM      9  C   LIG d   1       1.060  85.279 114.220  0.00  0.00     0.028 C 
ATOM     10  C   LIG d   1       1.986  84.457 115.132  0.00  0.00     0.006 C 
ENDBRANCH   8   9
BRANCH   8  11
ATOM     11  C   LIG d   1      -0.576  85.214 112.406  0.00  0.00     0.028 C 
ATOM     12  C   LIG d   1      -0.743  85.081 110.884  0.00  0.00     0.006 C 
ENDBRANCH   8  11
ENDBRANCH   7   8
ENDBRANCH   1   7
BRANCH   6  13
ATOM     13  N   LIG d   1      -0.844  80.569 112.383  0.00  0.00    -0.311 N 
ATOM     14  C   LIG d   1      -2.065  80.846 112.836  0.00  0.00     0.210 C 
ATOM     15  C   LIG d   1      -2.693  79.755 113.709  0.00  0.00     0.109 C 
ATOM     16  O   LIG d   1      -2.701  81.877 112.572  0.00  0.00    -0.276 OA
ATOM     17  H   LIG d   1      -0.416  79.695 112.620  0.00  0.00     0.149 HD
ENDBRANCH   6  13
BRANCH   5  18
ATOM     18  N   LIG d   1      -0.436  80.270 109.370  0.00  0.00     0.381 N 
ATOM     19  H   LIG d   1      -0.543  79.284 109.506  0.00  0.00    -0.090 HD
ATOM     20  H   LIG d   1      -0.117  80.426 108.430  0.00  0.00    -0.090 HD
ATOM     21  H   LIG d   1      -1.309  80.728 109.512  0.00  0.00    -0.090 HD
ENDBRANCH   5  18
BRANCH   3  22
ATOM     22  C   LIG d   1       3.548  82.894 109.797  0.00  0.00     0.382 C 
ATOM     23  O   LIG d   1       3.817  84.117 109.735  0.00  0.00    -0.241 OA
ATOM     24  O   LIG d   1       4.339  82.066 109.308  0.00  0.00    -0.241 OA
ENDBRANCH   3  22
TORSDOF 7
ENDMDL
MODEL 2
REMARK VINA RESULT:      -5.8      3.495      6.155
REMARK  7 active torsions:
REMARK  status: ('A' for Active; 'I' for Inactive)
REMARK    1  A    between atoms: C_2  and  C_3 
REMARK    2  A    between atoms: C_3  and  O_6 
REMARK    3  A    between atoms: C_3  and  C_4 
REMARK    4  A    between atoms: C_7  and  O_6 
REMARK    5  A    between atoms: C_9  and  C_10 
REMARK    6  A    between atoms: N_15  and  C_14 
REMARK    7  A    between atoms: N_20  and  C_19 
REMARK       I    between atoms: C_22  and  N_20 
ROOT
ATOM      1  C   LIG d   1       2.418  84.702 113.293  0.00  0.00     0.161 C 
ATOM      2  C   LIG d   1       1.322  83.881 112.981  0.00  0.00     0.016 C 
ATOM      3  C   LIG d   1       0.279  84.273 112.110  0.00  0.00     0.038 C 
ATOM      4  C   LIG d   1       0.340  85.463 111.369  0.00  0.00     0.028 C 
ATOM      5  C   LIG d   1       1.180  86.549 112.034  0.00  0.00    -0.047 C 
ATOM      6  C   LIG d   1       2.558  85.958 112.408  0.00  0.00     0.091 C 
ENDROOT
BRANCH   1   7
ATOM      7  O   LIG d   1       3.633  83.927 113.259  0.00  0.00    -0.368 OA
BRANCH   7   8
ATOM      8  C   LIG d   1       3.659  82.822 112.323  0.00  0.00     0.119 C 
BRANCH   8   9
ATOM      9  C   LIG d   1       4.321  81.627 113.036  0.00  0.00     0.028 C 
ATOM     10  C   LIG d   1       4.062  81.630 114.551  0.00  0.00     0.006 C 
ENDBRANCH   8   9
BRANCH   8  11
ATOM     11  C   LIG d   1       4.559  83.128 111.123  0.00  0.00     0.028 C 
ATOM     12  C   LIG d   1       3.771  83.604 109.892  0.00  0.00     0.006 C 
ENDBRANCH   8  11
ENDBRANCH   7   8
ENDBRANCH   1   7
BRANCH   6  13
ATOM     13  N   LIG d   1       3.412  86.930 113.140  0.00  0.00    -0.311 N 
ATOM     14  C   LIG d   1       4.562  87.402 112.661  0.00  0.00     0.210 C 
ATOM     15  C   LIG d   1       5.295  88.379 113.585  0.00  0.00     0.109 C 
ATOM     16  O   LIG d   1       5.028  87.128 111.545  0.00  0.00    -0.276 OA
ATOM     17  H   LIG d   1       3.093  87.230 114.040  0.00  0.00     0.149 HD
ENDBRANCH   6  13
BRANCH   5  18
ATOM     18  N   LIG d   1       1.271  87.681 111.093  0.00  0.00     0.381 N 
ATOM     19  H   LIG d   1       1.773  87.401 110.274  0.00  0.00    -0.090 HD
ATOM     20  H   LIG d   1       1.778  88.429 111.533  0.00  0.00    -0.090 HD
ATOM     21  H   LIG d   1       0.358  87.990 110.842  0.00  0.00    -0.090 HD
ENDBRANCH   5  18
BRANCH   3  22
ATOM     22  C   LIG d   1      -0.860  83.489 112.004  0.00  0.00     0.382 C 
ATOM     23  O   LIG d   1      -1.237  83.080 110.880  0.00  0.00    -0.241 OA
ATOM     24  O   LIG d   1      -1.539  83.223 113.013  0.00  0.00    -0.241 OA
ENDBRANCH   3  22
TORSDOF 7
ENDMDL
MODEL 3
REMARK VINA RESULT:      -5.7      2.825      4.859
REMARK  7 active torsions:
REMARK  status: ('A' for Active; 'I' for Inactive)
REMARK    1  A    between atoms: C_2  and  C_3 
REMARK    2  A    between atoms: C_3  and  O_6 
REMARK    3  A    between atoms: C_3  and  C_4 
REMARK    4  A    between atoms: C_7  and  O_6 
REMARK    5  A    between atoms: C_9  and  C_10 
REMARK    6  A    between atoms: N_15  and  C_14 
REMARK    7  A    between atoms: N_20  and  C_19 
REMARK       I    between atoms: C_22  and  N_20 
ROOT
ATOM      1  C   LIG d   1       2.414  84.398 110.266  0.00  0.00     0.161 C 
ATOM      2  C   LIG d   1       1.553  85.482 110.506  0.00  0.00     0.016 C 
ATOM      3  C   LIG d   1       0.178  85.333 110.802  0.00  0.00     0.038 C 
ATOM      4  C   LIG d   1      -0.399  84.074 111.027  0.00  0.00     0.028 C 
ATOM      5  C   LIG d   1       0.316  82.941 110.300  0.00  0.00    -0.047 C 
ATOM      6  C   LIG d   1       1.827  83.015 110.617  0.00  0.00     0.091 C 
ENDROOT
BRANCH   1   7
ATOM      7  O   LIG d   1       3.662  84.603 110.958  0.00  0.00    -0.368 OA
BRANCH   7   8
ATOM      8  C   LIG d   1       3.629  85.530 112.071  0.00  0.00     0.119 C 
BRANCH   8   9
ATOM      9  C   LIG d   1       4.670  86.630 111.789  0.00  0.00     0.028 C 
ATOM     10  C   LIG d   1       4.882  87.560 112.995  0.00  0.00     0.006 C 
ENDBRANCH   8   9
BRANCH   8  11
ATOM     11  C   LIG d   1       4.089  84.858 113.368  0.00  0.00     0.028 C 
ATOM     12  C   LIG d   1       2.917  84.415 114.258  0.00  0.00     0.006 C 
ENDBRANCH   8  11
ENDBRANCH   7   8
ENDBRANCH   1   7
BRANCH   6  13
ATOM     13  N   LIG d   1       2.613  81.993 109.878  0.00  0.00    -0.311 N 
ATOM     14  C   LIG d   1       3.574  81.260 110.438  0.00  0.00     0.210 C 
ATOM     15  C   LIG d   1       4.272  80.278 109.493  0.00  0.00     0.109 C 
ATOM     16  O   LIG d   1       3.892  81.308 111.636  0.00  0.00    -0.276 OA
ATOM     17  H   LIG d   1       2.398  81.866 108.908  0.00  0.00     0.149 HD
ENDBRANCH   6  13
BRANCH   5  18
ATOM     18  N   LIG d   1      -0.303  81.673 110.732  0.00  0.00     0.381 N 
ATOM     19  H   LIG d   1       0.250  80.901 110.416  0.00  0.00    -0.090 HD
ATOM     20  H   LIG d   1      -1.215  81.599 110.316  0.00  0.00    -0.090 HD
ATOM     21  H   LIG d   1      -0.380  81.652 111.725  0.00  0.00    -0.090 HD
ENDBRANCH   5  18
BRANCH   3  22
ATOM     22  C   LIG d   1      -0.642  86.449 110.835  0.00  0.00     0.382 C 
ATOM     23  O   LIG d   1      -1.717  86.457 110.188  0.00  0.00    -0.241 OA
ATOM     24  O   LIG d   1      -0.301  87.466 111.470  0.00  0.00    -0.241 OA
ENDBRANCH   3  22
TORSDOF 7
ENDMDL
MODEL 4
REMARK VINA RESULT:      -5.7      3.551      5.173
REMARK  7 active torsions:
REMARK  status: ('A' for Active; 'I' for Inactive)
REMARK    1  A    between atoms: C_2  and  C_3 
REMARK    2  A    between atoms: C_3  and  O_6 
REMARK    3  A    between atoms: C_3  and  C_4 
REMARK    4  A    between atoms: C_7  and  O_6 
REMARK    5  A    between atoms: C_9  and  C_10 
REMARK    6  A    between atoms: N_15  and  C_14 
REMARK    7  A    between atoms: N_20  and  C_19 
REMARK       I    between atoms: C_22  and  N_20 
ROOT
ATOM      1  C   LIG d   1       3.218  84.503 110.145  0.00  0.00     0.161 C 
ATOM      2  C   LIG d   1       3.022  83.204 109.646  0.00  0.00     0.016 C 
ATOM      3  C   LIG d   1       3.364  82.035 110.364  0.00  0.00     0.038 C 
ATOM      4  C   LIG d   1       3.788  82.083 111.701  0.00  0.00     0.028 C 
ATOM      5  C   LIG d   1       4.478  83.392 112.070  0.00  0.00    -0.047 C 
ATOM      6  C   LIG d   1       3.576  84.572 111.644  0.00  0.00     0.091 C 
ENDROOT
BRANCH   1   7
ATOM      7  O   LIG d   1       2.057  85.312 109.869  0.00  0.00    -0.368 OA
BRANCH   7   8
ATOM      8  C   LIG d   1       1.045  85.348 110.904  0.00  0.00     0.119 C 
BRANCH   8   9
ATOM      9  C   LIG d   1      -0.169  84.548 110.393  0.00  0.00     0.028 C 
ATOM     10  C   LIG d   1      -0.365  83.227 111.156  0.00  0.00     0.006 C 
ENDBRANCH   8   9
BRANCH   8  11
ATOM     11  C   LIG d   1       0.527  86.772 111.127  0.00  0.00     0.028 C 
ATOM     12  C   LIG d   1      -1.001  86.833 111.284  0.00  0.00     0.006 C 
ENDBRANCH   8  11
ENDBRANCH   7   8
ENDBRANCH   1   7
BRANCH   6  13
ATOM     13  N   LIG d   1       4.213  85.892 111.894  0.00  0.00    -0.311 N 
ATOM     14  C   LIG d   1       3.996  86.615 112.991  0.00  0.00     0.210 C 
ATOM     15  C   LIG d   1       4.738  87.955 113.039  0.00  0.00     0.109 C 
ATOM     16  O   LIG d   1       3.286  86.260 113.943  0.00  0.00    -0.276 OA
ATOM     17  H   LIG d   1       4.829  86.242 111.186  0.00  0.00     0.149 HD
ENDBRANCH   6  13
BRANCH   5  18
ATOM     18  N   LIG d   1       4.744  83.361 113.521  0.00  0.00     0.381 N 
ATOM     19  H   LIG d   1       4.947  82.425 113.808  0.00  0.00    -0.090 HD
ATOM     20  H   LIG d   1       3.920  83.669 114.009  0.00  0.00    -0.090 HD
ATOM     21  H   LIG d   1       5.511  83.958 113.740  0.00  0.00    -0.090 HD
ENDBRANCH   5  18
BRANCH   3  22
ATOM     22  C   LIG d   1       3.321  80.802 109.731  0.00  0.00     0.382 C 
ATOM     23  O   LIG d   1       2.229  80.354 109.305  0.00  0.00    -0.241 OA
ATOM     24  O   LIG d   1       4.352  80.113 109.619  0.00  0.00    -0.241 OA
ENDBRANCH   3  22
TORSDOF 7
ENDMDL
MODEL 5
REMARK VINA RESULT:      -5.5      6.624      9.648
REMARK  7 active torsions:
REMARK  status: ('A' for Active; 'I' for Inactive)
REMARK    1  A    between atoms: C_2  and  C_3 
REMARK    2  A    between atoms: C_3  and  O_6 
REMARK    3  A    between atoms: C_3  and  C_4 
REMARK    4  A    between atoms: C_7  and  O_6 
REMARK    5  A    between atoms: C_9  and  C_10 
REMARK    6  A    between atoms: N_15  and  C_14 
REMARK    7  A    between atoms: N_20  and  C_19 
REMARK       I    between atoms: C_22  and  N_20 
ROOT
ATOM      1  C   LIG d   1      -3.763  75.905 114.972  0.00  0.00     0.161 C 
ATOM      2  C   LIG d   1      -3.943  76.668 113.806  0.00  0.00     0.016 C 
ATOM      3  C   LIG d   1      -2.882  77.304 113.121  0.00  0.00     0.038 C 
ATOM      4  C   LIG d   1      -1.541  77.094 113.472  0.00  0.00     0.028 C 
ATOM      5  C   LIG d   1      -1.348  76.740 114.943  0.00  0.00    -0.047 C 
ATOM      6  C   LIG d   1      -2.293  75.573 115.306  0.00  0.00     0.091 C 
ENDROOT
BRANCH   1   7
ATOM      7  O   LIG d   1      -4.544  74.697 114.891  0.00  0.00    -0.368 OA
BRANCH   7   8
ATOM      8  C   LIG d   1      -5.752  74.664 115.690  0.00  0.00     0.119 C 
BRANCH   8   9
ATOM      9  C   LIG d   1      -6.279  73.216 115.671  0.00  0.00     0.028 C 
ATOM     10  C   LIG d   1      -6.447  72.635 117.085  0.00  0.00     0.006 C 
ENDBRANCH   8   9
BRANCH   8  11
ATOM     11  C   LIG d   1      -6.862  75.508 115.057  0.00  0.00     0.028 C 
ATOM     12  C   LIG d   1      -8.038  75.759 116.013  0.00  0.00     0.006 C 
ENDBRANCH   8  11
ENDBRANCH   7   8
ENDBRANCH   1   7
BRANCH   6  13
ATOM     13  N   LIG d   1      -2.229  75.220 116.749  0.00  0.00    -0.311 N 
ATOM     14  C   LIG d   1      -1.525  74.192 117.221  0.00  0.00     0.210 C 
ATOM     15  C   LIG d   1      -1.612  73.992 118.738  0.00  0.00     0.109 C 
ATOM     16  O   LIG d   1      -0.812  73.448 116.533  0.00  0.00    -0.276 OA
ATOM     17  H   LIG d   1      -2.754  75.791 117.382  0.00  0.00     0.149 HD
ENDBRANCH   6  13
BRANCH   5  18
ATOM     18  N   LIG d   1       0.077  76.413 115.139  0.00  0.00     0.381 N 
ATOM     19  H   LIG d   1       0.481  76.123 114.271  0.00  0.00    -0.090 HD
ATOM     20  H   LIG d   1       0.149  75.652 115.791  0.00  0.00    -0.090 HD
ATOM     21  H   LIG d   1       0.564  77.208 115.491  0.00  0.00    -0.090 HD
ENDBRANCH   5  18
BRANCH   3  22
ATOM     22  C   LIG d   1      -3.163  78.194 112.095  0.00  0.00     0.382 C 
ATOM     23  O   LIG d   1      -3.324  79.412 112.348  0.00  0.00    -0.241 OA
ATOM     24  O   LIG d   1      -3.301  77.787 110.926  0.00  0.00    -0.241 OA
ENDBRANCH   3  22
TORSDOF 7
ENDMDL
MODEL 6
REMARK VINA RESULT:      -5.4      3.494      5.260
REMARK  7 active torsions:
REMARK  status: ('A' for Active; 'I' for Inactive)
REMARK    1  A    between atoms: C_2  and  C_3 
REMARK    2  A    between atoms: C_3  and  O_6 
REMARK    3  A    between atoms: C_3  and  C_4 
REMARK    4  A    between atoms: C_7  and  O_6 
REMARK    5  A    between atoms: C_9  and  C_10 
REMARK    6  A    between atoms: N_15  and  C_14 
REMARK    7  A    between atoms: N_20  and  C_19 
REMARK       I    between atoms: C_22  and  N_20 
ROOT
ATOM      1  C   LIG d   1       4.120  84.967 112.398  0.00  0.00     0.161 C 
ATOM      2  C   LIG d   1       3.852  86.275 112.832  0.00  0.00     0.016 C 
ATOM      3  C   LIG d   1       2.894  87.117 112.221  0.00  0.00     0.038 C 
ATOM      4  C   LIG d   1       2.026  86.650 111.223  0.00  0.00     0.028 C 
ATOM      5  C   LIG d   1       2.602  85.495 110.411  0.00  0.00    -0.047 C 
ATOM      6  C   LIG d   1       3.105  84.402 111.382  0.00  0.00     0.091 C 
ENDROOT
BRANCH   1   7
ATOM      7  O   LIG d   1       4.232  84.088 113.535  0.00  0.00    -0.368 OA
BRANCH   7   8
ATOM      8  C   LIG d   1       2.984  83.635 114.116  0.00  0.00     0.119 C 
BRANCH   8   9
ATOM      9  C   LIG d   1       2.980  84.063 115.596  0.00  0.00     0.028 C 
ATOM     10  C   LIG d   1       2.007  85.223 115.869  0.00  0.00     0.006 C 
ENDBRANCH   8   9
BRANCH   8  11
ATOM     11  C   LIG d   1       2.901  82.106 114.136  0.00  0.00     0.028 C 
ATOM     12  C   LIG d   1       4.246  81.432 113.819  0.00  0.00     0.006 C 
ENDBRANCH   8  11
ENDBRANCH   7   8
ENDBRANCH   1   7
BRANCH   6  13
ATOM     13  N   LIG d   1       3.760  83.272 110.673  0.00  0.00    -0.311 N 
ATOM     14  C   LIG d   1       3.130  82.144 110.351  0.00  0.00     0.210 C 
ATOM     15  C   LIG d   1       3.996  81.099 109.640  0.00  0.00     0.109 C 
ATOM     16  O   LIG d   1       1.927  81.922 110.558  0.00  0.00    -0.276 OA
ATOM     17  H   LIG d   1       4.728  83.380 110.439  0.00  0.00     0.149 HD
ENDBRANCH   6  13
BRANCH   5  18
ATOM     18  N   LIG d   1       1.543  85.017 109.502  0.00  0.00     0.381 N 
ATOM     19  H   LIG d   1       1.048  85.798 109.119  0.00  0.00    -0.090 HD
ATOM     20  H   LIG d   1       0.893  84.457 110.025  0.00  0.00    -0.090 HD
ATOM     21  H   LIG d   1       1.943  84.476 108.767  0.00  0.00    -0.090 HD
ENDBRANCH   5  18
BRANCH   3  22
ATOM     22  C   LIG d   1       2.824  88.454 112.582  0.00  0.00     0.382 C 
ATOM     23  O   LIG d   1       1.758  89.094 112.414  0.00  0.00    -0.241 OA
ATOM     24  O   LIG d   1       3.827  89.040 113.031  0.00  0.00    -0.241 OA
ENDBRANCH   3  22
TORSDOF 7
ENDMDL
MODEL 7
REMARK VINA RESULT:      -5.4      4.103      6.244
REMARK  7 active torsions:
REMARK  status: ('A' for Active; 'I' for Inactive)
REMARK    1  A    between atoms: C_2  and  C_3 
REMARK    2  A    between atoms: C_3  and  O_6 
REMARK    3  A    between atoms: C_3  and  C_4 
REMARK    4  A    between atoms: C_7  and  O_6 
REMARK    5  A    between atoms: C_9  and  C_10 
REMARK    6  A    between atoms: N_15  and  C_14 
REMARK    7  A    between atoms: N_20  and  C_19 
REMARK       I    between atoms: C_22  and  N_20 
ROOT
ATOM      1  C   LIG d   1       2.862  86.258 112.342  0.00  0.00     0.161 C 
ATOM      2  C   LIG d   1       3.176  87.615 112.520  0.00  0.00     0.016 C 
ATOM      3  C   LIG d   1       4.024  88.089 113.548  0.00  0.00     0.038 C 
ATOM      4  C   LIG d   1       4.739  87.216 114.381  0.00  0.00     0.028 C 
ATOM      5  C   LIG d   1       4.062  85.862 114.563  0.00  0.00    -0.047 C 
ATOM      6  C   LIG d   1       3.721  85.281 113.172  0.00  0.00     0.091 C 
ENDROOT
BRANCH   1   7
ATOM      7  O   LIG d   1       2.930  85.920 110.943  0.00  0.00    -0.368 OA
BRANCH   7   8
ATOM      8  C   LIG d   1       1.838  85.119 110.427  0.00  0.00     0.119 C 
BRANCH   8   9
ATOM      9  C   LIG d   1       2.443  84.065 109.479  0.00  0.00     0.028 C 
ATOM     10  C   LIG d   1       3.939  83.827 109.746  0.00  0.00     0.006 C 
ENDBRANCH   8   9
BRANCH   8  11
ATOM     11  C   LIG d   1       0.897  85.956 109.554  0.00  0.00     0.028 C 
ATOM     12  C   LIG d   1      -0.567  85.883 110.016  0.00  0.00     0.006 C 
ENDBRANCH   8  11
ENDBRANCH   7   8
ENDBRANCH   1   7
BRANCH   6  13
ATOM     13  N   LIG d   1       2.981  83.995 113.261  0.00  0.00    -0.311 N 
ATOM     14  C   LIG d   1       3.574  82.803 113.220  0.00  0.00     0.210 C 
ATOM     15  C   LIG d   1       2.623  81.605 113.308  0.00  0.00     0.109 C 
ATOM     16  O   LIG d   1       4.799  82.625 113.152  0.00  0.00    -0.276 OA
ATOM     17  H   LIG d   1       1.985  84.047 113.350  0.00  0.00     0.149 HD
ENDBRANCH   6  13
BRANCH   5  18
ATOM     18  N   LIG d   1       4.980  85.006 115.338  0.00  0.00     0.381 N 
ATOM     19  H   LIG d   1       4.789  84.043 115.145  0.00  0.00    -0.090 HD
ATOM     20  H   LIG d   1       4.826  85.168 116.318  0.00  0.00    -0.090 HD
ATOM     21  H   LIG d   1       5.925  85.219 115.104  0.00  0.00    -0.090 HD
ENDBRANCH   5  18
BRANCH   3  22
ATOM     22  C   LIG d   1       4.131  89.453 113.776  0.00  0.00     0.382 C 
ATOM     23  O   LIG d   1       4.813  90.166 113.001  0.00  0.00    -0.241 OA
ATOM     24  O   LIG d   1       3.590  89.971 114.771  0.00  0.00    -0.241 OA
ENDBRANCH   3  22
TORSDOF 7
ENDMDL
MODEL 8
REMARK VINA RESULT:      -5.3      2.981      4.639
REMARK  7 active torsions:
REMARK  status: ('A' for Active; 'I' for Inactive)
REMARK    1  A    between atoms: C_2  and  C_3 
REMARK    2  A    between atoms: C_3  and  O_6 
REMARK    3  A    between atoms: C_3  and  C_4 
REMARK    4  A    between atoms: C_7  and  O_6 
REMARK    5  A    between atoms: C_9  and  C_10 
REMARK    6  A    between atoms: N_15  and  C_14 
REMARK    7  A    between atoms: N_20  and  C_19 
REMARK       I    between atoms: C_22  and  N_20 
ROOT
ATOM      1  C   LIG d   1       2.273  84.300 111.541  0.00  0.00     0.161 C 
ATOM      2  C   LIG d   1       2.710  85.524 112.075  0.00  0.00     0.016 C 
ATOM      3  C   LIG d   1       2.009  86.741 111.906  0.00  0.00     0.038 C 
ATOM      4  C   LIG d   1       0.738  86.788 111.316  0.00  0.00     0.028 C 
ATOM      5  C   LIG d   1       0.491  85.662 110.318  0.00  0.00    -0.047 C 
ATOM      6  C   LIG d   1       0.832  84.312 110.990  0.00  0.00     0.091 C 
ENDROOT
BRANCH   1   7
ATOM      7  O   LIG d   1       2.425  83.257 112.524  0.00  0.00    -0.368 OA
BRANCH   7   8
ATOM      8  C   LIG d   1       3.382  82.216 112.207  0.00  0.00     0.119 C 
BRANCH   8   9
ATOM      9  C   LIG d   1       4.500  82.277 113.266  0.00  0.00     0.028 C 
ATOM     10  C   LIG d   1       4.084  81.628 114.597  0.00  0.00     0.006 C 
ENDBRANCH   8   9
BRANCH   8  11
ATOM     11  C   LIG d   1       4.076  82.487 110.869  0.00  0.00     0.028 C 
ATOM     12  C   LIG d   1       3.956  81.311 109.887  0.00  0.00     0.006 C 
ENDBRANCH   8  11
ENDBRANCH   7   8
ENDBRANCH   1   7
BRANCH   6  13
ATOM     13  N   LIG d   1       0.699  83.164 110.056  0.00  0.00    -0.311 N 
ATOM     14  C   LIG d   1       0.222  81.975 110.419  0.00  0.00     0.210 C 
ATOM     15  C   LIG d   1       0.187  80.924 109.305  0.00  0.00     0.109 C 
ATOM     16  O   LIG d   1      -0.206  81.700 111.550  0.00  0.00    -0.276 OA
ATOM     17  H   LIG d   1       0.993  83.309 109.110  0.00  0.00     0.149 HD
ENDBRANCH   6  13
BRANCH   5  18
ATOM     18  N   LIG d   1      -0.916  85.752 109.884  0.00  0.00     0.381 N 
ATOM     19  H   LIG d   1      -0.964  85.731 108.885  0.00  0.00    -0.090 HD
ATOM     20  H   LIG d   1      -1.299  86.625 110.200  0.00  0.00    -0.090 HD
ATOM     21  H   LIG d   1      -1.440  84.994 110.264  0.00  0.00    -0.090 HD
ENDBRANCH   5  18
BRANCH   3  22
ATOM     22  C   LIG d   1       2.600  87.933 112.295  0.00  0.00     0.382 C 
ATOM     23  O   LIG d   1       3.805  87.952 112.642  0.00  0.00    -0.241 OA
ATOM     24  O   LIG d   1       1.930  88.982 112.346  0.00  0.00    -0.241 OA
ENDBRANCH   3  22
TORSDOF 7
ENDMDL
MODEL 9
REMARK VINA RESULT:      -5.3      8.735     11.280
REMARK  7 active torsions:
REMARK  status: ('A' for Active; 'I' for Inactive)
REMARK    1  A    between atoms: C_2  and  C_3 
REMARK    2  A    between atoms: C_3  and  O_6 
REMARK    3  A    between atoms: C_3  and  C_4 
REMARK    4  A    between atoms: C_7  and  O_6 
REMARK    5  A    between atoms: C_9  and  C_10 
REMARK    6  A    between atoms: N_15  and  C_14 
REMARK    7  A    between atoms: N_20  and  C_19 
REMARK       I    between atoms: C_22  and  N_20 
ROOT
ATOM      1  C   LIG d   1      -4.691  75.782 117.650  0.00  0.00     0.161 C 
ATOM      2  C   LIG d   1      -5.865  76.517 117.884  0.00  0.00     0.016 C 
ATOM      3  C   LIG d   1      -6.016  77.877 117.530  0.00  0.00     0.038 C 
ATOM      4  C   LIG d   1      -5.048  78.559 116.777  0.00  0.00     0.028 C 
ATOM      5  C   LIG d   1      -3.639  78.006 116.959  0.00  0.00    -0.047 C 
ATOM      6  C   LIG d   1      -3.666  76.478 116.729  0.00  0.00     0.091 C 
ENDROOT
BRANCH   1   7
ATOM      7  O   LIG d   1      -5.024  74.479 117.134  0.00  0.00    -0.368 OA
BRANCH   7   8
ATOM      8  C   LIG d   1      -6.226  74.400 116.328  0.00  0.00     0.119 C 
BRANCH   8   9
ATOM      9  C   LIG d   1      -6.975  73.117 116.738  0.00  0.00     0.028 C 
ATOM     10  C   LIG d   1      -6.446  71.871 116.007  0.00  0.00     0.006 C 
ENDBRANCH   8   9
BRANCH   8  11
ATOM     11  C   LIG d   1      -5.892  74.219 114.845  0.00  0.00     0.028 C 
ATOM     12  C   LIG d   1      -6.147  75.489 114.017  0.00  0.00     0.006 C 
ENDBRANCH   8  11
ENDBRANCH   7   8
ENDBRANCH   1   7
BRANCH   6  13
ATOM     13  N   LIG d   1      -2.343  75.845 116.971  0.00  0.00    -0.311 N 
ATOM     14  C   LIG d   1      -1.748  75.034 116.097  0.00  0.00     0.210 C 
ATOM     15  C   LIG d   1      -0.397  74.474 116.552  0.00  0.00     0.109 C 
ATOM     16  O   LIG d   1      -2.196  74.751 114.976  0.00  0.00    -0.276 OA
ATOM     17  H   LIG d   1      -1.894  76.045 117.843  0.00  0.00     0.149 HD
ENDBRANCH   6  13
BRANCH   5  18
ATOM     18  N   LIG d   1      -2.756  78.717 116.014  0.00  0.00     0.381 N 
ATOM     19  H   LIG d   1      -2.770  78.257 115.126  0.00  0.00    -0.090 HD
ATOM     20  H   LIG d   1      -1.816  78.693 116.367  0.00  0.00    -0.090 HD
ATOM     21  H   LIG d   1      -3.056  79.661 115.912  0.00  0.00    -0.090 HD
ENDBRANCH   5  18
BRANCH   3  22
ATOM     22  C   LIG d   1      -7.128  78.582 117.966  0.00  0.00     0.382 C 
ATOM     23  O   LIG d   1      -7.874  78.092 118.847  0.00  0.00    -0.241 OA
ATOM     24  O   LIG d   1      -7.418  79.681 117.457  0.00  0.00    -0.241 OA
ENDBRANCH   3  22
TORSDOF 7
ENDMDL
