MODEL 1
REMARK VINA RESULT:      -6.2      0.000      0.000
REMARK  7 active torsions:
REMARK  status: ('A' for Active; 'I' for Inactive)
REMARK    1  A    between atoms: C_2  and  C_3 
REMARK    2  A    between atoms: C_3  and  O_6 
REMARK    3  A    between atoms: C_3  and  C_4 
REMARK    4  A    between atoms: C_7  and  O_6 
REMARK    5  A    between atoms: C_9  and  C_10 
REMARK    6  A    between atoms: N_15  and  C_14 
REMARK    7  A    between atoms: N_20  and  C_19 
REMARK       I    between atoms: C_22  and  N_20 
ROOT
ATOM      1  C   LIG d   1       2.845  84.368 110.094  0.00  0.00     0.161 C 
ATOM      2  C   LIG d   1       1.873  85.377 110.197  0.00  0.00     0.016 C 
ATOM      3  C   LIG d   1       0.504  85.116 110.438  0.00  0.00     0.038 C 
ATOM      4  C   LIG d   1       0.037  83.829 110.745  0.00  0.00     0.028 C 
ATOM      5  C   LIG d   1       0.897  82.717 110.154  0.00  0.00    -0.047 C 
ATOM      6  C   LIG d   1       2.374  82.967 110.535  0.00  0.00     0.091 C 
ENDROOT
BRANCH   1   7
ATOM      7  O   LIG d   1       4.027  84.753 110.824  0.00  0.00    -0.368 OA
BRANCH   7   8
ATOM      8  C   LIG d   1       3.817  85.619 111.966  0.00  0.00     0.119 C 
BRANCH   8   9
ATOM      9  C   LIG d   1       4.851  86.759 111.878  0.00  0.00     0.028 C 
ATOM     10  C   LIG d   1       5.362  87.195 113.262  0.00  0.00     0.006 C 
ENDBRANCH   8   9
BRANCH   8  11
ATOM     11  C   LIG d   1       4.123  84.894 113.279  0.00  0.00     0.028 C 
ATOM     12  C   LIG d   1       4.851  83.557 113.066  0.00  0.00     0.006 C 
ENDBRANCH   8  11
ENDBRANCH   7   8
ENDBRANCH   1   7
BRANCH   6  13
ATOM     13  N   LIG d   1       3.293  81.971 109.927  0.00  0.00    -0.311 N 
ATOM     14  C   LIG d   1       3.746  80.899 110.576  0.00  0.00     0.210 C 
ATOM     15  C   LIG d   1       4.700  80.011 109.771  0.00  0.00     0.109 C 
ATOM     16  O   LIG d   1       3.424  80.583 111.731  0.00  0.00    -0.276 OA
ATOM     17  H   LIG d   1       3.581  82.133 108.982  0.00  0.00     0.149 HD
ENDBRANCH   6  13
BRANCH   5  18
ATOM     18  N   LIG d   1       0.377  81.434 110.665  0.00  0.00     0.381 N 
ATOM     19  H   LIG d   1      -0.545  81.277 110.311  0.00  0.00    -0.090 HD
ATOM     20  H   LIG d   1       0.327  81.480 111.667  0.00  0.00    -0.090 HD
ATOM     21  H   LIG d   1       0.979  80.689 110.389  0.00  0.00    -0.090 HD
ENDBRANCH   5  18
BRANCH   3  22
ATOM     22  C   LIG d   1      -0.420  86.145 110.335  0.00  0.00     0.382 C 
ATOM     23  O   LIG d   1      -0.239  87.215 110.963  0.00  0.00    -0.241 OA
ATOM     24  O   LIG d   1      -1.454  85.999 109.656  0.00  0.00    -0.241 OA
ENDBRANCH   3  22
TORSDOF 7
ENDMDL
MODEL 2
REMARK VINA RESULT:      -6.1      2.221      3.414
REMARK  7 active torsions:
REMARK  status: ('A' for Active; 'I' for Inactive)
REMARK    1  A    between atoms: C_2  and  C_3 
REMARK    2  A    between atoms: C_3  and  O_6 
REMARK    3  A    between atoms: C_3  and  C_4 
REMARK    4  A    between atoms: C_7  and  O_6 
REMARK    5  A    between atoms: C_9  and  C_10 
REMARK    6  A    between atoms: N_15  and  C_14 
REMARK    7  A    between atoms: N_20  and  C_19 
REMARK       I    between atoms: C_22  and  N_20 
ROOT
ATOM      1  C   LIG d   1       1.317  82.983 109.638  0.00  0.00     0.161 C 
ATOM      2  C   LIG d   1       1.528  84.358 109.836  0.00  0.00     0.016 C 
ATOM      3  C   LIG d   1       0.861  85.113 110.828  0.00  0.00     0.038 C 
ATOM      4  C   LIG d   1       0.043  84.509 111.794  0.00  0.00     0.028 C 
ATOM      5  C   LIG d   1      -0.593  83.206 111.321  0.00  0.00    -0.047 C 
ATOM      6  C   LIG d   1       0.512  82.285 110.754  0.00  0.00     0.091 C 
ENDROOT
BRANCH   1   7
ATOM      7  O   LIG d   1       2.580  82.318 109.441  0.00  0.00    -0.368 OA
BRANCH   7   8
ATOM      8  C   LIG d   1       3.172  81.712 110.616  0.00  0.00     0.119 C 
BRANCH   8   9
ATOM      9  C   LIG d   1       4.498  82.445 110.897  0.00  0.00     0.028 C 
ATOM     10  C   LIG d   1       4.689  82.760 112.390  0.00  0.00     0.006 C 
ENDBRANCH   8   9
BRANCH   8  11
ATOM     11  C   LIG d   1       3.562  80.254 110.356  0.00  0.00     0.028 C 
ATOM     12  C   LIG d   1       5.003  80.106 109.843  0.00  0.00     0.006 C 
ENDBRANCH   8  11
ENDBRANCH   7   8
ENDBRANCH   1   7
BRANCH   6  13
ATOM     13  N   LIG d   1      -0.036  81.023 110.192  0.00  0.00    -0.311 N 
ATOM     14  C   LIG d   1      -0.203  79.913 110.909  0.00  0.00     0.210 C 
ATOM     15  C   LIG d   1      -0.762  78.719 110.131  0.00  0.00     0.109 C 
ATOM     16  O   LIG d   1       0.030  79.814 112.123  0.00  0.00    -0.276 OA
ATOM     17  H   LIG d   1      -0.280  81.024 109.221  0.00  0.00     0.149 HD
ENDBRANCH   6  13
BRANCH   5  18
ATOM     18  N   LIG d   1      -1.305  82.615 112.470  0.00  0.00     0.381 N 
ATOM     19  H   LIG d   1      -0.681  82.524 113.246  0.00  0.00    -0.090 HD
ATOM     20  H   LIG d   1      -1.628  81.698 112.215  0.00  0.00    -0.090 HD
ATOM     21  H   LIG d   1      -2.079  83.189 112.723  0.00  0.00    -0.090 HD
ENDBRANCH   5  18
BRANCH   3  22
ATOM     22  C   LIG d   1       0.978  86.494 110.834  0.00  0.00     0.382 C 
ATOM     23  O   LIG d   1      -0.042  87.209 110.985  0.00  0.00    -0.241 OA
ATOM     24  O   LIG d   1       2.084  87.036 110.647  0.00  0.00    -0.241 OA
ENDBRANCH   3  22
TORSDOF 7
ENDMDL
MODEL 3
REMARK VINA RESULT:      -6.1     12.594     14.470
REMARK  7 active torsions:
REMARK  status: ('A' for Active; 'I' for Inactive)
REMARK    1  A    between atoms: C_2  and  C_3 
REMARK    2  A    between atoms: C_3  and  O_6 
REMARK    3  A    between atoms: C_3  and  C_4 
REMARK    4  A    between atoms: C_7  and  O_6 
REMARK    5  A    between atoms: C_9  and  C_10 
REMARK    6  A    between atoms: N_15  and  C_14 
REMARK    7  A    between atoms: N_20  and  C_19 
REMARK       I    between atoms: C_22  and  N_20 
ROOT
ATOM      1  C   LIG d   1      -7.594  76.512 117.552  0.00  0.00     0.161 C 
ATOM      2  C   LIG d   1      -8.855  76.953 117.985  0.00  0.00     0.016 C 
ATOM      3  C   LIG d   1      -9.182  78.315 118.172  0.00  0.00     0.038 C 
ATOM      4  C   LIG d   1      -8.310  79.346 117.791  0.00  0.00     0.028 C 
ATOM      5  C   LIG d   1      -6.840  78.939 117.823  0.00  0.00    -0.047 C 
ATOM      6  C   LIG d   1      -6.665  77.627 117.025  0.00  0.00     0.091 C 
ENDROOT
BRANCH   1   7
ATOM      7  O   LIG d   1      -7.751  75.480 116.558  0.00  0.00    -0.368 OA
BRANCH   7   8
ATOM      8  C   LIG d   1      -7.678  74.115 117.040  0.00  0.00     0.119 C 
BRANCH   8   9
ATOM      9  C   LIG d   1      -6.681  73.360 116.139  0.00  0.00     0.028 C 
ATOM     10  C   LIG d   1      -6.098  74.253 115.031  0.00  0.00     0.006 C 
ENDBRANCH   8   9
BRANCH   8  11
ATOM     11  C   LIG d   1      -9.015  73.390 116.863  0.00  0.00     0.028 C 
ATOM     12  C   LIG d   1      -8.874  71.860 116.916  0.00  0.00     0.006 C 
ENDBRANCH   8  11
ENDBRANCH   7   8
ENDBRANCH   1   7
BRANCH   6  13
ATOM     13  N   LIG d   1      -5.272  77.113 117.077  0.00  0.00    -0.311 N 
ATOM     14  C   LIG d   1      -4.358  77.377 116.144  0.00  0.00     0.210 C 
ATOM     15  C   LIG d   1      -2.989  76.732 116.380  0.00  0.00     0.109 C 
ATOM     16  O   LIG d   1      -4.543  78.109 115.160  0.00  0.00    -0.276 OA
ATOM     17  H   LIG d   1      -5.027  76.536 117.857  0.00  0.00     0.149 HD
ENDBRANCH   6  13
BRANCH   5  18
ATOM     18  N   LIG d   1      -6.055  80.059 117.273  0.00  0.00     0.381 N 
ATOM     19  H   LIG d   1      -5.096  79.789 117.182  0.00  0.00    -0.090 HD
ATOM     20  H   LIG d   1      -6.105  80.835 117.910  0.00  0.00    -0.090 HD
ATOM     21  H   LIG d   1      -6.418  80.326 116.384  0.00  0.00    -0.090 HD
ENDBRANCH   5  18
BRANCH   3  22
ATOM     22  C   LIG d   1     -10.378  78.658 118.783  0.00  0.00     0.382 C 
ATOM     23  O   LIG d   1     -11.350  77.865 118.748  0.00  0.00    -0.241 OA
ATOM     24  O   LIG d   1     -10.512  79.768 119.332  0.00  0.00    -0.241 OA
ENDBRANCH   3  22
TORSDOF 7
ENDMDL
MODEL 4
REMARK VINA RESULT:      -5.8     11.303     13.216
REMARK  7 active torsions:
REMARK  status: ('A' for Active; 'I' for Inactive)
REMARK    1  A    between atoms: C_2  and  C_3 
REMARK    2  A    between atoms: C_3  and  O_6 
REMARK    3  A    between atoms: C_3  and  C_4 
REMARK    4  A    between atoms: C_7  and  O_6 
REMARK    5  A    between atoms: C_9  and  C_10 
REMARK    6  A    between atoms: N_15  and  C_14 
REMARK    7  A    between atoms: N_20  and  C_19 
REMARK       I    between atoms: C_22  and  N_20 
ROOT
ATOM      1  C   LIG d   1      -6.256  76.849 117.010  0.00  0.00     0.161 C 
ATOM      2  C   LIG d   1      -7.173  77.865 117.326  0.00  0.00     0.016 C 
ATOM      3  C   LIG d   1      -6.853  79.242 117.287  0.00  0.00     0.038 C 
ATOM      4  C   LIG d   1      -5.629  79.704 116.779  0.00  0.00     0.028 C 
ATOM      5  C   LIG d   1      -4.494  78.697 116.925  0.00  0.00    -0.047 C 
ATOM      6  C   LIG d   1      -4.951  77.338 116.347  0.00  0.00     0.091 C 
ENDROOT
BRANCH   1   7
ATOM      7  O   LIG d   1      -6.894  75.854 116.185  0.00  0.00    -0.368 OA
BRANCH   7   8
ATOM      8  C   LIG d   1      -7.031  74.535 116.768  0.00  0.00     0.119 C 
BRANCH   8   9
ATOM      9  C   LIG d   1      -6.359  73.534 115.809  0.00  0.00     0.028 C 
ATOM     10  C   LIG d   1      -7.020  72.146 115.851  0.00  0.00     0.006 C 
ENDBRANCH   8   9
BRANCH   8  11
ATOM     11  C   LIG d   1      -8.499  74.106 116.838  0.00  0.00     0.028 C 
ATOM     12  C   LIG d   1      -9.446  75.108 116.158  0.00  0.00     0.006 C 
ENDBRANCH   8  11
ENDBRANCH   7   8
ENDBRANCH   1   7
BRANCH   6  13
ATOM     13  N   LIG d   1      -3.929  76.274 116.525  0.00  0.00    -0.311 N 
ATOM     14  C   LIG d   1      -3.312  75.673 115.510  0.00  0.00     0.210 C 
ATOM     15  C   LIG d   1      -2.308  74.589 115.914  0.00  0.00     0.109 C 
ATOM     16  O   LIG d   1      -3.476  75.958 114.314  0.00  0.00    -0.276 OA
ATOM     17  H   LIG d   1      -3.712  76.003 117.464  0.00  0.00     0.149 HD
ENDBRANCH   6  13
BRANCH   5  18
ATOM     18  N   LIG d   1      -3.315  79.252 116.233  0.00  0.00     0.381 N 
ATOM     19  H   LIG d   1      -3.341  79.001 115.265  0.00  0.00    -0.090 HD
ATOM     20  H   LIG d   1      -2.484  78.858 116.639  0.00  0.00    -0.090 HD
ATOM     21  H   LIG d   1      -3.300  80.244 116.325  0.00  0.00    -0.090 HD
ENDBRANCH   5  18
BRANCH   3  22
ATOM     22  C   LIG d   1      -7.747  80.170 117.797  0.00  0.00     0.382 C 
ATOM     23  O   LIG d   1      -8.040  81.191 117.129  0.00  0.00    -0.241 OA
ATOM     24  O   LIG d   1      -8.231  80.023 118.935  0.00  0.00    -0.241 OA
ENDBRANCH   3  22
TORSDOF 7
ENDMDL
MODEL 5
REMARK VINA RESULT:      -5.8      2.645      4.670
REMARK  7 active torsions:
REMARK  status: ('A' for Active; 'I' for Inactive)
REMARK    1  A    between atoms: C_2  and  C_3 
REMARK    2  A    between atoms: C_3  and  O_6 
REMARK    3  A    between atoms: C_3  and  C_4 
REMARK    4  A    between atoms: C_7  and  O_6 
REMARK    5  A    between atoms: C_9  and  C_10 
REMARK    6  A    between atoms: N_15  and  C_14 
REMARK    7  A    between atoms: N_20  and  C_19 
REMARK       I    between atoms: C_22  and  N_20 
ROOT
ATOM      1  C   LIG d   1       1.809  82.646 111.627  0.00  0.00     0.161 C 
ATOM      2  C   LIG d   1       0.646  81.859 111.662  0.00  0.00     0.016 C 
ATOM      3  C   LIG d   1      -0.635  82.375 111.966  0.00  0.00     0.038 C 
ATOM      4  C   LIG d   1      -0.864  83.751 112.110  0.00  0.00     0.028 C 
ATOM      5  C   LIG d   1       0.363  84.524 112.582  0.00  0.00    -0.047 C 
ATOM      6  C   LIG d   1       1.560  84.168 111.672  0.00  0.00     0.091 C 
ENDROOT
BRANCH   1   7
ATOM      7  O   LIG d   1       2.599  82.301 110.472  0.00  0.00    -0.368 OA
BRANCH   7   8
ATOM      8  C   LIG d   1       4.035  82.301 110.659  0.00  0.00     0.119 C 
BRANCH   8   9
ATOM      9  C   LIG d   1       4.654  81.507 109.492  0.00  0.00     0.028 C 
ATOM     10  C   LIG d   1       4.959  80.048 109.872  0.00  0.00     0.006 C 
ENDBRANCH   8   9
BRANCH   8  11
ATOM     11  C   LIG d   1       4.433  81.537 111.925  0.00  0.00     0.028 C 
ATOM     12  C   LIG d   1       5.243  82.395 112.909  0.00  0.00     0.006 C 
ENDBRANCH   8  11
ENDBRANCH   7   8
ENDBRANCH   1   7
BRANCH   6  13
ATOM     13  N   LIG d   1       2.822  84.817 112.116  0.00  0.00    -0.311 N 
ATOM     14  C   LIG d   1       3.249  85.988 111.646  0.00  0.00     0.210 C 
ATOM     15  C   LIG d   1       4.584  86.468 112.223  0.00  0.00     0.109 C 
ATOM     16  O   LIG d   1       2.633  86.690 110.830  0.00  0.00    -0.276 OA
ATOM     17  H   LIG d   1       3.369  84.331 112.800  0.00  0.00     0.149 HD
ENDBRANCH   6  13
BRANCH   5  18
ATOM     18  N   LIG d   1       0.023  85.959 112.556  0.00  0.00     0.381 N 
ATOM     19  H   LIG d   1      -0.799  86.122 113.104  0.00  0.00    -0.090 HD
ATOM     20  H   LIG d   1      -0.171  86.230 111.608  0.00  0.00    -0.090 HD
ATOM     21  H   LIG d   1       0.782  86.496 112.915  0.00  0.00    -0.090 HD
ENDBRANCH   5  18
BRANCH   3  22
ATOM     22  C   LIG d   1      -1.695  81.505 112.170  0.00  0.00     0.382 C 
ATOM     23  O   LIG d   1      -1.610  80.312 111.790  0.00  0.00    -0.241 OA
ATOM     24  O   LIG d   1      -2.753  81.909 112.689  0.00  0.00    -0.241 OA
ENDBRANCH   3  22
TORSDOF 7
ENDMDL
MODEL 6
REMARK VINA RESULT:      -5.7     11.391     13.945
REMARK  7 active torsions:
REMARK  status: ('A' for Active; 'I' for Inactive)
REMARK    1  A    between atoms: C_2  and  C_3 
REMARK    2  A    between atoms: C_3  and  O_6 
REMARK    3  A    between atoms: C_3  and  C_4 
REMARK    4  A    between atoms: C_7  and  O_6 
REMARK    5  A    between atoms: C_9  and  C_10 
REMARK    6  A    between atoms: N_15  and  C_14 
REMARK    7  A    between atoms: N_20  and  C_19 
REMARK       I    between atoms: C_22  and  N_20 
ROOT
ATOM      1  C   LIG d   1      -5.644  76.062 116.232  0.00  0.00     0.161 C 
ATOM      2  C   LIG d   1      -4.501  75.321 115.888  0.00  0.00     0.016 C 
ATOM      3  C   LIG d   1      -3.184  75.736 116.190  0.00  0.00     0.038 C 
ATOM      4  C   LIG d   1      -2.925  76.855 116.996  0.00  0.00     0.028 C 
ATOM      5  C   LIG d   1      -4.025  77.909 116.940  0.00  0.00    -0.047 C 
ATOM      6  C   LIG d   1      -5.387  77.229 117.209  0.00  0.00     0.091 C 
ENDROOT
BRANCH   1   7
ATOM      7  O   LIG d   1      -6.657  75.182 116.758  0.00  0.00    -0.368 OA
BRANCH   7   8
ATOM      8  C   LIG d   1      -7.656  74.726 115.814  0.00  0.00     0.119 C 
BRANCH   8   9
ATOM      9  C   LIG d   1      -8.918  75.585 116.024  0.00  0.00     0.028 C 
ATOM     10  C   LIG d   1      -9.319  75.687 117.506  0.00  0.00     0.006 C 
ENDBRANCH   8   9
BRANCH   8  11
ATOM     11  C   LIG d   1      -8.090  73.288 116.114  0.00  0.00     0.028 C 
ATOM     12  C   LIG d   1      -6.979  72.261 115.843  0.00  0.00     0.006 C 
ENDBRANCH   8  11
ENDBRANCH   7   8
ENDBRANCH   1   7
BRANCH   6  13
ATOM     13  N   LIG d   1      -6.527  78.175 117.090  0.00  0.00    -0.311 N 
ATOM     14  C   LIG d   1      -7.066  78.809 118.130  0.00  0.00     0.210 C 
ATOM     15  C   LIG d   1      -8.246  79.724 117.788  0.00  0.00     0.109 C 
ATOM     16  O   LIG d   1      -6.659  78.724 119.298  0.00  0.00    -0.276 OA
ATOM     17  H   LIG d   1      -6.900  78.326 116.173  0.00  0.00     0.149 HD
ENDBRANCH   6  13
BRANCH   5  18
ATOM     18  N   LIG d   1      -3.694  78.952 117.929  0.00  0.00     0.381 N 
ATOM     19  H   LIG d   1      -2.701  79.045 118.003  0.00  0.00    -0.090 HD
ATOM     20  H   LIG d   1      -4.053  78.675 118.826  0.00  0.00    -0.090 HD
ATOM     21  H   LIG d   1      -4.097  79.821 117.656  0.00  0.00    -0.090 HD
ENDBRANCH   5  18
BRANCH   3  22
ATOM     22  C   LIG d   1      -2.106  75.051 115.649  0.00  0.00     0.382 C 
ATOM     23  O   LIG d   1      -1.599  74.088 116.273  0.00  0.00    -0.241 OA
ATOM     24  O   LIG d   1      -1.608  75.411 114.566  0.00  0.00    -0.241 OA
ENDBRANCH   3  22
TORSDOF 7
ENDMDL
MODEL 7
REMARK VINA RESULT:      -5.7      2.742      6.504
REMARK  7 active torsions:
REMARK  status: ('A' for Active; 'I' for Inactive)
REMARK    1  A    between atoms: C_2  and  C_3 
REMARK    2  A    between atoms: C_3  and  O_6 
REMARK    3  A    between atoms: C_3  and  C_4 
REMARK    4  A    between atoms: C_7  and  O_6 
REMARK    5  A    between atoms: C_9  and  C_10 
REMARK    6  A    between atoms: N_15  and  C_14 
REMARK    7  A    between atoms: N_20  and  C_19 
REMARK       I    between atoms: C_22  and  N_20 
ROOT
ATOM      1  C   LIG d   1       0.899  81.671 109.754  0.00  0.00     0.161 C 
ATOM      2  C   LIG d   1       1.890  80.676 109.760  0.00  0.00     0.016 C 
ATOM      3  C   LIG d   1       3.259  80.943 109.994  0.00  0.00     0.038 C 
ATOM      4  C   LIG d   1       3.710  82.211 110.389  0.00  0.00     0.028 C 
ATOM      5  C   LIG d   1       2.820  83.349 109.903  0.00  0.00    -0.047 C 
ATOM      6  C   LIG d   1       1.356  83.043 110.293  0.00  0.00     0.091 C 
ENDROOT
BRANCH   1   7
ATOM      7  O   LIG d   1      -0.261  81.210 110.475  0.00  0.00    -0.368 OA
BRANCH   7   8
ATOM      8  C   LIG d   1      -0.109  79.962 111.195  0.00  0.00     0.119 C 
BRANCH   8   9
ATOM      9  C   LIG d   1      -1.279  79.047 110.786  0.00  0.00     0.028 C 
ATOM     10  C   LIG d   1      -1.418  77.824 111.708  0.00  0.00     0.006 C 
ENDBRANCH   8   9
BRANCH   8  11
ATOM     11  C   LIG d   1      -0.263  80.167 112.704  0.00  0.00     0.028 C 
ATOM     12  C   LIG d   1       1.063  80.523 113.395  0.00  0.00     0.006 C 
ENDBRANCH   8  11
ENDBRANCH   7   8
ENDBRANCH   1   7
BRANCH   6  13
ATOM     13  N   LIG d   1       0.407  84.066 109.781  0.00  0.00    -0.311 N 
ATOM     14  C   LIG d   1       0.003  85.114 110.496  0.00  0.00     0.210 C 
ATOM     15  C   LIG d   1      -0.993  86.037 109.787  0.00  0.00     0.109 C 
ATOM     16  O   LIG d   1       0.400  85.386 111.640  0.00  0.00    -0.276 OA
ATOM     17  H   LIG d   1       0.059  83.940 108.851  0.00  0.00     0.149 HD
ENDBRANCH   6  13
BRANCH   5  18
ATOM     18  N   LIG d   1       3.328  84.599 110.501  0.00  0.00     0.381 N 
ATOM     19  H   LIG d   1       3.447  85.291 109.789  0.00  0.00    -0.090 HD
ATOM     20  H   LIG d   1       4.224  84.418 110.919  0.00  0.00    -0.090 HD
ATOM     21  H   LIG d   1       2.691  84.929 111.192  0.00  0.00    -0.090 HD
ENDBRANCH   5  18
BRANCH   3  22
ATOM     22  C   LIG d   1       4.198  79.942 109.793  0.00  0.00     0.382 C 
ATOM     23  O   LIG d   1       5.422  80.208 109.865  0.00  0.00    -0.241 OA
ATOM     24  O   LIG d   1       3.838  78.787 109.497  0.00  0.00    -0.241 OA
ENDBRANCH   3  22
TORSDOF 7
ENDMDL
MODEL 8
REMARK VINA RESULT:      -5.6      2.757      4.652
REMARK  7 active torsions:
REMARK  status: ('A' for Active; 'I' for Inactive)
REMARK    1  A    between atoms: C_2  and  C_3 
REMARK    2  A    between atoms: C_3  and  O_6 
REMARK    3  A    between atoms: C_3  and  C_4 
REMARK    4  A    between atoms: C_7  and  O_6 
REMARK    5  A    between atoms: C_9  and  C_10 
REMARK    6  A    between atoms: N_15  and  C_14 
REMARK    7  A    between atoms: N_20  and  C_19 
REMARK       I    between atoms: C_22  and  N_20 
ROOT
ATOM      1  C   LIG d   1       1.962  84.038 112.812  0.00  0.00     0.161 C 
ATOM      2  C   LIG d   1       1.019  83.011 112.641  0.00  0.00     0.016 C 
ATOM      3  C   LIG d   1      -0.183  83.172 111.915  0.00  0.00     0.038 C 
ATOM      4  C   LIG d   1      -0.454  84.334 111.178  0.00  0.00     0.028 C 
ATOM      5  C   LIG d   1       0.232  85.577 111.733  0.00  0.00    -0.047 C 
ATOM      6  C   LIG d   1       1.737  85.278 111.922  0.00  0.00     0.091 C 
ENDROOT
BRANCH   1   7
ATOM      7  O   LIG d   1       3.292  83.517 112.617  0.00  0.00    -0.368 OA
BRANCH   7   8
ATOM      8  C   LIG d   1       3.429  82.477 111.617  0.00  0.00     0.119 C 
BRANCH   8   9
ATOM      9  C   LIG d   1       4.504  81.493 112.117  0.00  0.00     0.028 C 
ATOM     10  C   LIG d   1       4.363  81.181 113.616  0.00  0.00     0.006 C 
ENDBRANCH   8   9
BRANCH   8  11
ATOM     11  C   LIG d   1       3.975  83.039 110.301  0.00  0.00     0.028 C 
ATOM     12  C   LIG d   1       4.826  82.021 109.526  0.00  0.00     0.006 C 
ENDBRANCH   8  11
ENDBRANCH   7   8
ENDBRANCH   1   7
BRANCH   6  13
ATOM     13  N   LIG d   1       2.468  86.414 112.540  0.00  0.00    -0.311 N 
ATOM     14  C   LIG d   1       3.644  86.856 112.099  0.00  0.00     0.210 C 
ATOM     15  C   LIG d   1       4.234  88.026 112.893  0.00  0.00     0.109 C 
ATOM     16  O   LIG d   1       4.241  86.410 111.107  0.00  0.00    -0.276 OA
ATOM     17  H   LIG d   1       2.041  86.855 113.331  0.00  0.00     0.149 HD
ENDBRANCH   6  13
BRANCH   5  18
ATOM     18  N   LIG d   1      -0.024  86.684 110.792  0.00  0.00     0.381 N 
ATOM     19  H   LIG d   1       0.041  86.351 109.851  0.00  0.00    -0.090 HD
ATOM     20  H   LIG d   1       0.677  87.392 110.925  0.00  0.00    -0.090 HD
ATOM     21  H   LIG d   1      -0.928  87.068 110.955  0.00  0.00    -0.090 HD
ENDBRANCH   5  18
BRANCH   3  22
ATOM     22  C   LIG d   1      -1.148  82.177 111.955  0.00  0.00     0.382 C 
ATOM     23  O   LIG d   1      -2.224  82.371 112.571  0.00  0.00    -0.241 OA
ATOM     24  O   LIG d   1      -0.939  81.072 111.420  0.00  0.00    -0.241 OA
ENDBRANCH   3  22
TORSDOF 7
ENDMDL
MODEL 9
REMARK VINA RESULT:      -5.6      2.462      4.643
REMARK  7 active torsions:
REMARK  status: ('A' for Active; 'I' for Inactive)
REMARK    1  A    between atoms: C_2  and  C_3 
REMARK    2  A    between atoms: C_3  and  O_6 
REMARK    3  A    between atoms: C_3  and  C_4 
REMARK    4  A    between atoms: C_7  and  O_6 
REMARK    5  A    between atoms: C_9  and  C_10 
REMARK    6  A    between atoms: N_15  and  C_14 
REMARK    7  A    between atoms: N_20  and  C_19 
REMARK       I    between atoms: C_22  and  N_20 
ROOT
ATOM      1  C   LIG d   1       3.116  84.274 111.783  0.00  0.00     0.161 C 
ATOM      2  C   LIG d   1       1.901  83.974 111.144  0.00  0.00     0.016 C 
ATOM      3  C   LIG d   1       0.917  84.945 110.848  0.00  0.00     0.038 C 
ATOM      4  C   LIG d   1       1.147  86.316 111.037  0.00  0.00     0.028 C 
ATOM      5  C   LIG d   1       2.155  86.614 112.142  0.00  0.00    -0.047 C 
ATOM      6  C   LIG d   1       3.432  85.780 111.896  0.00  0.00     0.091 C 
ENDROOT
BRANCH   1   7
ATOM      7  O   LIG d   1       4.197  83.583 111.126  0.00  0.00    -0.368 OA
BRANCH   7   8
ATOM      8  C   LIG d   1       4.291  82.159 111.381  0.00  0.00     0.119 C 
BRANCH   8   9
ATOM      9  C   LIG d   1       4.945  81.979 112.765  0.00  0.00     0.028 C 
ATOM     10  C   LIG d   1       4.176  80.987 113.653  0.00  0.00     0.006 C 
ENDBRANCH   8   9
BRANCH   8  11
ATOM     11  C   LIG d   1       5.240  81.478 110.391  0.00  0.00     0.028 C 
ATOM     12  C   LIG d   1       4.763  80.078 109.975  0.00  0.00     0.006 C 
ENDBRANCH   8  11
ENDBRANCH   7   8
ENDBRANCH   1   7
BRANCH   6  13
ATOM     13  N   LIG d   1       4.437  85.949 112.978  0.00  0.00    -0.311 N 
ATOM     14  C   LIG d   1       5.314  86.950 113.014  0.00  0.00     0.210 C 
ATOM     15  C   LIG d   1       6.275  86.925 114.207  0.00  0.00     0.109 C 
ATOM     16  O   LIG d   1       5.367  87.874 112.189  0.00  0.00    -0.276 OA
ATOM     17  H   LIG d   1       4.444  85.260 113.705  0.00  0.00     0.149 HD
ENDBRANCH   6  13
BRANCH   5  18
ATOM     18  N   LIG d   1       2.403  88.068 112.138  0.00  0.00     0.381 N 
ATOM     19  H   LIG d   1       1.657  88.538 111.666  0.00  0.00    -0.090 HD
ATOM     20  H   LIG d   1       3.256  88.251 111.639  0.00  0.00    -0.090 HD
ATOM     21  H   LIG d   1       2.479  88.404 113.073  0.00  0.00    -0.090 HD
ENDBRANCH   5  18
BRANCH   3  22
ATOM     22  C   LIG d   1      -0.330  84.543 110.395  0.00  0.00     0.382 C 
ATOM     23  O   LIG d   1      -1.078  85.363 109.809  0.00  0.00    -0.241 OA
ATOM     24  O   LIG d   1      -0.735  83.384 110.603  0.00  0.00    -0.241 OA
ENDBRANCH   3  22
TORSDOF 7
ENDMDL
