MODEL 1
REMARK VINA RESULT:      -5.9      0.000      0.000
REMARK  7 active torsions:
REMARK  status: ('A' for Active; 'I' for Inactive)
REMARK    1  A    between atoms: C_2  and  C_3 
REMARK    2  A    between atoms: C_3  and  O_6 
REMARK    3  A    between atoms: C_3  and  C_4 
REMARK    4  A    between atoms: C_7  and  O_6 
REMARK    5  A    between atoms: C_9  and  C_10 
REMARK    6  A    between atoms: N_15  and  C_14 
REMARK    7  A    between atoms: N_20  and  C_19 
REMARK       I    between atoms: C_22  and  N_20 
ROOT
ATOM      1  C   LIG d   1       0.661  82.497 111.857  0.00  0.00     0.161 C 
ATOM      2  C   LIG d   1      -0.546  82.141 112.483  0.00  0.00     0.016 C 
ATOM      3  C   LIG d   1      -1.117  80.851 112.394  0.00  0.00     0.038 C 
ATOM      4  C   LIG d   1      -0.439  79.779 111.795  0.00  0.00     0.028 C 
ATOM      5  C   LIG d   1       0.547  80.214 110.716  0.00  0.00    -0.047 C 
ATOM      6  C   LIG d   1       1.471  81.311 111.292  0.00  0.00     0.091 C 
ENDROOT
BRANCH   1   7
ATOM      7  O   LIG d   1       1.472  83.271 112.764  0.00  0.00    -0.368 OA
BRANCH   7   8
ATOM      8  C   LIG d   1       1.448  84.707 112.574  0.00  0.00     0.119 C 
BRANCH   8   9
ATOM      9  C   LIG d   1       1.018  84.974 111.118  0.00  0.00     0.028 C 
ATOM     10  C   LIG d   1      -0.202  85.906 111.028  0.00  0.00     0.006 C 
ENDBRANCH   8   9
BRANCH   8  11
ATOM     11  C   LIG d   1       2.850  85.309 112.699  0.00  0.00     0.028 C 
ATOM     12  C   LIG d   1       3.506  85.582 111.336  0.00  0.00     0.006 C 
ENDBRANCH   8  11
ENDBRANCH   7   8
ENDBRANCH   1   7
BRANCH   6  13
ATOM     13  N   LIG d   1       2.411  81.852 110.276  0.00  0.00    -0.311 N 
ATOM     14  C   LIG d   1       3.724  81.957 110.475  0.00  0.00     0.210 C 
ATOM     15  C   LIG d   1       4.508  82.560 109.306  0.00  0.00     0.109 C 
ATOM     16  O   LIG d   1       4.317  81.579 111.496  0.00  0.00    -0.276 OA
ATOM     17  H   LIG d   1       2.018  82.154 109.406  0.00  0.00     0.149 HD
ENDBRANCH   6  13
BRANCH   5  18
ATOM     18  N   LIG d   1       1.282  79.013 110.274  0.00  0.00     0.381 N 
ATOM     19  H   LIG d   1       2.172  79.279 109.903  0.00  0.00    -0.090 HD
ATOM     20  H   LIG d   1       0.758  78.562 109.545  0.00  0.00    -0.090 HD
ATOM     21  H   LIG d   1       1.406  78.388 111.040  0.00  0.00    -0.090 HD
ENDBRANCH   5  18
BRANCH   3  22
ATOM     22  C   LIG d   1      -2.399  80.633 112.875  0.00  0.00     0.382 C 
ATOM     23  O   LIG d   1      -2.591  79.805 113.797  0.00  0.00    -0.241 OA
ATOM     24  O   LIG d   1      -3.373  81.221 112.367  0.00  0.00    -0.241 OA
ENDBRANCH   3  22
TORSDOF 7
ENDMDL
MODEL 2
REMARK VINA RESULT:      -5.8      2.428      5.846
REMARK  7 active torsions:
REMARK  status: ('A' for Active; 'I' for Inactive)
REMARK    1  A    between atoms: C_2  and  C_3 
REMARK    2  A    between atoms: C_3  and  O_6 
REMARK    3  A    between atoms: C_3  and  C_4 
REMARK    4  A    between atoms: C_7  and  O_6 
REMARK    5  A    between atoms: C_9  and  C_10 
REMARK    6  A    between atoms: N_15  and  C_14 
REMARK    7  A    between atoms: N_20  and  C_19 
REMARK       I    between atoms: C_22  and  N_20 
ROOT
ATOM      1  C   LIG d   1       0.926  83.941 110.898  0.00  0.00     0.161 C 
ATOM      2  C   LIG d   1       1.835  85.010 110.819  0.00  0.00     0.016 C 
ATOM      3  C   LIG d   1       2.326  85.699 111.951  0.00  0.00     0.038 C 
ATOM      4  C   LIG d   1       2.056  85.265 113.258  0.00  0.00     0.028 C 
ATOM      5  C   LIG d   1       0.741  84.503 113.384  0.00  0.00    -0.047 C 
ATOM      6  C   LIG d   1       0.707  83.383 112.319  0.00  0.00     0.091 C 
ENDROOT
BRANCH   1   7
ATOM      7  O   LIG d   1       1.332  82.888 110.002  0.00  0.00    -0.368 OA
BRANCH   7   8
ATOM      8  C   LIG d   1       2.468  82.094 110.426  0.00  0.00     0.119 C 
BRANCH   8   9
ATOM      9  C   LIG d   1       3.524  82.163 109.306  0.00  0.00     0.028 C 
ATOM     10  C   LIG d   1       4.785  82.932 109.735  0.00  0.00     0.006 C 
ENDBRANCH   8   9
BRANCH   8  11
ATOM     11  C   LIG d   1       2.099  80.612 110.544  0.00  0.00     0.028 C 
ATOM     12  C   LIG d   1       0.866  80.236 109.707  0.00  0.00     0.006 C 
ENDBRANCH   8  11
ENDBRANCH   7   8
ENDBRANCH   1   7
BRANCH   6  13
ATOM     13  N   LIG d   1      -0.581  82.641 112.318  0.00  0.00    -0.311 N 
ATOM     14  C   LIG d   1      -0.762  81.485 112.953  0.00  0.00     0.210 C 
ATOM     15  C   LIG d   1      -2.161  80.879 112.806  0.00  0.00     0.109 C 
ATOM     16  O   LIG d   1       0.093  80.919 113.650  0.00  0.00    -0.276 OA
ATOM     17  H   LIG d   1      -1.339  83.045 111.802  0.00  0.00     0.149 HD
ENDBRANCH   6  13
BRANCH   5  18
ATOM     18  N   LIG d   1       0.653  83.992 114.764  0.00  0.00     0.381 N 
ATOM     19  H   LIG d   1       1.469  84.259 115.277  0.00  0.00    -0.090 HD
ATOM     20  H   LIG d   1       0.612  82.988 114.737  0.00  0.00    -0.090 HD
ATOM     21  H   LIG d   1      -0.162  84.353 115.210  0.00  0.00    -0.090 HD
ENDBRANCH   5  18
BRANCH   3  22
ATOM     22  C   LIG d   1       3.064  86.861 111.782  0.00  0.00     0.382 C 
ATOM     23  O   LIG d   1       4.299  86.793 111.570  0.00  0.00    -0.241 OA
ATOM     24  O   LIG d   1       2.519  87.976 111.883  0.00  0.00    -0.241 OA
ENDBRANCH   3  22
TORSDOF 7
ENDMDL
MODEL 3
REMARK VINA RESULT:      -5.7      2.173      3.971
REMARK  7 active torsions:
REMARK  status: ('A' for Active; 'I' for Inactive)
REMARK    1  A    between atoms: C_2  and  C_3 
REMARK    2  A    between atoms: C_3  and  O_6 
REMARK    3  A    between atoms: C_3  and  C_4 
REMARK    4  A    between atoms: C_7  and  O_6 
REMARK    5  A    between atoms: C_9  and  C_10 
REMARK    6  A    between atoms: N_15  and  C_14 
REMARK    7  A    between atoms: N_20  and  C_19 
REMARK       I    between atoms: C_22  and  N_20 
ROOT
ATOM      1  C   LIG d   1       0.920  82.588 111.424  0.00  0.00     0.161 C 
ATOM      2  C   LIG d   1      -0.140  81.696 111.654  0.00  0.00     0.016 C 
ATOM      3  C   LIG d   1      -1.107  81.881 112.668  0.00  0.00     0.038 C 
ATOM      4  C   LIG d   1      -1.167  83.058 113.430  0.00  0.00     0.028 C 
ATOM      5  C   LIG d   1       0.181  83.756 113.574  0.00  0.00    -0.047 C 
ATOM      6  C   LIG d   1       0.807  83.934 112.172  0.00  0.00     0.091 C 
ENDROOT
BRANCH   1   7
ATOM      7  O   LIG d   1       1.072  82.813 110.009  0.00  0.00    -0.368 OA
BRANCH   7   8
ATOM      8  C   LIG d   1       2.258  82.248 109.397  0.00  0.00     0.119 C 
BRANCH   8   9
ATOM      9  C   LIG d   1       2.693  81.045 110.255  0.00  0.00     0.028 C 
ATOM     10  C   LIG d   1       2.357  79.698 109.592  0.00  0.00     0.006 C 
ENDBRANCH   8   9
BRANCH   8  11
ATOM     11  C   LIG d   1       3.433  83.229 109.449  0.00  0.00     0.028 C 
ATOM     12  C   LIG d   1       4.793  82.523 109.563  0.00  0.00     0.006 C 
ENDBRANCH   8  11
ENDBRANCH   7   8
ENDBRANCH   1   7
BRANCH   6  13
ATOM     13  N   LIG d   1       2.166  84.532 112.229  0.00  0.00    -0.311 N 
ATOM     14  C   LIG d   1       2.404  85.829 112.040  0.00  0.00     0.210 C 
ATOM     15  C   LIG d   1       3.880  86.234 112.122  0.00  0.00     0.109 C 
ATOM     16  O   LIG d   1       1.531  86.688 111.844  0.00  0.00    -0.276 OA
ATOM     17  H   LIG d   1       2.930  83.912 112.414  0.00  0.00     0.149 HD
ENDBRANCH   6  13
BRANCH   5  18
ATOM     18  N   LIG d   1      -0.051  85.035 114.270  0.00  0.00     0.381 N 
ATOM     19  H   LIG d   1      -0.178  84.870 115.249  0.00  0.00    -0.090 HD
ATOM     20  H   LIG d   1      -0.890  85.454 113.909  0.00  0.00    -0.090 HD
ATOM     21  H   LIG d   1       0.723  85.646 114.127  0.00  0.00    -0.090 HD
ENDBRANCH   5  18
BRANCH   3  22
ATOM     22  C   LIG d   1      -2.004  80.864 112.957  0.00  0.00     0.382 C 
ATOM     23  O   LIG d   1      -3.189  80.939 112.550  0.00  0.00    -0.241 OA
ATOM     24  O   LIG d   1      -1.656  79.894 113.656  0.00  0.00    -0.241 OA
ENDBRANCH   3  22
TORSDOF 7
ENDMDL
MODEL 4
REMARK VINA RESULT:      -5.6      8.862     11.035
REMARK  7 active torsions:
REMARK  status: ('A' for Active; 'I' for Inactive)
REMARK    1  A    between atoms: C_2  and  C_3 
REMARK    2  A    between atoms: C_3  and  O_6 
REMARK    3  A    between atoms: C_3  and  C_4 
REMARK    4  A    between atoms: C_7  and  O_6 
REMARK    5  A    between atoms: C_9  and  C_10 
REMARK    6  A    between atoms: N_15  and  C_14 
REMARK    7  A    between atoms: N_20  and  C_19 
REMARK       I    between atoms: C_22  and  N_20 
ROOT
ATOM      1  C   LIG d   1      -6.247  77.453 117.524  0.00  0.00     0.161 C 
ATOM      2  C   LIG d   1      -7.605  77.813 117.541  0.00  0.00     0.016 C 
ATOM      3  C   LIG d   1      -8.090  78.993 118.149  0.00  0.00     0.038 C 
ATOM      4  C   LIG d   1      -7.226  79.976 118.654  0.00  0.00     0.028 C 
ATOM      5  C   LIG d   1      -5.880  79.423 119.109  0.00  0.00    -0.047 C 
ATOM      6  C   LIG d   1      -5.278  78.567 117.972  0.00  0.00     0.091 C 
ENDROOT
BRANCH   1   7
ATOM      7  O   LIG d   1      -5.885  76.971 116.215  0.00  0.00    -0.368 OA
BRANCH   7   8
ATOM      8  C   LIG d   1      -5.431  75.597 116.145  0.00  0.00     0.119 C 
BRANCH   8   9
ATOM      9  C   LIG d   1      -4.727  75.411 114.787  0.00  0.00     0.028 C 
ATOM     10  C   LIG d   1      -3.213  75.184 114.937  0.00  0.00     0.006 C 
ENDBRANCH   8   9
BRANCH   8  11
ATOM     11  C   LIG d   1      -6.610  74.620 116.127  0.00  0.00     0.028 C 
ATOM     12  C   LIG d   1      -6.166  73.149 116.109  0.00  0.00     0.006 C 
ENDBRANCH   8  11
ENDBRANCH   7   8
ENDBRANCH   1   7
BRANCH   6  13
ATOM     13  N   LIG d   1      -3.999  77.920 118.365  0.00  0.00    -0.311 N 
ATOM     14  C   LIG d   1      -2.935  77.852 117.567  0.00  0.00     0.210 C 
ATOM     15  C   LIG d   1      -1.726  77.123 118.161  0.00  0.00     0.109 C 
ATOM     16  O   LIG d   1      -2.867  78.355 116.435  0.00  0.00    -0.276 OA
ATOM     17  H   LIG d   1      -3.956  77.513 119.279  0.00  0.00     0.149 HD
ENDBRANCH   6  13
BRANCH   5  18
ATOM     18  N   LIG d   1      -5.030  80.570 119.482  0.00  0.00     0.381 N 
ATOM     19  H   LIG d   1      -4.443  80.320 120.253  0.00  0.00    -0.090 HD
ATOM     20  H   LIG d   1      -5.619  81.332 119.768  0.00  0.00    -0.090 HD
ATOM     21  H   LIG d   1      -4.470  80.846 118.705  0.00  0.00    -0.090 HD
ENDBRANCH   5  18
BRANCH   3  22
ATOM     22  C   LIG d   1      -9.456  79.181 118.293  0.00  0.00     0.382 C 
ATOM     23  O   LIG d   1     -10.174  78.251 118.734  0.00  0.00    -0.241 OA
ATOM     24  O   LIG d   1      -9.987  80.253 117.945  0.00  0.00    -0.241 OA
ENDBRANCH   3  22
TORSDOF 7
ENDMDL
MODEL 5
REMARK VINA RESULT:      -5.5      2.705      4.434
REMARK  7 active torsions:
REMARK  status: ('A' for Active; 'I' for Inactive)
REMARK    1  A    between atoms: C_2  and  C_3 
REMARK    2  A    between atoms: C_3  and  O_6 
REMARK    3  A    between atoms: C_3  and  C_4 
REMARK    4  A    between atoms: C_7  and  O_6 
REMARK    5  A    between atoms: C_9  and  C_10 
REMARK    6  A    between atoms: N_15  and  C_14 
REMARK    7  A    between atoms: N_20  and  C_19 
REMARK       I    between atoms: C_22  and  N_20 
ROOT
ATOM      1  C   LIG d   1       1.726  83.621 112.831  0.00  0.00     0.161 C 
ATOM      2  C   LIG d   1       0.718  82.660 112.651  0.00  0.00     0.016 C 
ATOM      3  C   LIG d   1      -0.582  82.785 113.193  0.00  0.00     0.038 C 
ATOM      4  C   LIG d   1      -1.010  83.959 113.830  0.00  0.00     0.028 C 
ATOM      5  C   LIG d   1       0.125  84.747 114.474  0.00  0.00    -0.047 C 
ATOM      6  C   LIG d   1       1.244  84.960 113.429  0.00  0.00     0.091 C 
ENDROOT
BRANCH   1   7
ATOM      7  O   LIG d   1       2.414  83.848 111.585  0.00  0.00    -0.368 OA
BRANCH   7   8
ATOM      8  C   LIG d   1       1.629  83.662 110.381  0.00  0.00     0.119 C 
BRANCH   8   9
ATOM      9  C   LIG d   1       2.563  83.076 109.305  0.00  0.00     0.028 C 
ATOM     10  C   LIG d   1       4.007  82.910 109.809  0.00  0.00     0.006 C 
ENDBRANCH   8   9
BRANCH   8  11
ATOM     11  C   LIG d   1       1.150  85.002 109.815  0.00  0.00     0.028 C 
ATOM     12  C   LIG d   1      -0.358  85.227 110.012  0.00  0.00     0.006 C 
ENDBRANCH   8  11
ENDBRANCH   7   8
ENDBRANCH   1   7
BRANCH   6  13
ATOM     13  N   LIG d   1       2.430  85.650 114.001  0.00  0.00    -0.311 N 
ATOM     14  C   LIG d   1       2.832  86.859 113.613  0.00  0.00     0.210 C 
ATOM     15  C   LIG d   1       4.090  87.379 114.317  0.00  0.00     0.109 C 
ATOM     16  O   LIG d   1       2.248  87.564 112.777  0.00  0.00    -0.276 OA
ATOM     17  H   LIG d   1       2.945  85.162 114.708  0.00  0.00     0.149 HD
ENDBRANCH   6  13
BRANCH   5  18
ATOM     18  N   LIG d   1      -0.441  86.011 114.981  0.00  0.00     0.381 N 
ATOM     19  H   LIG d   1      -0.322  86.733 114.298  0.00  0.00    -0.090 HD
ATOM     20  H   LIG d   1       0.055  86.279 115.813  0.00  0.00    -0.090 HD
ATOM     21  H   LIG d   1      -1.409  85.894 115.185  0.00  0.00    -0.090 HD
ENDBRANCH   5  18
BRANCH   3  22
ATOM     22  C   LIG d   1      -1.457  81.710 113.135  0.00  0.00     0.382 C 
ATOM     23  O   LIG d   1      -1.010  80.542 113.037  0.00  0.00    -0.241 OA
ATOM     24  O   LIG d   1      -2.688  81.898 113.135  0.00  0.00    -0.241 OA
ENDBRANCH   3  22
TORSDOF 7
ENDMDL
MODEL 6
REMARK VINA RESULT:      -5.5      2.784      5.756
REMARK  7 active torsions:
REMARK  status: ('A' for Active; 'I' for Inactive)
REMARK    1  A    between atoms: C_2  and  C_3 
REMARK    2  A    between atoms: C_3  and  O_6 
REMARK    3  A    between atoms: C_3  and  C_4 
REMARK    4  A    between atoms: C_7  and  O_6 
REMARK    5  A    between atoms: C_9  and  C_10 
REMARK    6  A    between atoms: N_15  and  C_14 
REMARK    7  A    between atoms: N_20  and  C_19 
REMARK       I    between atoms: C_22  and  N_20 
ROOT
ATOM      1  C   LIG d   1       2.568  83.979 112.456  0.00  0.00     0.161 C 
ATOM      2  C   LIG d   1       3.032  85.257 112.810  0.00  0.00     0.016 C 
ATOM      3  C   LIG d   1       2.735  86.425 112.071  0.00  0.00     0.038 C 
ATOM      4  C   LIG d   1       1.823  86.417 111.005  0.00  0.00     0.028 C 
ATOM      5  C   LIG d   1       1.726  85.067 110.302  0.00  0.00    -0.047 C 
ATOM      6  C   LIG d   1       1.481  83.967 111.360  0.00  0.00     0.091 C 
ENDROOT
BRANCH   1   7
ATOM      7  O   LIG d   1       2.103  83.285 113.630  0.00  0.00    -0.368 OA
BRANCH   7   8
ATOM      8  C   LIG d   1       1.485  84.105 114.653  0.00  0.00     0.119 C 
BRANCH   8   9
ATOM      9  C   LIG d   1       1.778  83.445 116.014  0.00  0.00     0.028 C 
ATOM     10  C   LIG d   1       2.370  84.436 117.031  0.00  0.00     0.006 C 
ENDBRANCH   8   9
BRANCH   8  11
ATOM     11  C   LIG d   1      -0.041  84.103 114.521  0.00  0.00     0.028 C 
ATOM     12  C   LIG d   1      -0.623  85.512 114.328  0.00  0.00     0.006 C 
ENDBRANCH   8  11
ENDBRANCH   7   8
ENDBRANCH   1   7
BRANCH   6  13
ATOM     13  N   LIG d   1       1.457  82.604 110.766  0.00  0.00    -0.311 N 
ATOM     14  C   LIG d   1       0.364  81.845 110.719  0.00  0.00     0.210 C 
ATOM     15  C   LIG d   1       0.562  80.466 110.082  0.00  0.00     0.109 C 
ATOM     16  O   LIG d   1      -0.758  82.194 111.115  0.00  0.00    -0.276 OA
ATOM     17  H   LIG d   1       2.317  82.254 110.393  0.00  0.00     0.149 HD
ENDBRANCH   6  13
BRANCH   5  18
ATOM     18  N   LIG d   1       0.643  85.161 109.305  0.00  0.00     0.381 N 
ATOM     19  H   LIG d   1      -0.053  84.468 109.494  0.00  0.00    -0.090 HD
ATOM     20  H   LIG d   1       1.025  84.984 108.393  0.00  0.00    -0.090 HD
ATOM     21  H   LIG d   1       0.233  86.069 109.331  0.00  0.00    -0.090 HD
ENDBRANCH   5  18
BRANCH   3  22
ATOM     22  C   LIG d   1       3.385  87.612 112.372  0.00  0.00     0.382 C 
ATOM     23  O   LIG d   1       4.632  87.627 112.510  0.00  0.00    -0.241 OA
ATOM     24  O   LIG d   1       2.736  88.660 112.552  0.00  0.00    -0.241 OA
ENDBRANCH   3  22
TORSDOF 7
ENDMDL
MODEL 7
REMARK VINA RESULT:      -5.4      6.357      9.722
REMARK  7 active torsions:
REMARK  status: ('A' for Active; 'I' for Inactive)
REMARK    1  A    between atoms: C_2  and  C_3 
REMARK    2  A    between atoms: C_3  and  O_6 
REMARK    3  A    between atoms: C_3  and  C_4 
REMARK    4  A    between atoms: C_7  and  O_6 
REMARK    5  A    between atoms: C_9  and  C_10 
REMARK    6  A    between atoms: N_15  and  C_14 
REMARK    7  A    between atoms: N_20  and  C_19 
REMARK       I    between atoms: C_22  and  N_20 
ROOT
ATOM      1  C   LIG d   1      -2.168  75.463 115.920  0.00  0.00     0.161 C 
ATOM      2  C   LIG d   1      -1.554  74.976 117.086  0.00  0.00     0.016 C 
ATOM      3  C   LIG d   1      -0.424  75.582 117.682  0.00  0.00     0.038 C 
ATOM      4  C   LIG d   1       0.082  76.811 117.233  0.00  0.00     0.028 C 
ATOM      5  C   LIG d   1      -0.192  77.075 115.756  0.00  0.00    -0.047 C 
ATOM      6  C   LIG d   1      -1.698  76.865 115.479  0.00  0.00     0.091 C 
ENDROOT
BRANCH   1   7
ATOM      7  O   LIG d   1      -3.601  75.440 116.076  0.00  0.00    -0.368 OA
BRANCH   7   8
ATOM      8  C   LIG d   1      -4.274  74.248 115.601  0.00  0.00     0.119 C 
BRANCH   8   9
ATOM      9  C   LIG d   1      -4.550  74.440 114.097  0.00  0.00     0.028 C 
ATOM     10  C   LIG d   1      -5.497  75.619 113.820  0.00  0.00     0.006 C 
ENDBRANCH   8   9
BRANCH   8  11
ATOM     11  C   LIG d   1      -5.653  74.092 116.249  0.00  0.00     0.028 C 
ATOM     12  C   LIG d   1      -6.240  72.683 116.069  0.00  0.00     0.006 C 
ENDBRANCH   8  11
ENDBRANCH   7   8
ENDBRANCH   1   7
BRANCH   6  13
ATOM     13  N   LIG d   1      -2.038  77.022 114.041  0.00  0.00    -0.311 N 
ATOM     14  C   LIG d   1      -2.391  78.184 113.493  0.00  0.00     0.210 C 
ATOM     15  C   LIG d   1      -2.719  78.120 111.998  0.00  0.00     0.109 C 
ATOM     16  O   LIG d   1      -2.431  79.267 114.097  0.00  0.00    -0.276 OA
ATOM     17  H   LIG d   1      -2.000  76.200 113.471  0.00  0.00     0.149 HD
ENDBRANCH   6  13
BRANCH   5  18
ATOM     18  N   LIG d   1       0.265  78.445 115.456  0.00  0.00     0.381 N 
ATOM     19  H   LIG d   1       1.248  78.520 115.631  0.00  0.00    -0.090 HD
ATOM     20  H   LIG d   1      -0.213  79.088 116.063  0.00  0.00    -0.090 HD
ATOM     21  H   LIG d   1       0.072  78.669 114.505  0.00  0.00    -0.090 HD
ENDBRANCH   5  18
BRANCH   3  22
ATOM     22  C   LIG d   1       0.238  74.935 118.715  0.00  0.00     0.382 C 
ATOM     23  O   LIG d   1      -0.393  74.166 119.479  0.00  0.00    -0.241 OA
ATOM     24  O   LIG d   1       1.448  75.146 118.919  0.00  0.00    -0.241 OA
ENDBRANCH   3  22
TORSDOF 7
ENDMDL
MODEL 8
REMARK VINA RESULT:      -5.4      4.445      7.350
REMARK  7 active torsions:
REMARK  status: ('A' for Active; 'I' for Inactive)
REMARK    1  A    between atoms: C_2  and  C_3 
REMARK    2  A    between atoms: C_3  and  O_6 
REMARK    3  A    between atoms: C_3  and  C_4 
REMARK    4  A    between atoms: C_7  and  O_6 
REMARK    5  A    between atoms: C_9  and  C_10 
REMARK    6  A    between atoms: N_15  and  C_14 
REMARK    7  A    between atoms: N_20  and  C_19 
REMARK       I    between atoms: C_22  and  N_20 
ROOT
ATOM      1  C   LIG d   1       3.590  86.309 113.026  0.00  0.00     0.161 C 
ATOM      2  C   LIG d   1       3.854  87.687 112.947  0.00  0.00     0.016 C 
ATOM      3  C   LIG d   1       4.720  88.366 113.835  0.00  0.00     0.038 C 
ATOM      4  C   LIG d   1       5.504  87.680 114.775  0.00  0.00     0.028 C 
ATOM      5  C   LIG d   1       4.893  86.357 115.224  0.00  0.00    -0.047 C 
ATOM      6  C   LIG d   1       4.522  85.526 113.975  0.00  0.00     0.091 C 
ENDROOT
BRANCH   1   7
ATOM      7  O   LIG d   1       3.617  85.730 111.707  0.00  0.00    -0.368 OA
BRANCH   7   8
ATOM      8  C   LIG d   1       2.406  85.060 111.280  0.00  0.00     0.119 C 
BRANCH   8   9
ATOM      9  C   LIG d   1       2.820  83.902 110.352  0.00  0.00     0.028 C 
ATOM     10  C   LIG d   1       4.335  83.872 110.090  0.00  0.00     0.006 C 
ENDBRANCH   8   9
BRANCH   8  11
ATOM     11  C   LIG d   1       1.535  85.979 110.418  0.00  0.00     0.028 C 
ATOM     12  C   LIG d   1       0.577  85.203 109.501  0.00  0.00     0.006 C 
ENDBRANCH   8  11
ENDBRANCH   7   8
ENDBRANCH   1   7
BRANCH   6  13
ATOM     13  N   LIG d   1       3.841  84.252 114.324  0.00  0.00    -0.311 N 
ATOM     14  C   LIG d   1       4.261  83.058 113.908  0.00  0.00     0.210 C 
ATOM     15  C   LIG d   1       3.402  81.875 114.365  0.00  0.00     0.109 C 
ATOM     16  O   LIG d   1       5.281  82.864 113.230  0.00  0.00    -0.276 OA
ATOM     17  H   LIG d   1       3.022  84.314 114.896  0.00  0.00     0.149 HD
ENDBRANCH   6  13
BRANCH   5  18
ATOM     18  N   LIG d   1       5.876  85.685 116.095  0.00  0.00     0.381 N 
ATOM     19  H   LIG d   1       6.615  85.304 115.540  0.00  0.00    -0.090 HD
ATOM     20  H   LIG d   1       5.420  84.929 116.576  0.00  0.00    -0.090 HD
ATOM     21  H   LIG d   1       6.246  86.333 116.755  0.00  0.00    -0.090 HD
ENDBRANCH   5  18
BRANCH   3  22
ATOM     22  C   LIG d   1       4.778  89.751 113.814  0.00  0.00     0.382 C 
ATOM     23  O   LIG d   1       4.756  90.362 112.719  0.00  0.00    -0.241 OA
ATOM     24  O   LIG d   1       4.897  90.394 114.874  0.00  0.00    -0.241 OA
ENDBRANCH   3  22
TORSDOF 7
ENDMDL
MODEL 9
REMARK VINA RESULT:      -5.2      2.954      5.400
REMARK  7 active torsions:
REMARK  status: ('A' for Active; 'I' for Inactive)
REMARK    1  A    between atoms: C_2  and  C_3 
REMARK    2  A    between atoms: C_3  and  O_6 
REMARK    3  A    between atoms: C_3  and  C_4 
REMARK    4  A    between atoms: C_7  and  O_6 
REMARK    5  A    between atoms: C_9  and  C_10 
REMARK    6  A    between atoms: N_15  and  C_14 
REMARK    7  A    between atoms: N_20  and  C_19 
REMARK       I    between atoms: C_22  and  N_20 
ROOT
ATOM      1  C   LIG d   1       2.386  84.752 112.069  0.00  0.00     0.161 C 
ATOM      2  C   LIG d   1       3.300  84.176 111.171  0.00  0.00     0.016 C 
ATOM      3  C   LIG d   1       3.016  83.023 110.404  0.00  0.00     0.038 C 
ATOM      4  C   LIG d   1       1.735  82.452 110.370  0.00  0.00     0.028 C 
ATOM      5  C   LIG d   1       0.930  82.696 111.642  0.00  0.00    -0.047 C 
ATOM      6  C   LIG d   1       0.946  84.208 111.963  0.00  0.00     0.091 C 
ENDROOT
BRANCH   1   7
ATOM      7  O   LIG d   1       2.392  86.186 111.920  0.00  0.00    -0.368 OA
BRANCH   7   8
ATOM      8  C   LIG d   1       2.784  86.946 113.090  0.00  0.00     0.119 C 
BRANCH   8   9
ATOM      9  C   LIG d   1       3.900  87.917 112.658  0.00  0.00     0.028 C 
ATOM     10  C   LIG d   1       5.296  87.437 113.093  0.00  0.00     0.006 C 
ENDBRANCH   8   9
BRANCH   8  11
ATOM     11  C   LIG d   1       3.419  86.045 114.153  0.00  0.00     0.028 C 
ATOM     12  C   LIG d   1       2.685  86.107 115.502  0.00  0.00     0.006 C 
ENDBRANCH   8  11
ENDBRANCH   7   8
ENDBRANCH   1   7
BRANCH   6  13
ATOM     13  N   LIG d   1       0.251  84.524 113.238  0.00  0.00    -0.311 N 
ATOM     14  C   LIG d   1      -0.632  85.514 113.366  0.00  0.00     0.210 C 
ATOM     15  C   LIG d   1      -1.216  85.680 114.772  0.00  0.00     0.109 C 
ATOM     16  O   LIG d   1      -1.010  86.248 112.442  0.00  0.00    -0.276 OA
ATOM     17  H   LIG d   1       0.475  83.958 114.032  0.00  0.00     0.149 HD
ENDBRANCH   6  13
BRANCH   5  18
ATOM     18  N   LIG d   1      -0.429  82.167 111.417  0.00  0.00     0.381 N 
ATOM     19  H   LIG d   1      -0.545  81.308 111.916  0.00  0.00    -0.090 HD
ATOM     20  H   LIG d   1      -0.547  81.981 110.437  0.00  0.00    -0.090 HD
ATOM     21  H   LIG d   1      -1.108  82.831 111.721  0.00  0.00    -0.090 HD
ENDBRANCH   5  18
BRANCH   3  22
ATOM     22  C   LIG d   1       4.032  82.406 109.689  0.00  0.00     0.382 C 
ATOM     23  O   LIG d   1       5.065  83.049 109.385  0.00  0.00    -0.241 OA
ATOM     24  O   LIG d   1       3.908  81.227 109.307  0.00  0.00    -0.241 OA
ENDBRANCH   3  22
TORSDOF 7
ENDMDL
