MODEL 1
REMARK VINA RESULT:      -5.6      0.000      0.000
REMARK  7 active torsions:
REMARK  status: ('A' for Active; 'I' for Inactive)
REMARK    1  A    between atoms: C_2  and  C_3 
REMARK    2  A    between atoms: C_3  and  O_6 
REMARK    3  A    between atoms: C_3  and  C_4 
REMARK    4  A    between atoms: C_7  and  O_6 
REMARK    5  A    between atoms: C_9  and  C_10 
REMARK    6  A    between atoms: N_15  and  C_14 
REMARK    7  A    between atoms: N_20  and  C_19 
REMARK       I    between atoms: C_22  and  N_20 
ROOT
ATOM      1  C   LIG d   1       2.488  83.636 112.892  0.00  0.00     0.161 C 
ATOM      2  C   LIG d   1       1.580  82.774 112.255  0.00  0.00     0.016 C 
ATOM      3  C   LIG d   1       0.181  82.981 112.254  0.00  0.00     0.038 C 
ATOM      4  C   LIG d   1      -0.395  84.154 112.765  0.00  0.00     0.028 C 
ATOM      5  C   LIG d   1       0.436  84.809 113.862  0.00  0.00    -0.047 C 
ATOM      6  C   LIG d   1       1.888  84.978 113.359  0.00  0.00     0.091 C 
ENDROOT
BRANCH   1   7
ATOM      7  O   LIG d   1       3.625  83.866 112.036  0.00  0.00    -0.368 OA
BRANCH   7   8
ATOM      8  C   LIG d   1       3.355  83.899 110.613  0.00  0.00     0.119 C 
BRANCH   8   9
ATOM      9  C   LIG d   1       4.489  83.128 109.909  0.00  0.00     0.028 C 
ATOM     10  C   LIG d   1       4.106  81.670 109.605  0.00  0.00     0.006 C 
ENDBRANCH   8   9
BRANCH   8  11
ATOM     11  C   LIG d   1       3.434  85.326 110.064  0.00  0.00     0.028 C 
ATOM     12  C   LIG d   1       4.389  86.223 110.867  0.00  0.00     0.006 C 
ENDBRANCH   8  11
ENDBRANCH   7   8
ENDBRANCH   1   7
BRANCH   6  13
ATOM     13  N   LIG d   1       2.788  85.535 114.402  0.00  0.00    -0.311 N 
ATOM     14  C   LIG d   1       3.063  86.833 114.516  0.00  0.00     0.210 C 
ATOM     15  C   LIG d   1       4.031  87.192 115.648  0.00  0.00     0.109 C 
ATOM     16  O   LIG d   1       2.572  87.725 113.808  0.00  0.00    -0.276 OA
ATOM     17  H   LIG d   1       3.205  84.885 115.039  0.00  0.00     0.149 HD
ENDBRANCH   6  13
BRANCH   5  18
ATOM     18  N   LIG d   1      -0.210  86.089 114.207  0.00  0.00     0.381 N 
ATOM     19  H   LIG d   1       0.126  86.812 113.601  0.00  0.00    -0.090 HD
ATOM     20  H   LIG d   1       0.032  86.332 115.151  0.00  0.00    -0.090 HD
ATOM     21  H   LIG d   1      -1.199  86.007 114.120  0.00  0.00    -0.090 HD
ENDBRANCH   5  18
BRANCH   3  22
ATOM     22  C   LIG d   1      -0.660  81.990 111.772  0.00  0.00     0.382 C 
ATOM     23  O   LIG d   1      -1.897  82.068 111.966  0.00  0.00    -0.241 OA
ATOM     24  O   LIG d   1      -0.193  80.996 111.184  0.00  0.00    -0.241 OA
ENDBRANCH   3  22
TORSDOF 7
ENDMDL
MODEL 2
REMARK VINA RESULT:      -5.6      2.492      4.607
REMARK  7 active torsions:
REMARK  status: ('A' for Active; 'I' for Inactive)
REMARK    1  A    between atoms: C_2  and  C_3 
REMARK    2  A    between atoms: C_3  and  O_6 
REMARK    3  A    between atoms: C_3  and  C_4 
REMARK    4  A    between atoms: C_7  and  O_6 
REMARK    5  A    between atoms: C_9  and  C_10 
REMARK    6  A    between atoms: N_15  and  C_14 
REMARK    7  A    between atoms: N_20  and  C_19 
REMARK       I    between atoms: C_22  and  N_20 
ROOT
ATOM      1  C   LIG d   1       0.461  83.394 112.234  0.00  0.00     0.161 C 
ATOM      2  C   LIG d   1      -0.754  82.950 112.781  0.00  0.00     0.016 C 
ATOM      3  C   LIG d   1      -1.300  81.670 112.530  0.00  0.00     0.038 C 
ATOM      4  C   LIG d   1      -0.588  80.685 111.829  0.00  0.00     0.028 C 
ATOM      5  C   LIG d   1       0.417  81.256 110.834  0.00  0.00    -0.047 C 
ATOM      6  C   LIG d   1       1.306  82.294 111.558  0.00  0.00     0.091 C 
ENDROOT
BRANCH   1   7
ATOM      7  O   LIG d   1       1.235  84.069 113.245  0.00  0.00    -0.368 OA
BRANCH   7   8
ATOM      8  C   LIG d   1       1.283  85.514 113.152  0.00  0.00     0.119 C 
BRANCH   8   9
ATOM      9  C   LIG d   1       2.702  85.902 112.692  0.00  0.00     0.028 C 
ATOM     10  C   LIG d   1       2.706  86.586 111.315  0.00  0.00     0.006 C 
ENDBRANCH   8   9
BRANCH   8  11
ATOM     11  C   LIG d   1       1.109  86.167 114.526  0.00  0.00     0.028 C 
ATOM     12  C   LIG d   1       1.200  85.158 115.681  0.00  0.00     0.006 C 
ENDBRANCH   8  11
ENDBRANCH   7   8
ENDBRANCH   1   7
BRANCH   6  13
ATOM     13  N   LIG d   1       2.261  82.962 110.636  0.00  0.00    -0.311 N 
ATOM     14  C   LIG d   1       3.502  82.527 110.424  0.00  0.00     0.210 C 
ATOM     15  C   LIG d   1       4.327  83.375 109.451  0.00  0.00     0.109 C 
ATOM     16  O   LIG d   1       3.987  81.501 110.925  0.00  0.00    -0.276 OA
ATOM     17  H   LIG d   1       1.940  83.785 110.164  0.00  0.00     0.149 HD
ENDBRANCH   6  13
BRANCH   5  18
ATOM     18  N   LIG d   1       1.184  80.126 110.277  0.00  0.00     0.381 N 
ATOM     19  H   LIG d   1       1.666  80.419 109.451  0.00  0.00    -0.090 HD
ATOM     20  H   LIG d   1       0.545  79.393 110.025  0.00  0.00    -0.090 HD
ATOM     21  H   LIG d   1       1.836  79.792 110.951  0.00  0.00    -0.090 HD
ENDBRANCH   5  18
BRANCH   3  22
ATOM     22  C   LIG d   1      -2.590  81.379 112.947  0.00  0.00     0.382 C 
ATOM     23  O   LIG d   1      -2.808  81.079 114.146  0.00  0.00    -0.241 OA
ATOM     24  O   LIG d   1      -3.531  81.369 112.131  0.00  0.00    -0.241 OA
ENDBRANCH   3  22
TORSDOF 7
ENDMDL
MODEL 3
REMARK VINA RESULT:      -5.6     11.461     13.889
REMARK  7 active torsions:
REMARK  status: ('A' for Active; 'I' for Inactive)
REMARK    1  A    between atoms: C_2  and  C_3 
REMARK    2  A    between atoms: C_3  and  O_6 
REMARK    3  A    between atoms: C_3  and  C_4 
REMARK    4  A    between atoms: C_7  and  O_6 
REMARK    5  A    between atoms: C_9  and  C_10 
REMARK    6  A    between atoms: N_15  and  C_14 
REMARK    7  A    between atoms: N_20  and  C_19 
REMARK       I    between atoms: C_22  and  N_20 
ROOT
ATOM      1  C   LIG d   1      -7.584  76.198 117.689  0.00  0.00     0.161 C 
ATOM      2  C   LIG d   1      -8.610  77.153 117.789  0.00  0.00     0.016 C 
ATOM      3  C   LIG d   1      -8.380  78.547 117.770  0.00  0.00     0.038 C 
ATOM      4  C   LIG d   1      -7.114  79.086 117.498  0.00  0.00     0.028 C 
ATOM      5  C   LIG d   1      -5.966  78.165 117.893  0.00  0.00    -0.047 C 
ATOM      6  C   LIG d   1      -6.210  76.767 117.280  0.00  0.00     0.091 C 
ENDROOT
BRANCH   1   7
ATOM      7  O   LIG d   1      -7.981  75.147 116.786  0.00  0.00    -0.368 OA
BRANCH   7   8
ATOM      8  C   LIG d   1      -7.984  73.805 117.333  0.00  0.00     0.119 C 
BRANCH   8   9
ATOM      9  C   LIG d   1      -7.012  72.959 116.487  0.00  0.00     0.028 C 
ATOM     10  C   LIG d   1      -7.559  71.551 116.199  0.00  0.00     0.006 C 
ENDBRANCH   8   9
BRANCH   8  11
ATOM     11  C   LIG d   1      -9.353  73.139 117.166  0.00  0.00     0.028 C 
ATOM     12  C   LIG d   1     -10.470  74.145 116.845  0.00  0.00     0.006 C 
ENDBRANCH   8  11
ENDBRANCH   7   8
ENDBRANCH   1   7
BRANCH   6  13
ATOM     13  N   LIG d   1      -5.175  75.781 117.687  0.00  0.00    -0.311 N 
ATOM     14  C   LIG d   1      -4.076  75.536 116.977  0.00  0.00     0.210 C 
ATOM     15  C   LIG d   1      -3.150  74.467 117.566  0.00  0.00     0.109 C 
ATOM     16  O   LIG d   1      -3.763  76.126 115.932  0.00  0.00    -0.276 OA
ATOM     17  H   LIG d   1      -5.334  75.279 118.539  0.00  0.00     0.149 HD
ENDBRANCH   6  13
BRANCH   5  18
ATOM     18  N   LIG d   1      -4.713  78.789 117.428  0.00  0.00     0.381 N 
ATOM     19  H   LIG d   1      -4.220  78.156 116.831  0.00  0.00    -0.090 HD
ATOM     20  H   LIG d   1      -4.133  78.987 118.225  0.00  0.00    -0.090 HD
ATOM     21  H   LIG d   1      -4.914  79.633 116.937  0.00  0.00    -0.090 HD
ENDBRANCH   5  18
BRANCH   3  22
ATOM     22  C   LIG d   1      -9.417  79.419 118.066  0.00  0.00     0.382 C 
ATOM     23  O   LIG d   1     -10.472  78.984 118.590  0.00  0.00    -0.241 OA
ATOM     24  O   LIG d   1      -9.330  80.627 117.776  0.00  0.00    -0.241 OA
ENDBRANCH   3  22
TORSDOF 7
ENDMDL
MODEL 4
REMARK VINA RESULT:      -5.4      2.857      5.816
REMARK  7 active torsions:
REMARK  status: ('A' for Active; 'I' for Inactive)
REMARK    1  A    between atoms: C_2  and  C_3 
REMARK    2  A    between atoms: C_3  and  O_6 
REMARK    3  A    between atoms: C_3  and  C_4 
REMARK    4  A    between atoms: C_7  and  O_6 
REMARK    5  A    between atoms: C_9  and  C_10 
REMARK    6  A    between atoms: N_15  and  C_14 
REMARK    7  A    between atoms: N_20  and  C_19 
REMARK       I    between atoms: C_22  and  N_20 
ROOT
ATOM      1  C   LIG d   1       1.350  82.062 112.646  0.00  0.00     0.161 C 
ATOM      2  C   LIG d   1       2.519  82.655 112.141  0.00  0.00     0.016 C 
ATOM      3  C   LIG d   1       2.947  82.514 110.801  0.00  0.00     0.038 C 
ATOM      4  C   LIG d   1       2.148  81.891 109.829  0.00  0.00     0.028 C 
ATOM      5  C   LIG d   1       1.201  80.844 110.405  0.00  0.00    -0.047 C 
ATOM      6  C   LIG d   1       0.409  81.472 111.575  0.00  0.00     0.091 C 
ENDROOT
BRANCH   1   7
ATOM      7  O   LIG d   1       0.640  83.008 113.470  0.00  0.00    -0.368 OA
BRANCH   7   8
ATOM      8  C   LIG d   1       0.880  84.408 113.185  0.00  0.00     0.119 C 
BRANCH   8   9
ATOM      9  C   LIG d   1       0.942  85.151 114.534  0.00  0.00     0.028 C 
ATOM     10  C   LIG d   1       1.570  84.295 115.647  0.00  0.00     0.006 C 
ENDBRANCH   8   9
BRANCH   8  11
ATOM     11  C   LIG d   1      -0.299  85.033 112.432  0.00  0.00     0.028 C 
ATOM     12  C   LIG d   1      -0.056  85.125 110.917  0.00  0.00     0.006 C 
ENDBRANCH   8  11
ENDBRANCH   7   8
ENDBRANCH   1   7
BRANCH   6  13
ATOM     13  N   LIG d   1      -0.480  80.491 112.249  0.00  0.00    -0.311 N 
ATOM     14  C   LIG d   1      -1.793  80.668 112.391  0.00  0.00     0.210 C 
ATOM     15  C   LIG d   1      -2.520  79.543 113.134  0.00  0.00     0.109 C 
ATOM     16  O   LIG d   1      -2.428  81.634 111.943  0.00  0.00    -0.276 OA
ATOM     17  H   LIG d   1      -0.052  79.663 112.614  0.00  0.00     0.149 HD
ENDBRANCH   6  13
BRANCH   5  18
ATOM     18  N   LIG d   1       0.335  80.375 109.307  0.00  0.00     0.381 N 
ATOM     19  H   LIG d   1       0.077  79.421 109.462  0.00  0.00    -0.090 HD
ATOM     20  H   LIG d   1       0.847  80.427 108.444  0.00  0.00    -0.090 HD
ATOM     21  H   LIG d   1      -0.482  80.943 109.251  0.00  0.00    -0.090 HD
ENDBRANCH   5  18
BRANCH   3  22
ATOM     22  C   LIG d   1       4.204  82.965 110.429  0.00  0.00     0.382 C 
ATOM     23  O   LIG d   1       4.852  83.718 111.196  0.00  0.00    -0.241 OA
ATOM     24  O   LIG d   1       4.680  82.665 109.318  0.00  0.00    -0.241 OA
ENDBRANCH   3  22
TORSDOF 7
ENDMDL
MODEL 5
REMARK VINA RESULT:      -5.4      2.542      5.900
REMARK  7 active torsions:
REMARK  status: ('A' for Active; 'I' for Inactive)
REMARK    1  A    between atoms: C_2  and  C_3 
REMARK    2  A    between atoms: C_3  and  O_6 
REMARK    3  A    between atoms: C_3  and  C_4 
REMARK    4  A    between atoms: C_7  and  O_6 
REMARK    5  A    between atoms: C_9  and  C_10 
REMARK    6  A    between atoms: N_15  and  C_14 
REMARK    7  A    between atoms: N_20  and  C_19 
REMARK       I    between atoms: C_22  and  N_20 
ROOT
ATOM      1  C   LIG d   1       2.019  83.663 112.759  0.00  0.00     0.161 C 
ATOM      2  C   LIG d   1       2.678  84.882 112.527  0.00  0.00     0.016 C 
ATOM      3  C   LIG d   1       2.335  85.765 111.477  0.00  0.00     0.038 C 
ATOM      4  C   LIG d   1       1.203  85.559 110.675  0.00  0.00     0.028 C 
ATOM      5  C   LIG d   1       0.810  84.091 110.549  0.00  0.00    -0.047 C 
ATOM      6  C   LIG d   1       0.711  83.474 111.963  0.00  0.00     0.091 C 
ENDROOT
BRANCH   1   7
ATOM      7  O   LIG d   1       1.775  83.500 114.170  0.00  0.00    -0.368 OA
BRANCH   7   8
ATOM      8  C   LIG d   1       0.604  84.173 114.696  0.00  0.00     0.119 C 
BRANCH   8   9
ATOM      9  C   LIG d   1       1.084  85.153 115.784  0.00  0.00     0.028 C 
ATOM     10  C   LIG d   1       0.960  86.622 115.346  0.00  0.00     0.006 C 
ENDBRANCH   8   9
BRANCH   8  11
ATOM     11  C   LIG d   1      -0.326  83.191 115.416  0.00  0.00     0.028 C 
ATOM     12  C   LIG d   1      -1.811  83.451 115.118  0.00  0.00     0.006 C 
ENDBRANCH   8  11
ENDBRANCH   7   8
ENDBRANCH   1   7
BRANCH   6  13
ATOM     13  N   LIG d   1       0.412  82.019 111.927  0.00  0.00    -0.311 N 
ATOM     14  C   LIG d   1      -0.824  81.523 111.953  0.00  0.00     0.210 C 
ATOM     15  C   LIG d   1      -0.907  79.993 111.928  0.00  0.00     0.109 C 
ATOM     16  O   LIG d   1      -1.859  82.205 111.961  0.00  0.00    -0.276 OA
ATOM     17  H   LIG d   1       1.194  81.394 111.889  0.00  0.00     0.149 HD
ENDBRANCH   6  13
BRANCH   5  18
ATOM     18  N   LIG d   1      -0.461  84.033 109.803  0.00  0.00     0.381 N 
ATOM     19  H   LIG d   1      -1.022  83.278 110.146  0.00  0.00    -0.090 HD
ATOM     20  H   LIG d   1      -0.261  83.861 108.833  0.00  0.00    -0.090 HD
ATOM     21  H   LIG d   1      -0.954  84.893 109.900  0.00  0.00    -0.090 HD
ENDBRANCH   5  18
BRANCH   3  22
ATOM     22  C   LIG d   1       3.153  86.849 111.196  0.00  0.00     0.382 C 
ATOM     23  O   LIG d   1       2.700  88.016 111.285  0.00  0.00    -0.241 OA
ATOM     24  O   LIG d   1       4.325  86.674 110.812  0.00  0.00    -0.241 OA
ENDBRANCH   3  22
TORSDOF 7
ENDMDL
MODEL 6
REMARK VINA RESULT:      -5.4      1.968      2.482
REMARK  7 active torsions:
REMARK  status: ('A' for Active; 'I' for Inactive)
REMARK    1  A    between atoms: C_2  and  C_3 
REMARK    2  A    between atoms: C_3  and  O_6 
REMARK    3  A    between atoms: C_3  and  C_4 
REMARK    4  A    between atoms: C_7  and  O_6 
REMARK    5  A    between atoms: C_9  and  C_10 
REMARK    6  A    between atoms: N_15  and  C_14 
REMARK    7  A    between atoms: N_20  and  C_19 
REMARK       I    between atoms: C_22  and  N_20 
ROOT
ATOM      1  C   LIG d   1       1.253  84.304 112.256  0.00  0.00     0.161 C 
ATOM      2  C   LIG d   1       0.121  83.634 112.749  0.00  0.00     0.016 C 
ATOM      3  C   LIG d   1      -0.596  84.055 113.892  0.00  0.00     0.038 C 
ATOM      4  C   LIG d   1      -0.318  85.270 114.536  0.00  0.00     0.028 C 
ATOM      5  C   LIG d   1       1.130  85.721 114.378  0.00  0.00    -0.047 C 
ATOM      6  C   LIG d   1       1.504  85.693 112.879  0.00  0.00     0.091 C 
ENDROOT
BRANCH   1   7
ATOM      7  O   LIG d   1       1.173  84.406 110.820  0.00  0.00    -0.368 OA
BRANCH   7   8
ATOM      8  C   LIG d   1       2.030  83.511 110.069  0.00  0.00     0.119 C 
BRANCH   8   9
ATOM      9  C   LIG d   1       2.412  82.345 111.001  0.00  0.00     0.028 C 
ATOM     10  C   LIG d   1       1.832  81.001 110.528  0.00  0.00     0.006 C 
ENDBRANCH   8   9
BRANCH   8  11
ATOM     11  C   LIG d   1       3.354  84.186 109.700  0.00  0.00     0.028 C 
ATOM     12  C   LIG d   1       4.552  83.608 110.470  0.00  0.00     0.006 C 
ENDBRANCH   8  11
ENDBRANCH   7   8
ENDBRANCH   1   7
BRANCH   6  13
ATOM     13  N   LIG d   1       2.930  86.041 112.644  0.00  0.00    -0.311 N 
ATOM     14  C   LIG d   1       3.320  87.062 111.883  0.00  0.00     0.210 C 
ATOM     15  C   LIG d   1       4.837  87.233 111.757  0.00  0.00     0.109 C 
ATOM     16  O   LIG d   1       2.553  87.863 111.327  0.00  0.00    -0.276 OA
ATOM     17  H   LIG d   1       3.619  85.462 113.083  0.00  0.00     0.149 HD
ENDBRANCH   6  13
BRANCH   5  18
ATOM     18  N   LIG d   1       1.246  87.064 114.978  0.00  0.00     0.381 N 
ATOM     19  H   LIG d   1       0.855  87.746 114.360  0.00  0.00    -0.090 HD
ATOM     20  H   LIG d   1       2.219  87.278 115.110  0.00  0.00    -0.090 HD
ATOM     21  H   LIG d   1       0.771  87.088 115.854  0.00  0.00    -0.090 HD
ENDBRANCH   5  18
BRANCH   3  22
ATOM     22  C   LIG d   1      -1.579  83.236 114.427  0.00  0.00     0.382 C 
ATOM     23  O   LIG d   1      -2.440  82.718 113.676  0.00  0.00    -0.241 OA
ATOM     24  O   LIG d   1      -1.642  83.044 115.656  0.00  0.00    -0.241 OA
ENDBRANCH   3  22
TORSDOF 7
ENDMDL
MODEL 7
REMARK VINA RESULT:      -5.3      2.060      2.574
REMARK  7 active torsions:
REMARK  status: ('A' for Active; 'I' for Inactive)
REMARK    1  A    between atoms: C_2  and  C_3 
REMARK    2  A    between atoms: C_3  and  O_6 
REMARK    3  A    between atoms: C_3  and  C_4 
REMARK    4  A    between atoms: C_7  and  O_6 
REMARK    5  A    between atoms: C_9  and  C_10 
REMARK    6  A    between atoms: N_15  and  C_14 
REMARK    7  A    between atoms: N_20  and  C_19 
REMARK       I    between atoms: C_22  and  N_20 
ROOT
ATOM      1  C   LIG d   1       2.920  85.098 112.907  0.00  0.00     0.161 C 
ATOM      2  C   LIG d   1       1.778  84.298 113.080  0.00  0.00     0.016 C 
ATOM      3  C   LIG d   1       0.679  84.676 113.885  0.00  0.00     0.038 C 
ATOM      4  C   LIG d   1       0.581  85.954 114.454  0.00  0.00     0.028 C 
ATOM      5  C   LIG d   1       1.934  86.604 114.721  0.00  0.00    -0.047 C 
ATOM      6  C   LIG d   1       2.783  86.543 113.430  0.00  0.00     0.091 C 
ENDROOT
BRANCH   1   7
ATOM      7  O   LIG d   1       3.307  85.103 111.518  0.00  0.00    -0.368 OA
BRANCH   7   8
ATOM      8  C   LIG d   1       2.305  84.649 110.576  0.00  0.00     0.119 C 
BRANCH   8   9
ATOM      9  C   LIG d   1       3.023  83.800 109.509  0.00  0.00     0.028 C 
ATOM     10  C   LIG d   1       4.375  83.258 110.003  0.00  0.00     0.006 C 
ENDBRANCH   8   9
BRANCH   8  11
ATOM     11  C   LIG d   1       1.688  85.824 109.810  0.00  0.00     0.028 C 
ATOM     12  C   LIG d   1       0.214  86.063 110.173  0.00  0.00     0.006 C 
ENDBRANCH   8  11
ENDBRANCH   7   8
ENDBRANCH   1   7
BRANCH   6  13
ATOM     13  N   LIG d   1       4.154  87.081 113.628  0.00  0.00    -0.311 N 
ATOM     14  C   LIG d   1       4.771  87.860 112.741  0.00  0.00     0.210 C 
ATOM     15  C   LIG d   1       6.189  88.289 113.132  0.00  0.00     0.109 C 
ATOM     16  O   LIG d   1       4.266  88.263 111.682  0.00  0.00    -0.276 OA
ATOM     17  H   LIG d   1       4.626  86.830 114.475  0.00  0.00     0.149 HD
ENDBRANCH   6  13
BRANCH   5  18
ATOM     18  N   LIG d   1       1.684  87.981 115.184  0.00  0.00     0.381 N 
ATOM     19  H   LIG d   1       2.498  88.543 115.032  0.00  0.00    -0.090 HD
ATOM     20  H   LIG d   1       1.494  87.963 116.171  0.00  0.00    -0.090 HD
ATOM     21  H   LIG d   1       0.907  88.370 114.696  0.00  0.00    -0.090 HD
ENDBRANCH   5  18
BRANCH   3  22
ATOM     22  C   LIG d   1      -0.321  83.754 114.159  0.00  0.00     0.382 C 
ATOM     23  O   LIG d   1      -1.248  83.571 113.335  0.00  0.00    -0.241 OA
ATOM     24  O   LIG d   1      -0.330  83.136 115.240  0.00  0.00    -0.241 OA
ENDBRANCH   3  22
TORSDOF 7
ENDMDL
MODEL 8
REMARK VINA RESULT:      -5.2      9.287     11.799
REMARK  7 active torsions:
REMARK  status: ('A' for Active; 'I' for Inactive)
REMARK    1  A    between atoms: C_2  and  C_3 
REMARK    2  A    between atoms: C_3  and  O_6 
REMARK    3  A    between atoms: C_3  and  C_4 
REMARK    4  A    between atoms: C_7  and  O_6 
REMARK    5  A    between atoms: C_9  and  C_10 
REMARK    6  A    between atoms: N_15  and  C_14 
REMARK    7  A    between atoms: N_20  and  C_19 
REMARK       I    between atoms: C_22  and  N_20 
ROOT
ATOM      1  C   LIG d   1      -4.332  76.116 116.967  0.00  0.00     0.161 C 
ATOM      2  C   LIG d   1      -5.195  75.097 117.405  0.00  0.00     0.016 C 
ATOM      3  C   LIG d   1      -6.096  74.420 116.551  0.00  0.00     0.038 C 
ATOM      4  C   LIG d   1      -6.088  74.613 115.162  0.00  0.00     0.028 C 
ATOM      5  C   LIG d   1      -5.587  75.992 114.745  0.00  0.00    -0.047 C 
ATOM      6  C   LIG d   1      -4.230  76.262 115.434  0.00  0.00     0.091 C 
ENDROOT
BRANCH   1   7
ATOM      7  O   LIG d   1      -3.023  75.927 117.540  0.00  0.00    -0.368 OA
BRANCH   7   8
ATOM      8  C   LIG d   1      -2.332  74.711 117.164  0.00  0.00     0.119 C 
BRANCH   8   9
ATOM      9  C   LIG d   1      -1.904  74.000 118.463  0.00  0.00     0.028 C 
ATOM     10  C   LIG d   1      -0.410  74.192 118.772  0.00  0.00     0.006 C 
ENDBRANCH   8   9
BRANCH   8  11
ATOM     11  C   LIG d   1      -1.028  75.018 116.422  0.00  0.00     0.028 C 
ATOM     12  C   LIG d   1      -0.973  74.378 115.025  0.00  0.00     0.006 C 
ENDBRANCH   8  11
ENDBRANCH   7   8
ENDBRANCH   1   7
BRANCH   6  13
ATOM     13  N   LIG d   1      -3.710  77.624 115.147  0.00  0.00    -0.311 N 
ATOM     14  C   LIG d   1      -2.893  77.897 114.131  0.00  0.00     0.210 C 
ATOM     15  C   LIG d   1      -2.459  79.363 114.026  0.00  0.00     0.109 C 
ATOM     16  O   LIG d   1      -2.511  77.071 113.288  0.00  0.00    -0.276 OA
ATOM     17  H   LIG d   1      -3.994  78.361 115.762  0.00  0.00     0.149 HD
ENDBRANCH   6  13
BRANCH   5  18
ATOM     18  N   LIG d   1      -5.501  76.007 113.272  0.00  0.00     0.381 N 
ATOM     19  H   LIG d   1      -6.257  76.541 112.894  0.00  0.00    -0.090 HD
ATOM     20  H   LIG d   1      -5.578  75.065 112.932  0.00  0.00    -0.090 HD
ATOM     21  H   LIG d   1      -4.631  76.401 112.986  0.00  0.00    -0.090 HD
ENDBRANCH   5  18
BRANCH   3  22
ATOM     22  C   LIG d   1      -7.046  73.567 117.093  0.00  0.00     0.382 C 
ATOM     23  O   LIG d   1      -7.530  72.644 116.395  0.00  0.00    -0.241 OA
ATOM     24  O   LIG d   1      -7.459  73.738 118.256  0.00  0.00    -0.241 OA
ENDBRANCH   3  22
TORSDOF 7
ENDMDL
MODEL 9
REMARK VINA RESULT:      -5.2      2.431      6.325
REMARK  7 active torsions:
REMARK  status: ('A' for Active; 'I' for Inactive)
REMARK    1  A    between atoms: C_2  and  C_3 
REMARK    2  A    between atoms: C_3  and  O_6 
REMARK    3  A    between atoms: C_3  and  C_4 
REMARK    4  A    between atoms: C_7  and  O_6 
REMARK    5  A    between atoms: C_9  and  C_10 
REMARK    6  A    between atoms: N_15  and  C_14 
REMARK    7  A    between atoms: N_20  and  C_19 
REMARK       I    between atoms: C_22  and  N_20 
ROOT
ATOM      1  C   LIG d   1       2.522  85.880 113.145  0.00  0.00     0.161 C 
ATOM      2  C   LIG d   1       3.433  86.931 113.349  0.00  0.00     0.016 C 
ATOM      3  C   LIG d   1       4.464  87.255 112.439  0.00  0.00     0.038 C 
ATOM      4  C   LIG d   1       4.563  86.642 111.181  0.00  0.00     0.028 C 
ATOM      5  C   LIG d   1       3.977  85.235 111.145  0.00  0.00    -0.047 C 
ATOM      6  C   LIG d   1       2.545  85.272 111.726  0.00  0.00     0.091 C 
ENDROOT
BRANCH   1   7
ATOM      7  O   LIG d   1       1.190  86.315 113.482  0.00  0.00    -0.368 OA
BRANCH   7   8
ATOM      8  C   LIG d   1       0.661  85.828 114.740  0.00  0.00     0.119 C 
BRANCH   8   9
ATOM      9  C   LIG d   1      -0.846  85.575 114.541  0.00  0.00     0.028 C 
ATOM     10  C   LIG d   1      -1.209  84.084 114.644  0.00  0.00     0.006 C 
ENDBRANCH   8   9
BRANCH   8  11
ATOM     11  C   LIG d   1       0.752  86.897 115.834  0.00  0.00     0.028 C 
ATOM     12  C   LIG d   1       1.968  86.706 116.753  0.00  0.00     0.006 C 
ENDBRANCH   8  11
ENDBRANCH   7   8
ENDBRANCH   1   7
BRANCH   6  13
ATOM     13  N   LIG d   1       1.930  83.922 111.806  0.00  0.00    -0.311 N 
ATOM     14  C   LIG d   1       0.682  83.661 111.420  0.00  0.00     0.210 C 
ATOM     15  C   LIG d   1       0.238  82.206 111.606  0.00  0.00     0.109 C 
ATOM     16  O   LIG d   1      -0.089  84.489 110.912  0.00  0.00    -0.276 OA
ATOM     17  H   LIG d   1       2.495  83.184 112.178  0.00  0.00     0.149 HD
ENDBRANCH   6  13
BRANCH   5  18
ATOM     18  N   LIG d   1       4.020  84.769 109.746  0.00  0.00     0.381 N 
ATOM     19  H   LIG d   1       3.090  84.640 109.403  0.00  0.00    -0.090 HD
ATOM     20  H   LIG d   1       4.494  83.883 109.713  0.00  0.00    -0.090 HD
ATOM     21  H   LIG d   1       4.502  85.433 109.181  0.00  0.00    -0.090 HD
ENDBRANCH   5  18
BRANCH   3  22
ATOM     22  C   LIG d   1       5.437  88.175 112.801  0.00  0.00     0.382 C 
ATOM     23  O   LIG d   1       6.286  87.878 113.675  0.00  0.00    -0.241 OA
ATOM     24  O   LIG d   1       5.448  89.314 112.297  0.00  0.00    -0.241 OA
ENDBRANCH   3  22
TORSDOF 7
ENDMDL
