MODEL 1
REMARK VINA RESULT:      -6.1      0.000      0.000
REMARK  7 active torsions:
REMARK  status: ('A' for Active; 'I' for Inactive)
REMARK    1  A    between atoms: C_2  and  C_3 
REMARK    2  A    between atoms: C_3  and  O_6 
REMARK    3  A    between atoms: C_3  and  C_4 
REMARK    4  A    between atoms: C_7  and  O_6 
REMARK    5  A    between atoms: C_9  and  C_10 
REMARK    6  A    between atoms: N_15  and  C_14 
REMARK    7  A    between atoms: N_20  and  C_19 
REMARK       I    between atoms: C_22  and  N_20 
ROOT
ATOM      1  C   LIG d   1       1.328  82.901 109.927  0.00  0.00     0.161 C 
ATOM      2  C   LIG d   1       1.557  84.281 110.050  0.00  0.00     0.016 C 
ATOM      3  C   LIG d   1       0.877  85.103 110.979  0.00  0.00     0.038 C 
ATOM      4  C   LIG d   1       0.027  84.568 111.958  0.00  0.00     0.028 C 
ATOM      5  C   LIG d   1      -0.618  83.249 111.546  0.00  0.00    -0.047 C 
ATOM      6  C   LIG d   1       0.485  82.281 111.062  0.00  0.00     0.091 C 
ENDROOT
BRANCH   1   7
ATOM      7  O   LIG d   1       2.585  82.207 109.801  0.00  0.00    -0.368 OA
BRANCH   7   8
ATOM      8  C   LIG d   1       3.765  82.948 110.197  0.00  0.00     0.119 C 
BRANCH   8   9
ATOM      9  C   LIG d   1       4.903  82.557 109.234  0.00  0.00     0.028 C 
ATOM     10  C   LIG d   1       5.580  81.235 109.632  0.00  0.00     0.006 C 
ENDBRANCH   8   9
BRANCH   8  11
ATOM     11  C   LIG d   1       4.248  82.526 111.588  0.00  0.00     0.028 C 
ATOM     12  C   LIG d   1       4.223  83.680 112.603  0.00  0.00     0.006 C 
ENDBRANCH   8  11
ENDBRANCH   7   8
ENDBRANCH   1   7
BRANCH   6  13
ATOM     13  N   LIG d   1      -0.068  80.996 110.560  0.00  0.00    -0.311 N 
ATOM     14  C   LIG d   1      -0.271  79.933 111.336  0.00  0.00     0.210 C 
ATOM     15  C   LIG d   1      -0.831  78.703 110.615  0.00  0.00     0.109 C 
ATOM     16  O   LIG d   1      -0.071  79.902 112.560  0.00  0.00    -0.276 OA
ATOM     17  H   LIG d   1      -0.288  80.944 109.585  0.00  0.00     0.149 HD
ENDBRANCH   6  13
BRANCH   5  18
ATOM     18  N   LIG d   1      -1.368  82.737 112.709  0.00  0.00     0.381 N 
ATOM     19  H   LIG d   1      -2.301  83.096 112.695  0.00  0.00    -0.090 HD
ATOM     20  H   LIG d   1      -0.920  83.055 113.550  0.00  0.00    -0.090 HD
ATOM     21  H   LIG d   1      -1.386  81.741 112.690  0.00  0.00    -0.090 HD
ENDBRANCH   5  18
BRANCH   3  22
ATOM     22  C   LIG d   1       1.016  86.480 110.909  0.00  0.00     0.382 C 
ATOM     23  O   LIG d   1       2.105  86.983 110.538  0.00  0.00    -0.241 OA
ATOM     24  O   LIG d   1       0.082  87.228 111.253  0.00  0.00    -0.241 OA
ENDBRANCH   3  22
TORSDOF 7
ENDMDL
MODEL 2
REMARK VINA RESULT:      -6.0      2.761      4.117
REMARK  7 active torsions:
REMARK  status: ('A' for Active; 'I' for Inactive)
REMARK    1  A    between atoms: C_2  and  C_3 
REMARK    2  A    between atoms: C_3  and  O_6 
REMARK    3  A    between atoms: C_3  and  C_4 
REMARK    4  A    between atoms: C_7  and  O_6 
REMARK    5  A    between atoms: C_9  and  C_10 
REMARK    6  A    between atoms: N_15  and  C_14 
REMARK    7  A    between atoms: N_20  and  C_19 
REMARK       I    between atoms: C_22  and  N_20 
ROOT
ATOM      1  C   LIG d   1       2.424  85.188 111.281  0.00  0.00     0.161 C 
ATOM      2  C   LIG d   1       3.059  86.439 111.339  0.00  0.00     0.016 C 
ATOM      3  C   LIG d   1       4.002  86.787 112.334  0.00  0.00     0.038 C 
ATOM      4  C   LIG d   1       4.489  85.848 113.255  0.00  0.00     0.028 C 
ATOM      5  C   LIG d   1       3.505  84.721 113.549  0.00  0.00    -0.047 C 
ATOM      6  C   LIG d   1       3.025  84.113 112.212  0.00  0.00     0.091 C 
ENDROOT
BRANCH   1   7
ATOM      7  O   LIG d   1       2.400  84.715 109.920  0.00  0.00    -0.368 OA
BRANCH   7   8
ATOM      8  C   LIG d   1       1.092  84.413 109.373  0.00  0.00     0.119 C 
BRANCH   8   9
ATOM      9  C   LIG d   1       1.304  83.829 107.963  0.00  0.00     0.028 C 
ATOM     10  C   LIG d   1       2.376  82.726 107.940  0.00  0.00     0.006 C 
ENDBRANCH   8   9
BRANCH   8  11
ATOM     11  C   LIG d   1       0.269  85.688 109.164  0.00  0.00     0.028 C 
ATOM     12  C   LIG d   1      -0.967  85.754 110.075  0.00  0.00     0.006 C 
ENDBRANCH   8  11
ENDBRANCH   7   8
ENDBRANCH   1   7
BRANCH   6  13
ATOM     13  N   LIG d   1       1.995  83.059 112.405  0.00  0.00    -0.311 N 
ATOM     14  C   LIG d   1       2.111  81.823 111.923  0.00  0.00     0.210 C 
ATOM     15  C   LIG d   1       0.926  80.899 112.220  0.00  0.00     0.109 C 
ATOM     16  O   LIG d   1       3.097  81.395 111.304  0.00  0.00    -0.276 OA
ATOM     17  H   LIG d   1       1.176  83.312 112.923  0.00  0.00     0.149 HD
ENDBRANCH   6  13
BRANCH   5  18
ATOM     18  N   LIG d   1       4.191  83.744 114.415  0.00  0.00     0.381 N 
ATOM     19  H   LIG d   1       5.119  84.061 114.614  0.00  0.00    -0.090 HD
ATOM     20  H   LIG d   1       4.255  82.867 113.929  0.00  0.00    -0.090 HD
ATOM     21  H   LIG d   1       3.684  83.626 115.264  0.00  0.00    -0.090 HD
ENDBRANCH   5  18
BRANCH   3  22
ATOM     22  C   LIG d   1       4.438  88.100 112.438  0.00  0.00     0.382 C 
ATOM     23  O   LIG d   1       5.665  88.359 112.381  0.00  0.00    -0.241 OA
ATOM     24  O   LIG d   1       3.624  89.022 112.632  0.00  0.00    -0.241 OA
ENDBRANCH   3  22
TORSDOF 7
ENDMDL
MODEL 3
REMARK VINA RESULT:      -6.0      2.217      4.590
REMARK  7 active torsions:
REMARK  status: ('A' for Active; 'I' for Inactive)
REMARK    1  A    between atoms: C_2  and  C_3 
REMARK    2  A    between atoms: C_3  and  O_6 
REMARK    3  A    between atoms: C_3  and  C_4 
REMARK    4  A    between atoms: C_7  and  O_6 
REMARK    5  A    between atoms: C_9  and  C_10 
REMARK    6  A    between atoms: N_15  and  C_14 
REMARK    7  A    between atoms: N_20  and  C_19 
REMARK       I    between atoms: C_22  and  N_20 
ROOT
ATOM      1  C   LIG d   1       2.227  81.685 111.248  0.00  0.00     0.161 C 
ATOM      2  C   LIG d   1       3.392  82.264 110.718  0.00  0.00     0.016 C 
ATOM      3  C   LIG d   1       4.055  81.770 109.571  0.00  0.00     0.038 C 
ATOM      4  C   LIG d   1       3.509  80.746 108.783  0.00  0.00     0.028 C 
ATOM      5  C   LIG d   1       2.600  79.801 109.562  0.00  0.00    -0.047 C 
ATOM      6  C   LIG d   1       1.555  80.635 110.338  0.00  0.00     0.091 C 
ENDROOT
BRANCH   1   7
ATOM      7  O   LIG d   1       1.286  82.717 111.603  0.00  0.00    -0.368 OA
BRANCH   7   8
ATOM      8  C   LIG d   1       0.403  83.165 110.545  0.00  0.00     0.119 C 
BRANCH   8   9
ATOM      9  C   LIG d   1       1.124  84.297 109.788  0.00  0.00     0.028 C 
ATOM     10  C   LIG d   1       1.283  83.992 108.289  0.00  0.00     0.006 C 
ENDBRANCH   8   9
BRANCH   8  11
ATOM     11  C   LIG d   1      -0.869  83.802 111.113  0.00  0.00     0.028 C 
ATOM     12  C   LIG d   1      -0.889  85.331 110.959  0.00  0.00     0.006 C 
ENDBRANCH   8  11
ENDBRANCH   7   8
ENDBRANCH   1   7
BRANCH   6  13
ATOM     13  N   LIG d   1       0.679  79.793 111.193  0.00  0.00    -0.311 N 
ATOM     14  C   LIG d   1      -0.457  79.246 110.765  0.00  0.00     0.210 C 
ATOM     15  C   LIG d   1      -1.219  78.431 111.814  0.00  0.00     0.109 C 
ATOM     16  O   LIG d   1      -0.890  79.332 109.606  0.00  0.00    -0.276 OA
ATOM     17  H   LIG d   1       0.971  79.646 112.140  0.00  0.00     0.149 HD
ENDBRANCH   6  13
BRANCH   5  18
ATOM     18  N   LIG d   1       1.992  78.868 108.595  0.00  0.00     0.381 N 
ATOM     19  H   LIG d   1       1.326  79.354 108.028  0.00  0.00    -0.090 HD
ATOM     20  H   LIG d   1       1.509  78.145 109.099  0.00  0.00    -0.090 HD
ATOM     21  H   LIG d   1       2.699  78.466 108.019  0.00  0.00    -0.090 HD
ENDBRANCH   5  18
BRANCH   3  22
ATOM     22  C   LIG d   1       5.299  82.275 109.225  0.00  0.00     0.382 C 
ATOM     23  O   LIG d   1       5.426  82.972 108.189  0.00  0.00    -0.241 OA
ATOM     24  O   LIG d   1       6.303  82.006 109.911  0.00  0.00    -0.241 OA
ENDBRANCH   3  22
TORSDOF 7
ENDMDL
MODEL 4
REMARK VINA RESULT:      -6.0      3.367      5.327
REMARK  7 active torsions:
REMARK  status: ('A' for Active; 'I' for Inactive)
REMARK    1  A    between atoms: C_2  and  C_3 
REMARK    2  A    between atoms: C_3  and  O_6 
REMARK    3  A    between atoms: C_3  and  C_4 
REMARK    4  A    between atoms: C_7  and  O_6 
REMARK    5  A    between atoms: C_9  and  C_10 
REMARK    6  A    between atoms: N_15  and  C_14 
REMARK    7  A    between atoms: N_20  and  C_19 
REMARK       I    between atoms: C_22  and  N_20 
ROOT
ATOM      1  C   LIG d   1       2.680  84.755 112.332  0.00  0.00     0.161 C 
ATOM      2  C   LIG d   1       1.505  84.297 111.713  0.00  0.00     0.016 C 
ATOM      3  C   LIG d   1       0.535  85.159 111.150  0.00  0.00     0.038 C 
ATOM      4  C   LIG d   1       0.749  86.540 111.034  0.00  0.00     0.028 C 
ATOM      5  C   LIG d   1       1.690  87.099 112.097  0.00  0.00    -0.047 C 
ATOM      6  C   LIG d   1       2.983  86.252 112.117  0.00  0.00     0.091 C 
ENDROOT
BRANCH   1   7
ATOM      7  O   LIG d   1       3.799  83.951 111.911  0.00  0.00    -0.368 OA
BRANCH   7   8
ATOM      8  C   LIG d   1       3.552  83.039 110.812  0.00  0.00     0.119 C 
BRANCH   8   9
ATOM      9  C   LIG d   1       4.281  81.720 111.132  0.00  0.00     0.028 C 
ATOM     10  C   LIG d   1       5.231  81.852 112.334  0.00  0.00     0.006 C 
ENDBRANCH   8   9
BRANCH   8  11
ATOM     11  C   LIG d   1       4.184  83.548 109.513  0.00  0.00     0.028 C 
ATOM     12  C   LIG d   1       4.857  82.430 108.701  0.00  0.00     0.006 C 
ENDBRANCH   8  11
ENDBRANCH   7   8
ENDBRANCH   1   7
BRANCH   6  13
ATOM     13  N   LIG d   1       3.923  86.679 113.186  0.00  0.00    -0.311 N 
ATOM     14  C   LIG d   1       4.932  87.524 112.980  0.00  0.00     0.210 C 
ATOM     15  C   LIG d   1       5.793  87.815 114.213  0.00  0.00     0.109 C 
ATOM     16  O   LIG d   1       5.177  88.084 111.901  0.00  0.00    -0.276 OA
ATOM     17  H   LIG d   1       3.779  86.297 114.100  0.00  0.00     0.149 HD
ENDBRANCH   6  13
BRANCH   5  18
ATOM     18  N   LIG d   1       1.932  88.518 111.775  0.00  0.00     0.381 N 
ATOM     19  H   LIG d   1       2.336  88.595 110.863  0.00  0.00    -0.090 HD
ATOM     20  H   LIG d   1       2.584  88.895 112.441  0.00  0.00    -0.090 HD
ATOM     21  H   LIG d   1       1.077  89.027 111.812  0.00  0.00    -0.090 HD
ENDBRANCH   5  18
BRANCH   3  22
ATOM     22  C   LIG d   1      -0.682  84.643 110.732  0.00  0.00     0.382 C 
ATOM     23  O   LIG d   1      -1.540  85.400 110.217  0.00  0.00    -0.241 OA
ATOM     24  O   LIG d   1      -0.951  83.439 110.903  0.00  0.00    -0.241 OA
ENDBRANCH   3  22
TORSDOF 7
ENDMDL
MODEL 5
REMARK VINA RESULT:      -6.0      1.754      2.448
REMARK  7 active torsions:
REMARK  status: ('A' for Active; 'I' for Inactive)
REMARK    1  A    between atoms: C_2  and  C_3 
REMARK    2  A    between atoms: C_3  and  O_6 
REMARK    3  A    between atoms: C_3  and  C_4 
REMARK    4  A    between atoms: C_7  and  O_6 
REMARK    5  A    between atoms: C_9  and  C_10 
REMARK    6  A    between atoms: N_15  and  C_14 
REMARK    7  A    between atoms: N_20  and  C_19 
REMARK       I    between atoms: C_22  and  N_20 
ROOT
ATOM      1  C   LIG d   1       2.537  84.032 110.887  0.00  0.00     0.161 C 
ATOM      2  C   LIG d   1       2.886  85.309 111.358  0.00  0.00     0.016 C 
ATOM      3  C   LIG d   1       1.972  86.384 111.441  0.00  0.00     0.038 C 
ATOM      4  C   LIG d   1       0.601  86.212 111.198  0.00  0.00     0.028 C 
ATOM      5  C   LIG d   1       0.294  85.069 110.236  0.00  0.00    -0.047 C 
ATOM      6  C   LIG d   1       1.021  83.795 110.724  0.00  0.00     0.091 C 
ENDROOT
BRANCH   1   7
ATOM      7  O   LIG d   1       3.112  83.023 111.741  0.00  0.00    -0.368 OA
BRANCH   7   8
ATOM      8  C   LIG d   1       4.040  82.107 111.108  0.00  0.00     0.119 C 
BRANCH   8   9
ATOM      9  C   LIG d   1       5.321  82.080 111.965  0.00  0.00     0.028 C 
ATOM     10  C   LIG d   1       5.250  83.050 113.156  0.00  0.00     0.006 C 
ENDBRANCH   8   9
BRANCH   8  11
ATOM     11  C   LIG d   1       4.482  82.621 109.735  0.00  0.00     0.028 C 
ATOM     12  C   LIG d   1       4.292  81.581 108.620  0.00  0.00     0.006 C 
ENDBRANCH   8  11
ENDBRANCH   7   8
ENDBRANCH   1   7
BRANCH   6  13
ATOM     13  N   LIG d   1       0.843  82.650 109.793  0.00  0.00    -0.311 N 
ATOM     14  C   LIG d   1       0.483  81.431 110.191  0.00  0.00     0.210 C 
ATOM     15  C   LIG d   1       0.376  80.390 109.072  0.00  0.00     0.109 C 
ATOM     16  O   LIG d   1       0.211  81.120 111.360  0.00  0.00    -0.276 OA
ATOM     17  H   LIG d   1       1.013  82.821 108.821  0.00  0.00     0.149 HD
ENDBRANCH   6  13
BRANCH   5  18
ATOM     18  N   LIG d   1      -1.171  84.914 110.181  0.00  0.00     0.381 N 
ATOM     19  H   LIG d   1      -1.412  83.944 110.238  0.00  0.00    -0.090 HD
ATOM     20  H   LIG d   1      -1.503  85.270 109.302  0.00  0.00    -0.090 HD
ATOM     21  H   LIG d   1      -1.596  85.413 110.932  0.00  0.00    -0.090 HD
ENDBRANCH   5  18
BRANCH   3  22
ATOM     22  C   LIG d   1       2.434  87.659 111.731  0.00  0.00     0.382 C 
ATOM     23  O   LIG d   1       3.652  87.930 111.595  0.00  0.00    -0.241 OA
ATOM     24  O   LIG d   1       1.658  88.528 112.169  0.00  0.00    -0.241 OA
ENDBRANCH   3  22
TORSDOF 7
ENDMDL
MODEL 6
REMARK VINA RESULT:      -5.9      2.238      3.837
REMARK  7 active torsions:
REMARK  status: ('A' for Active; 'I' for Inactive)
REMARK    1  A    between atoms: C_2  and  C_3 
REMARK    2  A    between atoms: C_3  and  O_6 
REMARK    3  A    between atoms: C_3  and  C_4 
REMARK    4  A    between atoms: C_7  and  O_6 
REMARK    5  A    between atoms: C_9  and  C_10 
REMARK    6  A    between atoms: N_15  and  C_14 
REMARK    7  A    between atoms: N_20  and  C_19 
REMARK       I    between atoms: C_22  and  N_20 
ROOT
ATOM      1  C   LIG d   1       2.406  85.131 110.724  0.00  0.00     0.161 C 
ATOM      2  C   LIG d   1       1.303  85.772 111.311  0.00  0.00     0.016 C 
ATOM      3  C   LIG d   1       0.026  85.175 111.427  0.00  0.00     0.038 C 
ATOM      4  C   LIG d   1      -0.195  83.829 111.098  0.00  0.00     0.028 C 
ATOM      5  C   LIG d   1       0.762  83.301 110.035  0.00  0.00    -0.047 C 
ATOM      6  C   LIG d   1       2.212  83.623 110.460  0.00  0.00     0.091 C 
ENDROOT
BRANCH   1   7
ATOM      7  O   LIG d   1       3.583  85.352 111.526  0.00  0.00    -0.368 OA
BRANCH   7   8
ATOM      8  C   LIG d   1       3.364  85.514 112.949  0.00  0.00     0.119 C 
BRANCH   8   9
ATOM      9  C   LIG d   1       4.335  86.601 113.447  0.00  0.00     0.028 C 
ATOM     10  C   LIG d   1       4.719  87.596 112.339  0.00  0.00     0.006 C 
ENDBRANCH   8   9
BRANCH   8  11
ATOM     11  C   LIG d   1       3.745  84.246 113.720  0.00  0.00     0.028 C 
ATOM     12  C   LIG d   1       4.890  83.466 113.054  0.00  0.00     0.006 C 
ENDBRANCH   8  11
ENDBRANCH   7   8
ENDBRANCH   1   7
BRANCH   6  13
ATOM     13  N   LIG d   1       3.208  83.214 109.435  0.00  0.00    -0.311 N 
ATOM     14  C   LIG d   1       3.892  82.073 109.492  0.00  0.00     0.210 C 
ATOM     15  C   LIG d   1       4.883  81.856 108.343  0.00  0.00     0.109 C 
ATOM     16  O   LIG d   1       3.750  81.206 110.366  0.00  0.00    -0.276 OA
ATOM     17  H   LIG d   1       3.363  83.845 108.673  0.00  0.00     0.149 HD
ENDBRANCH   6  13
BRANCH   5  18
ATOM     18  N   LIG d   1       0.510  81.855 109.888  0.00  0.00     0.381 N 
ATOM     19  H   LIG d   1      -0.400  81.707 109.499  0.00  0.00    -0.090 HD
ATOM     20  H   LIG d   1       0.537  81.426 110.796  0.00  0.00    -0.090 HD
ATOM     21  H   LIG d   1       1.202  81.446 109.299  0.00  0.00    -0.090 HD
ENDBRANCH   5  18
BRANCH   3  22
ATOM     22  C   LIG d   1      -1.055  85.938 111.841  0.00  0.00     0.382 C 
ATOM     23  O   LIG d   1      -1.573  85.735 112.965  0.00  0.00    -0.241 OA
ATOM     24  O   LIG d   1      -1.547  86.798 111.085  0.00  0.00    -0.241 OA
ENDBRANCH   3  22
TORSDOF 7
ENDMDL
MODEL 7
REMARK VINA RESULT:      -5.8      2.041      4.952
REMARK  7 active torsions:
REMARK  status: ('A' for Active; 'I' for Inactive)
REMARK    1  A    between atoms: C_2  and  C_3 
REMARK    2  A    between atoms: C_3  and  O_6 
REMARK    3  A    between atoms: C_3  and  C_4 
REMARK    4  A    between atoms: C_7  and  O_6 
REMARK    5  A    between atoms: C_9  and  C_10 
REMARK    6  A    between atoms: N_15  and  C_14 
REMARK    7  A    between atoms: N_20  and  C_19 
REMARK       I    between atoms: C_22  and  N_20 
ROOT
ATOM      1  C   LIG d   1       2.820  82.981 111.141  0.00  0.00     0.161 C 
ATOM      2  C   LIG d   1       2.013  81.832 111.091  0.00  0.00     0.016 C 
ATOM      3  C   LIG d   1       0.664  81.809 111.513  0.00  0.00     0.038 C 
ATOM      4  C   LIG d   1      -0.019  82.980 111.874  0.00  0.00     0.028 C 
ATOM      5  C   LIG d   1       0.895  84.071 112.420  0.00  0.00    -0.047 C 
ATOM      6  C   LIG d   1       2.060  84.292 111.428  0.00  0.00     0.091 C 
ENDROOT
BRANCH   1   7
ATOM      7  O   LIG d   1       3.580  83.098 109.922  0.00  0.00    -0.368 OA
BRANCH   7   8
ATOM      8  C   LIG d   1       3.364  82.060 108.934  0.00  0.00     0.119 C 
BRANCH   8   9
ATOM      9  C   LIG d   1       4.744  81.489 108.554  0.00  0.00     0.028 C 
ATOM     10  C   LIG d   1       5.474  80.867 109.756  0.00  0.00     0.006 C 
ENDBRANCH   8   9
BRANCH   8  11
ATOM     11  C   LIG d   1       2.792  82.637 107.636  0.00  0.00     0.028 C 
ATOM     12  C   LIG d   1       1.433  83.327 107.839  0.00  0.00     0.006 C 
ENDBRANCH   8  11
ENDBRANCH   7   8
ENDBRANCH   1   7
BRANCH   6  13
ATOM     13  N   LIG d   1       3.048  85.285 111.927  0.00  0.00    -0.311 N 
ATOM     14  C   LIG d   1       3.045  86.567 111.566  0.00  0.00     0.210 C 
ATOM     15  C   LIG d   1       4.163  87.414 112.181  0.00  0.00     0.109 C 
ATOM     16  O   LIG d   1       2.202  87.090 110.821  0.00  0.00    -0.276 OA
ATOM     17  H   LIG d   1       3.749  84.953 112.560  0.00  0.00     0.149 HD
ENDBRANCH   6  13
BRANCH   5  18
ATOM     18  N   LIG d   1       0.074  85.279 112.627  0.00  0.00     0.381 N 
ATOM     19  H   LIG d   1      -0.661  85.082 113.276  0.00  0.00    -0.090 HD
ATOM     20  H   LIG d   1      -0.341  85.544 111.751  0.00  0.00    -0.090 HD
ATOM     21  H   LIG d   1       0.641  86.022 112.972  0.00  0.00    -0.090 HD
ENDBRANCH   5  18
BRANCH   3  22
ATOM     22  C   LIG d   1      -0.005  80.599 111.613  0.00  0.00     0.382 C 
ATOM     23  O   LIG d   1      -0.454  80.043 110.582  0.00  0.00    -0.241 OA
ATOM     24  O   LIG d   1      -0.203  80.077 112.727  0.00  0.00    -0.241 OA
ENDBRANCH   3  22
TORSDOF 7
ENDMDL
MODEL 8
REMARK VINA RESULT:      -5.7      2.597      4.507
REMARK  7 active torsions:
REMARK  status: ('A' for Active; 'I' for Inactive)
REMARK    1  A    between atoms: C_2  and  C_3 
REMARK    2  A    between atoms: C_3  and  O_6 
REMARK    3  A    between atoms: C_3  and  C_4 
REMARK    4  A    between atoms: C_7  and  O_6 
REMARK    5  A    between atoms: C_9  and  C_10 
REMARK    6  A    between atoms: N_15  and  C_14 
REMARK    7  A    between atoms: N_20  and  C_19 
REMARK       I    between atoms: C_22  and  N_20 
ROOT
ATOM      1  C   LIG d   1       0.617  82.036 110.877  0.00  0.00     0.161 C 
ATOM      2  C   LIG d   1       1.344  82.626 109.830  0.00  0.00     0.016 C 
ATOM      3  C   LIG d   1       2.054  81.882 108.859  0.00  0.00     0.038 C 
ATOM      4  C   LIG d   1       1.960  80.485 108.781  0.00  0.00     0.028 C 
ATOM      5  C   LIG d   1       1.647  79.823 110.119  0.00  0.00    -0.047 C 
ATOM      6  C   LIG d   1       0.411  80.513 110.743  0.00  0.00     0.091 C 
ENDROOT
BRANCH   1   7
ATOM      7  O   LIG d   1      -0.653  82.702 111.026  0.00  0.00    -0.368 OA
BRANCH   7   8
ATOM      8  C   LIG d   1      -0.783  83.576 112.174  0.00  0.00     0.119 C 
BRANCH   8   9
ATOM      9  C   LIG d   1      -0.440  85.005 111.709  0.00  0.00     0.028 C 
ATOM     10  C   LIG d   1      -1.101  85.360 110.367  0.00  0.00     0.006 C 
ENDBRANCH   8   9
BRANCH   8  11
ATOM     11  C   LIG d   1       0.253  83.240 113.251  0.00  0.00     0.028 C 
ATOM     12  C   LIG d   1       0.872  84.492 113.893  0.00  0.00     0.006 C 
ENDBRANCH   8  11
ENDBRANCH   7   8
ENDBRANCH   1   7
BRANCH   6  13
ATOM     13  N   LIG d   1       0.088  79.982 112.093  0.00  0.00    -0.311 N 
ATOM     14  C   LIG d   1      -1.015  79.286 112.362  0.00  0.00     0.210 C 
ATOM     15  C   LIG d   1      -1.165  78.850 113.823  0.00  0.00     0.109 C 
ATOM     16  O   LIG d   1      -1.868  78.960 111.523  0.00  0.00    -0.276 OA
ATOM     17  H   LIG d   1       0.741  80.174 112.827  0.00  0.00     0.149 HD
ENDBRANCH   6  13
BRANCH   5  18
ATOM     18  N   LIG d   1       1.440  78.385 109.868  0.00  0.00     0.381 N 
ATOM     19  H   LIG d   1       1.416  78.213 108.883  0.00  0.00    -0.090 HD
ATOM     20  H   LIG d   1       0.556  78.110 110.258  0.00  0.00    -0.090 HD
ATOM     21  H   LIG d   1       2.175  77.857 110.286  0.00  0.00    -0.090 HD
ENDBRANCH   5  18
BRANCH   3  22
ATOM     22  C   LIG d   1       2.901  82.535 107.977  0.00  0.00     0.382 C 
ATOM     23  O   LIG d   1       2.449  83.006 106.906  0.00  0.00    -0.241 OA
ATOM     24  O   LIG d   1       4.120  82.621 108.218  0.00  0.00    -0.241 OA
ENDBRANCH   3  22
TORSDOF 7
ENDMDL
MODEL 9
REMARK VINA RESULT:      -5.6      2.001      4.666
REMARK  7 active torsions:
REMARK  status: ('A' for Active; 'I' for Inactive)
REMARK    1  A    between atoms: C_2  and  C_3 
REMARK    2  A    between atoms: C_3  and  O_6 
REMARK    3  A    between atoms: C_3  and  C_4 
REMARK    4  A    between atoms: C_7  and  O_6 
REMARK    5  A    between atoms: C_9  and  C_10 
REMARK    6  A    between atoms: N_15  and  C_14 
REMARK    7  A    between atoms: N_20  and  C_19 
REMARK       I    between atoms: C_22  and  N_20 
ROOT
ATOM      1  C   LIG d   1       1.570  82.432 110.202  0.00  0.00     0.161 C 
ATOM      2  C   LIG d   1       2.878  82.811 109.855  0.00  0.00     0.016 C 
ATOM      3  C   LIG d   1       3.780  81.961 109.175  0.00  0.00     0.038 C 
ATOM      4  C   LIG d   1       3.382  80.720 108.657  0.00  0.00     0.028 C 
ATOM      5  C   LIG d   1       2.224  80.088 109.422  0.00  0.00    -0.047 C 
ATOM      6  C   LIG d   1       1.082  81.122 109.548  0.00  0.00     0.091 C 
ENDROOT
BRANCH   1   7
ATOM      7  O   LIG d   1       0.656  83.508 109.911  0.00  0.00    -0.368 OA
BRANCH   7   8
ATOM      8  C   LIG d   1       0.651  84.611 110.851  0.00  0.00     0.119 C 
BRANCH   8   9
ATOM      9  C   LIG d   1      -0.764  84.698 111.454  0.00  0.00     0.028 C 
ATOM     10  C   LIG d   1      -0.921  83.826 112.711  0.00  0.00     0.006 C 
ENDBRANCH   8   9
BRANCH   8  11
ATOM     11  C   LIG d   1       0.873  85.949 110.140  0.00  0.00     0.028 C 
ATOM     12  C   LIG d   1       1.741  86.920 110.956  0.00  0.00     0.006 C 
ENDBRANCH   8  11
ENDBRANCH   7   8
ENDBRANCH   1   7
BRANCH   6  13
ATOM     13  N   LIG d   1      -0.057  80.614 110.355  0.00  0.00    -0.311 N 
ATOM     14  C   LIG d   1       0.001  80.435 111.674  0.00  0.00     0.210 C 
ATOM     15  C   LIG d   1      -1.279  79.882 112.309  0.00  0.00     0.109 C 
ATOM     16  O   LIG d   1       0.981  80.711 112.382  0.00  0.00    -0.276 OA
ATOM     17  H   LIG d   1      -0.902  80.393 109.865  0.00  0.00     0.149 HD
ENDBRANCH   6  13
BRANCH   5  18
ATOM     18  N   LIG d   1       1.822  78.869 108.695  0.00  0.00     0.381 N 
ATOM     19  H   LIG d   1       2.216  78.878 107.775  0.00  0.00    -0.090 HD
ATOM     20  H   LIG d   1       0.821  78.856 108.609  0.00  0.00    -0.090 HD
ATOM     21  H   LIG d   1       2.131  78.060 109.188  0.00  0.00    -0.090 HD
ENDBRANCH   5  18
BRANCH   3  22
ATOM     22  C   LIG d   1       5.109  82.335 109.041  0.00  0.00     0.382 C 
ATOM     23  O   LIG d   1       5.454  83.097 108.106  0.00  0.00    -0.241 OA
ATOM     24  O   LIG d   1       5.973  81.886 109.818  0.00  0.00    -0.241 OA
ENDBRANCH   3  22
TORSDOF 7
ENDMDL
