MODEL 1
REMARK VINA RESULT:      -4.6      0.000      0.000
REMARK  7 active torsions:
REMARK  status: ('A' for Active; 'I' for Inactive)
REMARK    1  A    between atoms: C_2  and  C_3 
REMARK    2  A    between atoms: C_3  and  O_6 
REMARK    3  A    between atoms: C_3  and  C_4 
REMARK    4  A    between atoms: C_7  and  O_6 
REMARK    5  A    between atoms: C_9  and  C_10 
REMARK    6  A    between atoms: N_15  and  C_14 
REMARK    7  A    between atoms: N_20  and  C_19 
REMARK       I    between atoms: C_22  and  N_20 
ROOT
ATOM      1  C   LIG d   1      -0.133  57.647 118.460  0.00  0.00     0.161 C 
ATOM      2  C   LIG d   1      -1.146  58.607 118.297  0.00  0.00     0.016 C 
ATOM      3  C   LIG d   1      -2.460  58.289 117.882  0.00  0.00     0.038 C 
ATOM      4  C   LIG d   1      -2.894  56.962 117.745  0.00  0.00     0.028 C 
ATOM      5  C   LIG d   1      -1.769  55.988 117.409  0.00  0.00    -0.047 C 
ATOM      6  C   LIG d   1      -0.618  56.182 118.422  0.00  0.00     0.091 C 
ENDROOT
BRANCH   1   7
ATOM      7  O   LIG d   1       0.593  57.904 119.678  0.00  0.00    -0.368 OA
BRANCH   7   8
ATOM      8  C   LIG d   1      -0.069  58.754 120.647  0.00  0.00     0.119 C 
BRANCH   8   9
ATOM      9  C   LIG d   1       0.949  59.820 121.098  0.00  0.00     0.028 C 
ATOM     10  C   LIG d   1       2.371  59.524 120.594  0.00  0.00     0.006 C 
ENDBRANCH   8   9
BRANCH   8  11
ATOM     11  C   LIG d   1      -0.431  57.977 121.916  0.00  0.00     0.028 C 
ATOM     12  C   LIG d   1      -1.903  57.536 121.944  0.00  0.00     0.006 C 
ENDBRANCH   8  11
ENDBRANCH   7   8
ENDBRANCH   1   7
BRANCH   6  13
ATOM     13  N   LIG d   1       0.558  55.327 118.115  0.00  0.00    -0.311 N 
ATOM     14  C   LIG d   1       0.768  54.139 118.678  0.00  0.00     0.210 C 
ATOM     15  C   LIG d   1       2.052  53.431 118.235  0.00  0.00     0.109 C 
ATOM     16  O   LIG d   1      -0.004  53.589 119.478  0.00  0.00    -0.276 OA
ATOM     17  H   LIG d   1       1.220  55.682 117.452  0.00  0.00     0.149 HD
ENDBRANCH   6  13
BRANCH   5  18
ATOM     18  N   LIG d   1      -2.336  54.627 117.432  0.00  0.00     0.381 N 
ATOM     19  H   LIG d   1      -3.192  54.608 116.914  0.00  0.00    -0.090 HD
ATOM     20  H   LIG d   1      -2.537  54.374 118.383  0.00  0.00    -0.090 HD
ATOM     21  H   LIG d   1      -1.687  53.981 117.039  0.00  0.00    -0.090 HD
ENDBRANCH   5  18
BRANCH   3  22
ATOM     22  C   LIG d   1      -3.344  59.307 117.560  0.00  0.00     0.382 C 
ATOM     23  O   LIG d   1      -2.929  60.485 117.446  0.00  0.00    -0.241 OA
ATOM     24  O   LIG d   1      -4.560  59.070 117.426  0.00  0.00    -0.241 OA
ENDBRANCH   3  22
TORSDOF 7
ENDMDL
MODEL 2
REMARK VINA RESULT:      -4.6     35.779     37.950
REMARK  7 active torsions:
REMARK  status: ('A' for Active; 'I' for Inactive)
REMARK    1  A    between atoms: C_2  and  C_3 
REMARK    2  A    between atoms: C_3  and  O_6 
REMARK    3  A    between atoms: C_3  and  C_4 
REMARK    4  A    between atoms: C_7  and  O_6 
REMARK    5  A    between atoms: C_9  and  C_10 
REMARK    6  A    between atoms: N_15  and  C_14 
REMARK    7  A    between atoms: N_20  and  C_19 
REMARK       I    between atoms: C_22  and  N_20 
ROOT
ATOM      1  C   LIG d   1      -5.139  94.249 120.593  0.00  0.00     0.161 C 
ATOM      2  C   LIG d   1      -6.480  93.859 120.447  0.00  0.00     0.016 C 
ATOM      3  C   LIG d   1      -7.551  94.776 120.344  0.00  0.00     0.038 C 
ATOM      4  C   LIG d   1      -7.336  96.157 120.228  0.00  0.00     0.028 C 
ATOM      5  C   LIG d   1      -6.037  96.624 120.877  0.00  0.00    -0.047 C 
ATOM      6  C   LIG d   1      -4.873  95.751 120.356  0.00  0.00     0.091 C 
ENDROOT
BRANCH   1   7
ATOM      7  O   LIG d   1      -4.301  93.451 119.734  0.00  0.00    -0.368 OA
BRANCH   7   8
ATOM      8  C   LIG d   1      -3.483  92.452 120.391  0.00  0.00     0.119 C 
BRANCH   8   9
ATOM      9  C   LIG d   1      -2.089  92.491 119.735  0.00  0.00     0.028 C 
ATOM     10  C   LIG d   1      -1.928  93.677 118.769  0.00  0.00     0.006 C 
ENDBRANCH   8   9
BRANCH   8  11
ATOM     11  C   LIG d   1      -4.014  91.039 120.131  0.00  0.00     0.028 C 
ATOM     12  C   LIG d   1      -4.648  90.887 118.739  0.00  0.00     0.006 C 
ENDBRANCH   8  11
ENDBRANCH   7   8
ENDBRANCH   1   7
BRANCH   6  13
ATOM     13  N   LIG d   1      -3.579  96.086 121.005  0.00  0.00    -0.311 N 
ATOM     14  C   LIG d   1      -2.690  96.926 120.477  0.00  0.00     0.210 C 
ATOM     15  C   LIG d   1      -1.412  97.116 121.300  0.00  0.00     0.109 C 
ATOM     16  O   LIG d   1      -2.853  97.557 119.422  0.00  0.00    -0.276 OA
ATOM     17  H   LIG d   1      -3.379  95.643 121.880  0.00  0.00     0.149 HD
ENDBRANCH   6  13
BRANCH   5  18
ATOM     18  N   LIG d   1      -5.872  98.056 120.562  0.00  0.00     0.381 N 
ATOM     19  H   LIG d   1      -6.676  98.390 120.070  0.00  0.00    -0.090 HD
ATOM     20  H   LIG d   1      -5.069  98.167 119.968  0.00  0.00    -0.090 HD
ATOM     21  H   LIG d   1      -5.747  98.577 121.402  0.00  0.00    -0.090 HD
ENDBRANCH   5  18
BRANCH   3  22
ATOM     22  C   LIG d   1      -8.858  94.315 120.397  0.00  0.00     0.382 C 
ATOM     23  O   LIG d   1      -9.474  94.054 119.335  0.00  0.00    -0.241 OA
ATOM     24  O   LIG d   1      -9.444  94.200 121.490  0.00  0.00    -0.241 OA
ENDBRANCH   3  22
TORSDOF 7
ENDMDL
MODEL 3
REMARK VINA RESULT:      -4.4     12.752     15.590
REMARK  7 active torsions:
REMARK  status: ('A' for Active; 'I' for Inactive)
REMARK    1  A    between atoms: C_2  and  C_3 
REMARK    2  A    between atoms: C_3  and  O_6 
REMARK    3  A    between atoms: C_3  and  C_4 
REMARK    4  A    between atoms: C_7  and  O_6 
REMARK    5  A    between atoms: C_9  and  C_10 
REMARK    6  A    between atoms: N_15  and  C_14 
REMARK    7  A    between atoms: N_20  and  C_19 
REMARK       I    between atoms: C_22  and  N_20 
ROOT
ATOM      1  C   LIG d   1     -14.129  64.844 121.411  0.00  0.00     0.161 C 
ATOM      2  C   LIG d   1     -13.068  64.806 122.331  0.00  0.00     0.016 C 
ATOM      3  C   LIG d   1     -11.960  63.937 122.206  0.00  0.00     0.038 C 
ATOM      4  C   LIG d   1     -11.763  63.147 121.063  0.00  0.00     0.028 C 
ATOM      5  C   LIG d   1     -13.059  62.781 120.349  0.00  0.00    -0.047 C 
ATOM      6  C   LIG d   1     -13.876  64.070 120.101  0.00  0.00     0.091 C 
ENDROOT
BRANCH   1   7
ATOM      7  O   LIG d   1     -14.478  66.213 121.125  0.00  0.00    -0.368 OA
BRANCH   7   8
ATOM      8  C   LIG d   1     -13.717  66.859 120.075  0.00  0.00     0.119 C 
BRANCH   8   9
ATOM      9  C   LIG d   1     -12.990  68.063 120.703  0.00  0.00     0.028 C 
ATOM     10  C   LIG d   1     -13.657  68.537 122.005  0.00  0.00     0.006 C 
ENDBRANCH   8   9
BRANCH   8  11
ATOM     11  C   LIG d   1     -14.638  67.454 119.005  0.00  0.00     0.028 C 
ATOM     12  C   LIG d   1     -16.123  67.386 119.392  0.00  0.00     0.006 C 
ENDBRANCH   8  11
ENDBRANCH   7   8
ENDBRANCH   1   7
BRANCH   6  13
ATOM     13  N   LIG d   1     -15.198  63.792 119.481  0.00  0.00    -0.311 N 
ATOM     14  C   LIG d   1     -15.426  63.876 118.171  0.00  0.00     0.210 C 
ATOM     15  C   LIG d   1     -16.864  63.568 117.744  0.00  0.00     0.109 C 
ATOM     16  O   LIG d   1     -14.565  64.145 117.319  0.00  0.00    -0.276 OA
ATOM     17  H   LIG d   1     -15.946  63.536 120.096  0.00  0.00     0.149 HD
ENDBRANCH   6  13
BRANCH   5  18
ATOM     18  N   LIG d   1     -12.698  62.077 119.104  0.00  0.00     0.381 N 
ATOM     19  H   LIG d   1     -13.524  61.878 118.575  0.00  0.00    -0.090 HD
ATOM     20  H   LIG d   1     -12.257  61.206 119.339  0.00  0.00    -0.090 HD
ATOM     21  H   LIG d   1     -12.076  62.637 118.563  0.00  0.00    -0.090 HD
ENDBRANCH   5  18
BRANCH   3  22
ATOM     22  C   LIG d   1     -11.055  63.822 123.250  0.00  0.00     0.382 C 
ATOM     23  O   LIG d   1     -10.090  63.026 123.158  0.00  0.00    -0.241 OA
ATOM     24  O   LIG d   1     -11.217  64.471 124.301  0.00  0.00    -0.241 OA
ENDBRANCH   3  22
TORSDOF 7
ENDMDL
MODEL 4
REMARK VINA RESULT:      -4.2     22.669     25.455
REMARK  7 active torsions:
REMARK  status: ('A' for Active; 'I' for Inactive)
REMARK    1  A    between atoms: C_2  and  C_3 
REMARK    2  A    between atoms: C_3  and  O_6 
REMARK    3  A    between atoms: C_3  and  C_4 
REMARK    4  A    between atoms: C_7  and  O_6 
REMARK    5  A    between atoms: C_9  and  C_10 
REMARK    6  A    between atoms: N_15  and  C_14 
REMARK    7  A    between atoms: N_20  and  C_19 
REMARK       I    between atoms: C_22  and  N_20 
ROOT
ATOM      1  C   LIG d   1     -17.460  76.125 122.375  0.00  0.00     0.161 C 
ATOM      2  C   LIG d   1     -17.532  74.809 121.890  0.00  0.00     0.016 C 
ATOM      3  C   LIG d   1     -17.909  74.487 120.566  0.00  0.00     0.038 C 
ATOM      4  C   LIG d   1     -18.096  75.475 119.587  0.00  0.00     0.028 C 
ATOM      5  C   LIG d   1     -18.526  76.821 120.159  0.00  0.00    -0.047 C 
ATOM      6  C   LIG d   1     -17.552  77.220 121.291  0.00  0.00     0.091 C 
ENDROOT
BRANCH   1   7
ATOM      7  O   LIG d   1     -16.261  76.293 123.156  0.00  0.00    -0.368 OA
BRANCH   7   8
ATOM      8  C   LIG d   1     -15.088  75.587 122.684  0.00  0.00     0.119 C 
BRANCH   8   9
ATOM      9  C   LIG d   1     -14.407  74.948 123.909  0.00  0.00     0.028 C 
ATOM     10  C   LIG d   1     -13.944  73.507 123.639  0.00  0.00     0.006 C 
ENDBRANCH   8   9
BRANCH   8  11
ATOM     11  C   LIG d   1     -14.052  76.553 122.102  0.00  0.00     0.028 C 
ATOM     12  C   LIG d   1     -14.155  77.966 122.697  0.00  0.00     0.006 C 
ENDBRANCH   8  11
ENDBRANCH   7   8
ENDBRANCH   1   7
BRANCH   6  13
ATOM     13  N   LIG d   1     -17.950  78.485 121.962  0.00  0.00    -0.311 N 
ATOM     14  C   LIG d   1     -17.517  79.685 121.580  0.00  0.00     0.210 C 
ATOM     15  C   LIG d   1     -18.034  80.857 122.420  0.00  0.00     0.109 C 
ATOM     16  O   LIG d   1     -16.780  79.893 120.605  0.00  0.00    -0.276 OA
ATOM     17  H   LIG d   1     -18.571  78.411 122.744  0.00  0.00     0.149 HD
ENDBRANCH   6  13
BRANCH   5  18
ATOM     18  N   LIG d   1     -18.550  77.791 119.048  0.00  0.00     0.381 N 
ATOM     19  H   LIG d   1     -17.617  77.968 118.733  0.00  0.00    -0.090 HD
ATOM     20  H   LIG d   1     -18.940  78.655 119.379  0.00  0.00    -0.090 HD
ATOM     21  H   LIG d   1     -19.099  77.435 118.297  0.00  0.00    -0.090 HD
ENDBRANCH   5  18
BRANCH   3  22
ATOM     22  C   LIG d   1     -18.143  73.165 120.220  0.00  0.00     0.382 C 
ATOM     23  O   LIG d   1     -17.915  72.773 119.050  0.00  0.00    -0.241 OA
ATOM     24  O   LIG d   1     -18.621  72.369 121.051  0.00  0.00    -0.241 OA
ENDBRANCH   3  22
TORSDOF 7
ENDMDL
MODEL 5
REMARK VINA RESULT:      -4.2      2.494      4.705
REMARK  7 active torsions:
REMARK  status: ('A' for Active; 'I' for Inactive)
REMARK    1  A    between atoms: C_2  and  C_3 
REMARK    2  A    between atoms: C_3  and  O_6 
REMARK    3  A    between atoms: C_3  and  C_4 
REMARK    4  A    between atoms: C_7  and  O_6 
REMARK    5  A    between atoms: C_9  and  C_10 
REMARK    6  A    between atoms: N_15  and  C_14 
REMARK    7  A    between atoms: N_20  and  C_19 
REMARK       I    between atoms: C_22  and  N_20 
ROOT
ATOM      1  C   LIG d   1       0.655  58.199 117.630  0.00  0.00     0.161 C 
ATOM      2  C   LIG d   1      -0.262  57.143 117.499  0.00  0.00     0.016 C 
ATOM      3  C   LIG d   1      -0.090  55.882 118.113  0.00  0.00     0.038 C 
ATOM      4  C   LIG d   1       0.944  55.638 119.030  0.00  0.00     0.028 C 
ATOM      5  C   LIG d   1       2.174  56.510 118.801  0.00  0.00    -0.047 C 
ATOM      6  C   LIG d   1       1.732  57.989 118.715  0.00  0.00     0.091 C 
ENDROOT
BRANCH   1   7
ATOM      7  O   LIG d   1      -0.051  59.435 117.857  0.00  0.00    -0.368 OA
BRANCH   7   8
ATOM      8  C   LIG d   1      -1.078  59.403 118.878  0.00  0.00     0.119 C 
BRANCH   8   9
ATOM      9  C   LIG d   1      -2.275  60.221 118.356  0.00  0.00     0.028 C 
ATOM     10  C   LIG d   1      -3.252  59.369 117.528  0.00  0.00     0.006 C 
ENDBRANCH   8   9
BRANCH   8  11
ATOM     11  C   LIG d   1      -0.621  60.121 120.151  0.00  0.00     0.028 C 
ATOM     12  C   LIG d   1      -0.469  59.171 121.349  0.00  0.00     0.006 C 
ENDBRANCH   8  11
ENDBRANCH   7   8
ENDBRANCH   1   7
BRANCH   6  13
ATOM     13  N   LIG d   1       2.864  58.902 118.409  0.00  0.00    -0.311 N 
ATOM     14  C   LIG d   1       3.519  59.595 119.338  0.00  0.00     0.210 C 
ATOM     15  C   LIG d   1       4.640  60.493 118.805  0.00  0.00     0.109 C 
ATOM     16  O   LIG d   1       3.299  59.528 120.557  0.00  0.00    -0.276 OA
ATOM     17  H   LIG d   1       3.129  58.992 117.447  0.00  0.00     0.149 HD
ENDBRANCH   6  13
BRANCH   5  18
ATOM     18  N   LIG d   1       3.116  56.251 119.907  0.00  0.00     0.381 N 
ATOM     19  H   LIG d   1       3.593  57.096 120.150  0.00  0.00    -0.090 HD
ATOM     20  H   LIG d   1       3.799  55.580 119.602  0.00  0.00    -0.090 HD
ATOM     21  H   LIG d   1       2.624  55.899 120.698  0.00  0.00    -0.090 HD
ENDBRANCH   5  18
BRANCH   3  22
ATOM     22  C   LIG d   1      -0.936  54.834 117.781  0.00  0.00     0.382 C 
ATOM     23  O   LIG d   1      -0.458  53.711 117.489  0.00  0.00    -0.241 OA
ATOM     24  O   LIG d   1      -2.168  55.010 117.727  0.00  0.00    -0.241 OA
ENDBRANCH   3  22
TORSDOF 7
ENDMDL
MODEL 6
REMARK VINA RESULT:      -4.1     23.947     26.553
REMARK  7 active torsions:
REMARK  status: ('A' for Active; 'I' for Inactive)
REMARK    1  A    between atoms: C_2  and  C_3 
REMARK    2  A    between atoms: C_3  and  O_6 
REMARK    3  A    between atoms: C_3  and  C_4 
REMARK    4  A    between atoms: C_7  and  O_6 
REMARK    5  A    between atoms: C_9  and  C_10 
REMARK    6  A    between atoms: N_15  and  C_14 
REMARK    7  A    between atoms: N_20  and  C_19 
REMARK       I    between atoms: C_22  and  N_20 
ROOT
ATOM      1  C   LIG d   1     -18.515  76.714 119.663  0.00  0.00     0.161 C 
ATOM      2  C   LIG d   1     -19.214  77.923 119.820  0.00  0.00     0.016 C 
ATOM      3  C   LIG d   1     -20.620  77.997 119.950  0.00  0.00     0.038 C 
ATOM      4  C   LIG d   1     -21.414  76.849 120.085  0.00  0.00     0.028 C 
ATOM      5  C   LIG d   1     -20.809  75.613 119.428  0.00  0.00    -0.047 C 
ATOM      6  C   LIG d   1     -19.354  75.444 119.920  0.00  0.00     0.091 C 
ENDROOT
BRANCH   1   7
ATOM      7  O   LIG d   1     -17.342  76.717 120.500  0.00  0.00    -0.368 OA
BRANCH   7   8
ATOM      8  C   LIG d   1     -17.506  77.274 121.827  0.00  0.00     0.119 C 
BRANCH   8   9
ATOM      9  C   LIG d   1     -16.258  78.127 122.128  0.00  0.00     0.028 C 
ATOM     10  C   LIG d   1     -16.449  79.604 121.741  0.00  0.00     0.006 C 
ENDBRANCH   8   9
BRANCH   8  11
ATOM     11  C   LIG d   1     -17.514  76.177 122.895  0.00  0.00     0.028 C 
ATOM     12  C   LIG d   1     -16.668  74.956 122.502  0.00  0.00     0.006 C 
ENDBRANCH   8  11
ENDBRANCH   7   8
ENDBRANCH   1   7
BRANCH   6  13
ATOM     13  N   LIG d   1     -18.661  74.307 119.261  0.00  0.00    -0.311 N 
ATOM     14  C   LIG d   1     -18.576  73.090 119.797  0.00  0.00     0.210 C 
ATOM     15  C   LIG d   1     -17.800  72.068 118.960  0.00  0.00     0.109 C 
ATOM     16  O   LIG d   1     -19.097  72.752 120.870  0.00  0.00    -0.276 OA
ATOM     17  H   LIG d   1     -18.237  74.484 118.372  0.00  0.00     0.149 HD
ENDBRANCH   6  13
BRANCH   5  18
ATOM     18  N   LIG d   1     -21.671  74.464 119.763  0.00  0.00     0.381 N 
ATOM     19  H   LIG d   1     -21.316  73.636 119.326  0.00  0.00    -0.090 HD
ATOM     20  H   LIG d   1     -22.595  74.636 119.409  0.00  0.00    -0.090 HD
ATOM     21  H   LIG d   1     -21.703  74.338 120.751  0.00  0.00    -0.090 HD
ENDBRANCH   5  18
BRANCH   3  22
ATOM     22  C   LIG d   1     -21.249  79.232 119.906  0.00  0.00     0.382 C 
ATOM     23  O   LIG d   1     -22.430  79.349 120.314  0.00  0.00    -0.241 OA
ATOM     24  O   LIG d   1     -20.667  80.221 119.422  0.00  0.00    -0.241 OA
ENDBRANCH   3  22
TORSDOF 7
ENDMDL
MODEL 7
REMARK VINA RESULT:      -3.8     34.510     36.932
REMARK  7 active torsions:
REMARK  status: ('A' for Active; 'I' for Inactive)
REMARK    1  A    between atoms: C_2  and  C_3 
REMARK    2  A    between atoms: C_3  and  O_6 
REMARK    3  A    between atoms: C_3  and  C_4 
REMARK    4  A    between atoms: C_7  and  O_6 
REMARK    5  A    between atoms: C_9  and  C_10 
REMARK    6  A    between atoms: N_15  and  C_14 
REMARK    7  A    between atoms: N_20  and  C_19 
REMARK       I    between atoms: C_22  and  N_20 
ROOT
ATOM      1  C   LIG d   1     -18.278  89.347 123.318  0.00  0.00     0.161 C 
ATOM      2  C   LIG d   1     -16.964  89.589 123.752  0.00  0.00     0.016 C 
ATOM      3  C   LIG d   1     -15.827  88.986 123.167  0.00  0.00     0.038 C 
ATOM      4  C   LIG d   1     -15.917  88.210 122.002  0.00  0.00     0.028 C 
ATOM      5  C   LIG d   1     -17.271  87.531 121.829  0.00  0.00    -0.047 C 
ATOM      6  C   LIG d   1     -18.387  88.590 121.978  0.00  0.00     0.091 C 
ENDROOT
BRANCH   1   7
ATOM      7  O   LIG d   1     -19.008  90.588 123.254  0.00  0.00    -0.368 OA
BRANCH   7   8
ATOM      8  C   LIG d   1     -18.725  91.435 122.114  0.00  0.00     0.119 C 
BRANCH   8   9
ATOM      9  C   LIG d   1     -18.228  92.790 122.656  0.00  0.00     0.028 C 
ATOM     10  C   LIG d   1     -17.864  93.774 121.531  0.00  0.00     0.006 C 
ENDBRANCH   8   9
BRANCH   8  11
ATOM     11  C   LIG d   1     -20.000  91.756 121.328  0.00  0.00     0.028 C 
ATOM     12  C   LIG d   1     -21.278  91.325 122.064  0.00  0.00     0.006 C 
ENDBRANCH   8  11
ENDBRANCH   7   8
ENDBRANCH   1   7
BRANCH   6  13
ATOM     13  N   LIG d   1     -19.747  87.995 121.906  0.00  0.00    -0.311 N 
ATOM     14  C   LIG d   1     -20.444  87.893 120.776  0.00  0.00     0.210 C 
ATOM     15  C   LIG d   1     -21.833  87.266 120.927  0.00  0.00     0.109 C 
ATOM     16  O   LIG d   1     -20.031  88.233 119.657  0.00  0.00    -0.276 OA
ATOM     17  H   LIG d   1     -20.146  87.665 122.763  0.00  0.00     0.149 HD
ENDBRANCH   6  13
BRANCH   5  18
ATOM     18  N   LIG d   1     -17.273  86.870 120.510  0.00  0.00     0.381 N 
ATOM     19  H   LIG d   1     -18.085  87.145 119.995  0.00  0.00    -0.090 HD
ATOM     20  H   LIG d   1     -17.308  85.875 120.645  0.00  0.00    -0.090 HD
ATOM     21  H   LIG d   1     -16.451  87.115 120.004  0.00  0.00    -0.090 HD
ENDBRANCH   5  18
BRANCH   3  22
ATOM     22  C   LIG d   1     -14.587  89.124 123.773  0.00  0.00     0.382 C 
ATOM     23  O   LIG d   1     -13.600  88.489 123.331  0.00  0.00    -0.241 OA
ATOM     24  O   LIG d   1     -14.454  89.841 124.782  0.00  0.00    -0.241 OA
ENDBRANCH   3  22
TORSDOF 7
ENDMDL
MODEL 8
REMARK VINA RESULT:      -3.8     35.147     37.329
REMARK  7 active torsions:
REMARK  status: ('A' for Active; 'I' for Inactive)
REMARK    1  A    between atoms: C_2  and  C_3 
REMARK    2  A    between atoms: C_3  and  O_6 
REMARK    3  A    between atoms: C_3  and  C_4 
REMARK    4  A    between atoms: C_7  and  O_6 
REMARK    5  A    between atoms: C_9  and  C_10 
REMARK    6  A    between atoms: N_15  and  C_14 
REMARK    7  A    between atoms: N_20  and  C_19 
REMARK       I    between atoms: C_22  and  N_20 
ROOT
ATOM      1  C   LIG d   1      -4.756  94.304 119.895  0.00  0.00     0.161 C 
ATOM      2  C   LIG d   1      -5.577  93.495 119.093  0.00  0.00     0.016 C 
ATOM      3  C   LIG d   1      -5.149  92.274 118.524  0.00  0.00     0.038 C 
ATOM      4  C   LIG d   1      -3.909  91.701 118.844  0.00  0.00     0.028 C 
ATOM      5  C   LIG d   1      -2.854  92.726 119.245  0.00  0.00    -0.047 C 
ATOM      6  C   LIG d   1      -3.437  93.641 120.346  0.00  0.00     0.091 C 
ENDROOT
BRANCH   1   7
ATOM      7  O   LIG d   1      -5.497  94.773 121.039  0.00  0.00    -0.368 OA
BRANCH   7   8
ATOM      8  C   LIG d   1      -5.590  96.210 121.193  0.00  0.00     0.119 C 
BRANCH   8   9
ATOM      9  C   LIG d   1      -7.054  96.546 121.535  0.00  0.00     0.028 C 
ATOM     10  C   LIG d   1      -7.970  96.500 120.300  0.00  0.00     0.006 C 
ENDBRANCH   8   9
BRANCH   8  11
ATOM     11  C   LIG d   1      -5.306  96.932 119.872  0.00  0.00     0.028 C 
ATOM     12  C   LIG d   1      -4.017  97.768 119.915  0.00  0.00     0.006 C 
ENDBRANCH   8  11
ENDBRANCH   7   8
ENDBRANCH   1   7
BRANCH   6  13
ATOM     13  N   LIG d   1      -2.499  94.726 120.737  0.00  0.00    -0.311 N 
ATOM     14  C   LIG d   1      -2.098  94.932 121.990  0.00  0.00     0.210 C 
ATOM     15  C   LIG d   1      -1.145  96.117 122.177  0.00  0.00     0.109 C 
ATOM     16  O   LIG d   1      -2.416  94.227 122.959  0.00  0.00    -0.276 OA
ATOM     17  H   LIG d   1      -2.167  95.326 120.008  0.00  0.00     0.149 HD
ENDBRANCH   6  13
BRANCH   5  18
ATOM     18  N   LIG d   1      -1.657  91.984 119.684  0.00  0.00     0.381 N 
ATOM     19  H   LIG d   1      -1.719  91.790 120.664  0.00  0.00    -0.090 HD
ATOM     20  H   LIG d   1      -0.845  92.555 119.527  0.00  0.00    -0.090 HD
ATOM     21  H   LIG d   1      -1.577  91.132 119.174  0.00  0.00    -0.090 HD
ENDBRANCH   5  18
BRANCH   3  22
ATOM     22  C   LIG d   1      -5.950  91.632 117.591  0.00  0.00     0.382 C 
ATOM     23  O   LIG d   1      -7.005  92.179 117.189  0.00  0.00    -0.241 OA
ATOM     24  O   LIG d   1      -5.655  90.494 117.181  0.00  0.00    -0.241 OA
ENDBRANCH   3  22
TORSDOF 7
ENDMDL
MODEL 9
REMARK VINA RESULT:      -3.7     23.285     26.106
REMARK  7 active torsions:
REMARK  status: ('A' for Active; 'I' for Inactive)
REMARK    1  A    between atoms: C_2  and  C_3 
REMARK    2  A    between atoms: C_3  and  O_6 
REMARK    3  A    between atoms: C_3  and  C_4 
REMARK    4  A    between atoms: C_7  and  O_6 
REMARK    5  A    between atoms: C_9  and  C_10 
REMARK    6  A    between atoms: N_15  and  C_14 
REMARK    7  A    between atoms: N_20  and  C_19 
REMARK       I    between atoms: C_22  and  N_20 
ROOT
ATOM      1  C   LIG d   1     -17.777  75.913 119.705  0.00  0.00     0.161 C 
ATOM      2  C   LIG d   1     -18.182  74.629 119.303  0.00  0.00     0.016 C 
ATOM      3  C   LIG d   1     -18.195  73.510 120.168  0.00  0.00     0.038 C 
ATOM      4  C   LIG d   1     -17.946  73.633 121.543  0.00  0.00     0.028 C 
ATOM      5  C   LIG d   1     -17.044  74.812 121.892  0.00  0.00    -0.047 C 
ATOM      6  C   LIG d   1     -17.608  76.090 121.229  0.00  0.00     0.091 C 
ENDROOT
BRANCH   1   7
ATOM      7  O   LIG d   1     -18.691  76.899 119.184  0.00  0.00    -0.368 OA
BRANCH   7   8
ATOM      8  C   LIG d   1     -19.762  77.306 120.071  0.00  0.00     0.119 C 
BRANCH   8   9
ATOM      9  C   LIG d   1     -21.032  76.548 119.641  0.00  0.00     0.028 C 
ATOM     10  C   LIG d   1     -21.527  75.572 120.722  0.00  0.00     0.006 C 
ENDBRANCH   8   9
BRANCH   8  11
ATOM     11  C   LIG d   1     -20.096  78.790 119.894  0.00  0.00     0.028 C 
ATOM     12  C   LIG d   1     -20.205  79.540 121.232  0.00  0.00     0.006 C 
ENDBRANCH   8  11
ENDBRANCH   7   8
ENDBRANCH   1   7
BRANCH   6  13
ATOM     13  N   LIG d   1     -16.739  77.275 121.450  0.00  0.00    -0.311 N 
ATOM     14  C   LIG d   1     -16.919  78.139 122.447  0.00  0.00     0.210 C 
ATOM     15  C   LIG d   1     -15.922  79.302 122.482  0.00  0.00     0.109 C 
ATOM     16  O   LIG d   1     -17.789  78.037 123.325  0.00  0.00    -0.276 OA
ATOM     17  H   LIG d   1     -15.989  77.417 120.803  0.00  0.00     0.149 HD
ENDBRANCH   6  13
BRANCH   5  18
ATOM     18  N   LIG d   1     -16.980  74.905 123.363  0.00  0.00     0.381 N 
ATOM     19  H   LIG d   1     -17.872  74.676 123.756  0.00  0.00    -0.090 HD
ATOM     20  H   LIG d   1     -16.756  75.850 123.620  0.00  0.00    -0.090 HD
ATOM     21  H   LIG d   1     -16.285  74.283 123.713  0.00  0.00    -0.090 HD
ENDBRANCH   5  18
BRANCH   3  22
ATOM     22  C   LIG d   1     -18.422  72.244 119.650  0.00  0.00     0.382 C 
ATOM     23  O   LIG d   1     -19.470  71.623 119.949  0.00  0.00    -0.241 OA
ATOM     24  O   LIG d   1     -17.570  71.697 118.924  0.00  0.00    -0.241 OA
ENDBRANCH   3  22
TORSDOF 7
ENDMDL
