MODEL 1
REMARK VINA RESULT:      -4.6      0.000      0.000
REMARK  7 active torsions:
REMARK  status: ('A' for Active; 'I' for Inactive)
REMARK    1  A    between atoms: C_2  and  C_3 
REMARK    2  A    between atoms: C_3  and  O_6 
REMARK    3  A    between atoms: C_3  and  C_4 
REMARK    4  A    between atoms: C_7  and  O_6 
REMARK    5  A    between atoms: C_9  and  C_10 
REMARK    6  A    between atoms: N_15  and  C_14 
REMARK    7  A    between atoms: N_20  and  C_19 
REMARK       I    between atoms: C_22  and  N_20 
ROOT
ATOM      1  C   LIG d   1     -12.809  64.474 122.167  0.00  0.00     0.161 C 
ATOM      2  C   LIG d   1     -11.552  64.327 122.777  0.00  0.00     0.016 C 
ATOM      3  C   LIG d   1     -10.609  63.348 122.390  0.00  0.00     0.038 C 
ATOM      4  C   LIG d   1     -10.800  62.541 121.258  0.00  0.00     0.028 C 
ATOM      5  C   LIG d   1     -12.268  62.310 120.920  0.00  0.00    -0.047 C 
ATOM      6  C   LIG d   1     -12.990  63.676 120.859  0.00  0.00     0.091 C 
ENDROOT
BRANCH   1   7
ATOM      7  O   LIG d   1     -13.084  65.871 121.944  0.00  0.00    -0.368 OA
BRANCH   7   8
ATOM      8  C   LIG d   1     -12.558  66.436 120.718  0.00  0.00     0.119 C 
BRANCH   8   9
ATOM      9  C   LIG d   1     -11.621  67.595 121.107  0.00  0.00     0.028 C 
ATOM     10  C   LIG d   1     -12.164  68.417 122.289  0.00  0.00     0.006 C 
ENDBRANCH   8   9
BRANCH   8  11
ATOM     11  C   LIG d   1     -13.668  67.076 119.878  0.00  0.00     0.028 C 
ATOM     12  C   LIG d   1     -13.406  66.974 118.367  0.00  0.00     0.006 C 
ENDBRANCH   8  11
ENDBRANCH   7   8
ENDBRANCH   1   7
BRANCH   6  13
ATOM     13  N   LIG d   1     -14.449  63.535 120.616  0.00  0.00    -0.311 N 
ATOM     14  C   LIG d   1     -14.995  63.546 119.400  0.00  0.00     0.210 C 
ATOM     15  C   LIG d   1     -16.520  63.407 119.375  0.00  0.00     0.109 C 
ATOM     16  O   LIG d   1     -14.357  63.625 118.340  0.00  0.00    -0.276 OA
ATOM     17  H   LIG d   1     -15.038  63.435 121.419  0.00  0.00     0.149 HD
ENDBRANCH   6  13
BRANCH   5  18
ATOM     18  N   LIG d   1     -12.321  61.571 119.644  0.00  0.00     0.381 N 
ATOM     19  H   LIG d   1     -13.177  61.776 119.169  0.00  0.00    -0.090 HD
ATOM     20  H   LIG d   1     -12.297  60.585 119.838  0.00  0.00    -0.090 HD
ATOM     21  H   LIG d   1     -11.546  61.823 119.072  0.00  0.00    -0.090 HD
ENDBRANCH   5  18
BRANCH   3  22
ATOM     22  C   LIG d   1      -9.476  63.141 123.162  0.00  0.00     0.382 C 
ATOM     23  O   LIG d   1      -8.646  62.259 122.835  0.00  0.00    -0.241 OA
ATOM     24  O   LIG d   1      -9.296  63.795 124.207  0.00  0.00    -0.241 OA
ENDBRANCH   3  22
TORSDOF 7
ENDMDL
MODEL 2
REMARK VINA RESULT:      -4.3     15.126     18.155
REMARK  7 active torsions:
REMARK  status: ('A' for Active; 'I' for Inactive)
REMARK    1  A    between atoms: C_2  and  C_3 
REMARK    2  A    between atoms: C_3  and  O_6 
REMARK    3  A    between atoms: C_3  and  C_4 
REMARK    4  A    between atoms: C_7  and  O_6 
REMARK    5  A    between atoms: C_9  and  C_10 
REMARK    6  A    between atoms: N_15  and  C_14 
REMARK    7  A    between atoms: N_20  and  C_19 
REMARK       I    between atoms: C_22  and  N_20 
ROOT
ATOM      1  C   LIG d   1      -8.884  81.530 120.143  0.00  0.00     0.161 C 
ATOM      2  C   LIG d   1      -9.253  80.227 119.768  0.00  0.00     0.016 C 
ATOM      3  C   LIG d   1     -10.332  79.525 120.352  0.00  0.00     0.038 C 
ATOM      4  C   LIG d   1     -11.216  80.140 121.251  0.00  0.00     0.028 C 
ATOM      5  C   LIG d   1     -10.584  81.286 122.034  0.00  0.00    -0.047 C 
ATOM      6  C   LIG d   1      -9.905  82.257 121.042  0.00  0.00     0.091 C 
ENDROOT
BRANCH   1   7
ATOM      7  O   LIG d   1      -8.603  82.315 118.967  0.00  0.00    -0.368 OA
BRANCH   7   8
ATOM      8  C   LIG d   1      -7.205  82.595 118.707  0.00  0.00     0.119 C 
BRANCH   8   9
ATOM      9  C   LIG d   1      -6.725  81.598 117.634  0.00  0.00     0.028 C 
ATOM     10  C   LIG d   1      -5.738  80.562 118.196  0.00  0.00     0.006 C 
ENDBRANCH   8   9
BRANCH   8  11
ATOM     11  C   LIG d   1      -6.341  82.312 119.939  0.00  0.00     0.028 C 
ATOM     12  C   LIG d   1      -5.724  83.585 120.540  0.00  0.00     0.006 C 
ENDBRANCH   8  11
ENDBRANCH   7   8
ENDBRANCH   1   7
BRANCH   6  13
ATOM     13  N   LIG d   1      -9.190  83.363 121.731  0.00  0.00    -0.311 N 
ATOM     14  C   LIG d   1      -9.606  84.628 121.714  0.00  0.00     0.210 C 
ATOM     15  C   LIG d   1      -8.710  85.613 122.472  0.00  0.00     0.109 C 
ATOM     16  O   LIG d   1     -10.649  85.022 121.171  0.00  0.00    -0.276 OA
ATOM     17  H   LIG d   1      -8.350  83.126 122.223  0.00  0.00     0.149 HD
ENDBRANCH   6  13
BRANCH   5  18
ATOM     18  N   LIG d   1     -11.651  81.924 122.829  0.00  0.00     0.381 N 
ATOM     19  H   LIG d   1     -11.253  82.377 123.627  0.00  0.00    -0.090 HD
ATOM     20  H   LIG d   1     -12.284  81.214 123.153  0.00  0.00    -0.090 HD
ATOM     21  H   LIG d   1     -12.141  82.587 122.271  0.00  0.00    -0.090 HD
ENDBRANCH   5  18
BRANCH   3  22
ATOM     22  C   LIG d   1     -10.512  78.180 120.068  0.00  0.00     0.382 C 
ATOM     23  O   LIG d   1     -10.976  77.831 118.956  0.00  0.00    -0.241 OA
ATOM     24  O   LIG d   1     -10.257  77.313 120.926  0.00  0.00    -0.241 OA
ENDBRANCH   3  22
TORSDOF 7
ENDMDL
MODEL 3
REMARK VINA RESULT:      -4.3      1.401      2.278
REMARK  7 active torsions:
REMARK  status: ('A' for Active; 'I' for Inactive)
REMARK    1  A    between atoms: C_2  and  C_3 
REMARK    2  A    between atoms: C_3  and  O_6 
REMARK    3  A    between atoms: C_3  and  C_4 
REMARK    4  A    between atoms: C_7  and  O_6 
REMARK    5  A    between atoms: C_9  and  C_10 
REMARK    6  A    between atoms: N_15  and  C_14 
REMARK    7  A    between atoms: N_20  and  C_19 
REMARK       I    between atoms: C_22  and  N_20 
ROOT
ATOM      1  C   LIG d   1     -12.019  64.574 122.092  0.00  0.00     0.161 C 
ATOM      2  C   LIG d   1     -10.792  64.016 122.486  0.00  0.00     0.016 C 
ATOM      3  C   LIG d   1     -10.255  62.837 121.920  0.00  0.00     0.038 C 
ATOM      4  C   LIG d   1     -10.842  62.216 120.807  0.00  0.00     0.028 C 
ATOM      5  C   LIG d   1     -12.344  62.455 120.702  0.00  0.00    -0.047 C 
ATOM      6  C   LIG d   1     -12.619  63.972 120.804  0.00  0.00     0.091 C 
ENDROOT
BRANCH   1   7
ATOM      7  O   LIG d   1     -11.887  66.004 121.962  0.00  0.00    -0.368 OA
BRANCH   7   8
ATOM      8  C   LIG d   1     -12.229  66.784 123.134  0.00  0.00     0.119 C 
BRANCH   8   9
ATOM      9  C   LIG d   1     -13.766  66.881 123.193  0.00  0.00     0.028 C 
ATOM     10  C   LIG d   1     -14.348  67.699 122.028  0.00  0.00     0.006 C 
ENDBRANCH   8   9
BRANCH   8  11
ATOM     11  C   LIG d   1     -11.737  68.228 123.005  0.00  0.00     0.028 C 
ATOM     12  C   LIG d   1     -11.273  68.822 124.345  0.00  0.00     0.006 C 
ENDBRANCH   8  11
ENDBRANCH   7   8
ENDBRANCH   1   7
BRANCH   6  13
ATOM     13  N   LIG d   1     -14.072  64.287 120.794  0.00  0.00    -0.311 N 
ATOM     14  C   LIG d   1     -14.741  64.626 119.694  0.00  0.00     0.210 C 
ATOM     15  C   LIG d   1     -16.227  64.930 119.909  0.00  0.00     0.109 C 
ATOM     16  O   LIG d   1     -14.253  64.673 118.555  0.00  0.00    -0.276 OA
ATOM     17  H   LIG d   1     -14.554  64.243 121.671  0.00  0.00     0.149 HD
ENDBRANCH   6  13
BRANCH   5  18
ATOM     18  N   LIG d   1     -12.801  61.868 119.428  0.00  0.00     0.381 N 
ATOM     19  H   LIG d   1     -12.746  60.871 119.475  0.00  0.00    -0.090 HD
ATOM     20  H   LIG d   1     -12.195  62.183 118.690  0.00  0.00    -0.090 HD
ATOM     21  H   LIG d   1     -13.738  62.148 119.240  0.00  0.00    -0.090 HD
ENDBRANCH   5  18
BRANCH   3  22
ATOM     22  C   LIG d   1      -9.140  62.245 122.493  0.00  0.00     0.382 C 
ATOM     23  O   LIG d   1      -8.629  62.740 123.527  0.00  0.00    -0.241 OA
ATOM     24  O   LIG d   1      -8.611  61.249 121.964  0.00  0.00    -0.241 OA
ENDBRANCH   3  22
TORSDOF 7
ENDMDL
MODEL 4
REMARK VINA RESULT:      -4.2     16.001     18.812
REMARK  7 active torsions:
REMARK  status: ('A' for Active; 'I' for Inactive)
REMARK    1  A    between atoms: C_2  and  C_3 
REMARK    2  A    between atoms: C_3  and  O_6 
REMARK    3  A    between atoms: C_3  and  C_4 
REMARK    4  A    between atoms: C_7  and  O_6 
REMARK    5  A    between atoms: C_9  and  C_10 
REMARK    6  A    between atoms: N_15  and  C_14 
REMARK    7  A    between atoms: N_20  and  C_19 
REMARK       I    between atoms: C_22  and  N_20 
ROOT
ATOM      1  C   LIG d   1      -7.358  82.165 119.639  0.00  0.00     0.161 C 
ATOM      2  C   LIG d   1      -7.127  80.820 119.307  0.00  0.00     0.016 C 
ATOM      3  C   LIG d   1      -8.018  80.047 118.528  0.00  0.00     0.038 C 
ATOM      4  C   LIG d   1      -9.135  80.614 117.897  0.00  0.00     0.028 C 
ATOM      5  C   LIG d   1      -9.677  81.844 118.617  0.00  0.00    -0.047 C 
ATOM      6  C   LIG d   1      -8.515  82.832 118.867  0.00  0.00     0.091 C 
ENDROOT
BRANCH   1   7
ATOM      7  O   LIG d   1      -6.143  82.924 119.475  0.00  0.00    -0.368 OA
BRANCH   7   8
ATOM      8  C   LIG d   1      -5.301  83.041 120.649  0.00  0.00     0.119 C 
BRANCH   8   9
ATOM      9  C   LIG d   1      -5.432  84.485 121.171  0.00  0.00     0.028 C 
ATOM     10  C   LIG d   1      -6.329  84.580 122.416  0.00  0.00     0.006 C 
ENDBRANCH   8   9
BRANCH   8  11
ATOM     11  C   LIG d   1      -3.822  82.871 120.292  0.00  0.00     0.028 C 
ATOM     12  C   LIG d   1      -3.481  81.446 119.827  0.00  0.00     0.006 C 
ENDBRANCH   8  11
ENDBRANCH   7   8
ENDBRANCH   1   7
BRANCH   6  13
ATOM     13  N   LIG d   1      -8.943  84.026 119.642  0.00  0.00    -0.311 N 
ATOM     14  C   LIG d   1      -9.541  83.953 120.831  0.00  0.00     0.210 C 
ATOM     15  C   LIG d   1      -9.917  85.303 121.449  0.00  0.00     0.109 C 
ATOM     16  O   LIG d   1      -9.766  82.900 121.446  0.00  0.00    -0.276 OA
ATOM     17  H   LIG d   1      -8.771  84.923 119.231  0.00  0.00     0.149 HD
ENDBRANCH   6  13
BRANCH   5  18
ATOM     18  N   LIG d   1     -10.750  82.414 117.780  0.00  0.00     0.381 N 
ATOM     19  H   LIG d   1     -11.419  81.704 117.557  0.00  0.00    -0.090 HD
ATOM     20  H   LIG d   1     -10.349  82.751 116.922  0.00  0.00    -0.090 HD
ATOM     21  H   LIG d   1     -11.198  83.162 118.262  0.00  0.00    -0.090 HD
ENDBRANCH   5  18
BRANCH   3  22
ATOM     22  C   LIG d   1      -7.817  78.680 118.406  0.00  0.00     0.382 C 
ATOM     23  O   LIG d   1      -6.678  78.194 118.609  0.00  0.00    -0.241 OA
ATOM     24  O   LIG d   1      -8.749  77.933 118.053  0.00  0.00    -0.241 OA
ENDBRANCH   3  22
TORSDOF 7
ENDMDL
MODEL 5
REMARK VINA RESULT:      -4.1     14.503     17.363
REMARK  7 active torsions:
REMARK  status: ('A' for Active; 'I' for Inactive)
REMARK    1  A    between atoms: C_2  and  C_3 
REMARK    2  A    between atoms: C_3  and  O_6 
REMARK    3  A    between atoms: C_3  and  C_4 
REMARK    4  A    between atoms: C_7  and  O_6 
REMARK    5  A    between atoms: C_9  and  C_10 
REMARK    6  A    between atoms: N_15  and  C_14 
REMARK    7  A    between atoms: N_20  and  C_19 
REMARK       I    between atoms: C_22  and  N_20 
ROOT
ATOM      1  C   LIG d   1      -9.644  81.187 118.900  0.00  0.00     0.161 C 
ATOM      2  C   LIG d   1      -9.432  82.479 119.411  0.00  0.00     0.016 C 
ATOM      3  C   LIG d   1      -9.586  82.810 120.776  0.00  0.00     0.038 C 
ATOM      4  C   LIG d   1      -9.818  81.832 121.755  0.00  0.00     0.028 C 
ATOM      5  C   LIG d   1     -10.537  80.598 121.220  0.00  0.00    -0.047 C 
ATOM      6  C   LIG d   1      -9.789  80.084 119.969  0.00  0.00     0.091 C 
ENDROOT
BRANCH   1   7
ATOM      7  O   LIG d   1      -8.593  80.850 117.972  0.00  0.00    -0.368 OA
BRANCH   7   8
ATOM      8  C   LIG d   1      -7.343  80.409 118.557  0.00  0.00     0.119 C 
BRANCH   8   9
ATOM      9  C   LIG d   1      -6.284  81.485 118.250  0.00  0.00     0.028 C 
ATOM     10  C   LIG d   1      -5.830  82.238 119.512  0.00  0.00     0.006 C 
ENDBRANCH   8   9
BRANCH   8  11
ATOM     11  C   LIG d   1      -6.832  79.133 117.882  0.00  0.00     0.028 C 
ATOM     12  C   LIG d   1      -5.393  79.270 117.361  0.00  0.00     0.006 C 
ENDBRANCH   8  11
ENDBRANCH   7   8
ENDBRANCH   1   7
BRANCH   6  13
ATOM     13  N   LIG d   1     -10.474  78.929 119.333  0.00  0.00    -0.311 N 
ATOM     14  C   LIG d   1     -10.013  77.680 119.392  0.00  0.00     0.210 C 
ATOM     15  C   LIG d   1     -10.862  76.643 118.652  0.00  0.00     0.109 C 
ATOM     16  O   LIG d   1      -8.999  77.329 120.014  0.00  0.00    -0.276 OA
ATOM     17  H   LIG d   1     -11.321  79.119 118.834  0.00  0.00     0.149 HD
ENDBRANCH   6  13
BRANCH   5  18
ATOM     18  N   LIG d   1     -10.591  79.606 122.310  0.00  0.00     0.381 N 
ATOM     19  H   LIG d   1     -10.998  78.756 121.975  0.00  0.00    -0.090 HD
ATOM     20  H   LIG d   1     -11.171  79.964 123.048  0.00  0.00    -0.090 HD
ATOM     21  H   LIG d   1      -9.673  79.429 122.656  0.00  0.00    -0.090 HD
ENDBRANCH   5  18
BRANCH   3  22
ATOM     22  C   LIG d   1      -9.548  84.139 121.169  0.00  0.00     0.382 C 
ATOM     23  O   LIG d   1      -8.460  84.661 121.512  0.00  0.00    -0.241 OA
ATOM     24  O   LIG d   1     -10.596  84.811 121.228  0.00  0.00    -0.241 OA
ENDBRANCH   3  22
TORSDOF 7
ENDMDL
MODEL 6
REMARK VINA RESULT:      -4.1     11.870     14.876
REMARK  7 active torsions:
REMARK  status: ('A' for Active; 'I' for Inactive)
REMARK    1  A    between atoms: C_2  and  C_3 
REMARK    2  A    between atoms: C_3  and  O_6 
REMARK    3  A    between atoms: C_3  and  C_4 
REMARK    4  A    between atoms: C_7  and  O_6 
REMARK    5  A    between atoms: C_9  and  C_10 
REMARK    6  A    between atoms: N_15  and  C_14 
REMARK    7  A    between atoms: N_20  and  C_19 
REMARK       I    between atoms: C_22  and  N_20 
ROOT
ATOM      1  C   LIG d   1     -17.347  77.198 121.629  0.00  0.00     0.161 C 
ATOM      2  C   LIG d   1     -18.014  76.144 120.983  0.00  0.00     0.016 C 
ATOM      3  C   LIG d   1     -19.111  76.335 120.111  0.00  0.00     0.038 C 
ATOM      4  C   LIG d   1     -19.521  77.614 119.705  0.00  0.00     0.028 C 
ATOM      5  C   LIG d   1     -19.201  78.704 120.722  0.00  0.00    -0.047 C 
ATOM      6  C   LIG d   1     -17.708  78.606 121.111  0.00  0.00     0.091 C 
ENDROOT
BRANCH   1   7
ATOM      7  O   LIG d   1     -15.922  76.990 121.559  0.00  0.00    -0.368 OA
BRANCH   7   8
ATOM      8  C   LIG d   1     -15.489  75.632 121.299  0.00  0.00     0.119 C 
BRANCH   8   9
ATOM      9  C   LIG d   1     -15.112  74.999 122.653  0.00  0.00     0.028 C 
ATOM     10  C   LIG d   1     -16.012  73.806 123.014  0.00  0.00     0.006 C 
ENDBRANCH   8   9
BRANCH   8  11
ATOM     11  C   LIG d   1     -14.203  75.607 120.468  0.00  0.00     0.028 C 
ATOM     12  C   LIG d   1     -13.091  74.767 121.115  0.00  0.00     0.006 C 
ENDBRANCH   8  11
ENDBRANCH   7   8
ENDBRANCH   1   7
BRANCH   6  13
ATOM     13  N   LIG d   1     -17.332  79.583 122.165  0.00  0.00    -0.311 N 
ATOM     14  C   LIG d   1     -16.871  80.805 121.902  0.00  0.00     0.210 C 
ATOM     15  C   LIG d   1     -16.524  81.645 123.135  0.00  0.00     0.109 C 
ATOM     16  O   LIG d   1     -16.748  81.284 120.765  0.00  0.00    -0.276 OA
ATOM     17  H   LIG d   1     -17.430  79.288 123.117  0.00  0.00     0.149 HD
ENDBRANCH   6  13
BRANCH   5  18
ATOM     18  N   LIG d   1     -19.556  80.000 120.113  0.00  0.00     0.381 N 
ATOM     19  H   LIG d   1     -20.456  79.935 119.680  0.00  0.00    -0.090 HD
ATOM     20  H   LIG d   1     -18.880  80.222 119.404  0.00  0.00    -0.090 HD
ATOM     21  H   LIG d   1     -19.566  80.713 120.809  0.00  0.00    -0.090 HD
ENDBRANCH   5  18
BRANCH   3  22
ATOM     22  C   LIG d   1     -19.835  75.239 119.668  0.00  0.00     0.382 C 
ATOM     23  O   LIG d   1     -19.269  74.128 119.529  0.00  0.00    -0.241 OA
ATOM     24  O   LIG d   1     -21.037  75.358 119.362  0.00  0.00    -0.241 OA
ENDBRANCH   3  22
TORSDOF 7
ENDMDL
MODEL 7
REMARK VINA RESULT:      -4.1     27.750     29.725
REMARK  7 active torsions:
REMARK  status: ('A' for Active; 'I' for Inactive)
REMARK    1  A    between atoms: C_2  and  C_3 
REMARK    2  A    between atoms: C_3  and  O_6 
REMARK    3  A    between atoms: C_3  and  C_4 
REMARK    4  A    between atoms: C_7  and  O_6 
REMARK    5  A    between atoms: C_9  and  C_10 
REMARK    6  A    between atoms: N_15  and  C_14 
REMARK    7  A    between atoms: N_20  and  C_19 
REMARK       I    between atoms: C_22  and  N_20 
ROOT
ATOM      1  C   LIG d   1      -4.621  92.704 119.775  0.00  0.00     0.161 C 
ATOM      2  C   LIG d   1      -3.578  91.947 119.215  0.00  0.00     0.016 C 
ATOM      3  C   LIG d   1      -3.740  91.117 118.082  0.00  0.00     0.038 C 
ATOM      4  C   LIG d   1      -4.929  91.105 117.337  0.00  0.00     0.028 C 
ATOM      5  C   LIG d   1      -6.162  91.465 118.157  0.00  0.00    -0.047 C 
ATOM      6  C   LIG d   1      -5.895  92.789 118.910  0.00  0.00     0.091 C 
ENDROOT
BRANCH   1   7
ATOM      7  O   LIG d   1      -4.146  94.025 120.099  0.00  0.00    -0.368 OA
BRANCH   7   8
ATOM      8  C   LIG d   1      -2.805  94.106 120.641  0.00  0.00     0.119 C 
BRANCH   8   9
ATOM      9  C   LIG d   1      -2.931  94.417 122.145  0.00  0.00     0.028 C 
ATOM     10  C   LIG d   1      -2.333  93.307 123.026  0.00  0.00     0.006 C 
ENDBRANCH   8   9
BRANCH   8  11
ATOM     11  C   LIG d   1      -2.033  95.288 120.046  0.00  0.00     0.028 C 
ATOM     12  C   LIG d   1      -1.293  94.924 118.749  0.00  0.00     0.006 C 
ENDBRANCH   8  11
ENDBRANCH   7   8
ENDBRANCH   1   7
BRANCH   6  13
ATOM     13  N   LIG d   1      -7.021  93.170 119.802  0.00  0.00    -0.311 N 
ATOM     14  C   LIG d   1      -7.664  94.333 119.714  0.00  0.00     0.210 C 
ATOM     15  C   LIG d   1      -8.781  94.534 120.744  0.00  0.00     0.109 C 
ATOM     16  O   LIG d   1      -7.438  95.204 118.860  0.00  0.00    -0.276 OA
ATOM     17  H   LIG d   1      -7.290  92.509 120.504  0.00  0.00     0.149 HD
ENDBRANCH   6  13
BRANCH   5  18
ATOM     18  N   LIG d   1      -7.306  91.548 117.229  0.00  0.00     0.381 N 
ATOM     19  H   LIG d   1      -7.716  90.643 117.114  0.00  0.00    -0.090 HD
ATOM     20  H   LIG d   1      -6.976  91.861 116.333  0.00  0.00    -0.090 HD
ATOM     21  H   LIG d   1      -7.986  92.186 117.582  0.00  0.00    -0.090 HD
ENDBRANCH   5  18
BRANCH   3  22
ATOM     22  C   LIG d   1      -2.719  90.257 117.708  0.00  0.00     0.382 C 
ATOM     23  O   LIG d   1      -2.991  89.152 117.180  0.00  0.00    -0.241 OA
ATOM     24  O   LIG d   1      -1.530  90.554 117.932  0.00  0.00    -0.241 OA
ENDBRANCH   3  22
TORSDOF 7
ENDMDL
MODEL 8
REMARK VINA RESULT:      -4.0     28.780     31.155
REMARK  7 active torsions:
REMARK  status: ('A' for Active; 'I' for Inactive)
REMARK    1  A    between atoms: C_2  and  C_3 
REMARK    2  A    between atoms: C_3  and  O_6 
REMARK    3  A    between atoms: C_3  and  C_4 
REMARK    4  A    between atoms: C_7  and  O_6 
REMARK    5  A    between atoms: C_9  and  C_10 
REMARK    6  A    between atoms: N_15  and  C_14 
REMARK    7  A    between atoms: N_20  and  C_19 
REMARK       I    between atoms: C_22  and  N_20 
ROOT
ATOM      1  C   LIG d   1      -4.922  93.604 120.111  0.00  0.00     0.161 C 
ATOM      2  C   LIG d   1      -6.086  93.163 119.459  0.00  0.00     0.016 C 
ATOM      3  C   LIG d   1      -7.133  94.028 119.064  0.00  0.00     0.038 C 
ATOM      4  C   LIG d   1      -7.017  95.422 119.160  0.00  0.00     0.028 C 
ATOM      5  C   LIG d   1      -6.077  95.878 120.271  0.00  0.00    -0.047 C 
ATOM      6  C   LIG d   1      -4.730  95.135 120.124  0.00  0.00     0.091 C 
ENDROOT
BRANCH   1   7
ATOM      7  O   LIG d   1      -3.768  92.958 119.539  0.00  0.00    -0.368 OA
BRANCH   7   8
ATOM      8  C   LIG d   1      -3.430  91.658 120.082  0.00  0.00     0.119 C 
BRANCH   8   9
ATOM      9  C   LIG d   1      -1.977  91.733 120.591  0.00  0.00     0.028 C 
ATOM     10  C   LIG d   1      -1.867  92.444 121.950  0.00  0.00     0.006 C 
ENDBRANCH   8   9
BRANCH   8  11
ATOM     11  C   LIG d   1      -3.423  90.583 118.992  0.00  0.00     0.028 C 
ATOM     12  C   LIG d   1      -3.638  91.161 117.584  0.00  0.00     0.006 C 
ENDBRANCH   8  11
ENDBRANCH   7   8
ENDBRANCH   1   7
BRANCH   6  13
ATOM     13  N   LIG d   1      -3.781  95.459 121.220  0.00  0.00    -0.311 N 
ATOM     14  C   LIG d   1      -2.834  96.391 121.119  0.00  0.00     0.210 C 
ATOM     15  C   LIG d   1      -1.950  96.552 122.360  0.00  0.00     0.109 C 
ATOM     16  O   LIG d   1      -2.664  97.121 120.132  0.00  0.00    -0.276 OA
ATOM     17  H   LIG d   1      -3.868  94.936 122.069  0.00  0.00     0.149 HD
ENDBRANCH   6  13
BRANCH   5  18
ATOM     18  N   LIG d   1      -5.944  97.343 120.169  0.00  0.00     0.381 N 
ATOM     19  H   LIG d   1      -5.930  97.747 121.084  0.00  0.00    -0.090 HD
ATOM     20  H   LIG d   1      -6.739  97.708 119.675  0.00  0.00    -0.090 HD
ATOM     21  H   LIG d   1      -5.105  97.576 119.683  0.00  0.00    -0.090 HD
ENDBRANCH   5  18
BRANCH   3  22
ATOM     22  C   LIG d   1      -8.327  93.495 118.604  0.00  0.00     0.382 C 
ATOM     23  O   LIG d   1      -8.451  93.186 117.394  0.00  0.00    -0.241 OA
ATOM     24  O   LIG d   1      -9.298  93.361 119.373  0.00  0.00    -0.241 OA
ENDBRANCH   3  22
TORSDOF 7
ENDMDL
MODEL 9
REMARK VINA RESULT:      -3.9     14.181     16.945
REMARK  7 active torsions:
REMARK  status: ('A' for Active; 'I' for Inactive)
REMARK    1  A    between atoms: C_2  and  C_3 
REMARK    2  A    between atoms: C_3  and  O_6 
REMARK    3  A    between atoms: C_3  and  C_4 
REMARK    4  A    between atoms: C_7  and  O_6 
REMARK    5  A    between atoms: C_9  and  C_10 
REMARK    6  A    between atoms: N_15  and  C_14 
REMARK    7  A    between atoms: N_20  and  C_19 
REMARK       I    between atoms: C_22  and  N_20 
ROOT
ATOM      1  C   LIG d   1      -7.466  79.207 120.168  0.00  0.00     0.161 C 
ATOM      2  C   LIG d   1      -8.477  78.248 119.990  0.00  0.00     0.016 C 
ATOM      3  C   LIG d   1      -9.814  78.576 119.672  0.00  0.00     0.038 C 
ATOM      4  C   LIG d   1     -10.201  79.888 119.358  0.00  0.00     0.028 C 
ATOM      5  C   LIG d   1      -9.328  80.951 120.017  0.00  0.00    -0.047 C 
ATOM      6  C   LIG d   1      -7.844  80.635 119.721  0.00  0.00     0.091 C 
ENDROOT
BRANCH   1   7
ATOM      7  O   LIG d   1      -6.262  78.777 119.503  0.00  0.00    -0.368 OA
BRANCH   7   8
ATOM      8  C   LIG d   1      -6.272  78.847 118.056  0.00  0.00     0.119 C 
BRANCH   8   9
ATOM      9  C   LIG d   1      -5.850  77.465 117.522  0.00  0.00     0.028 C 
ATOM     10  C   LIG d   1      -7.057  76.575 117.180  0.00  0.00     0.006 C 
ENDBRANCH   8   9
BRANCH   8  11
ATOM     11  C   LIG d   1      -5.210  79.823 117.539  0.00  0.00     0.028 C 
ATOM     12  C   LIG d   1      -4.084  80.072 118.554  0.00  0.00     0.006 C 
ENDBRANCH   8  11
ENDBRANCH   7   8
ENDBRANCH   1   7
BRANCH   6  13
ATOM     13  N   LIG d   1      -6.918  81.578 120.399  0.00  0.00    -0.311 N 
ATOM     14  C   LIG d   1      -6.463  82.694 119.832  0.00  0.00     0.210 C 
ATOM     15  C   LIG d   1      -5.502  83.515 120.698  0.00  0.00     0.109 C 
ATOM     16  O   LIG d   1      -6.789  83.099 118.706  0.00  0.00    -0.276 OA
ATOM     17  H   LIG d   1      -6.626  81.343 121.328  0.00  0.00     0.149 HD
ENDBRANCH   6  13
BRANCH   5  18
ATOM     18  N   LIG d   1      -9.755  82.263 119.497  0.00  0.00     0.381 N 
ATOM     19  H   LIG d   1      -9.267  82.993 119.977  0.00  0.00    -0.090 HD
ATOM     20  H   LIG d   1     -10.739  82.376 119.667  0.00  0.00    -0.090 HD
ATOM     21  H   LIG d   1      -9.571  82.319 118.519  0.00  0.00    -0.090 HD
ENDBRANCH   5  18
BRANCH   3  22
ATOM     22  C   LIG d   1     -10.790  77.592 119.703  0.00  0.00     0.382 C 
ATOM     23  O   LIG d   1     -11.467  77.346 118.676  0.00  0.00    -0.241 OA
ATOM     24  O   LIG d   1     -11.032  76.976 120.759  0.00  0.00    -0.241 OA
ENDBRANCH   3  22
TORSDOF 7
ENDMDL
