MODEL 1
REMARK VINA RESULT:      -4.9      0.000      0.000
REMARK  7 active torsions:
REMARK  status: ('A' for Active; 'I' for Inactive)
REMARK    1  A    between atoms: C_2  and  C_3 
REMARK    2  A    between atoms: C_3  and  O_6 
REMARK    3  A    between atoms: C_3  and  C_4 
REMARK    4  A    between atoms: C_7  and  O_6 
REMARK    5  A    between atoms: C_9  and  C_10 
REMARK    6  A    between atoms: N_15  and  C_14 
REMARK    7  A    between atoms: N_20  and  C_19 
REMARK       I    between atoms: C_22  and  N_20 
ROOT
ATOM      1  C   LIG d   1      -9.091  76.816 119.477  0.00  0.00     0.161 C 
ATOM      2  C   LIG d   1     -10.186  76.282 120.176  0.00  0.00     0.016 C 
ATOM      3  C   LIG d   1     -11.181  77.077 120.790  0.00  0.00     0.038 C 
ATOM      4  C   LIG d   1     -11.230  78.468 120.615  0.00  0.00     0.028 C 
ATOM      5  C   LIG d   1      -9.866  79.093 120.341  0.00  0.00    -0.047 C 
ATOM      6  C   LIG d   1      -9.188  78.328 119.182  0.00  0.00     0.091 C 
ENDROOT
BRANCH   1   7
ATOM      7  O   LIG d   1      -8.884  76.080 118.256  0.00  0.00    -0.368 OA
BRANCH   7   8
ATOM      8  C   LIG d   1      -8.142  74.841 118.376  0.00  0.00     0.119 C 
BRANCH   8   9
ATOM      9  C   LIG d   1      -6.836  75.004 117.574  0.00  0.00     0.028 C 
ATOM     10  C   LIG d   1      -5.990  73.719 117.563  0.00  0.00     0.006 C 
ENDBRANCH   8   9
BRANCH   8  11
ATOM     11  C   LIG d   1      -8.885  73.679 117.710  0.00  0.00     0.028 C 
ATOM     12  C   LIG d   1      -9.358  72.619 118.717  0.00  0.00     0.006 C 
ENDBRANCH   8  11
ENDBRANCH   7   8
ENDBRANCH   1   7
BRANCH   6  13
ATOM     13  N   LIG d   1      -7.813  78.821 118.905  0.00  0.00    -0.311 N 
ATOM     14  C   LIG d   1      -7.547  79.811 118.055  0.00  0.00     0.210 C 
ATOM     15  C   LIG d   1      -6.061  80.150 117.901  0.00  0.00     0.109 C 
ATOM     16  O   LIG d   1      -8.403  80.463 117.438  0.00  0.00    -0.276 OA
ATOM     17  H   LIG d   1      -7.061  78.369 119.386  0.00  0.00     0.149 HD
ENDBRANCH   6  13
BRANCH   5  18
ATOM     18  N   LIG d   1     -10.082  80.521 120.043  0.00  0.00     0.381 N 
ATOM     19  H   LIG d   1     -10.982  80.804 120.376  0.00  0.00    -0.090 HD
ATOM     20  H   LIG d   1     -10.058  80.653 119.048  0.00  0.00    -0.090 HD
ATOM     21  H   LIG d   1      -9.372  81.071 120.475  0.00  0.00    -0.090 HD
ENDBRANCH   5  18
BRANCH   3  22
ATOM     22  C   LIG d   1     -12.118  76.484 121.621  0.00  0.00     0.382 C 
ATOM     23  O   LIG d   1     -13.233  77.032 121.801  0.00  0.00    -0.241 OA
ATOM     24  O   LIG d   1     -11.848  75.431 122.229  0.00  0.00    -0.241 OA
ENDBRANCH   3  22
TORSDOF 7
ENDMDL
MODEL 2
REMARK VINA RESULT:      -4.7      2.752      5.394
REMARK  7 active torsions:
REMARK  status: ('A' for Active; 'I' for Inactive)
REMARK    1  A    between atoms: C_2  and  C_3 
REMARK    2  A    between atoms: C_3  and  O_6 
REMARK    3  A    between atoms: C_3  and  C_4 
REMARK    4  A    between atoms: C_7  and  O_6 
REMARK    5  A    between atoms: C_9  and  C_10 
REMARK    6  A    between atoms: N_15  and  C_14 
REMARK    7  A    between atoms: N_20  and  C_19 
REMARK       I    between atoms: C_22  and  N_20 
ROOT
ATOM      1  C   LIG d   1      -8.314  75.033 118.232  0.00  0.00     0.161 C 
ATOM      2  C   LIG d   1      -8.881  73.756 118.374  0.00  0.00     0.016 C 
ATOM      3  C   LIG d   1      -8.164  72.557 118.156  0.00  0.00     0.038 C 
ATOM      4  C   LIG d   1      -6.780  72.552 117.927  0.00  0.00     0.028 C 
ATOM      5  C   LIG d   1      -6.270  73.833 117.277  0.00  0.00    -0.047 C 
ATOM      6  C   LIG d   1      -6.777  75.046 118.091  0.00  0.00     0.091 C 
ENDROOT
BRANCH   1   7
ATOM      7  O   LIG d   1      -8.723  75.874 119.328  0.00  0.00    -0.368 OA
BRANCH   7   8
ATOM      8  C   LIG d   1      -9.397  77.106 118.969  0.00  0.00     0.119 C 
BRANCH   8   9
ATOM      9  C   LIG d   1      -8.792  78.232 119.829  0.00  0.00     0.028 C 
ATOM     10  C   LIG d   1      -7.670  77.728 120.752  0.00  0.00     0.006 C 
ENDBRANCH   8   9
BRANCH   8  11
ATOM     11  C   LIG d   1     -10.881  77.060 119.348  0.00  0.00     0.028 C 
ATOM     12  C   LIG d   1     -11.116  76.531 120.771  0.00  0.00     0.006 C 
ENDBRANCH   8  11
ENDBRANCH   7   8
ENDBRANCH   1   7
BRANCH   6  13
ATOM     13  N   LIG d   1      -6.393  76.343 117.475  0.00  0.00    -0.311 N 
ATOM     14  C   LIG d   1      -5.429  77.126 117.957  0.00  0.00     0.210 C 
ATOM     15  C   LIG d   1      -5.207  78.429 117.183  0.00  0.00     0.109 C 
ATOM     16  O   LIG d   1      -4.715  76.850 118.933  0.00  0.00    -0.276 OA
ATOM     17  H   LIG d   1      -6.900  76.629 116.661  0.00  0.00     0.149 HD
ENDBRANCH   6  13
BRANCH   5  18
ATOM     18  N   LIG d   1      -4.798  73.749 117.222  0.00  0.00     0.381 N 
ATOM     19  H   LIG d   1      -4.524  73.020 116.594  0.00  0.00    -0.090 HD
ATOM     20  H   LIG d   1      -4.451  73.524 118.138  0.00  0.00    -0.090 HD
ATOM     21  H   LIG d   1      -4.418  74.619 116.919  0.00  0.00    -0.090 HD
ENDBRANCH   5  18
BRANCH   3  22
ATOM     22  C   LIG d   1      -8.841  71.347 118.128  0.00  0.00     0.382 C 
ATOM     23  O   LIG d   1      -9.667  71.069 119.030  0.00  0.00    -0.241 OA
ATOM     24  O   LIG d   1      -8.604  70.511 117.235  0.00  0.00    -0.241 OA
ENDBRANCH   3  22
TORSDOF 7
ENDMDL
MODEL 3
REMARK VINA RESULT:      -4.5      6.999      9.181
REMARK  7 active torsions:
REMARK  status: ('A' for Active; 'I' for Inactive)
REMARK    1  A    between atoms: C_2  and  C_3 
REMARK    2  A    between atoms: C_3  and  O_6 
REMARK    3  A    between atoms: C_3  and  C_4 
REMARK    4  A    between atoms: C_7  and  O_6 
REMARK    5  A    between atoms: C_9  and  C_10 
REMARK    6  A    between atoms: N_15  and  C_14 
REMARK    7  A    between atoms: N_20  and  C_19 
REMARK       I    between atoms: C_22  and  N_20 
ROOT
ATOM      1  C   LIG d   1     -17.987  75.909 120.287  0.00  0.00     0.161 C 
ATOM      2  C   LIG d   1     -19.017  76.758 119.849  0.00  0.00     0.016 C 
ATOM      3  C   LIG d   1     -19.144  78.104 120.262  0.00  0.00     0.038 C 
ATOM      4  C   LIG d   1     -18.157  78.741 121.028  0.00  0.00     0.028 C 
ATOM      5  C   LIG d   1     -17.360  77.783 121.907  0.00  0.00    -0.047 C 
ATOM      6  C   LIG d   1     -16.838  76.618 121.035  0.00  0.00     0.091 C 
ENDROOT
BRANCH   1   7
ATOM      7  O   LIG d   1     -17.469  75.155 119.173  0.00  0.00    -0.368 OA
BRANCH   7   8
ATOM      8  C   LIG d   1     -17.763  73.736 119.172  0.00  0.00     0.119 C 
BRANCH   8   9
ATOM      9  C   LIG d   1     -18.581  73.432 120.442  0.00  0.00     0.028 C 
ATOM     10  C   LIG d   1     -19.959  72.829 120.123  0.00  0.00     0.006 C 
ENDBRANCH   8   9
BRANCH   8  11
ATOM     11  C   LIG d   1     -16.485  72.902 119.304  0.00  0.00     0.028 C 
ATOM     12  C   LIG d   1     -16.397  72.154 120.643  0.00  0.00     0.006 C 
ENDBRANCH   8  11
ENDBRANCH   7   8
ENDBRANCH   1   7
BRANCH   6  13
ATOM     13  N   LIG d   1     -16.119  75.591 121.832  0.00  0.00    -0.311 N 
ATOM     14  C   LIG d   1     -14.797  75.583 121.996  0.00  0.00     0.210 C 
ATOM     15  C   LIG d   1     -14.257  74.423 122.839  0.00  0.00     0.109 C 
ATOM     16  O   LIG d   1     -14.024  76.444 121.551  0.00  0.00    -0.276 OA
ATOM     17  H   LIG d   1     -16.673  74.872 122.255  0.00  0.00     0.149 HD
ENDBRANCH   6  13
BRANCH   5  18
ATOM     18  N   LIG d   1     -16.278  78.557 122.544  0.00  0.00     0.381 N 
ATOM     19  H   LIG d   1     -16.670  79.258 123.142  0.00  0.00    -0.090 HD
ATOM     20  H   LIG d   1     -15.742  79.017 121.829  0.00  0.00    -0.090 HD
ATOM     21  H   LIG d   1     -15.690  77.951 123.072  0.00  0.00    -0.090 HD
ENDBRANCH   5  18
BRANCH   3  22
ATOM     22  C   LIG d   1     -20.290  78.816 119.941  0.00  0.00     0.382 C 
ATOM     23  O   LIG d   1     -20.196  79.973 119.464  0.00  0.00    -0.241 OA
ATOM     24  O   LIG d   1     -21.416  78.334 120.163  0.00  0.00    -0.241 OA
ENDBRANCH   3  22
TORSDOF 7
ENDMDL
MODEL 4
REMARK VINA RESULT:      -4.5      9.559     12.459
REMARK  7 active torsions:
REMARK  status: ('A' for Active; 'I' for Inactive)
REMARK    1  A    between atoms: C_2  and  C_3 
REMARK    2  A    between atoms: C_3  and  O_6 
REMARK    3  A    between atoms: C_3  and  C_4 
REMARK    4  A    between atoms: C_7  and  O_6 
REMARK    5  A    between atoms: C_9  and  C_10 
REMARK    6  A    between atoms: N_15  and  C_14 
REMARK    7  A    between atoms: N_20  and  C_19 
REMARK       I    between atoms: C_22  and  N_20 
ROOT
ATOM      1  C   LIG d   1     -12.625  66.741 122.201  0.00  0.00     0.161 C 
ATOM      2  C   LIG d   1     -11.505  66.345 122.952  0.00  0.00     0.016 C 
ATOM      3  C   LIG d   1     -10.770  65.166 122.691  0.00  0.00     0.038 C 
ATOM      4  C   LIG d   1     -11.016  64.374 121.559  0.00  0.00     0.028 C 
ATOM      5  C   LIG d   1     -12.455  64.461 121.060  0.00  0.00    -0.047 C 
ATOM      6  C   LIG d   1     -12.840  65.948 120.894  0.00  0.00     0.091 C 
ENDROOT
BRANCH   1   7
ATOM      7  O   LIG d   1     -12.553  68.153 121.924  0.00  0.00    -0.368 OA
BRANCH   7   8
ATOM      8  C   LIG d   1     -12.771  69.036 123.052  0.00  0.00     0.119 C 
BRANCH   8   9
ATOM      9  C   LIG d   1     -14.287  69.294 123.151  0.00  0.00     0.028 C 
ATOM     10  C   LIG d   1     -14.905  69.688 121.799  0.00  0.00     0.006 C 
ENDBRANCH   8   9
BRANCH   8  11
ATOM     11  C   LIG d   1     -12.140  70.411 122.815  0.00  0.00     0.028 C 
ATOM     12  C   LIG d   1     -11.772  71.132 124.121  0.00  0.00     0.006 C 
ENDBRANCH   8  11
ENDBRANCH   7   8
ENDBRANCH   1   7
BRANCH   6  13
ATOM     13  N   LIG d   1     -14.259  66.125 120.490  0.00  0.00    -0.311 N 
ATOM     14  C   LIG d   1     -14.633  66.796 119.402  0.00  0.00     0.210 C 
ATOM     15  C   LIG d   1     -16.147  66.875 119.180  0.00  0.00     0.109 C 
ATOM     16  O   LIG d   1     -13.855  67.306 118.583  0.00  0.00    -0.276 OA
ATOM     17  H   LIG d   1     -14.956  65.717 121.082  0.00  0.00     0.149 HD
ENDBRANCH   6  13
BRANCH   5  18
ATOM     18  N   LIG d   1     -12.536  63.699 119.800  0.00  0.00     0.381 N 
ATOM     19  H   LIG d   1     -11.994  62.861 119.874  0.00  0.00    -0.090 HD
ATOM     20  H   LIG d   1     -12.153  64.257 119.057  0.00  0.00    -0.090 HD
ATOM     21  H   LIG d   1     -13.485  63.471 119.599  0.00  0.00    -0.090 HD
ENDBRANCH   5  18
BRANCH   3  22
ATOM     22  C   LIG d   1      -9.802  64.746 123.590  0.00  0.00     0.382 C 
ATOM     23  O   LIG d   1      -9.471  63.537 123.636  0.00  0.00    -0.241 OA
ATOM     24  O   LIG d   1      -9.288  65.553 124.387  0.00  0.00    -0.241 OA
ENDBRANCH   3  22
TORSDOF 7
ENDMDL
MODEL 5
REMARK VINA RESULT:      -4.5     16.254     18.656
REMARK  7 active torsions:
REMARK  status: ('A' for Active; 'I' for Inactive)
REMARK    1  A    between atoms: C_2  and  C_3 
REMARK    2  A    between atoms: C_3  and  O_6 
REMARK    3  A    between atoms: C_3  and  C_4 
REMARK    4  A    between atoms: C_7  and  O_6 
REMARK    5  A    between atoms: C_9  and  C_10 
REMARK    6  A    between atoms: N_15  and  C_14 
REMARK    7  A    between atoms: N_20  and  C_19 
REMARK       I    between atoms: C_22  and  N_20 
ROOT
ATOM      1  C   LIG d   1      -5.540  94.038 120.211  0.00  0.00     0.161 C 
ATOM      2  C   LIG d   1      -4.260  93.647 119.786  0.00  0.00     0.016 C 
ATOM      3  C   LIG d   1      -4.022  92.930 118.590  0.00  0.00     0.038 C 
ATOM      4  C   LIG d   1      -5.041  92.687 117.656  0.00  0.00     0.028 C 
ATOM      5  C   LIG d   1      -6.431  92.621 118.280  0.00  0.00    -0.047 C 
ATOM      6  C   LIG d   1      -6.651  93.878 119.151  0.00  0.00     0.091 C 
ENDROOT
BRANCH   1   7
ATOM      7  O   LIG d   1      -5.501  95.395 120.695  0.00  0.00    -0.368 OA
BRANCH   7   8
ATOM      8  C   LIG d   1      -5.308  96.424 119.693  0.00  0.00     0.119 C 
BRANCH   8   9
ATOM      9  C   LIG d   1      -4.129  97.302 120.154  0.00  0.00     0.028 C 
ATOM     10  C   LIG d   1      -3.200  97.694 118.992  0.00  0.00     0.006 C 
ENDBRANCH   8   9
BRANCH   8  11
ATOM     11  C   LIG d   1      -6.513  97.366 119.623  0.00  0.00     0.028 C 
ATOM     12  C   LIG d   1      -6.955  97.662 118.181  0.00  0.00     0.006 C 
ENDBRANCH   8  11
ENDBRANCH   7   8
ENDBRANCH   1   7
BRANCH   6  13
ATOM     13  N   LIG d   1      -7.954  93.853 119.865  0.00  0.00    -0.311 N 
ATOM     14  C   LIG d   1      -9.073  94.377 119.368  0.00  0.00     0.210 C 
ATOM     15  C   LIG d   1     -10.301  94.260 120.277  0.00  0.00     0.109 C 
ATOM     16  O   LIG d   1      -9.172  94.900 118.248  0.00  0.00    -0.276 OA
ATOM     17  H   LIG d   1      -7.971  93.420 120.768  0.00  0.00     0.149 HD
ENDBRANCH   6  13
BRANCH   5  18
ATOM     18  N   LIG d   1      -7.407  92.500 117.181  0.00  0.00     0.381 N 
ATOM     19  H   LIG d   1      -6.972  92.745 116.314  0.00  0.00    -0.090 HD
ATOM     20  H   LIG d   1      -8.163  93.141 117.346  0.00  0.00    -0.090 HD
ATOM     21  H   LIG d   1      -7.755  91.568 117.135  0.00  0.00    -0.090 HD
ENDBRANCH   5  18
BRANCH   3  22
ATOM     22  C   LIG d   1      -2.760  92.415 118.337  0.00  0.00     0.382 C 
ATOM     23  O   LIG d   1      -2.538  91.191 118.506  0.00  0.00    -0.241 OA
ATOM     24  O   LIG d   1      -1.830  93.165 117.986  0.00  0.00    -0.241 OA
ENDBRANCH   3  22
TORSDOF 7
ENDMDL
MODEL 6
REMARK VINA RESULT:      -4.4     10.834     13.323
REMARK  7 active torsions:
REMARK  status: ('A' for Active; 'I' for Inactive)
REMARK    1  A    between atoms: C_2  and  C_3 
REMARK    2  A    between atoms: C_3  and  O_6 
REMARK    3  A    between atoms: C_3  and  C_4 
REMARK    4  A    between atoms: C_7  and  O_6 
REMARK    5  A    between atoms: C_9  and  C_10 
REMARK    6  A    between atoms: N_15  and  C_14 
REMARK    7  A    between atoms: N_20  and  C_19 
REMARK       I    between atoms: C_22  and  N_20 
ROOT
ATOM      1  C   LIG d   1     -14.190  66.128 120.195  0.00  0.00     0.161 C 
ATOM      2  C   LIG d   1     -13.585  67.205 120.864  0.00  0.00     0.016 C 
ATOM      3  C   LIG d   1     -12.545  67.049 121.808  0.00  0.00     0.038 C 
ATOM      4  C   LIG d   1     -11.932  65.808 122.038  0.00  0.00     0.028 C 
ATOM      5  C   LIG d   1     -12.847  64.620 121.760  0.00  0.00    -0.047 C 
ATOM      6  C   LIG d   1     -13.460  64.778 120.350  0.00  0.00     0.091 C 
ENDROOT
BRANCH   1   7
ATOM      7  O   LIG d   1     -14.357  66.450 118.800  0.00  0.00    -0.368 OA
BRANCH   7   8
ATOM      8  C   LIG d   1     -15.717  66.677 118.356  0.00  0.00     0.119 C 
BRANCH   8   9
ATOM      9  C   LIG d   1     -15.986  65.717 117.180  0.00  0.00     0.028 C 
ATOM     10  C   LIG d   1     -17.166  64.769 117.454  0.00  0.00     0.006 C 
ENDBRANCH   8   9
BRANCH   8  11
ATOM     11  C   LIG d   1     -15.888  68.084 117.778  0.00  0.00     0.028 C 
ATOM     12  C   LIG d   1     -16.224  69.132 118.850  0.00  0.00     0.006 C 
ENDBRANCH   8  11
ENDBRANCH   7   8
ENDBRANCH   1   7
BRANCH   6  13
ATOM     13  N   LIG d   1     -14.434  63.701 120.031  0.00  0.00    -0.311 N 
ATOM     14  C   LIG d   1     -14.283  62.853 119.015  0.00  0.00     0.210 C 
ATOM     15  C   LIG d   1     -15.413  61.832 118.851  0.00  0.00     0.109 C 
ATOM     16  O   LIG d   1     -13.304  62.830 118.253  0.00  0.00    -0.276 OA
ATOM     17  H   LIG d   1     -15.242  63.628 120.618  0.00  0.00     0.149 HD
ENDBRANCH   6  13
BRANCH   5  18
ATOM     18  N   LIG d   1     -12.041  63.393 121.906  0.00  0.00     0.381 N 
ATOM     19  H   LIG d   1     -11.914  63.185 122.876  0.00  0.00    -0.090 HD
ATOM     20  H   LIG d   1     -11.137  63.547 121.495  0.00  0.00    -0.090 HD
ATOM     21  H   LIG d   1     -12.495  62.631 121.452  0.00  0.00    -0.090 HD
ENDBRANCH   5  18
BRANCH   3  22
ATOM     22  C   LIG d   1     -12.134  68.136 122.564  0.00  0.00     0.382 C 
ATOM     23  O   LIG d   1     -12.118  68.059 123.816  0.00  0.00    -0.241 OA
ATOM     24  O   LIG d   1     -11.821  69.207 122.012  0.00  0.00    -0.241 OA
ENDBRANCH   3  22
TORSDOF 7
ENDMDL
MODEL 7
REMARK VINA RESULT:      -4.4      4.260      6.926
REMARK  7 active torsions:
REMARK  status: ('A' for Active; 'I' for Inactive)
REMARK    1  A    between atoms: C_2  and  C_3 
REMARK    2  A    between atoms: C_3  and  O_6 
REMARK    3  A    between atoms: C_3  and  C_4 
REMARK    4  A    between atoms: C_7  and  O_6 
REMARK    5  A    between atoms: C_9  and  C_10 
REMARK    6  A    between atoms: N_15  and  C_14 
REMARK    7  A    between atoms: N_20  and  C_19 
REMARK       I    between atoms: C_22  and  N_20 
ROOT
ATOM      1  C   LIG d   1      -8.745  82.249 121.138  0.00  0.00     0.161 C 
ATOM      2  C   LIG d   1      -9.113  83.513 121.629  0.00  0.00     0.016 C 
ATOM      3  C   LIG d   1      -9.928  84.419 120.913  0.00  0.00     0.038 C 
ATOM      4  C   LIG d   1     -10.558  84.059 119.712  0.00  0.00     0.028 C 
ATOM      5  C   LIG d   1      -9.811  82.982 118.935  0.00  0.00    -0.047 C 
ATOM      6  C   LIG d   1      -9.514  81.795 119.880  0.00  0.00     0.091 C 
ENDROOT
BRANCH   1   7
ATOM      7  O   LIG d   1      -8.868  81.264 122.183  0.00  0.00    -0.368 OA
BRANCH   7   8
ATOM      8  C   LIG d   1     -10.126  80.548 122.239  0.00  0.00     0.119 C 
BRANCH   8   9
ATOM      9  C   LIG d   1     -10.826  80.942 123.554  0.00  0.00     0.028 C 
ATOM     10  C   LIG d   1     -12.025  81.877 123.322  0.00  0.00     0.006 C 
ENDBRANCH   8   9
BRANCH   8  11
ATOM     11  C   LIG d   1      -9.902  79.036 122.336  0.00  0.00     0.028 C 
ATOM     12  C   LIG d   1      -8.429  78.638 122.152  0.00  0.00     0.006 C 
ENDBRANCH   8  11
ENDBRANCH   7   8
ENDBRANCH   1   7
BRANCH   6  13
ATOM     13  N   LIG d   1      -8.711  80.733 119.221  0.00  0.00    -0.311 N 
ATOM     14  C   LIG d   1      -9.250  79.685 118.600  0.00  0.00     0.210 C 
ATOM     15  C   LIG d   1      -8.242  78.696 118.005  0.00  0.00     0.109 C 
ATOM     16  O   LIG d   1     -10.467  79.497 118.457  0.00  0.00    -0.276 OA
ATOM     17  H   LIG d   1      -7.714  80.822 119.262  0.00  0.00     0.149 HD
ENDBRANCH   6  13
BRANCH   5  18
ATOM     18  N   LIG d   1     -10.647  82.605 117.779  0.00  0.00     0.381 N 
ATOM     19  H   LIG d   1     -11.175  81.784 117.997  0.00  0.00    -0.090 HD
ATOM     20  H   LIG d   1     -10.048  82.397 116.999  0.00  0.00    -0.090 HD
ATOM     21  H   LIG d   1     -11.262  83.353 117.545  0.00  0.00    -0.090 HD
ENDBRANCH   5  18
BRANCH   3  22
ATOM     22  C   LIG d   1     -10.086  85.716 121.377  0.00  0.00     0.382 C 
ATOM     23  O   LIG d   1     -11.216  86.260 121.343  0.00  0.00    -0.241 OA
ATOM     24  O   LIG d   1      -9.105  86.364 121.788  0.00  0.00    -0.241 OA
ENDBRANCH   3  22
TORSDOF 7
ENDMDL
MODEL 8
REMARK VINA RESULT:      -4.3     19.762     21.923
REMARK  7 active torsions:
REMARK  status: ('A' for Active; 'I' for Inactive)
REMARK    1  A    between atoms: C_2  and  C_3 
REMARK    2  A    between atoms: C_3  and  O_6 
REMARK    3  A    between atoms: C_3  and  C_4 
REMARK    4  A    between atoms: C_7  and  O_6 
REMARK    5  A    between atoms: C_9  and  C_10 
REMARK    6  A    between atoms: N_15  and  C_14 
REMARK    7  A    between atoms: N_20  and  C_19 
REMARK       I    between atoms: C_22  and  N_20 
ROOT
ATOM      1  C   LIG d   1       2.398  58.856 121.396  0.00  0.00     0.161 C 
ATOM      2  C   LIG d   1       3.542  59.547 120.965  0.00  0.00     0.016 C 
ATOM      3  C   LIG d   1       3.967  59.585 119.617  0.00  0.00     0.038 C 
ATOM      4  C   LIG d   1       3.186  59.055 118.578  0.00  0.00     0.028 C 
ATOM      5  C   LIG d   1       2.280  57.912 119.024  0.00  0.00    -0.047 C 
ATOM      6  C   LIG d   1       1.473  58.365 120.262  0.00  0.00     0.091 C 
ENDROOT
BRANCH   1   7
ATOM      7  O   LIG d   1       1.658  59.668 122.329  0.00  0.00    -0.368 OA
BRANCH   7   8
ATOM      8  C   LIG d   1       1.143  60.921 121.814  0.00  0.00     0.119 C 
BRANCH   8   9
ATOM      9  C   LIG d   1       1.529  62.026 122.816  0.00  0.00     0.028 C 
ATOM     10  C   LIG d   1       2.348  61.486 124.000  0.00  0.00     0.006 C 
ENDBRANCH   8   9
BRANCH   8  11
ATOM     11  C   LIG d   1      -0.388  60.921 121.780  0.00  0.00     0.028 C 
ATOM     12  C   LIG d   1      -1.007  59.933 122.781  0.00  0.00     0.006 C 
ENDBRANCH   8  11
ENDBRANCH   7   8
ENDBRANCH   1   7
BRANCH   6  13
ATOM     13  N   LIG d   1       0.623  57.278 120.813  0.00  0.00    -0.311 N 
ATOM     14  C   LIG d   1      -0.637  57.068 120.434  0.00  0.00     0.210 C 
ATOM     15  C   LIG d   1      -1.340  55.906 121.143  0.00  0.00     0.109 C 
ATOM     16  O   LIG d   1      -1.228  57.714 119.556  0.00  0.00    -0.276 OA
ATOM     17  H   LIG d   1       1.034  56.686 121.509  0.00  0.00     0.149 HD
ENDBRANCH   6  13
BRANCH   5  18
ATOM     18  N   LIG d   1       1.426  57.548 117.878  0.00  0.00     0.381 N 
ATOM     19  H   LIG d   1       1.031  58.374 117.474  0.00  0.00    -0.090 HD
ATOM     20  H   LIG d   1       0.675  56.966 118.205  0.00  0.00    -0.090 HD
ATOM     21  H   LIG d   1       1.962  57.059 117.195  0.00  0.00    -0.090 HD
ENDBRANCH   5  18
BRANCH   3  22
ATOM     22  C   LIG d   1       5.205  60.123 119.301  0.00  0.00     0.382 C 
ATOM     23  O   LIG d   1       5.317  60.915 118.335  0.00  0.00    -0.241 OA
ATOM     24  O   LIG d   1       6.220  59.791 119.943  0.00  0.00    -0.241 OA
ENDBRANCH   3  22
TORSDOF 7
ENDMDL
MODEL 9
REMARK VINA RESULT:      -4.3      5.813      8.782
REMARK  7 active torsions:
REMARK  status: ('A' for Active; 'I' for Inactive)
REMARK    1  A    between atoms: C_2  and  C_3 
REMARK    2  A    between atoms: C_3  and  O_6 
REMARK    3  A    between atoms: C_3  and  C_4 
REMARK    4  A    between atoms: C_7  and  O_6 
REMARK    5  A    between atoms: C_9  and  C_10 
REMARK    6  A    between atoms: N_15  and  C_14 
REMARK    7  A    between atoms: N_20  and  C_19 
REMARK       I    between atoms: C_22  and  N_20 
ROOT
ATOM      1  C   LIG d   1     -16.155  75.665 121.352  0.00  0.00     0.161 C 
ATOM      2  C   LIG d   1     -15.878  74.490 120.633  0.00  0.00     0.016 C 
ATOM      3  C   LIG d   1     -16.715  73.988 119.610  0.00  0.00     0.038 C 
ATOM      4  C   LIG d   1     -17.816  74.713 119.130  0.00  0.00     0.028 C 
ATOM      5  C   LIG d   1     -18.419  75.656 120.166  0.00  0.00    -0.047 C 
ATOM      6  C   LIG d   1     -17.292  76.528 120.766  0.00  0.00     0.091 C 
ENDROOT
BRANCH   1   7
ATOM      7  O   LIG d   1     -14.953  76.448 121.490  0.00  0.00    -0.368 OA
BRANCH   7   8
ATOM      8  C   LIG d   1     -14.266  76.341 122.761  0.00  0.00     0.119 C 
BRANCH   8   9
ATOM      9  C   LIG d   1     -14.296  77.732 123.423  0.00  0.00     0.028 C 
ATOM     10  C   LIG d   1     -15.343  77.825 124.546  0.00  0.00     0.006 C 
ENDBRANCH   8   9
BRANCH   8  11
ATOM     11  C   LIG d   1     -12.781  76.017 122.567  0.00  0.00     0.028 C 
ATOM     12  C   LIG d   1     -12.170  76.731 121.351  0.00  0.00     0.006 C 
ENDBRANCH   8  11
ENDBRANCH   7   8
ENDBRANCH   1   7
BRANCH   6  13
ATOM     13  N   LIG d   1     -17.782  77.421 121.849  0.00  0.00    -0.311 N 
ATOM     14  C   LIG d   1     -18.216  78.662 121.636  0.00  0.00     0.210 C 
ATOM     15  C   LIG d   1     -18.658  79.417 122.893  0.00  0.00     0.109 C 
ATOM     16  O   LIG d   1     -18.307  79.198 120.521  0.00  0.00    -0.276 OA
ATOM     17  H   LIG d   1     -17.772  77.055 122.781  0.00  0.00     0.149 HD
ENDBRANCH   6  13
BRANCH   5  18
ATOM     18  N   LIG d   1     -19.466  76.447 119.493  0.00  0.00     0.381 N 
ATOM     19  H   LIG d   1     -19.213  77.415 119.495  0.00  0.00    -0.090 HD
ATOM     20  H   LIG d   1     -20.327  76.345 120.000  0.00  0.00    -0.090 HD
ATOM     21  H   LIG d   1     -19.584  76.130 118.556  0.00  0.00    -0.090 HD
ENDBRANCH   5  18
BRANCH   3  22
ATOM     22  C   LIG d   1     -16.477  72.728 119.084  0.00  0.00     0.382 C 
ATOM     23  O   LIG d   1     -16.318  72.584 117.848  0.00  0.00    -0.241 OA
ATOM     24  O   LIG d   1     -16.463  71.726 119.824  0.00  0.00    -0.241 OA
ENDBRANCH   3  22
TORSDOF 7
ENDMDL
