MODEL 1
REMARK VINA RESULT:      -4.8      0.000      0.000
REMARK  7 active torsions:
REMARK  status: ('A' for Active; 'I' for Inactive)
REMARK    1  A    between atoms: C_2  and  C_3 
REMARK    2  A    between atoms: C_3  and  O_6 
REMARK    3  A    between atoms: C_3  and  C_4 
REMARK    4  A    between atoms: C_7  and  O_6 
REMARK    5  A    between atoms: C_9  and  C_10 
REMARK    6  A    between atoms: N_15  and  C_14 
REMARK    7  A    between atoms: N_20  and  C_19 
REMARK       I    between atoms: C_22  and  N_20 
ROOT
ATOM      1  C   LIG d   1      -9.763  80.477 120.634  0.00  0.00     0.161 C 
ATOM      2  C   LIG d   1      -9.570  79.269 119.943  0.00  0.00     0.016 C 
ATOM      3  C   LIG d   1      -9.497  79.182 118.534  0.00  0.00     0.038 C 
ATOM      4  C   LIG d   1      -9.462  80.325 117.721  0.00  0.00     0.028 C 
ATOM      5  C   LIG d   1     -10.161  81.530 118.340  0.00  0.00    -0.047 C 
ATOM      6  C   LIG d   1      -9.615  81.747 119.770  0.00  0.00     0.091 C 
ENDROOT
BRANCH   1   7
ATOM      7  O   LIG d   1      -8.877  80.538 121.770  0.00  0.00    -0.368 OA
BRANCH   7   8
ATOM      8  C   LIG d   1      -7.572  79.935 121.593  0.00  0.00     0.119 C 
BRANCH   8   9
ATOM      9  C   LIG d   1      -7.280  79.087 122.846  0.00  0.00     0.028 C 
ATOM     10  C   LIG d   1      -6.257  77.971 122.575  0.00  0.00     0.006 C 
ENDBRANCH   8   9
BRANCH   8  11
ATOM     11  C   LIG d   1      -6.468  80.996 121.555  0.00  0.00     0.028 C 
ATOM     12  C   LIG d   1      -5.993  81.310 120.128  0.00  0.00     0.006 C 
ENDBRANCH   8  11
ENDBRANCH   7   8
ENDBRANCH   1   7
BRANCH   6  13
ATOM     13  N   LIG d   1     -10.306  82.856 120.478  0.00  0.00    -0.311 N 
ATOM     14  C   LIG d   1      -9.671  83.758 121.224  0.00  0.00     0.210 C 
ATOM     15  C   LIG d   1     -10.575  84.805 121.883  0.00  0.00     0.109 C 
ATOM     16  O   LIG d   1      -8.442  83.810 121.377  0.00  0.00    -0.276 OA
ATOM     17  H   LIG d   1     -11.302  82.908 120.383  0.00  0.00     0.149 HD
ENDBRANCH   6  13
BRANCH   5  18
ATOM     18  N   LIG d   1      -9.929  82.685 117.452  0.00  0.00     0.381 N 
ATOM     19  H   LIG d   1      -9.237  83.287 117.852  0.00  0.00    -0.090 HD
ATOM     20  H   LIG d   1     -10.785  83.203 117.362  0.00  0.00    -0.090 HD
ATOM     21  H   LIG d   1      -9.627  82.370 116.556  0.00  0.00    -0.090 HD
ENDBRANCH   5  18
BRANCH   3  22
ATOM     22  C   LIG d   1      -9.499  77.938 117.922  0.00  0.00     0.382 C 
ATOM     23  O   LIG d   1     -10.567  77.286 117.830  0.00  0.00    -0.241 OA
ATOM     24  O   LIG d   1      -8.438  77.440 117.499  0.00  0.00    -0.241 OA
ENDBRANCH   3  22
TORSDOF 7
ENDMDL
MODEL 2
REMARK VINA RESULT:      -4.7      1.809      2.289
REMARK  7 active torsions:
REMARK  status: ('A' for Active; 'I' for Inactive)
REMARK    1  A    between atoms: C_2  and  C_3 
REMARK    2  A    between atoms: C_3  and  O_6 
REMARK    3  A    between atoms: C_3  and  C_4 
REMARK    4  A    between atoms: C_7  and  O_6 
REMARK    5  A    between atoms: C_9  and  C_10 
REMARK    6  A    between atoms: N_15  and  C_14 
REMARK    7  A    between atoms: N_20  and  C_19 
REMARK       I    between atoms: C_22  and  N_20 
ROOT
ATOM      1  C   LIG d   1      -7.332  81.165 119.454  0.00  0.00     0.161 C 
ATOM      2  C   LIG d   1      -7.622  79.912 118.887  0.00  0.00     0.016 C 
ATOM      3  C   LIG d   1      -8.845  79.614 118.244  0.00  0.00     0.038 C 
ATOM      4  C   LIG d   1      -9.808  80.601 117.988  0.00  0.00     0.028 C 
ATOM      5  C   LIG d   1      -9.774  81.754 118.985  0.00  0.00    -0.047 C 
ATOM      6  C   LIG d   1      -8.326  82.286 119.087  0.00  0.00     0.091 C 
ENDROOT
BRANCH   1   7
ATOM      7  O   LIG d   1      -5.987  81.555 119.112  0.00  0.00    -0.368 OA
BRANCH   7   8
ATOM      8  C   LIG d   1      -4.928  80.941 119.887  0.00  0.00     0.119 C 
BRANCH   8   9
ATOM      9  C   LIG d   1      -5.133  81.353 121.358  0.00  0.00     0.028 C 
ATOM     10  C   LIG d   1      -5.480  80.157 122.260  0.00  0.00     0.006 C 
ENDBRANCH   8   9
BRANCH   8  11
ATOM     11  C   LIG d   1      -3.556  81.499 119.497  0.00  0.00     0.028 C 
ATOM     12  C   LIG d   1      -2.700  81.881 120.714  0.00  0.00     0.006 C 
ENDBRANCH   8  11
ENDBRANCH   7   8
ENDBRANCH   1   7
BRANCH   6  13
ATOM     13  N   LIG d   1      -8.187  83.361 120.104  0.00  0.00    -0.311 N 
ATOM     14  C   LIG d   1      -8.427  83.178 121.401  0.00  0.00     0.210 C 
ATOM     15  C   LIG d   1      -8.243  84.423 122.275  0.00  0.00     0.109 C 
ATOM     16  O   LIG d   1      -8.744  82.095 121.916  0.00  0.00    -0.276 OA
ATOM     17  H   LIG d   1      -7.903  84.264 119.777  0.00  0.00     0.149 HD
ENDBRANCH   6  13
BRANCH   5  18
ATOM     18  N   LIG d   1     -10.733  82.773 118.521  0.00  0.00     0.381 N 
ATOM     19  H   LIG d   1     -10.458  83.675 118.857  0.00  0.00    -0.090 HD
ATOM     20  H   LIG d   1     -11.641  82.560 118.897  0.00  0.00    -0.090 HD
ATOM     21  H   LIG d   1     -10.771  82.779 117.526  0.00  0.00    -0.090 HD
ENDBRANCH   5  18
BRANCH   3  22
ATOM     22  C   LIG d   1      -9.131  78.305 117.884  0.00  0.00     0.382 C 
ATOM     23  O   LIG d   1     -10.301  77.867 117.991  0.00  0.00    -0.241 OA
ATOM     24  O   LIG d   1      -8.224  77.545 117.495  0.00  0.00    -0.241 OA
ENDBRANCH   3  22
TORSDOF 7
ENDMDL
MODEL 3
REMARK VINA RESULT:      -4.6     22.187     24.701
REMARK  7 active torsions:
REMARK  status: ('A' for Active; 'I' for Inactive)
REMARK    1  A    between atoms: C_2  and  C_3 
REMARK    2  A    between atoms: C_3  and  O_6 
REMARK    3  A    between atoms: C_3  and  C_4 
REMARK    4  A    between atoms: C_7  and  O_6 
REMARK    5  A    between atoms: C_9  and  C_10 
REMARK    6  A    between atoms: N_15  and  C_14 
REMARK    7  A    between atoms: N_20  and  C_19 
REMARK       I    between atoms: C_22  and  N_20 
ROOT
ATOM      1  C   LIG d   1       0.110  58.663 118.824  0.00  0.00     0.161 C 
ATOM      2  C   LIG d   1       1.320  59.375 118.777  0.00  0.00     0.016 C 
ATOM      3  C   LIG d   1       2.590  58.754 118.801  0.00  0.00     0.038 C 
ATOM      4  C   LIG d   1       2.736  57.361 118.720  0.00  0.00     0.028 C 
ATOM      5  C   LIG d   1       1.540  56.594 119.274  0.00  0.00    -0.047 C 
ATOM      6  C   LIG d   1       0.249  57.139 118.623  0.00  0.00     0.091 C 
ENDROOT
BRANCH   1   7
ATOM      7  O   LIG d   1      -0.817  59.212 117.866  0.00  0.00    -0.368 OA
BRANCH   7   8
ATOM      8  C   LIG d   1      -1.713  60.237 118.362  0.00  0.00     0.119 C 
BRANCH   8   9
ATOM      9  C   LIG d   1      -2.297  59.734 119.697  0.00  0.00     0.028 C 
ATOM     10  C   LIG d   1      -1.962  60.668 120.872  0.00  0.00     0.006 C 
ENDBRANCH   8   9
BRANCH   8  11
ATOM     11  C   LIG d   1      -2.918  60.419 117.435  0.00  0.00     0.028 C 
ATOM     12  C   LIG d   1      -4.032  59.393 117.697  0.00  0.00     0.006 C 
ENDBRANCH   8  11
ENDBRANCH   7   8
ENDBRANCH   1   7
BRANCH   6  13
ATOM     13  N   LIG d   1      -0.976  56.500 119.172  0.00  0.00    -0.311 N 
ATOM     14  C   LIG d   1      -2.005  56.120 118.417  0.00  0.00     0.210 C 
ATOM     15  C   LIG d   1      -3.176  55.501 119.185  0.00  0.00     0.109 C 
ATOM     16  O   LIG d   1      -2.046  56.208 117.180  0.00  0.00    -0.276 OA
ATOM     17  H   LIG d   1      -1.014  56.363 120.162  0.00  0.00     0.149 HD
ENDBRANCH   6  13
BRANCH   5  18
ATOM     18  N   LIG d   1       1.765  55.162 119.001  0.00  0.00     0.381 N 
ATOM     19  H   LIG d   1       2.642  54.876 119.389  0.00  0.00    -0.090 HD
ATOM     20  H   LIG d   1       1.800  55.022 118.007  0.00  0.00    -0.090 HD
ATOM     21  H   LIG d   1       1.027  54.620 119.395  0.00  0.00    -0.090 HD
ENDBRANCH   5  18
BRANCH   3  22
ATOM     22  C   LIG d   1       3.731  59.528 118.947  0.00  0.00     0.382 C 
ATOM     23  O   LIG d   1       4.017  60.393 118.084  0.00  0.00    -0.241 OA
ATOM     24  O   LIG d   1       4.502  59.343 119.909  0.00  0.00    -0.241 OA
ENDBRANCH   3  22
TORSDOF 7
ENDMDL
MODEL 4
REMARK VINA RESULT:      -4.5      8.048      9.091
REMARK  7 active torsions:
REMARK  status: ('A' for Active; 'I' for Inactive)
REMARK    1  A    between atoms: C_2  and  C_3 
REMARK    2  A    between atoms: C_3  and  O_6 
REMARK    3  A    between atoms: C_3  and  C_4 
REMARK    4  A    between atoms: C_7  and  O_6 
REMARK    5  A    between atoms: C_9  and  C_10 
REMARK    6  A    between atoms: N_15  and  C_14 
REMARK    7  A    between atoms: N_20  and  C_19 
REMARK       I    between atoms: C_22  and  N_20 
ROOT
ATOM      1  C   LIG d   1     -16.681  75.958 121.041  0.00  0.00     0.161 C 
ATOM      2  C   LIG d   1     -16.652  74.705 120.407  0.00  0.00     0.016 C 
ATOM      3  C   LIG d   1     -17.548  74.331 119.380  0.00  0.00     0.038 C 
ATOM      4  C   LIG d   1     -18.445  75.247 118.809  0.00  0.00     0.028 C 
ATOM      5  C   LIG d   1     -18.853  76.368 119.759  0.00  0.00    -0.047 C 
ATOM      6  C   LIG d   1     -17.579  77.009 120.355  0.00  0.00     0.091 C 
ENDROOT
BRANCH   1   7
ATOM      7  O   LIG d   1     -15.339  76.464 121.186  0.00  0.00    -0.368 OA
BRANCH   7   8
ATOM      8  C   LIG d   1     -14.682  76.177 122.445  0.00  0.00     0.119 C 
BRANCH   8   9
ATOM      9  C   LIG d   1     -15.040  77.312 123.424  0.00  0.00     0.028 C 
ATOM     10  C   LIG d   1     -14.206  78.582 123.178  0.00  0.00     0.006 C 
ENDBRANCH   8   9
BRANCH   8  11
ATOM     11  C   LIG d   1     -13.158  76.228 122.303  0.00  0.00     0.028 C 
ATOM     12  C   LIG d   1     -12.449  75.108 123.081  0.00  0.00     0.006 C 
ENDBRANCH   8  11
ENDBRANCH   7   8
ENDBRANCH   1   7
BRANCH   6  13
ATOM     13  N   LIG d   1     -17.890  78.059 121.360  0.00  0.00    -0.311 N 
ATOM     14  C   LIG d   1     -17.354  79.278 121.336  0.00  0.00     0.210 C 
ATOM     15  C   LIG d   1     -17.795  80.201 122.477  0.00  0.00     0.109 C 
ATOM     16  O   LIG d   1     -16.580  79.693 120.461  0.00  0.00    -0.276 OA
ATOM     17  H   LIG d   1     -18.533  77.817 122.088  0.00  0.00     0.149 HD
ENDBRANCH   6  13
BRANCH   5  18
ATOM     18  N   LIG d   1     -19.677  77.323 118.994  0.00  0.00     0.381 N 
ATOM     19  H   LIG d   1     -20.341  77.760 119.601  0.00  0.00    -0.090 HD
ATOM     20  H   LIG d   1     -20.181  76.821 118.284  0.00  0.00    -0.090 HD
ATOM     21  H   LIG d   1     -19.096  78.014 118.573  0.00  0.00    -0.090 HD
ENDBRANCH   5  18
BRANCH   3  22
ATOM     22  C   LIG d   1     -17.581  73.016 118.941  0.00  0.00     0.382 C 
ATOM     23  O   LIG d   1     -18.393  72.206 119.449  0.00  0.00    -0.241 OA
ATOM     24  O   LIG d   1     -16.779  72.619 118.075  0.00  0.00    -0.241 OA
ENDBRANCH   3  22
TORSDOF 7
ENDMDL
MODEL 5
REMARK VINA RESULT:      -4.5      1.640      2.373
REMARK  7 active torsions:
REMARK  status: ('A' for Active; 'I' for Inactive)
REMARK    1  A    between atoms: C_2  and  C_3 
REMARK    2  A    between atoms: C_3  and  O_6 
REMARK    3  A    between atoms: C_3  and  C_4 
REMARK    4  A    between atoms: C_7  and  O_6 
REMARK    5  A    between atoms: C_9  and  C_10 
REMARK    6  A    between atoms: N_15  and  C_14 
REMARK    7  A    between atoms: N_20  and  C_19 
REMARK       I    between atoms: C_22  and  N_20 
ROOT
ATOM      1  C   LIG d   1     -10.040  80.528 120.585  0.00  0.00     0.161 C 
ATOM      2  C   LIG d   1      -9.865  79.302 119.923  0.00  0.00     0.016 C 
ATOM      3  C   LIG d   1      -9.609  79.196 118.536  0.00  0.00     0.038 C 
ATOM      4  C   LIG d   1      -9.358  80.324 117.740  0.00  0.00     0.028 C 
ATOM      5  C   LIG d   1     -10.023  81.593 118.263  0.00  0.00    -0.047 C 
ATOM      6  C   LIG d   1      -9.661  81.772 119.755  0.00  0.00     0.091 C 
ENDROOT
BRANCH   1   7
ATOM      7  O   LIG d   1      -9.316  80.518 121.832  0.00  0.00    -0.368 OA
BRANCH   7   8
ATOM      8  C   LIG d   1     -10.121  80.472 123.036  0.00  0.00     0.119 C 
BRANCH   8   9
ATOM      9  C   LIG d   1     -10.019  79.045 123.607  0.00  0.00     0.028 C 
ATOM     10  C   LIG d   1      -8.886  78.904 124.637  0.00  0.00     0.006 C 
ENDBRANCH   8   9
BRANCH   8  11
ATOM     11  C   LIG d   1     -11.606  80.678 122.722  0.00  0.00     0.028 C 
ATOM     12  C   LIG d   1     -12.488  79.529 123.236  0.00  0.00     0.006 C 
ENDBRANCH   8  11
ENDBRANCH   7   8
ENDBRANCH   1   7
BRANCH   6  13
ATOM     13  N   LIG d   1     -10.338  82.945 120.366  0.00  0.00    -0.311 N 
ATOM     14  C   LIG d   1      -9.733  83.789 121.200  0.00  0.00     0.210 C 
ATOM     15  C   LIG d   1     -10.620  84.920 121.731  0.00  0.00     0.109 C 
ATOM     16  O   LIG d   1      -8.538  83.728 121.524  0.00  0.00    -0.276 OA
ATOM     17  H   LIG d   1     -11.302  83.088 120.133  0.00  0.00     0.149 HD
ENDBRANCH   6  13
BRANCH   5  18
ATOM     18  N   LIG d   1      -9.568  82.715 117.419  0.00  0.00     0.381 N 
ATOM     19  H   LIG d   1     -10.212  82.856 116.667  0.00  0.00    -0.090 HD
ATOM     20  H   LIG d   1      -8.672  82.484 117.027  0.00  0.00    -0.090 HD
ATOM     21  H   LIG d   1      -9.496  83.545 117.965  0.00  0.00    -0.090 HD
ENDBRANCH   5  18
BRANCH   3  22
ATOM     22  C   LIG d   1      -9.640  77.952 117.924  0.00  0.00     0.382 C 
ATOM     23  O   LIG d   1     -10.706  77.290 117.904  0.00  0.00    -0.241 OA
ATOM     24  O   LIG d   1      -8.605  77.465 117.431  0.00  0.00    -0.241 OA
ENDBRANCH   3  22
TORSDOF 7
ENDMDL
MODEL 6
REMARK VINA RESULT:      -4.5      2.064      5.240
REMARK  7 active torsions:
REMARK  status: ('A' for Active; 'I' for Inactive)
REMARK    1  A    between atoms: C_2  and  C_3 
REMARK    2  A    between atoms: C_3  and  O_6 
REMARK    3  A    between atoms: C_3  and  C_4 
REMARK    4  A    between atoms: C_7  and  O_6 
REMARK    5  A    between atoms: C_9  and  C_10 
REMARK    6  A    between atoms: N_15  and  C_14 
REMARK    7  A    between atoms: N_20  and  C_19 
REMARK       I    between atoms: C_22  and  N_20 
ROOT
ATOM      1  C   LIG d   1      -7.810  82.615 121.136  0.00  0.00     0.161 C 
ATOM      2  C   LIG d   1      -8.457  83.629 121.861  0.00  0.00     0.016 C 
ATOM      3  C   LIG d   1      -9.709  84.172 121.492  0.00  0.00     0.038 C 
ATOM      4  C   LIG d   1     -10.475  83.628 120.449  0.00  0.00     0.028 C 
ATOM      5  C   LIG d   1      -9.636  82.938 119.379  0.00  0.00    -0.047 C 
ATOM      6  C   LIG d   1      -8.681  81.932 120.060  0.00  0.00     0.091 C 
ENDROOT
BRANCH   1   7
ATOM      7  O   LIG d   1      -7.273  81.632 122.043  0.00  0.00    -0.368 OA
BRANCH   7   8
ATOM      8  C   LIG d   1      -5.846  81.700 122.286  0.00  0.00     0.119 C 
BRANCH   8   9
ATOM      9  C   LIG d   1      -5.179  80.602 121.436  0.00  0.00     0.028 C 
ATOM     10  C   LIG d   1      -4.338  81.181 120.286  0.00  0.00     0.006 C 
ENDBRANCH   8   9
BRANCH   8  11
ATOM     11  C   LIG d   1      -5.511  81.349 123.739  0.00  0.00     0.028 C 
ATOM     12  C   LIG d   1      -6.474  81.996 124.746  0.00  0.00     0.006 C 
ENDBRANCH   8  11
ENDBRANCH   7   8
ENDBRANCH   1   7
BRANCH   6  13
ATOM     13  N   LIG d   1      -7.765  81.274 119.092  0.00  0.00    -0.311 N 
ATOM     14  C   LIG d   1      -8.014  80.090 118.536  0.00  0.00     0.210 C 
ATOM     15  C   LIG d   1      -6.930  79.583 117.580  0.00  0.00     0.109 C 
ATOM     16  O   LIG d   1      -9.045  79.425 118.720  0.00  0.00    -0.276 OA
ATOM     17  H   LIG d   1      -6.920  81.759 118.862  0.00  0.00     0.149 HD
ENDBRANCH   6  13
BRANCH   5  18
ATOM     18  N   LIG d   1     -10.566  82.299 118.428  0.00  0.00     0.381 N 
ATOM     19  H   LIG d   1     -11.431  82.802 118.410  0.00  0.00    -0.090 HD
ATOM     20  H   LIG d   1     -10.753  81.361 118.736  0.00  0.00    -0.090 HD
ATOM     21  H   LIG d   1     -10.164  82.283 117.517  0.00  0.00    -0.090 HD
ENDBRANCH   5  18
BRANCH   3  22
ATOM     22  C   LIG d   1     -10.190  85.297 122.144  0.00  0.00     0.382 C 
ATOM     23  O   LIG d   1      -9.451  86.301 122.288  0.00  0.00    -0.241 OA
ATOM     24  O   LIG d   1     -11.337  85.305 122.629  0.00  0.00    -0.241 OA
ENDBRANCH   3  22
TORSDOF 7
ENDMDL
MODEL 7
REMARK VINA RESULT:      -4.4     20.877     23.526
REMARK  7 active torsions:
REMARK  status: ('A' for Active; 'I' for Inactive)
REMARK    1  A    between atoms: C_2  and  C_3 
REMARK    2  A    between atoms: C_3  and  O_6 
REMARK    3  A    between atoms: C_3  and  C_4 
REMARK    4  A    between atoms: C_7  and  O_6 
REMARK    5  A    between atoms: C_9  and  C_10 
REMARK    6  A    between atoms: N_15  and  C_14 
REMARK    7  A    between atoms: N_20  and  C_19 
REMARK       I    between atoms: C_22  and  N_20 
ROOT
ATOM      1  C   LIG d   1      -0.906  59.571 119.773  0.00  0.00     0.161 C 
ATOM      2  C   LIG d   1      -1.531  60.534 120.582  0.00  0.00     0.016 C 
ATOM      3  C   LIG d   1      -1.008  60.966 121.823  0.00  0.00     0.038 C 
ATOM      4  C   LIG d   1       0.262  60.570 122.271  0.00  0.00     0.028 C 
ATOM      5  C   LIG d   1       0.699  59.213 121.729  0.00  0.00    -0.047 C 
ATOM      6  C   LIG d   1       0.535  59.210 120.192  0.00  0.00     0.091 C 
ENDROOT
BRANCH   1   7
ATOM      7  O   LIG d   1      -0.936  59.995 118.396  0.00  0.00    -0.368 OA
BRANCH   7   8
ATOM      8  C   LIG d   1      -1.776  59.218 117.507  0.00  0.00     0.119 C 
BRANCH   8   9
ATOM      9  C   LIG d   1      -3.017  60.070 117.180  0.00  0.00     0.028 C 
ATOM     10  C   LIG d   1      -4.218  59.727 118.078  0.00  0.00     0.006 C 
ENDBRANCH   8   9
BRANCH   8  11
ATOM     11  C   LIG d   1      -2.315  57.966 118.204  0.00  0.00     0.028 C 
ATOM     12  C   LIG d   1      -2.110  56.687 117.376  0.00  0.00     0.006 C 
ENDBRANCH   8  11
ENDBRANCH   7   8
ENDBRANCH   1   7
BRANCH   6  13
ATOM     13  N   LIG d   1       0.861  57.891 119.590  0.00  0.00    -0.311 N 
ATOM     14  C   LIG d   1       1.964  57.663 118.878  0.00  0.00     0.210 C 
ATOM     15  C   LIG d   1       2.097  56.238 118.331  0.00  0.00     0.109 C 
ATOM     16  O   LIG d   1       2.860  58.496 118.675  0.00  0.00    -0.276 OA
ATOM     17  H   LIG d   1       0.204  57.150 119.731  0.00  0.00     0.149 HD
ENDBRANCH   6  13
BRANCH   5  18
ATOM     18  N   LIG d   1       2.091  58.989 122.162  0.00  0.00     0.381 N 
ATOM     19  H   LIG d   1       2.360  58.046 121.962  0.00  0.00    -0.090 HD
ATOM     20  H   LIG d   1       2.149  59.129 123.155  0.00  0.00    -0.090 HD
ATOM     21  H   LIG d   1       2.701  59.622 121.693  0.00  0.00    -0.090 HD
ENDBRANCH   5  18
BRANCH   3  22
ATOM     22  C   LIG d   1      -1.776  61.772 122.649  0.00  0.00     0.382 C 
ATOM     23  O   LIG d   1      -1.520  62.996 122.744  0.00  0.00    -0.241 OA
ATOM     24  O   LIG d   1      -2.693  61.282 123.335  0.00  0.00    -0.241 OA
ENDBRANCH   3  22
TORSDOF 7
ENDMDL
MODEL 8
REMARK VINA RESULT:      -4.4      2.731      5.789
REMARK  7 active torsions:
REMARK  status: ('A' for Active; 'I' for Inactive)
REMARK    1  A    between atoms: C_2  and  C_3 
REMARK    2  A    between atoms: C_3  and  O_6 
REMARK    3  A    between atoms: C_3  and  C_4 
REMARK    4  A    between atoms: C_7  and  O_6 
REMARK    5  A    between atoms: C_9  and  C_10 
REMARK    6  A    between atoms: N_15  and  C_14 
REMARK    7  A    between atoms: N_20  and  C_19 
REMARK       I    between atoms: C_22  and  N_20 
ROOT
ATOM      1  C   LIG d   1      -8.764  82.465 120.252  0.00  0.00     0.161 C 
ATOM      2  C   LIG d   1      -9.521  83.604 120.573  0.00  0.00     0.016 C 
ATOM      3  C   LIG d   1      -9.340  84.351 121.760  0.00  0.00     0.038 C 
ATOM      4  C   LIG d   1      -8.280  84.095 122.642  0.00  0.00     0.028 C 
ATOM      5  C   LIG d   1      -7.805  82.646 122.614  0.00  0.00    -0.047 C 
ATOM      6  C   LIG d   1      -7.529  82.237 121.149  0.00  0.00     0.091 C 
ENDROOT
BRANCH   1   7
ATOM      7  O   LIG d   1      -8.375  82.512 118.865  0.00  0.00    -0.368 OA
BRANCH   7   8
ATOM      8  C   LIG d   1      -8.914  81.469 118.017  0.00  0.00     0.119 C 
BRANCH   8   9
ATOM      9  C   LIG d   1      -9.951  80.687 118.846  0.00  0.00     0.028 C 
ATOM     10  C   LIG d   1      -9.812  79.165 118.676  0.00  0.00     0.006 C 
ENDBRANCH   8   9
BRANCH   8  11
ATOM     11  C   LIG d   1      -7.839  80.444 117.642  0.00  0.00     0.028 C 
ATOM     12  C   LIG d   1      -6.464  81.086 117.396  0.00  0.00     0.006 C 
ENDBRANCH   8  11
ENDBRANCH   7   8
ENDBRANCH   1   7
BRANCH   6  13
ATOM     13  N   LIG d   1      -7.141  80.808 121.023  0.00  0.00    -0.311 N 
ATOM     14  C   LIG d   1      -5.876  80.393 120.978  0.00  0.00     0.210 C 
ATOM     15  C   LIG d   1      -5.696  78.880 120.827  0.00  0.00     0.109 C 
ATOM     16  O   LIG d   1      -4.885  81.132 121.082  0.00  0.00    -0.276 OA
ATOM     17  H   LIG d   1      -7.882  80.137 120.965  0.00  0.00     0.149 HD
ENDBRANCH   6  13
BRANCH   5  18
ATOM     18  N   LIG d   1      -6.611  82.552 123.475  0.00  0.00     0.381 N 
ATOM     19  H   LIG d   1      -6.847  82.096 124.333  0.00  0.00    -0.090 HD
ATOM     20  H   LIG d   1      -6.290  83.480 123.689  0.00  0.00    -0.090 HD
ATOM     21  H   LIG d   1      -5.892  82.044 123.007  0.00  0.00    -0.090 HD
ENDBRANCH   5  18
BRANCH   3  22
ATOM     22  C   LIG d   1     -10.251  85.342 122.094  0.00  0.00     0.382 C 
ATOM     23  O   LIG d   1     -11.475  85.074 122.154  0.00  0.00    -0.241 OA
ATOM     24  O   LIG d   1      -9.868  86.510 122.294  0.00  0.00    -0.241 OA
ENDBRANCH   3  22
TORSDOF 7
ENDMDL
MODEL 9
REMARK VINA RESULT:      -4.3     21.524     23.601
REMARK  7 active torsions:
REMARK  status: ('A' for Active; 'I' for Inactive)
REMARK    1  A    between atoms: C_2  and  C_3 
REMARK    2  A    between atoms: C_3  and  O_6 
REMARK    3  A    between atoms: C_3  and  C_4 
REMARK    4  A    between atoms: C_7  and  O_6 
REMARK    5  A    between atoms: C_9  and  C_10 
REMARK    6  A    between atoms: N_15  and  C_14 
REMARK    7  A    between atoms: N_20  and  C_19 
REMARK       I    between atoms: C_22  and  N_20 
ROOT
ATOM      1  C   LIG d   1      -0.522  59.725 119.364  0.00  0.00     0.161 C 
ATOM      2  C   LIG d   1      -1.884  59.390 119.271  0.00  0.00     0.016 C 
ATOM      3  C   LIG d   1      -2.360  58.250 118.583  0.00  0.00     0.038 C 
ATOM      4  C   LIG d   1      -1.489  57.279 118.067  0.00  0.00     0.028 C 
ATOM      5  C   LIG d   1      -0.116  57.831 117.697  0.00  0.00    -0.047 C 
ATOM      6  C   LIG d   1       0.449  58.618 118.902  0.00  0.00     0.091 C 
ENDROOT
BRANCH   1   7
ATOM      7  O   LIG d   1      -0.211  60.135 120.710  0.00  0.00    -0.368 OA
BRANCH   7   8
ATOM      8  C   LIG d   1      -1.314  60.130 121.649  0.00  0.00     0.119 C 
BRANCH   8   9
ATOM      9  C   LIG d   1      -1.360  61.518 122.316  0.00  0.00     0.028 C 
ATOM     10  C   LIG d   1      -0.080  61.832 123.109  0.00  0.00     0.006 C 
ENDBRANCH   8   9
BRANCH   8  11
ATOM     11  C   LIG d   1      -1.069  59.139 122.791  0.00  0.00     0.028 C 
ATOM     12  C   LIG d   1      -2.251  58.182 123.013  0.00  0.00     0.006 C 
ENDBRANCH   8  11
ENDBRANCH   7   8
ENDBRANCH   1   7
BRANCH   6  13
ATOM     13  N   LIG d   1       1.752  59.263 118.596  0.00  0.00    -0.311 N 
ATOM     14  C   LIG d   1       2.883  58.969 119.236  0.00  0.00     0.210 C 
ATOM     15  C   LIG d   1       4.110  59.764 118.779  0.00  0.00     0.109 C 
ATOM     16  O   LIG d   1       2.993  58.102 120.116  0.00  0.00    -0.276 OA
ATOM     17  H   LIG d   1       1.760  59.956 117.874  0.00  0.00     0.149 HD
ENDBRANCH   6  13
BRANCH   5  18
ATOM     18  N   LIG d   1       0.732  56.690 117.304  0.00  0.00     0.381 N 
ATOM     19  H   LIG d   1       0.973  56.765 116.336  0.00  0.00    -0.090 HD
ATOM     20  H   LIG d   1       0.213  55.839 117.434  0.00  0.00    -0.090 HD
ATOM     21  H   LIG d   1       1.559  56.672 117.859  0.00  0.00    -0.090 HD
ENDBRANCH   5  18
BRANCH   3  22
ATOM     22  C   LIG d   1      -3.721  58.093 118.372  0.00  0.00     0.382 C 
ATOM     23  O   LIG d   1      -4.300  57.050 118.760  0.00  0.00    -0.241 OA
ATOM     24  O   LIG d   1      -4.369  58.962 117.759  0.00  0.00    -0.241 OA
ENDBRANCH   3  22
TORSDOF 7
ENDMDL
