MODEL 1
REMARK VINA RESULT:      -4.6      0.000      0.000
REMARK  7 active torsions:
REMARK  status: ('A' for Active; 'I' for Inactive)
REMARK    1  A    between atoms: C_2  and  C_3 
REMARK    2  A    between atoms: C_3  and  O_6 
REMARK    3  A    between atoms: C_3  and  C_4 
REMARK    4  A    between atoms: C_7  and  O_6 
REMARK    5  A    between atoms: C_9  and  C_10 
REMARK    6  A    between atoms: N_15  and  C_14 
REMARK    7  A    between atoms: N_20  and  C_19 
REMARK       I    between atoms: C_22  and  N_20 
ROOT
ATOM      1  C   LIG d   1     -17.199  77.281 119.835  0.00  0.00     0.161 C 
ATOM      2  C   LIG d   1     -17.669  78.542 120.236  0.00  0.00     0.016 C 
ATOM      3  C   LIG d   1     -19.040  78.885 120.276  0.00  0.00     0.038 C 
ATOM      4  C   LIG d   1     -20.049  77.934 120.062  0.00  0.00     0.028 C 
ATOM      5  C   LIG d   1     -19.613  76.782 119.163  0.00  0.00    -0.047 C 
ATOM      6  C   LIG d   1     -18.289  76.196 119.704  0.00  0.00     0.091 C 
ENDROOT
BRANCH   1   7
ATOM      7  O   LIG d   1     -16.159  76.840 120.730  0.00  0.00    -0.368 OA
BRANCH   7   8
ATOM      8  C   LIG d   1     -16.286  77.260 122.110  0.00  0.00     0.119 C 
BRANCH   8   9
ATOM      9  C   LIG d   1     -14.868  77.305 122.713  0.00  0.00     0.028 C 
ATOM     10  C   LIG d   1     -14.493  75.998 123.431  0.00  0.00     0.006 C 
ENDBRANCH   8   9
BRANCH   8  11
ATOM     11  C   LIG d   1     -17.046  76.221 122.941  0.00  0.00     0.028 C 
ATOM     12  C   LIG d   1     -18.397  76.742 123.455  0.00  0.00     0.006 C 
ENDBRANCH   8  11
ENDBRANCH   7   8
ENDBRANCH   1   7
BRANCH   6  13
ATOM     13  N   LIG d   1     -17.749  75.118 118.835  0.00  0.00    -0.311 N 
ATOM     14  C   LIG d   1     -17.224  73.989 119.308  0.00  0.00     0.210 C 
ATOM     15  C   LIG d   1     -16.707  73.020 118.240  0.00  0.00     0.109 C 
ATOM     16  O   LIG d   1     -17.166  73.685 120.508  0.00  0.00    -0.276 OA
ATOM     17  H   LIG d   1     -17.784  75.269 117.846  0.00  0.00     0.149 HD
ENDBRANCH   6  13
BRANCH   5  18
ATOM     18  N   LIG d   1     -20.712  75.798 119.136  0.00  0.00     0.381 N 
ATOM     19  H   LIG d   1     -21.036  75.677 118.197  0.00  0.00    -0.090 HD
ATOM     20  H   LIG d   1     -21.474  76.146 119.690  0.00  0.00    -0.090 HD
ATOM     21  H   LIG d   1     -20.398  74.926 119.501  0.00  0.00    -0.090 HD
ENDBRANCH   5  18
BRANCH   3  22
ATOM     22  C   LIG d   1     -19.413  80.203 120.495  0.00  0.00     0.382 C 
ATOM     23  O   LIG d   1     -19.445  81.013 119.538  0.00  0.00    -0.241 OA
ATOM     24  O   LIG d   1     -19.675  80.602 121.646  0.00  0.00    -0.241 OA
ENDBRANCH   3  22
TORSDOF 7
ENDMDL
MODEL 2
REMARK VINA RESULT:      -4.5     18.985     20.645
REMARK  7 active torsions:
REMARK  status: ('A' for Active; 'I' for Inactive)
REMARK    1  A    between atoms: C_2  and  C_3 
REMARK    2  A    between atoms: C_3  and  O_6 
REMARK    3  A    between atoms: C_3  and  C_4 
REMARK    4  A    between atoms: C_7  and  O_6 
REMARK    5  A    between atoms: C_9  and  C_10 
REMARK    6  A    between atoms: N_15  and  C_14 
REMARK    7  A    between atoms: N_20  and  C_19 
REMARK       I    between atoms: C_22  and  N_20 
ROOT
ATOM      1  C   LIG d   1      -3.008  89.942 118.717  0.00  0.00     0.161 C 
ATOM      2  C   LIG d   1      -4.372  90.023 118.388  0.00  0.00     0.016 C 
ATOM      3  C   LIG d   1      -4.960  91.158 117.785  0.00  0.00     0.038 C 
ATOM      4  C   LIG d   1      -4.191  92.239 117.329  0.00  0.00     0.028 C 
ATOM      5  C   LIG d   1      -2.884  92.417 118.094  0.00  0.00    -0.047 C 
ATOM      6  C   LIG d   1      -2.132  91.067 118.126  0.00  0.00     0.091 C 
ENDROOT
BRANCH   1   7
ATOM      7  O   LIG d   1      -2.490  88.652 118.337  0.00  0.00    -0.368 OA
BRANCH   7   8
ATOM      8  C   LIG d   1      -1.837  87.894 119.385  0.00  0.00     0.119 C 
BRANCH   8   9
ATOM      9  C   LIG d   1      -0.521  87.340 118.805  0.00  0.00     0.028 C 
ATOM     10  C   LIG d   1      -0.381  87.617 117.299  0.00  0.00     0.006 C 
ENDBRANCH   8   9
BRANCH   8  11
ATOM     11  C   LIG d   1      -2.658  86.662 119.777  0.00  0.00     0.028 C 
ATOM     12  C   LIG d   1      -1.820  85.374 119.814  0.00  0.00     0.006 C 
ENDBRANCH   8  11
ENDBRANCH   7   8
ENDBRANCH   1   7
BRANCH   6  13
ATOM     13  N   LIG d   1      -0.883  91.132 118.928  0.00  0.00    -0.311 N 
ATOM     14  C   LIG d   1       0.325  91.296 118.391  0.00  0.00     0.210 C 
ATOM     15  C   LIG d   1       1.482  91.316 119.395  0.00  0.00     0.109 C 
ATOM     16  O   LIG d   1       0.545  91.460 117.182  0.00  0.00    -0.276 OA
ATOM     17  H   LIG d   1      -0.973  91.039 119.921  0.00  0.00     0.149 HD
ENDBRANCH   6  13
BRANCH   5  18
ATOM     18  N   LIG d   1      -2.120  93.489 117.428  0.00  0.00     0.381 N 
ATOM     19  H   LIG d   1      -2.410  94.380 117.778  0.00  0.00    -0.090 HD
ATOM     20  H   LIG d   1      -2.311  93.460 116.442  0.00  0.00    -0.090 HD
ATOM     21  H   LIG d   1      -1.145  93.362 117.588  0.00  0.00    -0.090 HD
ENDBRANCH   5  18
BRANCH   3  22
ATOM     22  C   LIG d   1      -6.340  91.237 117.669  0.00  0.00     0.382 C 
ATOM     23  O   LIG d   1      -6.984  90.274 117.187  0.00  0.00    -0.241 OA
ATOM     24  O   LIG d   1      -6.943  92.276 117.998  0.00  0.00    -0.241 OA
ENDBRANCH   3  22
TORSDOF 7
ENDMDL
MODEL 3
REMARK VINA RESULT:      -4.5      2.338      5.395
REMARK  7 active torsions:
REMARK  status: ('A' for Active; 'I' for Inactive)
REMARK    1  A    between atoms: C_2  and  C_3 
REMARK    2  A    between atoms: C_3  and  O_6 
REMARK    3  A    between atoms: C_3  and  C_4 
REMARK    4  A    between atoms: C_7  and  O_6 
REMARK    5  A    between atoms: C_9  and  C_10 
REMARK    6  A    between atoms: N_15  and  C_14 
REMARK    7  A    between atoms: N_20  and  C_19 
REMARK       I    between atoms: C_22  and  N_20 
ROOT
ATOM      1  C   LIG d   1     -17.088  77.732 120.060  0.00  0.00     0.161 C 
ATOM      2  C   LIG d   1     -16.096  77.003 120.737  0.00  0.00     0.016 C 
ATOM      3  C   LIG d   1     -15.683  77.292 122.058  0.00  0.00     0.038 C 
ATOM      4  C   LIG d   1     -16.345  78.241 122.850  0.00  0.00     0.028 C 
ATOM      5  C   LIG d   1     -17.016  79.345 122.040  0.00  0.00    -0.047 C 
ATOM      6  C   LIG d   1     -17.898  78.699 120.947  0.00  0.00     0.091 C 
ENDROOT
BRANCH   1   7
ATOM      7  O   LIG d   1     -17.971  76.828 119.367  0.00  0.00    -0.368 OA
BRANCH   7   8
ATOM      8  C   LIG d   1     -18.372  75.643 120.098  0.00  0.00     0.119 C 
BRANCH   8   9
ATOM      9  C   LIG d   1     -17.982  74.420 119.247  0.00  0.00     0.028 C 
ATOM     10  C   LIG d   1     -17.090  73.430 120.016  0.00  0.00     0.006 C 
ENDBRANCH   8   9
BRANCH   8  11
ATOM     11  C   LIG d   1     -19.895  75.567 120.244  0.00  0.00     0.028 C 
ATOM     12  C   LIG d   1     -20.626  76.642 119.424  0.00  0.00     0.006 C 
ENDBRANCH   8  11
ENDBRANCH   7   8
ENDBRANCH   1   7
BRANCH   6  13
ATOM     13  N   LIG d   1     -18.526  79.709 120.055  0.00  0.00    -0.311 N 
ATOM     14  C   LIG d   1     -19.744  80.209 120.257  0.00  0.00     0.210 C 
ATOM     15  C   LIG d   1     -20.208  81.223 119.206  0.00  0.00     0.109 C 
ATOM     16  O   LIG d   1     -20.471  79.933 121.222  0.00  0.00    -0.276 OA
ATOM     17  H   LIG d   1     -17.993  80.013 119.264  0.00  0.00     0.149 HD
ENDBRANCH   6  13
BRANCH   5  18
ATOM     18  N   LIG d   1     -17.782  80.185 122.980  0.00  0.00     0.381 N 
ATOM     19  H   LIG d   1     -18.075  81.025 122.523  0.00  0.00    -0.090 HD
ATOM     20  H   LIG d   1     -17.188  80.436 123.751  0.00  0.00    -0.090 HD
ATOM     21  H   LIG d   1     -18.577  79.686 123.313  0.00  0.00    -0.090 HD
ENDBRANCH   5  18
BRANCH   3  22
ATOM     22  C   LIG d   1     -14.570  76.655 122.585  0.00  0.00     0.382 C 
ATOM     23  O   LIG d   1     -14.713  75.647 123.318  0.00  0.00    -0.241 OA
ATOM     24  O   LIG d   1     -13.426  77.102 122.373  0.00  0.00    -0.241 OA
ENDBRANCH   3  22
TORSDOF 7
ENDMDL
MODEL 4
REMARK VINA RESULT:      -4.5     23.240     26.138
REMARK  7 active torsions:
REMARK  status: ('A' for Active; 'I' for Inactive)
REMARK    1  A    between atoms: C_2  and  C_3 
REMARK    2  A    between atoms: C_3  and  O_6 
REMARK    3  A    between atoms: C_3  and  C_4 
REMARK    4  A    between atoms: C_7  and  O_6 
REMARK    5  A    between atoms: C_9  and  C_10 
REMARK    6  A    between atoms: N_15  and  C_14 
REMARK    7  A    between atoms: N_20  and  C_19 
REMARK       I    between atoms: C_22  and  N_20 
ROOT
ATOM      1  C   LIG d   1       1.163  59.435 118.870  0.00  0.00     0.161 C 
ATOM      2  C   LIG d   1       0.381  60.499 119.347  0.00  0.00     0.016 C 
ATOM      3  C   LIG d   1      -0.611  60.351 120.343  0.00  0.00     0.038 C 
ATOM      4  C   LIG d   1      -0.786  59.147 121.042  0.00  0.00     0.028 C 
ATOM      5  C   LIG d   1      -0.366  57.917 120.244  0.00  0.00    -0.047 C 
ATOM      6  C   LIG d   1       1.064  58.137 119.699  0.00  0.00     0.091 C 
ENDROOT
BRANCH   1   7
ATOM      7  O   LIG d   1       2.538  59.852 118.755  0.00  0.00    -0.368 OA
BRANCH   7   8
ATOM      8  C   LIG d   1       2.951  60.935 119.624  0.00  0.00     0.119 C 
BRANCH   8   9
ATOM      9  C   LIG d   1       4.022  61.749 118.872  0.00  0.00     0.028 C 
ATOM     10  C   LIG d   1       5.307  61.931 119.697  0.00  0.00     0.006 C 
ENDBRANCH   8   9
BRANCH   8  11
ATOM     11  C   LIG d   1       3.650  60.406 120.880  0.00  0.00     0.028 C 
ATOM     12  C   LIG d   1       2.830  60.635 122.159  0.00  0.00     0.006 C 
ENDBRANCH   8  11
ENDBRANCH   7   8
ENDBRANCH   1   7
BRANCH   6  13
ATOM     13  N   LIG d   1       1.520  57.016 118.836  0.00  0.00    -0.311 N 
ATOM     14  C   LIG d   1       2.671  56.371 119.020  0.00  0.00     0.210 C 
ATOM     15  C   LIG d   1       2.958  55.260 118.005  0.00  0.00     0.109 C 
ATOM     16  O   LIG d   1       3.465  56.591 119.947  0.00  0.00    -0.276 OA
ATOM     17  H   LIG d   1       0.922  56.751 118.079  0.00  0.00     0.149 HD
ENDBRANCH   6  13
BRANCH   5  18
ATOM     18  N   LIG d   1      -0.470  56.749 121.139  0.00  0.00     0.381 N 
ATOM     19  H   LIG d   1      -0.949  57.006 121.978  0.00  0.00    -0.090 HD
ATOM     20  H   LIG d   1       0.456  56.444 121.385  0.00  0.00    -0.090 HD
ATOM     21  H   LIG d   1      -0.959  56.011 120.681  0.00  0.00    -0.090 HD
ENDBRANCH   5  18
BRANCH   3  22
ATOM     22  C   LIG d   1      -1.469  61.404 120.621  0.00  0.00     0.382 C 
ATOM     23  O   LIG d   1      -2.441  61.638 119.863  0.00  0.00    -0.241 OA
ATOM     24  O   LIG d   1      -1.258  62.150 121.596  0.00  0.00    -0.241 OA
ENDBRANCH   3  22
TORSDOF 7
ENDMDL
MODEL 5
REMARK VINA RESULT:      -4.4      2.433      5.667
REMARK  7 active torsions:
REMARK  status: ('A' for Active; 'I' for Inactive)
REMARK    1  A    between atoms: C_2  and  C_3 
REMARK    2  A    between atoms: C_3  and  O_6 
REMARK    3  A    between atoms: C_3  and  C_4 
REMARK    4  A    between atoms: C_7  and  O_6 
REMARK    5  A    between atoms: C_9  and  C_10 
REMARK    6  A    between atoms: N_15  and  C_14 
REMARK    7  A    between atoms: N_20  and  C_19 
REMARK       I    between atoms: C_22  and  N_20 
ROOT
ATOM      1  C   LIG d   1     -16.738  76.505 119.888  0.00  0.00     0.161 C 
ATOM      2  C   LIG d   1     -16.885  75.300 119.182  0.00  0.00     0.016 C 
ATOM      3  C   LIG d   1     -17.007  74.039 119.811  0.00  0.00     0.038 C 
ATOM      4  C   LIG d   1     -17.143  73.915 121.202  0.00  0.00     0.028 C 
ATOM      5  C   LIG d   1     -16.495  75.056 121.979  0.00  0.00    -0.047 C 
ATOM      6  C   LIG d   1     -16.996  76.401 121.406  0.00  0.00     0.091 C 
ENDROOT
BRANCH   1   7
ATOM      7  O   LIG d   1     -17.581  77.519 119.305  0.00  0.00    -0.368 OA
BRANCH   7   8
ATOM      8  C   LIG d   1     -18.836  77.773 119.984  0.00  0.00     0.119 C 
BRANCH   8   9
ATOM      9  C   LIG d   1     -19.946  77.060 119.188  0.00  0.00     0.028 C 
ATOM     10  C   LIG d   1     -20.547  75.870 119.954  0.00  0.00     0.006 C 
ENDBRANCH   8   9
BRANCH   8  11
ATOM     11  C   LIG d   1     -19.199  79.260 119.946  0.00  0.00     0.028 C 
ATOM     12  C   LIG d   1     -19.793  79.763 121.271  0.00  0.00     0.006 C 
ENDBRANCH   8  11
ENDBRANCH   7   8
ENDBRANCH   1   7
BRANCH   6  13
ATOM     13  N   LIG d   1     -16.346  77.570 122.054  0.00  0.00    -0.311 N 
ATOM     14  C   LIG d   1     -16.871  78.219 123.092  0.00  0.00     0.210 C 
ATOM     15  C   LIG d   1     -16.048  79.409 123.595  0.00  0.00     0.109 C 
ATOM     16  O   LIG d   1     -17.924  77.902 123.665  0.00  0.00    -0.276 OA
ATOM     17  H   LIG d   1     -15.472  77.876 121.672  0.00  0.00     0.149 HD
ENDBRANCH   6  13
BRANCH   5  18
ATOM     18  N   LIG d   1     -16.830  74.873 123.403  0.00  0.00     0.381 N 
ATOM     19  H   LIG d   1     -17.253  73.976 123.539  0.00  0.00    -0.090 HD
ATOM     20  H   LIG d   1     -17.492  75.578 123.675  0.00  0.00    -0.090 HD
ATOM     21  H   LIG d   1     -16.007  74.947 123.960  0.00  0.00    -0.090 HD
ENDBRANCH   5  18
BRANCH   3  22
ATOM     22  C   LIG d   1     -16.954  72.883 119.049  0.00  0.00     0.382 C 
ATOM     23  O   LIG d   1     -16.594  72.939 117.848  0.00  0.00    -0.241 OA
ATOM     24  O   LIG d   1     -17.303  71.790 119.534  0.00  0.00    -0.241 OA
ENDBRANCH   3  22
TORSDOF 7
ENDMDL
MODEL 6
REMARK VINA RESULT:      -4.3      1.990      2.845
REMARK  7 active torsions:
REMARK  status: ('A' for Active; 'I' for Inactive)
REMARK    1  A    between atoms: C_2  and  C_3 
REMARK    2  A    between atoms: C_3  and  O_6 
REMARK    3  A    between atoms: C_3  and  C_4 
REMARK    4  A    between atoms: C_7  and  O_6 
REMARK    5  A    between atoms: C_9  and  C_10 
REMARK    6  A    between atoms: N_15  and  C_14 
REMARK    7  A    between atoms: N_20  and  C_19 
REMARK       I    between atoms: C_22  and  N_20 
ROOT
ATOM      1  C   LIG d   1     -19.198  77.862 119.172  0.00  0.00     0.161 C 
ATOM      2  C   LIG d   1     -19.119  79.263 119.241  0.00  0.00     0.016 C 
ATOM      3  C   LIG d   1     -20.087  80.066 119.887  0.00  0.00     0.038 C 
ATOM      4  C   LIG d   1     -21.129  79.508 120.643  0.00  0.00     0.028 C 
ATOM      5  C   LIG d   1     -21.533  78.113 120.179  0.00  0.00    -0.047 C 
ATOM      6  C   LIG d   1     -20.268  77.229 120.086  0.00  0.00     0.091 C 
ENDROOT
BRANCH   1   7
ATOM      7  O   LIG d   1     -17.905  77.286 119.442  0.00  0.00    -0.368 OA
BRANCH   7   8
ATOM      8  C   LIG d   1     -17.678  76.835 120.800  0.00  0.00     0.119 C 
BRANCH   8   9
ATOM      9  C   LIG d   1     -16.603  77.748 121.418  0.00  0.00     0.028 C 
ATOM     10  C   LIG d   1     -17.202  78.803 122.364  0.00  0.00     0.006 C 
ENDBRANCH   8   9
BRANCH   8  11
ATOM     11  C   LIG d   1     -17.078  75.426 120.826  0.00  0.00     0.028 C 
ATOM     12  C   LIG d   1     -17.053  74.763 119.439  0.00  0.00     0.006 C 
ENDBRANCH   8  11
ENDBRANCH   7   8
ENDBRANCH   1   7
BRANCH   6  13
ATOM     13  N   LIG d   1     -20.563  75.871 119.559  0.00  0.00    -0.311 N 
ATOM     14  C   LIG d   1     -20.764  74.810 120.339  0.00  0.00     0.210 C 
ATOM     15  C   LIG d   1     -21.033  73.500 119.591  0.00  0.00     0.109 C 
ATOM     16  O   LIG d   1     -20.777  74.835 121.578  0.00  0.00    -0.276 OA
ATOM     17  H   LIG d   1     -20.602  75.767 118.564  0.00  0.00     0.149 HD
ENDBRANCH   6  13
BRANCH   5  18
ATOM     18  N   LIG d   1     -22.530  77.596 121.136  0.00  0.00     0.381 N 
ATOM     19  H   LIG d   1     -22.068  77.090 121.866  0.00  0.00    -0.090 HD
ATOM     20  H   LIG d   1     -23.146  76.965 120.655  0.00  0.00    -0.090 HD
ATOM     21  H   LIG d   1     -23.052  78.351 121.525  0.00  0.00    -0.090 HD
ENDBRANCH   5  18
BRANCH   3  22
ATOM     22  C   LIG d   1     -20.041  81.445 119.746  0.00  0.00     0.382 C 
ATOM     23  O   LIG d   1     -19.501  81.954 118.734  0.00  0.00    -0.241 OA
ATOM     24  O   LIG d   1     -20.493  82.187 120.639  0.00  0.00    -0.241 OA
ENDBRANCH   3  22
TORSDOF 7
ENDMDL
MODEL 7
REMARK VINA RESULT:      -4.3     19.893     21.731
REMARK  7 active torsions:
REMARK  status: ('A' for Active; 'I' for Inactive)
REMARK    1  A    between atoms: C_2  and  C_3 
REMARK    2  A    between atoms: C_3  and  O_6 
REMARK    3  A    between atoms: C_3  and  C_4 
REMARK    4  A    between atoms: C_7  and  O_6 
REMARK    5  A    between atoms: C_9  and  C_10 
REMARK    6  A    between atoms: N_15  and  C_14 
REMARK    7  A    between atoms: N_20  and  C_19 
REMARK       I    between atoms: C_22  and  N_20 
ROOT
ATOM      1  C   LIG d   1      -3.912  92.978 119.297  0.00  0.00     0.161 C 
ATOM      2  C   LIG d   1      -3.099  91.934 118.825  0.00  0.00     0.016 C 
ATOM      3  C   LIG d   1      -3.602  90.806 118.137  0.00  0.00     0.038 C 
ATOM      4  C   LIG d   1      -4.945  90.719 117.739  0.00  0.00     0.028 C 
ATOM      5  C   LIG d   1      -5.894  91.509 118.633  0.00  0.00    -0.047 C 
ATOM      6  C   LIG d   1      -5.364  92.954 118.775  0.00  0.00     0.091 C 
ENDROOT
BRANCH   1   7
ATOM      7  O   LIG d   1      -3.296  94.248 119.005  0.00  0.00    -0.368 OA
BRANCH   7   8
ATOM      8  C   LIG d   1      -2.448  94.798 120.043  0.00  0.00     0.119 C 
BRANCH   8   9
ATOM      9  C   LIG d   1      -3.304  95.779 120.868  0.00  0.00     0.028 C 
ATOM     10  C   LIG d   1      -4.161  96.699 119.982  0.00  0.00     0.006 C 
ENDBRANCH   8   9
BRANCH   8  11
ATOM     11  C   LIG d   1      -1.319  95.646 119.449  0.00  0.00     0.028 C 
ATOM     12  C   LIG d   1      -1.227  95.527 117.919  0.00  0.00     0.006 C 
ENDBRANCH   8  11
ENDBRANCH   7   8
ENDBRANCH   1   7
BRANCH   6  13
ATOM     13  N   LIG d   1      -6.189  93.771 119.702  0.00  0.00    -0.311 N 
ATOM     14  C   LIG d   1      -7.204  94.534 119.301  0.00  0.00     0.210 C 
ATOM     15  C   LIG d   1      -7.910  95.311 120.417  0.00  0.00     0.109 C 
ATOM     16  O   LIG d   1      -7.608  94.617 118.131  0.00  0.00    -0.276 OA
ATOM     17  H   LIG d   1      -5.951  93.740 120.674  0.00  0.00     0.149 HD
ENDBRANCH   6  13
BRANCH   5  18
ATOM     18  N   LIG d   1      -7.237  91.443 118.025  0.00  0.00     0.381 N 
ATOM     19  H   LIG d   1      -7.253  90.737 117.316  0.00  0.00    -0.090 HD
ATOM     20  H   LIG d   1      -7.443  92.327 117.595  0.00  0.00    -0.090 HD
ATOM     21  H   LIG d   1      -7.918  91.238 118.724  0.00  0.00    -0.090 HD
ENDBRANCH   5  18
BRANCH   3  22
ATOM     22  C   LIG d   1      -2.766  89.732 117.875  0.00  0.00     0.382 C 
ATOM     23  O   LIG d   1      -3.185  88.559 118.028  0.00  0.00    -0.241 OA
ATOM     24  O   LIG d   1      -1.584  89.920 117.530  0.00  0.00    -0.241 OA
ENDBRANCH   3  22
TORSDOF 7
ENDMDL
MODEL 8
REMARK VINA RESULT:      -4.2      9.069     11.050
REMARK  7 active torsions:
REMARK  status: ('A' for Active; 'I' for Inactive)
REMARK    1  A    between atoms: C_2  and  C_3 
REMARK    2  A    between atoms: C_3  and  O_6 
REMARK    3  A    between atoms: C_3  and  C_4 
REMARK    4  A    between atoms: C_7  and  O_6 
REMARK    5  A    between atoms: C_9  and  C_10 
REMARK    6  A    between atoms: N_15  and  C_14 
REMARK    7  A    between atoms: N_20  and  C_19 
REMARK       I    between atoms: C_22  and  N_20 
ROOT
ATOM      1  C   LIG d   1      -8.454  80.568 121.167  0.00  0.00     0.161 C 
ATOM      2  C   LIG d   1      -9.780  80.818 121.558  0.00  0.00     0.016 C 
ATOM      3  C   LIG d   1     -10.272  82.108 121.861  0.00  0.00     0.038 C 
ATOM      4  C   LIG d   1      -9.505  83.263 121.646  0.00  0.00     0.028 C 
ATOM      5  C   LIG d   1      -8.003  83.018 121.735  0.00  0.00    -0.047 C 
ATOM      6  C   LIG d   1      -7.634  81.828 120.820  0.00  0.00     0.091 C 
ENDROOT
BRANCH   1   7
ATOM      7  O   LIG d   1      -8.436  79.639 120.065  0.00  0.00    -0.368 OA
BRANCH   7   8
ATOM      8  C   LIG d   1      -9.473  79.814 119.068  0.00  0.00     0.119 C 
BRANCH   8   9
ATOM      9  C   LIG d   1      -9.635  78.471 118.328  0.00  0.00     0.028 C 
ATOM     10  C   LIG d   1      -8.284  77.864 117.912  0.00  0.00     0.006 C 
ENDBRANCH   8   9
BRANCH   8  11
ATOM     11  C   LIG d   1      -9.050  80.820 117.994  0.00  0.00     0.028 C 
ATOM     12  C   LIG d   1     -10.172  81.804 117.624  0.00  0.00     0.006 C 
ENDBRANCH   8  11
ENDBRANCH   7   8
ENDBRANCH   1   7
BRANCH   6  13
ATOM     13  N   LIG d   1      -6.195  81.467 120.912  0.00  0.00    -0.311 N 
ATOM     14  C   LIG d   1      -5.445  81.168 119.852  0.00  0.00     0.210 C 
ATOM     15  C   LIG d   1      -3.992  80.805 120.171  0.00  0.00     0.109 C 
ATOM     16  O   LIG d   1      -5.838  81.199 118.676  0.00  0.00    -0.276 OA
ATOM     17  H   LIG d   1      -5.787  81.448 121.826  0.00  0.00     0.149 HD
ENDBRANCH   6  13
BRANCH   5  18
ATOM     18  N   LIG d   1      -7.324  84.271 121.355  0.00  0.00     0.381 N 
ATOM     19  H   LIG d   1      -6.478  84.063 120.864  0.00  0.00    -0.090 HD
ATOM     20  H   LIG d   1      -7.087  84.778 122.190  0.00  0.00    -0.090 HD
ATOM     21  H   LIG d   1      -7.922  84.823 120.781  0.00  0.00    -0.090 HD
ENDBRANCH   5  18
BRANCH   3  22
ATOM     22  C   LIG d   1     -11.532  82.249 122.423  0.00  0.00     0.382 C 
ATOM     23  O   LIG d   1     -11.955  83.388 122.737  0.00  0.00    -0.241 OA
ATOM     24  O   LIG d   1     -12.233  81.247 122.662  0.00  0.00    -0.241 OA
ENDBRANCH   3  22
TORSDOF 7
ENDMDL
MODEL 9
REMARK VINA RESULT:      -4.1     10.252     12.103
REMARK  7 active torsions:
REMARK  status: ('A' for Active; 'I' for Inactive)
REMARK    1  A    between atoms: C_2  and  C_3 
REMARK    2  A    between atoms: C_3  and  O_6 
REMARK    3  A    between atoms: C_3  and  C_4 
REMARK    4  A    between atoms: C_7  and  O_6 
REMARK    5  A    between atoms: C_9  and  C_10 
REMARK    6  A    between atoms: N_15  and  C_14 
REMARK    7  A    between atoms: N_20  and  C_19 
REMARK       I    between atoms: C_22  and  N_20 
ROOT
ATOM      1  C   LIG d   1      -8.583  81.698 120.693  0.00  0.00     0.161 C 
ATOM      2  C   LIG d   1      -9.450  82.792 120.845  0.00  0.00     0.016 C 
ATOM      3  C   LIG d   1      -9.094  83.979 121.526  0.00  0.00     0.038 C 
ATOM      4  C   LIG d   1      -7.785  84.213 121.973  0.00  0.00     0.028 C 
ATOM      5  C   LIG d   1      -7.015  82.934 122.287  0.00  0.00    -0.047 C 
ATOM      6  C   LIG d   1      -7.115  81.978 121.077  0.00  0.00     0.091 C 
ENDROOT
BRANCH   1   7
ATOM      7  O   LIG d   1      -8.661  81.196 119.344  0.00  0.00    -0.368 OA
BRANCH   7   8
ATOM      8  C   LIG d   1      -7.939  81.952 118.340  0.00  0.00     0.119 C 
BRANCH   8   9
ATOM      9  C   LIG d   1      -8.933  82.288 117.210  0.00  0.00     0.028 C 
ATOM     10  C   LIG d   1     -10.315  81.653 117.437  0.00  0.00     0.006 C 
ENDBRANCH   8   9
BRANCH   8  11
ATOM     11  C   LIG d   1      -6.848  81.104 117.681  0.00  0.00     0.028 C 
ATOM     12  C   LIG d   1      -7.077  79.595 117.859  0.00  0.00     0.006 C 
ENDBRANCH   8  11
ENDBRANCH   7   8
ENDBRANCH   1   7
BRANCH   6  13
ATOM     13  N   LIG d   1      -6.459  80.669 121.333  0.00  0.00    -0.311 N 
ATOM     14  C   LIG d   1      -5.204  80.396 120.981  0.00  0.00     0.210 C 
ATOM     15  C   LIG d   1      -4.730  78.980 121.320  0.00  0.00     0.109 C 
ATOM     16  O   LIG d   1      -4.428  81.203 120.448  0.00  0.00    -0.276 OA
ATOM     17  H   LIG d   1      -7.007  79.966 121.789  0.00  0.00     0.149 HD
ENDBRANCH   6  13
BRANCH   5  18
ATOM     18  N   LIG d   1      -5.627  83.318 122.608  0.00  0.00     0.381 N 
ATOM     19  H   LIG d   1      -4.999  82.898 121.952  0.00  0.00    -0.090 HD
ATOM     20  H   LIG d   1      -5.399  82.976 123.525  0.00  0.00    -0.090 HD
ATOM     21  H   LIG d   1      -5.532  84.309 122.581  0.00  0.00    -0.090 HD
ENDBRANCH   5  18
BRANCH   3  22
ATOM     22  C   LIG d   1     -10.064  84.931 121.801  0.00  0.00     0.382 C 
ATOM     23  O   LIG d   1      -9.734  86.129 121.978  0.00  0.00    -0.241 OA
ATOM     24  O   LIG d   1     -11.259  84.600 121.918  0.00  0.00    -0.241 OA
ENDBRANCH   3  22
TORSDOF 7
ENDMDL
