MODEL 1
REMARK VINA RESULT:      -5.2      0.000      0.000
REMARK  7 active torsions:
REMARK  status: ('A' for Active; 'I' for Inactive)
REMARK    1  A    between atoms: C_2  and  C_3 
REMARK    2  A    between atoms: C_3  and  O_6 
REMARK    3  A    between atoms: C_3  and  C_4 
REMARK    4  A    between atoms: C_7  and  O_6 
REMARK    5  A    between atoms: C_9  and  C_10 
REMARK    6  A    between atoms: N_15  and  C_14 
REMARK    7  A    between atoms: N_20  and  C_19 
REMARK       I    between atoms: C_22  and  N_20 
ROOT
ATOM      1  C   LIG d   1       0.748  58.556 118.630  0.00  0.00     0.161 C 
ATOM      2  C   LIG d   1      -0.257  59.489 118.932  0.00  0.00     0.016 C 
ATOM      3  C   LIG d   1      -1.637  59.226 118.773  0.00  0.00     0.038 C 
ATOM      4  C   LIG d   1      -2.115  57.949 118.442  0.00  0.00     0.028 C 
ATOM      5  C   LIG d   1      -1.118  57.119 117.639  0.00  0.00    -0.047 C 
ATOM      6  C   LIG d   1       0.242  57.121 118.373  0.00  0.00     0.091 C 
ENDROOT
BRANCH   1   7
ATOM      7  O   LIG d   1       1.745  58.557 119.671  0.00  0.00    -0.368 OA
BRANCH   7   8
ATOM      8  C   LIG d   1       2.035  59.842 120.275  0.00  0.00     0.119 C 
BRANCH   8   9
ATOM      9  C   LIG d   1       3.501  60.185 119.948  0.00  0.00     0.028 C 
ATOM     10  C   LIG d   1       4.094  61.216 120.923  0.00  0.00     0.006 C 
ENDBRANCH   8   9
BRANCH   8  11
ATOM     11  C   LIG d   1       1.967  59.768 121.803  0.00  0.00     0.028 C 
ATOM     12  C   LIG d   1       0.713  60.446 122.376  0.00  0.00     0.006 C 
ENDBRANCH   8  11
ENDBRANCH   7   8
ENDBRANCH   1   7
BRANCH   6  13
ATOM     13  N   LIG d   1       1.297  56.401 117.613  0.00  0.00    -0.311 N 
ATOM     14  C   LIG d   1       2.027  55.413 118.128  0.00  0.00     0.210 C 
ATOM     15  C   LIG d   1       3.074  54.821 117.180  0.00  0.00     0.109 C 
ATOM     16  O   LIG d   1       1.885  54.949 119.270  0.00  0.00    -0.276 OA
ATOM     17  H   LIG d   1       1.458  56.692 116.669  0.00  0.00     0.149 HD
ENDBRANCH   6  13
BRANCH   5  18
ATOM     18  N   LIG d   1      -1.689  55.768 117.482  0.00  0.00     0.381 N 
ATOM     19  H   LIG d   1      -1.653  55.281 118.355  0.00  0.00    -0.090 HD
ATOM     20  H   LIG d   1      -1.137  55.258 116.814  0.00  0.00    -0.090 HD
ATOM     21  H   LIG d   1      -2.632  55.830 117.167  0.00  0.00    -0.090 HD
ENDBRANCH   5  18
BRANCH   3  22
ATOM     22  C   LIG d   1      -2.554  60.257 118.907  0.00  0.00     0.382 C 
ATOM     23  O   LIG d   1      -3.695  60.153 118.396  0.00  0.00    -0.241 OA
ATOM     24  O   LIG d   1      -2.239  61.309 119.496  0.00  0.00    -0.241 OA
ENDBRANCH   3  22
TORSDOF 7
ENDMDL
MODEL 2
REMARK VINA RESULT:      -5.0     33.640     35.717
REMARK  7 active torsions:
REMARK  status: ('A' for Active; 'I' for Inactive)
REMARK    1  A    between atoms: C_2  and  C_3 
REMARK    2  A    between atoms: C_3  and  O_6 
REMARK    3  A    between atoms: C_3  and  C_4 
REMARK    4  A    between atoms: C_7  and  O_6 
REMARK    5  A    between atoms: C_9  and  C_10 
REMARK    6  A    between atoms: N_15  and  C_14 
REMARK    7  A    between atoms: N_20  and  C_19 
REMARK       I    between atoms: C_22  and  N_20 
ROOT
ATOM      1  C   LIG d   1      -3.859  93.005 120.173  0.00  0.00     0.161 C 
ATOM      2  C   LIG d   1      -3.038  92.028 119.584  0.00  0.00     0.016 C 
ATOM      3  C   LIG d   1      -3.327  91.415 118.343  0.00  0.00     0.038 C 
ATOM      4  C   LIG d   1      -4.385  91.849 117.530  0.00  0.00     0.028 C 
ATOM      5  C   LIG d   1      -5.530  92.482 118.313  0.00  0.00    -0.047 C 
ATOM      6  C   LIG d   1      -4.957  93.570 119.249  0.00  0.00     0.091 C 
ENDROOT
BRANCH   1   7
ATOM      7  O   LIG d   1      -3.046  94.073 120.698  0.00  0.00    -0.368 OA
BRANCH   7   8
ATOM      8  C   LIG d   1      -2.630  95.084 119.747  0.00  0.00     0.119 C 
BRANCH   8   9
ATOM      9  C   LIG d   1      -1.089  95.095 119.728  0.00  0.00     0.028 C 
ATOM     10  C   LIG d   1      -0.515  94.547 118.410  0.00  0.00     0.006 C 
ENDBRANCH   8   9
BRANCH   8  11
ATOM     11  C   LIG d   1      -3.040  96.486 120.209  0.00  0.00     0.028 C 
ATOM     12  C   LIG d   1      -3.372  97.425 119.038  0.00  0.00     0.006 C 
ENDBRANCH   8  11
ENDBRANCH   7   8
ENDBRANCH   1   7
BRANCH   6  13
ATOM     13  N   LIG d   1      -6.001  94.182 120.113  0.00  0.00    -0.311 N 
ATOM     14  C   LIG d   1      -6.700  95.261 119.765  0.00  0.00     0.210 C 
ATOM     15  C   LIG d   1      -7.712  95.740 120.811  0.00  0.00     0.109 C 
ATOM     16  O   LIG d   1      -6.601  95.848 118.677  0.00  0.00    -0.276 OA
ATOM     17  H   LIG d   1      -6.168  93.751 121.001  0.00  0.00     0.149 HD
ENDBRANCH   6  13
BRANCH   5  18
ATOM     18  N   LIG d   1      -6.499  93.013 117.335  0.00  0.00     0.381 N 
ATOM     19  H   LIG d   1      -6.014  93.359 116.532  0.00  0.00    -0.090 HD
ATOM     20  H   LIG d   1      -7.000  93.776 117.755  0.00  0.00    -0.090 HD
ATOM     21  H   LIG d   1      -7.137  92.297 117.064  0.00  0.00    -0.090 HD
ENDBRANCH   5  18
BRANCH   3  22
ATOM     22  C   LIG d   1      -2.577  90.328 117.923  0.00  0.00     0.382 C 
ATOM     23  O   LIG d   1      -3.089  89.183 117.902  0.00  0.00    -0.241 OA
ATOM     24  O   LIG d   1      -1.380  90.471 117.606  0.00  0.00    -0.241 OA
ENDBRANCH   3  22
TORSDOF 7
ENDMDL
MODEL 3
REMARK VINA RESULT:      -4.8     23.392     25.948
REMARK  7 active torsions:
REMARK  status: ('A' for Active; 'I' for Inactive)
REMARK    1  A    between atoms: C_2  and  C_3 
REMARK    2  A    between atoms: C_3  and  O_6 
REMARK    3  A    between atoms: C_3  and  C_4 
REMARK    4  A    between atoms: C_7  and  O_6 
REMARK    5  A    between atoms: C_9  and  C_10 
REMARK    6  A    between atoms: N_15  and  C_14 
REMARK    7  A    between atoms: N_20  and  C_19 
REMARK       I    between atoms: C_22  and  N_20 
ROOT
ATOM      1  C   LIG d   1     -10.102  81.197 120.245  0.00  0.00     0.161 C 
ATOM      2  C   LIG d   1      -9.288  80.342 119.482  0.00  0.00     0.016 C 
ATOM      3  C   LIG d   1      -8.145  80.782 118.776  0.00  0.00     0.038 C 
ATOM      4  C   LIG d   1      -7.648  82.088 118.908  0.00  0.00     0.028 C 
ATOM      5  C   LIG d   1      -8.722  83.111 119.265  0.00  0.00    -0.047 C 
ATOM      6  C   LIG d   1      -9.513  82.601 120.491  0.00  0.00     0.091 C 
ENDROOT
BRANCH   1   7
ATOM      7  O   LIG d   1     -10.433  80.566 121.497  0.00  0.00    -0.368 OA
BRANCH   7   8
ATOM      8  C   LIG d   1     -11.739  79.941 121.570  0.00  0.00     0.119 C 
BRANCH   8   9
ATOM      9  C   LIG d   1     -12.632  80.837 122.449  0.00  0.00     0.028 C 
ATOM     10  C   LIG d   1     -11.855  81.488 123.605  0.00  0.00     0.006 C 
ENDBRANCH   8   9
BRANCH   8  11
ATOM     11  C   LIG d   1     -11.672  78.595 122.299  0.00  0.00     0.028 C 
ATOM     12  C   LIG d   1     -10.238  78.192 122.676  0.00  0.00     0.006 C 
ENDBRANCH   8  11
ENDBRANCH   7   8
ENDBRANCH   1   7
BRANCH   6  13
ATOM     13  N   LIG d   1     -10.637  83.503 120.854  0.00  0.00    -0.311 N 
ATOM     14  C   LIG d   1     -10.532  84.481 121.752  0.00  0.00     0.210 C 
ATOM     15  C   LIG d   1     -11.817  85.279 121.992  0.00  0.00     0.109 C 
ATOM     16  O   LIG d   1      -9.488  84.783 122.349  0.00  0.00    -0.276 OA
ATOM     17  H   LIG d   1     -11.513  83.348 120.394  0.00  0.00     0.149 HD
ENDBRANCH   6  13
BRANCH   5  18
ATOM     18  N   LIG d   1      -8.046  84.399 119.507  0.00  0.00     0.381 N 
ATOM     19  H   LIG d   1      -7.138  84.390 119.088  0.00  0.00    -0.090 HD
ATOM     20  H   LIG d   1      -7.935  84.527 120.497  0.00  0.00    -0.090 HD
ATOM     21  H   LIG d   1      -8.587  85.145 119.127  0.00  0.00    -0.090 HD
ENDBRANCH   5  18
BRANCH   3  22
ATOM     22  C   LIG d   1      -7.508  79.922 117.894  0.00  0.00     0.382 C 
ATOM     23  O   LIG d   1      -6.393  80.232 117.411  0.00  0.00    -0.241 OA
ATOM     24  O   LIG d   1      -8.055  78.860 117.542  0.00  0.00    -0.241 OA
ENDBRANCH   3  22
TORSDOF 7
ENDMDL
MODEL 4
REMARK VINA RESULT:      -4.7     22.493     25.005
REMARK  7 active torsions:
REMARK  status: ('A' for Active; 'I' for Inactive)
REMARK    1  A    between atoms: C_2  and  C_3 
REMARK    2  A    between atoms: C_3  and  O_6 
REMARK    3  A    between atoms: C_3  and  C_4 
REMARK    4  A    between atoms: C_7  and  O_6 
REMARK    5  A    between atoms: C_9  and  C_10 
REMARK    6  A    between atoms: N_15  and  C_14 
REMARK    7  A    between atoms: N_20  and  C_19 
REMARK       I    between atoms: C_22  and  N_20 
ROOT
ATOM      1  C   LIG d   1      -9.284  81.142 120.733  0.00  0.00     0.161 C 
ATOM      2  C   LIG d   1      -9.479  82.357 121.411  0.00  0.00     0.016 C 
ATOM      3  C   LIG d   1      -9.569  83.607 120.757  0.00  0.00     0.038 C 
ATOM      4  C   LIG d   1      -9.622  83.710 119.359  0.00  0.00     0.028 C 
ATOM      5  C   LIG d   1      -8.923  82.562 118.640  0.00  0.00    -0.047 C 
ATOM      6  C   LIG d   1      -9.452  81.222 119.201  0.00  0.00     0.091 C 
ENDROOT
BRANCH   1   7
ATOM      7  O   LIG d   1     -10.156  80.133 121.280  0.00  0.00    -0.368 OA
BRANCH   7   8
ATOM      8  C   LIG d   1      -9.619  79.353 122.377  0.00  0.00     0.119 C 
BRANCH   8   9
ATOM      9  C   LIG d   1      -8.349  78.647 121.865  0.00  0.00     0.028 C 
ATOM     10  C   LIG d   1      -8.607  77.181 121.479  0.00  0.00     0.006 C 
ENDBRANCH   8   9
BRANCH   8  11
ATOM     11  C   LIG d   1     -10.575  78.226 122.781  0.00  0.00     0.028 C 
ATOM     12  C   LIG d   1     -12.036  78.525 122.412  0.00  0.00     0.006 C 
ENDBRANCH   8  11
ENDBRANCH   7   8
ENDBRANCH   1   7
BRANCH   6  13
ATOM     13  N   LIG d   1      -8.759  80.047 118.611  0.00  0.00    -0.311 N 
ATOM     14  C   LIG d   1      -9.392  78.940 118.226  0.00  0.00     0.210 C 
ATOM     15  C   LIG d   1      -8.486  77.841 117.662  0.00  0.00     0.109 C 
ATOM     16  O   LIG d   1     -10.620  78.777 118.269  0.00  0.00    -0.276 OA
ATOM     17  H   LIG d   1      -7.764  80.107 118.511  0.00  0.00     0.149 HD
ENDBRANCH   6  13
BRANCH   5  18
ATOM     18  N   LIG d   1      -9.174  82.722 117.195  0.00  0.00     0.381 N 
ATOM     19  H   LIG d   1      -9.898  83.397 117.050  0.00  0.00    -0.090 HD
ATOM     20  H   LIG d   1      -9.483  81.843 116.819  0.00  0.00    -0.090 HD
ATOM     21  H   LIG d   1      -8.340  83.014 116.734  0.00  0.00    -0.090 HD
ENDBRANCH   5  18
BRANCH   3  22
ATOM     22  C   LIG d   1      -9.566  84.775 121.504  0.00  0.00     0.382 C 
ATOM     23  O   LIG d   1     -10.639  85.395 121.702  0.00  0.00    -0.241 OA
ATOM     24  O   LIG d   1      -8.498  85.241 121.944  0.00  0.00    -0.241 OA
ENDBRANCH   3  22
TORSDOF 7
ENDMDL
MODEL 5
REMARK VINA RESULT:      -4.6     23.231     25.675
REMARK  7 active torsions:
REMARK  status: ('A' for Active; 'I' for Inactive)
REMARK    1  A    between atoms: C_2  and  C_3 
REMARK    2  A    between atoms: C_3  and  O_6 
REMARK    3  A    between atoms: C_3  and  C_4 
REMARK    4  A    between atoms: C_7  and  O_6 
REMARK    5  A    between atoms: C_9  and  C_10 
REMARK    6  A    between atoms: N_15  and  C_14 
REMARK    7  A    between atoms: N_20  and  C_19 
REMARK       I    between atoms: C_22  and  N_20 
ROOT
ATOM      1  C   LIG d   1      -8.220  81.422 120.787  0.00  0.00     0.161 C 
ATOM      2  C   LIG d   1      -7.419  80.624 119.953  0.00  0.00     0.016 C 
ATOM      3  C   LIG d   1      -7.546  80.599 118.545  0.00  0.00     0.038 C 
ATOM      4  C   LIG d   1      -8.385  81.490 117.860  0.00  0.00     0.028 C 
ATOM      5  C   LIG d   1      -9.576  81.958 118.689  0.00  0.00    -0.047 C 
ATOM      6  C   LIG d   1      -9.065  82.482 120.050  0.00  0.00     0.091 C 
ENDROOT
BRANCH   1   7
ATOM      7  O   LIG d   1      -7.403  82.046 121.797  0.00  0.00    -0.368 OA
BRANCH   7   8
ATOM      8  C   LIG d   1      -6.423  83.002 121.323  0.00  0.00     0.119 C 
BRANCH   8   9
ATOM      9  C   LIG d   1      -5.028  82.444 121.667  0.00  0.00     0.028 C 
ATOM     10  C   LIG d   1      -4.189  82.145 120.413  0.00  0.00     0.006 C 
ENDBRANCH   8   9
BRANCH   8  11
ATOM     11  C   LIG d   1      -6.527  84.329 122.081  0.00  0.00     0.028 C 
ATOM     12  C   LIG d   1      -5.406  85.314 121.714  0.00  0.00     0.006 C 
ENDBRANCH   8  11
ENDBRANCH   7   8
ENDBRANCH   1   7
BRANCH   6  13
ATOM     13  N   LIG d   1     -10.173  82.882 120.956  0.00  0.00    -0.311 N 
ATOM     14  C   LIG d   1     -10.348  84.128 121.395  0.00  0.00     0.210 C 
ATOM     15  C   LIG d   1     -11.541  84.320 122.336  0.00  0.00     0.109 C 
ATOM     16  O   LIG d   1      -9.647  85.098 121.068  0.00  0.00    -0.276 OA
ATOM     17  H   LIG d   1     -10.807  82.164 121.246  0.00  0.00     0.149 HD
ENDBRANCH   6  13
BRANCH   5  18
ATOM     18  N   LIG d   1     -10.289  82.985 117.905  0.00  0.00     0.381 N 
ATOM     19  H   LIG d   1     -10.815  83.574 118.518  0.00  0.00    -0.090 HD
ATOM     20  H   LIG d   1     -10.929  82.529 117.278  0.00  0.00    -0.090 HD
ATOM     21  H   LIG d   1      -9.637  83.531 117.386  0.00  0.00    -0.090 HD
ENDBRANCH   5  18
BRANCH   3  22
ATOM     22  C   LIG d   1      -6.855  79.647 117.809  0.00  0.00     0.382 C 
ATOM     23  O   LIG d   1      -7.469  78.670 117.316  0.00  0.00    -0.241 OA
ATOM     24  O   LIG d   1      -5.620  79.729 117.671  0.00  0.00    -0.241 OA
ENDBRANCH   3  22
TORSDOF 7
ENDMDL
MODEL 6
REMARK VINA RESULT:      -4.6      2.503      5.335
REMARK  7 active torsions:
REMARK  status: ('A' for Active; 'I' for Inactive)
REMARK    1  A    between atoms: C_2  and  C_3 
REMARK    2  A    between atoms: C_3  and  O_6 
REMARK    3  A    between atoms: C_3  and  C_4 
REMARK    4  A    between atoms: C_7  and  O_6 
REMARK    5  A    between atoms: C_9  and  C_10 
REMARK    6  A    between atoms: N_15  and  C_14 
REMARK    7  A    between atoms: N_20  and  C_19 
REMARK       I    between atoms: C_22  and  N_20 
ROOT
ATOM      1  C   LIG d   1       1.594  59.020 119.714  0.00  0.00     0.161 C 
ATOM      2  C   LIG d   1       2.626  59.972 119.663  0.00  0.00     0.016 C 
ATOM      3  C   LIG d   1       3.876  59.799 120.301  0.00  0.00     0.038 C 
ATOM      4  C   LIG d   1       4.236  58.589 120.912  0.00  0.00     0.028 C 
ATOM      5  C   LIG d   1       3.042  57.789 121.423  0.00  0.00    -0.047 C 
ATOM      6  C   LIG d   1       2.009  57.646 120.281  0.00  0.00     0.091 C 
ENDROOT
BRANCH   1   7
ATOM      7  O   LIG d   1       1.008  58.865 118.406  0.00  0.00    -0.368 OA
BRANCH   7   8
ATOM      8  C   LIG d   1      -0.186  59.645 118.147  0.00  0.00     0.119 C 
BRANCH   8   9
ATOM      9  C   LIG d   1      -0.965  59.753 119.471  0.00  0.00     0.028 C 
ATOM     10  C   LIG d   1      -2.260  60.570 119.326  0.00  0.00     0.006 C 
ENDBRANCH   8   9
BRANCH   8  11
ATOM     11  C   LIG d   1      -1.126  58.919 117.180  0.00  0.00     0.028 C 
ATOM     12  C   LIG d   1      -0.921  57.396 117.180  0.00  0.00     0.006 C 
ENDBRANCH   8  11
ENDBRANCH   7   8
ENDBRANCH   1   7
BRANCH   6  13
ATOM     13  N   LIG d   1       0.772  56.950 120.721  0.00  0.00    -0.311 N 
ATOM     14  C   LIG d   1       0.350  55.801 120.193  0.00  0.00     0.210 C 
ATOM     15  C   LIG d   1      -0.960  55.264 120.777  0.00  0.00     0.109 C 
ATOM     16  O   LIG d   1       0.954  55.161 119.320  0.00  0.00    -0.276 OA
ATOM     17  H   LIG d   1       0.237  57.384 121.447  0.00  0.00     0.149 HD
ENDBRANCH   6  13
BRANCH   5  18
ATOM     18  N   LIG d   1       3.548  56.493 121.910  0.00  0.00     0.381 N 
ATOM     19  H   LIG d   1       2.802  55.827 121.941  0.00  0.00    -0.090 HD
ATOM     20  H   LIG d   1       3.904  56.612 122.842  0.00  0.00    -0.090 HD
ATOM     21  H   LIG d   1       4.272  56.162 121.310  0.00  0.00    -0.090 HD
ENDBRANCH   5  18
BRANCH   3  22
ATOM     22  C   LIG d   1       4.766  60.860 120.367  0.00  0.00     0.382 C 
ATOM     23  O   LIG d   1       5.775  60.879 119.622  0.00  0.00    -0.241 OA
ATOM     24  O   LIG d   1       4.597  61.776 121.194  0.00  0.00    -0.241 OA
ENDBRANCH   3  22
TORSDOF 7
ENDMDL
MODEL 7
REMARK VINA RESULT:      -4.5     12.070     15.133
REMARK  7 active torsions:
REMARK  status: ('A' for Active; 'I' for Inactive)
REMARK    1  A    between atoms: C_2  and  C_3 
REMARK    2  A    between atoms: C_3  and  O_6 
REMARK    3  A    between atoms: C_3  and  C_4 
REMARK    4  A    between atoms: C_7  and  O_6 
REMARK    5  A    between atoms: C_9  and  C_10 
REMARK    6  A    between atoms: N_15  and  C_14 
REMARK    7  A    between atoms: N_20  and  C_19 
REMARK       I    between atoms: C_22  and  N_20 
ROOT
ATOM      1  C   LIG d   1     -11.392  65.228 123.122  0.00  0.00     0.161 C 
ATOM      2  C   LIG d   1     -12.351  64.977 122.126  0.00  0.00     0.016 C 
ATOM      3  C   LIG d   1     -13.243  65.960 121.639  0.00  0.00     0.038 C 
ATOM      4  C   LIG d   1     -13.135  67.309 122.010  0.00  0.00     0.028 C 
ATOM      5  C   LIG d   1     -12.511  67.510 123.388  0.00  0.00    -0.047 C 
ATOM      6  C   LIG d   1     -11.185  66.720 123.458  0.00  0.00     0.091 C 
ENDROOT
BRANCH   1   7
ATOM      7  O   LIG d   1     -10.138  64.618 122.757  0.00  0.00    -0.368 OA
BRANCH   7   8
ATOM      8  C   LIG d   1     -10.225  63.366 122.033  0.00  0.00     0.119 C 
BRANCH   8   9
ATOM      9  C   LIG d   1     -10.276  62.231 123.075  0.00  0.00     0.028 C 
ATOM     10  C   LIG d   1     -11.437  61.255 122.824  0.00  0.00     0.006 C 
ENDBRANCH   8   9
BRANCH   8  11
ATOM     11  C   LIG d   1      -8.958  63.107 121.213  0.00  0.00     0.028 C 
ATOM     12  C   LIG d   1      -9.247  62.902 119.718  0.00  0.00     0.006 C 
ENDBRANCH   8  11
ENDBRANCH   7   8
ENDBRANCH   1   7
BRANCH   6  13
ATOM     13  N   LIG d   1     -10.552  66.794 124.801  0.00  0.00    -0.311 N 
ATOM     14  C   LIG d   1      -9.677  67.736 125.148  0.00  0.00     0.210 C 
ATOM     15  C   LIG d   1      -9.129  67.617 126.574  0.00  0.00     0.109 C 
ATOM     16  O   LIG d   1      -9.326  68.678 124.421  0.00  0.00    -0.276 OA
ATOM     17  H   LIG d   1     -10.803  66.087 125.464  0.00  0.00     0.149 HD
ENDBRANCH   6  13
BRANCH   5  18
ATOM     18  N   LIG d   1     -12.332  68.960 123.588  0.00  0.00     0.381 N 
ATOM     19  H   LIG d   1     -11.703  69.322 122.900  0.00  0.00    -0.090 HD
ATOM     20  H   LIG d   1     -11.930  69.115 124.496  0.00  0.00    -0.090 HD
ATOM     21  H   LIG d   1     -13.211  69.424 123.523  0.00  0.00    -0.090 HD
ENDBRANCH   5  18
BRANCH   3  22
ATOM     22  C   LIG d   1     -14.283  65.589 120.801  0.00  0.00     0.382 C 
ATOM     23  O   LIG d   1     -15.203  66.403 120.546  0.00  0.00    -0.241 OA
ATOM     24  O   LIG d   1     -14.337  64.436 120.332  0.00  0.00    -0.241 OA
ENDBRANCH   3  22
TORSDOF 7
ENDMDL
MODEL 8
REMARK VINA RESULT:      -4.5     22.439     24.899
REMARK  7 active torsions:
REMARK  status: ('A' for Active; 'I' for Inactive)
REMARK    1  A    between atoms: C_2  and  C_3 
REMARK    2  A    between atoms: C_3  and  O_6 
REMARK    3  A    between atoms: C_3  and  C_4 
REMARK    4  A    between atoms: C_7  and  O_6 
REMARK    5  A    between atoms: C_9  and  C_10 
REMARK    6  A    between atoms: N_15  and  C_14 
REMARK    7  A    between atoms: N_20  and  C_19 
REMARK       I    between atoms: C_22  and  N_20 
ROOT
ATOM      1  C   LIG d   1      -8.850  80.723 120.740  0.00  0.00     0.161 C 
ATOM      2  C   LIG d   1      -8.337  79.721 119.899  0.00  0.00     0.016 C 
ATOM      3  C   LIG d   1      -8.458  79.749 118.491  0.00  0.00     0.038 C 
ATOM      4  C   LIG d   1      -8.972  80.864 117.813  0.00  0.00     0.028 C 
ATOM      5  C   LIG d   1      -9.959  81.676 118.645  0.00  0.00    -0.047 C 
ATOM      6  C   LIG d   1      -9.316  82.001 120.012  0.00  0.00     0.091 C 
ENDROOT
BRANCH   1   7
ATOM      7  O   LIG d   1      -7.883  81.049 121.757  0.00  0.00    -0.368 OA
BRANCH   7   8
ATOM      8  C   LIG d   1      -6.491  80.884 121.391  0.00  0.00     0.119 C 
BRANCH   8   9
ATOM      9  C   LIG d   1      -5.760  80.285 122.607  0.00  0.00     0.028 C 
ATOM     10  C   LIG d   1      -6.184  78.834 122.891  0.00  0.00     0.006 C 
ENDBRANCH   8   9
BRANCH   8  11
ATOM     11  C   LIG d   1      -5.818  82.236 121.138  0.00  0.00     0.028 C 
ATOM     12  C   LIG d   1      -4.455  82.102 120.440  0.00  0.00     0.006 C 
ENDBRANCH   8  11
ENDBRANCH   7   8
ENDBRANCH   1   7
BRANCH   6  13
ATOM     13  N   LIG d   1     -10.246  82.722 120.920  0.00  0.00    -0.311 N 
ATOM     14  C   LIG d   1     -10.202  84.038 121.120  0.00  0.00     0.210 C 
ATOM     15  C   LIG d   1     -11.239  84.576 122.111  0.00  0.00     0.109 C 
ATOM     16  O   LIG d   1      -9.424  84.815 120.547  0.00  0.00    -0.276 OA
ATOM     17  H   LIG d   1     -10.930  82.172 121.401  0.00  0.00     0.149 HD
ENDBRANCH   6  13
BRANCH   5  18
ATOM     18  N   LIG d   1     -10.309  82.882 117.869  0.00  0.00     0.381 N 
ATOM     19  H   LIG d   1     -10.056  83.701 118.384  0.00  0.00    -0.090 HD
ATOM     20  H   LIG d   1     -11.303  82.896 117.722  0.00  0.00    -0.090 HD
ATOM     21  H   LIG d   1      -9.836  82.872 116.992  0.00  0.00    -0.090 HD
ENDBRANCH   5  18
BRANCH   3  22
ATOM     22  C   LIG d   1      -8.099  78.634 117.748  0.00  0.00     0.382 C 
ATOM     23  O   LIG d   1      -6.979  78.592 117.183  0.00  0.00    -0.241 OA
ATOM     24  O   LIG d   1      -8.897  77.690 117.599  0.00  0.00    -0.241 OA
ENDBRANCH   3  22
TORSDOF 7
ENDMDL
MODEL 9
REMARK VINA RESULT:      -4.4     21.010     23.734
REMARK  7 active torsions:
REMARK  status: ('A' for Active; 'I' for Inactive)
REMARK    1  A    between atoms: C_2  and  C_3 
REMARK    2  A    between atoms: C_3  and  O_6 
REMARK    3  A    between atoms: C_3  and  C_4 
REMARK    4  A    between atoms: C_7  and  O_6 
REMARK    5  A    between atoms: C_9  and  C_10 
REMARK    6  A    between atoms: N_15  and  C_14 
REMARK    7  A    between atoms: N_20  and  C_19 
REMARK       I    between atoms: C_22  and  N_20 
ROOT
ATOM      1  C   LIG d   1      -6.810  80.654 117.934  0.00  0.00     0.161 C 
ATOM      2  C   LIG d   1      -5.793  79.719 117.678  0.00  0.00     0.016 C 
ATOM      3  C   LIG d   1      -4.755  79.428 118.594  0.00  0.00     0.038 C 
ATOM      4  C   LIG d   1      -4.751  79.944 119.898  0.00  0.00     0.028 C 
ATOM      5  C   LIG d   1      -5.478  81.279 120.024  0.00  0.00    -0.047 C 
ATOM      6  C   LIG d   1      -6.884  81.145 119.395  0.00  0.00     0.091 C 
ENDROOT
BRANCH   1   7
ATOM      7  O   LIG d   1      -8.082  80.117 117.521  0.00  0.00    -0.368 OA
BRANCH   7   8
ATOM      8  C   LIG d   1      -8.729  79.220 118.456  0.00  0.00     0.119 C 
BRANCH   8   9
ATOM      9  C   LIG d   1      -8.687  77.806 117.846  0.00  0.00     0.028 C 
ATOM     10  C   LIG d   1      -7.817  76.839 118.667  0.00  0.00     0.006 C 
ENDBRANCH   8   9
BRANCH   8  11
ATOM     11  C   LIG d   1     -10.217  79.552 118.608  0.00  0.00     0.028 C 
ATOM     12  C   LIG d   1     -10.635  79.759 120.072  0.00  0.00     0.006 C 
ENDBRANCH   8  11
ENDBRANCH   7   8
ENDBRANCH   1   7
BRANCH   6  13
ATOM     13  N   LIG d   1      -7.632  82.429 119.400  0.00  0.00    -0.311 N 
ATOM     14  C   LIG d   1      -8.432  82.808 120.395  0.00  0.00     0.210 C 
ATOM     15  C   LIG d   1      -9.123  84.160 120.191  0.00  0.00     0.109 C 
ATOM     16  O   LIG d   1      -8.610  82.167 121.442  0.00  0.00    -0.276 OA
ATOM     17  H   LIG d   1      -7.520  83.025 118.603  0.00  0.00     0.149 HD
ENDBRANCH   6  13
BRANCH   5  18
ATOM     18  N   LIG d   1      -5.516  81.632 121.455  0.00  0.00     0.381 N 
ATOM     19  H   LIG d   1      -6.041  82.475 121.582  0.00  0.00    -0.090 HD
ATOM     20  H   LIG d   1      -4.577  81.795 121.775  0.00  0.00    -0.090 HD
ATOM     21  H   LIG d   1      -5.930  80.892 121.978  0.00  0.00    -0.090 HD
ENDBRANCH   5  18
BRANCH   3  22
ATOM     22  C   LIG d   1      -3.686  78.641 118.193  0.00  0.00     0.382 C 
ATOM     23  O   LIG d   1      -3.723  77.399 118.362  0.00  0.00    -0.241 OA
ATOM     24  O   LIG d   1      -2.666  79.163 117.704  0.00  0.00    -0.241 OA
ENDBRANCH   3  22
TORSDOF 7
ENDMDL
