MODEL 1
REMARK VINA RESULT:      -4.9      0.000      0.000
REMARK  7 active torsions:
REMARK  status: ('A' for Active; 'I' for Inactive)
REMARK    1  A    between atoms: C_2  and  C_3 
REMARK    2  A    between atoms: C_3  and  O_6 
REMARK    3  A    between atoms: C_3  and  C_4 
REMARK    4  A    between atoms: C_7  and  O_6 
REMARK    5  A    between atoms: C_9  and  C_10 
REMARK    6  A    between atoms: N_15  and  C_14 
REMARK    7  A    between atoms: N_20  and  C_19 
REMARK       I    between atoms: C_22  and  N_20 
ROOT
ATOM      1  C   LIG d   1      -0.835  60.850 119.148  0.00  0.00     0.161 C 
ATOM      2  C   LIG d   1      -2.169  60.458 118.950  0.00  0.00     0.016 C 
ATOM      3  C   LIG d   1      -2.544  59.165 118.516  0.00  0.00     0.038 C 
ATOM      4  C   LIG d   1      -1.611  58.124 118.396  0.00  0.00     0.028 C 
ATOM      5  C   LIG d   1      -0.197  58.610 118.098  0.00  0.00    -0.047 C 
ATOM      6  C   LIG d   1       0.189  59.695 119.129  0.00  0.00     0.091 C 
ENDROOT
BRANCH   1   7
ATOM      7  O   LIG d   1      -0.723  61.598 120.375  0.00  0.00    -0.368 OA
BRANCH   7   8
ATOM      8  C   LIG d   1      -0.323  60.845 121.547  0.00  0.00     0.119 C 
BRANCH   8   9
ATOM      9  C   LIG d   1      -1.606  60.440 122.297  0.00  0.00     0.028 C 
ATOM     10  C   LIG d   1      -1.781  58.914 122.379  0.00  0.00     0.006 C 
ENDBRANCH   8   9
BRANCH   8  11
ATOM     11  C   LIG d   1       0.462  61.719 122.529  0.00  0.00     0.028 C 
ATOM     12  C   LIG d   1       1.941  61.314 122.637  0.00  0.00     0.006 C 
ENDBRANCH   8  11
ENDBRANCH   7   8
ENDBRANCH   1   7
BRANCH   6  13
ATOM     13  N   LIG d   1       1.526  60.284 118.859  0.00  0.00    -0.311 N 
ATOM     14  C   LIG d   1       2.651  59.831 119.410  0.00  0.00     0.210 C 
ATOM     15  C   LIG d   1       3.918  60.594 119.012  0.00  0.00     0.109 C 
ATOM     16  O   LIG d   1       2.724  58.850 120.164  0.00  0.00    -0.276 OA
ATOM     17  H   LIG d   1       1.563  61.065 118.234  0.00  0.00     0.149 HD
ENDBRANCH   6  13
BRANCH   5  18
ATOM     18  N   LIG d   1       0.695  57.435 118.135  0.00  0.00     0.381 N 
ATOM     19  H   LIG d   1       0.227  56.669 118.577  0.00  0.00    -0.090 HD
ATOM     20  H   LIG d   1       1.510  57.662 118.678  0.00  0.00    -0.090 HD
ATOM     21  H   LIG d   1       0.963  57.181 117.210  0.00  0.00    -0.090 HD
ENDBRANCH   5  18
BRANCH   3  22
ATOM     22  C   LIG d   1      -3.860  58.915 118.159  0.00  0.00     0.382 C 
ATOM     23  O   LIG d   1      -4.323  57.752 118.247  0.00  0.00    -0.241 OA
ATOM     24  O   LIG d   1      -4.577  59.829 117.709  0.00  0.00    -0.241 OA
ENDBRANCH   3  22
TORSDOF 7
ENDMDL
MODEL 2
REMARK VINA RESULT:      -4.8      2.345      5.675
REMARK  7 active torsions:
REMARK  status: ('A' for Active; 'I' for Inactive)
REMARK    1  A    between atoms: C_2  and  C_3 
REMARK    2  A    between atoms: C_3  and  O_6 
REMARK    3  A    between atoms: C_3  and  C_4 
REMARK    4  A    between atoms: C_7  and  O_6 
REMARK    5  A    between atoms: C_9  and  C_10 
REMARK    6  A    between atoms: N_15  and  C_14 
REMARK    7  A    between atoms: N_20  and  C_19 
REMARK       I    between atoms: C_22  and  N_20 
ROOT
ATOM      1  C   LIG d   1      -0.462  59.286 119.019  0.00  0.00     0.161 C 
ATOM      2  C   LIG d   1       0.813  59.352 118.435  0.00  0.00     0.016 C 
ATOM      3  C   LIG d   1       1.956  59.838 119.112  0.00  0.00     0.038 C 
ATOM      4  C   LIG d   1       1.929  60.152 120.479  0.00  0.00     0.028 C 
ATOM      5  C   LIG d   1       0.552  60.579 120.976  0.00  0.00    -0.047 C 
ATOM      6  C   LIG d   1      -0.488  59.520 120.544  0.00  0.00     0.091 C 
ENDROOT
BRANCH   1   7
ATOM      7  O   LIG d   1      -1.084  58.027 118.695  0.00  0.00    -0.368 OA
BRANCH   7   8
ATOM      8  C   LIG d   1      -2.163  58.078 117.730  0.00  0.00     0.119 C 
BRANCH   8   9
ATOM      9  C   LIG d   1      -2.521  59.562 117.514  0.00  0.00     0.028 C 
ATOM     10  C   LIG d   1      -3.979  59.874 117.890  0.00  0.00     0.006 C 
ENDBRANCH   8   9
BRANCH   8  11
ATOM     11  C   LIG d   1      -3.436  57.430 118.281  0.00  0.00     0.028 C 
ATOM     12  C   LIG d   1      -3.199  56.682 119.603  0.00  0.00     0.006 C 
ENDBRANCH   8  11
ENDBRANCH   7   8
ENDBRANCH   1   7
BRANCH   6  13
ATOM     13  N   LIG d   1      -1.874  59.903 120.918  0.00  0.00    -0.311 N 
ATOM     14  C   LIG d   1      -2.484  59.467 122.019  0.00  0.00     0.210 C 
ATOM     15  C   LIG d   1      -3.920  59.967 122.204  0.00  0.00     0.109 C 
ATOM     16  O   LIG d   1      -1.961  58.739 122.876  0.00  0.00    -0.276 OA
ATOM     17  H   LIG d   1      -2.362  60.516 120.294  0.00  0.00     0.149 HD
ENDBRANCH   6  13
BRANCH   5  18
ATOM     18  N   LIG d   1       0.638  60.743 122.439  0.00  0.00     0.381 N 
ATOM     19  H   LIG d   1       1.192  61.547 122.658  0.00  0.00    -0.090 HD
ATOM     20  H   LIG d   1       1.087  59.934 122.831  0.00  0.00    -0.090 HD
ATOM     21  H   LIG d   1      -0.275  60.845 122.825  0.00  0.00    -0.090 HD
ENDBRANCH   5  18
BRANCH   3  22
ATOM     22  C   LIG d   1       3.132  60.051 118.409  0.00  0.00     0.382 C 
ATOM     23  O   LIG d   1       3.801  61.093 118.609  0.00  0.00    -0.241 OA
ATOM     24  O   LIG d   1       3.509  59.236 117.546  0.00  0.00    -0.241 OA
ENDBRANCH   3  22
TORSDOF 7
ENDMDL
MODEL 3
REMARK VINA RESULT:      -4.7      2.308      5.432
REMARK  7 active torsions:
REMARK  status: ('A' for Active; 'I' for Inactive)
REMARK    1  A    between atoms: C_2  and  C_3 
REMARK    2  A    between atoms: C_3  and  O_6 
REMARK    3  A    between atoms: C_3  and  C_4 
REMARK    4  A    between atoms: C_7  and  O_6 
REMARK    5  A    between atoms: C_9  and  C_10 
REMARK    6  A    between atoms: N_15  and  C_14 
REMARK    7  A    between atoms: N_20  and  C_19 
REMARK       I    between atoms: C_22  and  N_20 
ROOT
ATOM      1  C   LIG d   1       0.336  59.189 118.957  0.00  0.00     0.161 C 
ATOM      2  C   LIG d   1       1.434  60.066 118.965  0.00  0.00     0.016 C 
ATOM      3  C   LIG d   1       2.778  59.631 119.008  0.00  0.00     0.038 C 
ATOM      4  C   LIG d   1       3.122  58.276 118.892  0.00  0.00     0.028 C 
ATOM      5  C   LIG d   1       2.035  57.330 119.390  0.00  0.00    -0.047 C 
ATOM      6  C   LIG d   1       0.695  57.707 118.718  0.00  0.00     0.091 C 
ENDROOT
BRANCH   1   7
ATOM      7  O   LIG d   1      -0.636  59.631 117.989  0.00  0.00    -0.368 OA
BRANCH   7   8
ATOM      8  C   LIG d   1      -1.732  60.425 118.504  0.00  0.00     0.119 C 
BRANCH   8   9
ATOM      9  C   LIG d   1      -2.031  59.931 119.933  0.00  0.00     0.028 C 
ATOM     10  C   LIG d   1      -1.982  61.066 120.969  0.00  0.00     0.006 C 
ENDBRANCH   8   9
BRANCH   8  11
ATOM     11  C   LIG d   1      -3.020  60.178 117.713  0.00  0.00     0.028 C 
ATOM     12  C   LIG d   1      -3.848  59.011 118.272  0.00  0.00     0.006 C 
ENDBRANCH   8  11
ENDBRANCH   7   8
ENDBRANCH   1   7
BRANCH   6  13
ATOM     13  N   LIG d   1      -0.439  56.884 119.213  0.00  0.00    -0.311 N 
ATOM     14  C   LIG d   1      -1.373  56.368 118.416  0.00  0.00     0.210 C 
ATOM     15  C   LIG d   1      -2.465  55.569 119.133  0.00  0.00     0.109 C 
ATOM     16  O   LIG d   1      -1.384  56.470 117.180  0.00  0.00    -0.276 OA
ATOM     17  H   LIG d   1      -0.491  56.726 120.200  0.00  0.00     0.149 HD
ENDBRANCH   6  13
BRANCH   5  18
ATOM     18  N   LIG d   1       2.467  55.953 119.084  0.00  0.00     0.381 N 
ATOM     19  H   LIG d   1       3.116  55.963 118.322  0.00  0.00    -0.090 HD
ATOM     20  H   LIG d   1       1.666  55.414 118.808  0.00  0.00    -0.090 HD
ATOM     21  H   LIG d   1       2.893  55.543 119.886  0.00  0.00    -0.090 HD
ENDBRANCH   5  18
BRANCH   3  22
ATOM     22  C   LIG d   1       3.793  60.553 119.208  0.00  0.00     0.382 C 
ATOM     23  O   LIG d   1       3.867  61.179 120.293  0.00  0.00    -0.241 OA
ATOM     24  O   LIG d   1       4.610  60.801 118.301  0.00  0.00    -0.241 OA
ENDBRANCH   3  22
TORSDOF 7
ENDMDL
MODEL 4
REMARK VINA RESULT:      -4.6      2.582      4.226
REMARK  7 active torsions:
REMARK  status: ('A' for Active; 'I' for Inactive)
REMARK    1  A    between atoms: C_2  and  C_3 
REMARK    2  A    between atoms: C_3  and  O_6 
REMARK    3  A    between atoms: C_3  and  C_4 
REMARK    4  A    between atoms: C_7  and  O_6 
REMARK    5  A    between atoms: C_9  and  C_10 
REMARK    6  A    between atoms: N_15  and  C_14 
REMARK    7  A    between atoms: N_20  and  C_19 
REMARK       I    between atoms: C_22  and  N_20 
ROOT
ATOM      1  C   LIG d   1       0.080  57.954 117.857  0.00  0.00     0.161 C 
ATOM      2  C   LIG d   1      -0.895  58.961 117.944  0.00  0.00     0.016 C 
ATOM      3  C   LIG d   1      -2.285  58.703 117.917  0.00  0.00     0.038 C 
ATOM      4  C   LIG d   1      -2.797  57.397 117.954  0.00  0.00     0.028 C 
ATOM      5  C   LIG d   1      -1.853  56.359 117.358  0.00  0.00    -0.047 C 
ATOM      6  C   LIG d   1      -0.459  56.516 118.009  0.00  0.00     0.091 C 
ENDROOT
BRANCH   1   7
ATOM      7  O   LIG d   1       1.125  58.201 118.820  0.00  0.00    -0.368 OA
BRANCH   7   8
ATOM      8  C   LIG d   1       1.797  59.480 118.716  0.00  0.00     0.119 C 
BRANCH   8   9
ATOM      9  C   LIG d   1       3.254  59.204 118.295  0.00  0.00     0.028 C 
ATOM     10  C   LIG d   1       4.247  60.185 118.941  0.00  0.00     0.006 C 
ENDBRANCH   8   9
BRANCH   8  11
ATOM     11  C   LIG d   1       1.893  60.171 120.080  0.00  0.00     0.028 C 
ATOM     12  C   LIG d   1       1.115  59.430 121.179  0.00  0.00     0.006 C 
ENDBRANCH   8  11
ENDBRANCH   7   8
ENDBRANCH   1   7
BRANCH   6  13
ATOM     13  N   LIG d   1       0.548  55.594 117.422  0.00  0.00    -0.311 N 
ATOM     14  C   LIG d   1       0.824  54.393 117.927  0.00  0.00     0.210 C 
ATOM     15  C   LIG d   1       1.909  53.611 117.180  0.00  0.00     0.109 C 
ATOM     16  O   LIG d   1       0.250  53.887 118.903  0.00  0.00    -0.276 OA
ATOM     17  H   LIG d   1       1.038  55.911 116.609  0.00  0.00     0.149 HD
ENDBRANCH   6  13
BRANCH   5  18
ATOM     18  N   LIG d   1      -2.450  55.030 117.586  0.00  0.00     0.381 N 
ATOM     19  H   LIG d   1      -3.432  55.125 117.755  0.00  0.00    -0.090 HD
ATOM     20  H   LIG d   1      -2.028  54.618 118.399  0.00  0.00    -0.090 HD
ATOM     21  H   LIG d   1      -2.298  54.447 116.792  0.00  0.00    -0.090 HD
ENDBRANCH   5  18
BRANCH   3  22
ATOM     22  C   LIG d   1      -3.178  59.758 117.813  0.00  0.00     0.382 C 
ATOM     23  O   LIG d   1      -2.752  60.926 117.642  0.00  0.00    -0.241 OA
ATOM     24  O   LIG d   1      -4.402  59.564 117.933  0.00  0.00    -0.241 OA
ENDBRANCH   3  22
TORSDOF 7
ENDMDL
MODEL 5
REMARK VINA RESULT:      -4.6     33.271     34.778
REMARK  7 active torsions:
REMARK  status: ('A' for Active; 'I' for Inactive)
REMARK    1  A    between atoms: C_2  and  C_3 
REMARK    2  A    between atoms: C_3  and  O_6 
REMARK    3  A    between atoms: C_3  and  C_4 
REMARK    4  A    between atoms: C_7  and  O_6 
REMARK    5  A    between atoms: C_9  and  C_10 
REMARK    6  A    between atoms: N_15  and  C_14 
REMARK    7  A    between atoms: N_20  and  C_19 
REMARK       I    between atoms: C_22  and  N_20 
ROOT
ATOM      1  C   LIG d   1     -17.131  89.895 122.498  0.00  0.00     0.161 C 
ATOM      2  C   LIG d   1     -15.726  89.879 122.521  0.00  0.00     0.016 C 
ATOM      3  C   LIG d   1     -14.947  88.947 121.798  0.00  0.00     0.038 C 
ATOM      4  C   LIG d   1     -15.520  88.057 120.877  0.00  0.00     0.028 C 
ATOM      5  C   LIG d   1     -16.967  87.700 121.201  0.00  0.00    -0.047 C 
ATOM      6  C   LIG d   1     -17.770  89.003 121.413  0.00  0.00     0.091 C 
ENDROOT
BRANCH   1   7
ATOM      7  O   LIG d   1     -17.602  91.251 122.374  0.00  0.00    -0.368 OA
BRANCH   7   8
ATOM      8  C   LIG d   1     -17.746  91.754 121.023  0.00  0.00     0.119 C 
BRANCH   8   9
ATOM      9  C   LIG d   1     -16.735  92.903 120.846  0.00  0.00     0.028 C 
ATOM     10  C   LIG d   1     -16.372  93.575 122.181  0.00  0.00     0.006 C 
ENDBRANCH   8   9
BRANCH   8  11
ATOM     11  C   LIG d   1     -19.123  92.390 120.809  0.00  0.00     0.028 C 
ATOM     12  C   LIG d   1     -20.020  92.302 122.054  0.00  0.00     0.006 C 
ENDBRANCH   8  11
ENDBRANCH   7   8
ENDBRANCH   1   7
BRANCH   6  13
ATOM     13  N   LIG d   1     -19.176  88.742 121.817  0.00  0.00    -0.311 N 
ATOM     14  C   LIG d   1     -20.186  88.670 120.951  0.00  0.00     0.210 C 
ATOM     15  C   LIG d   1     -21.559  88.413 121.579  0.00  0.00     0.109 C 
ATOM     16  O   LIG d   1     -20.070  88.763 119.720  0.00  0.00    -0.276 OA
ATOM     17  H   LIG d   1     -19.356  88.624 122.794  0.00  0.00     0.149 HD
ENDBRANCH   6  13
BRANCH   5  18
ATOM     18  N   LIG d   1     -17.482  86.878 120.089  0.00  0.00     0.381 N 
ATOM     19  H   LIG d   1     -17.204  85.925 120.216  0.00  0.00    -0.090 HD
ATOM     20  H   LIG d   1     -17.084  87.210 119.228  0.00  0.00    -0.090 HD
ATOM     21  H   LIG d   1     -18.475  86.940 120.051  0.00  0.00    -0.090 HD
ENDBRANCH   5  18
BRANCH   3  22
ATOM     22  C   LIG d   1     -13.580  88.873 122.022  0.00  0.00     0.382 C 
ATOM     23  O   LIG d   1     -12.949  87.835 121.709  0.00  0.00    -0.241 OA
ATOM     24  O   LIG d   1     -12.979  89.813 122.576  0.00  0.00    -0.241 OA
ENDBRANCH   3  22
TORSDOF 7
ENDMDL
MODEL 6
REMARK VINA RESULT:      -4.5     13.392     15.777
REMARK  7 active torsions:
REMARK  status: ('A' for Active; 'I' for Inactive)
REMARK    1  A    between atoms: C_2  and  C_3 
REMARK    2  A    between atoms: C_3  and  O_6 
REMARK    3  A    between atoms: C_3  and  C_4 
REMARK    4  A    between atoms: C_7  and  O_6 
REMARK    5  A    between atoms: C_9  and  C_10 
REMARK    6  A    between atoms: N_15  and  C_14 
REMARK    7  A    between atoms: N_20  and  C_19 
REMARK       I    between atoms: C_22  and  N_20 
ROOT
ATOM      1  C   LIG d   1     -13.968  66.352 120.749  0.00  0.00     0.161 C 
ATOM      2  C   LIG d   1     -12.836  66.330 121.580  0.00  0.00     0.016 C 
ATOM      3  C   LIG d   1     -11.977  65.213 121.697  0.00  0.00     0.038 C 
ATOM      4  C   LIG d   1     -12.109  64.087 120.869  0.00  0.00     0.028 C 
ATOM      5  C   LIG d   1     -13.534  63.862 120.376  0.00  0.00    -0.047 C 
ATOM      6  C   LIG d   1     -14.065  65.175 119.756  0.00  0.00     0.091 C 
ENDROOT
BRANCH   1   7
ATOM      7  O   LIG d   1     -14.033  67.608 120.045  0.00  0.00    -0.368 OA
BRANCH   7   8
ATOM      8  C   LIG d   1     -15.105  68.502 120.434  0.00  0.00     0.119 C 
BRANCH   8   9
ATOM      9  C   LIG d   1     -15.880  67.824 121.581  0.00  0.00     0.028 C 
ATOM     10  C   LIG d   1     -16.007  68.727 122.819  0.00  0.00     0.006 C 
ENDBRANCH   8   9
BRANCH   8  11
ATOM     11  C   LIG d   1     -16.123  68.676 119.304  0.00  0.00     0.028 C 
ATOM     12  C   LIG d   1     -16.680  70.106 119.219  0.00  0.00     0.006 C 
ENDBRANCH   8  11
ENDBRANCH   7   8
ENDBRANCH   1   7
BRANCH   6  13
ATOM     13  N   LIG d   1     -15.482  65.066 119.324  0.00  0.00    -0.311 N 
ATOM     14  C   LIG d   1     -15.848  64.723 118.090  0.00  0.00     0.210 C 
ATOM     15  C   LIG d   1     -17.361  64.689 117.851  0.00  0.00     0.109 C 
ATOM     16  O   LIG d   1     -15.065  64.411 117.181  0.00  0.00    -0.276 OA
ATOM     17  H   LIG d   1     -16.185  65.271 120.008  0.00  0.00     0.149 HD
ENDBRANCH   6  13
BRANCH   5  18
ATOM     18  N   LIG d   1     -13.502  62.742 119.416  0.00  0.00     0.381 N 
ATOM     19  H   LIG d   1     -12.909  62.974 118.645  0.00  0.00    -0.090 HD
ATOM     20  H   LIG d   1     -14.430  62.587 119.065  0.00  0.00    -0.090 HD
ATOM     21  H   LIG d   1     -13.167  61.918 119.865  0.00  0.00    -0.090 HD
ENDBRANCH   5  18
BRANCH   3  22
ATOM     22  C   LIG d   1     -10.997  65.198 122.677  0.00  0.00     0.382 C 
ATOM     23  O   LIG d   1     -10.964  66.104 123.544  0.00  0.00    -0.241 OA
ATOM     24  O   LIG d   1     -10.119  64.314 122.680  0.00  0.00    -0.241 OA
ENDBRANCH   3  22
TORSDOF 7
ENDMDL
MODEL 7
REMARK VINA RESULT:      -4.4     13.721     16.007
REMARK  7 active torsions:
REMARK  status: ('A' for Active; 'I' for Inactive)
REMARK    1  A    between atoms: C_2  and  C_3 
REMARK    2  A    between atoms: C_3  and  O_6 
REMARK    3  A    between atoms: C_3  and  C_4 
REMARK    4  A    between atoms: C_7  and  O_6 
REMARK    5  A    between atoms: C_9  and  C_10 
REMARK    6  A    between atoms: N_15  and  C_14 
REMARK    7  A    between atoms: N_20  and  C_19 
REMARK       I    between atoms: C_22  and  N_20 
ROOT
ATOM      1  C   LIG d   1     -14.158  66.742 121.029  0.00  0.00     0.161 C 
ATOM      2  C   LIG d   1     -13.163  66.886 122.009  0.00  0.00     0.016 C 
ATOM      3  C   LIG d   1     -12.097  65.972 122.176  0.00  0.00     0.038 C 
ATOM      4  C   LIG d   1     -11.868  64.927 121.270  0.00  0.00     0.028 C 
ATOM      5  C   LIG d   1     -13.133  64.448 120.566  0.00  0.00    -0.047 C 
ATOM      6  C   LIG d   1     -13.863  65.669 119.960  0.00  0.00     0.091 C 
ENDROOT
BRANCH   1   7
ATOM      7  O   LIG d   1     -14.415  68.015 120.403  0.00  0.00    -0.368 OA
BRANCH   7   8
ATOM      8  C   LIG d   1     -15.762  68.532 120.539  0.00  0.00     0.119 C 
BRANCH   8   9
ATOM      9  C   LIG d   1     -16.241  68.951 119.136  0.00  0.00     0.028 C 
ATOM     10  C   LIG d   1     -16.695  70.420 119.085  0.00  0.00     0.006 C 
ENDBRANCH   8   9
BRANCH   8  11
ATOM     11  C   LIG d   1     -15.784  69.815 121.375  0.00  0.00     0.028 C 
ATOM     12  C   LIG d   1     -15.773  69.540 122.887  0.00  0.00     0.006 C 
ENDBRANCH   8  11
ENDBRANCH   7   8
ENDBRANCH   1   7
BRANCH   6  13
ATOM     13  N   LIG d   1     -15.155  65.299 119.325  0.00  0.00    -0.311 N 
ATOM     14  C   LIG d   1     -15.407  65.463 118.028  0.00  0.00     0.210 C 
ATOM     15  C   LIG d   1     -16.809  65.035 117.583  0.00  0.00     0.109 C 
ATOM     16  O   LIG d   1     -14.592  65.891 117.197  0.00  0.00    -0.276 OA
ATOM     17  H   LIG d   1     -15.863  64.915 119.921  0.00  0.00     0.149 HD
ENDBRANCH   6  13
BRANCH   5  18
ATOM     18  N   LIG d   1     -12.731  63.454 119.552  0.00  0.00     0.381 N 
ATOM     19  H   LIG d   1     -13.255  62.612 119.677  0.00  0.00    -0.090 HD
ATOM     20  H   LIG d   1     -11.757  63.241 119.676  0.00  0.00    -0.090 HD
ATOM     21  H   LIG d   1     -12.885  63.818 118.638  0.00  0.00    -0.090 HD
ENDBRANCH   5  18
BRANCH   3  22
ATOM     22  C   LIG d   1     -11.269  66.077 123.283  0.00  0.00     0.382 C 
ATOM     23  O   LIG d   1     -10.291  65.301 123.411  0.00  0.00    -0.241 OA
ATOM     24  O   LIG d   1     -11.512  66.909 124.178  0.00  0.00    -0.241 OA
ENDBRANCH   3  22
TORSDOF 7
ENDMDL
MODEL 8
REMARK VINA RESULT:      -4.4     32.674     34.325
REMARK  7 active torsions:
REMARK  status: ('A' for Active; 'I' for Inactive)
REMARK    1  A    between atoms: C_2  and  C_3 
REMARK    2  A    between atoms: C_3  and  O_6 
REMARK    3  A    between atoms: C_3  and  C_4 
REMARK    4  A    between atoms: C_7  and  O_6 
REMARK    5  A    between atoms: C_9  and  C_10 
REMARK    6  A    between atoms: N_15  and  C_14 
REMARK    7  A    between atoms: N_20  and  C_19 
REMARK       I    between atoms: C_22  and  N_20 
ROOT
ATOM      1  C   LIG d   1      -4.694  93.145 119.802  0.00  0.00     0.161 C 
ATOM      2  C   LIG d   1      -6.016  93.241 119.338  0.00  0.00     0.016 C 
ATOM      3  C   LIG d   1      -6.860  94.341 119.616  0.00  0.00     0.038 C 
ATOM      4  C   LIG d   1      -6.387  95.497 120.255  0.00  0.00     0.028 C 
ATOM      5  C   LIG d   1      -5.204  95.235 121.181  0.00  0.00    -0.047 C 
ATOM      6  C   LIG d   1      -4.124  94.446 120.406  0.00  0.00     0.091 C 
ENDROOT
BRANCH   1   7
ATOM      7  O   LIG d   1      -3.839  92.667 118.745  0.00  0.00    -0.368 OA
BRANCH   7   8
ATOM      8  C   LIG d   1      -3.237  91.365 118.952  0.00  0.00     0.119 C 
BRANCH   8   9
ATOM      9  C   LIG d   1      -1.723  91.580 119.142  0.00  0.00     0.028 C 
ATOM     10  C   LIG d   1      -1.180  92.729 118.277  0.00  0.00     0.006 C 
ENDBRANCH   8   9
BRANCH   8  11
ATOM     11  C   LIG d   1      -3.368  90.487 117.704  0.00  0.00     0.028 C 
ATOM     12  C   LIG d   1      -2.507  89.216 117.777  0.00  0.00     0.006 C 
ENDBRANCH   8  11
ENDBRANCH   7   8
ENDBRANCH   1   7
BRANCH   6  13
ATOM     13  N   LIG d   1      -2.969  94.075 121.264  0.00  0.00    -0.311 N 
ATOM     14  C   LIG d   1      -1.876  94.827 121.387  0.00  0.00     0.210 C 
ATOM     15  C   LIG d   1      -0.795  94.250 122.306  0.00  0.00     0.109 C 
ATOM     16  O   LIG d   1      -1.713  95.931 120.848  0.00  0.00    -0.276 OA
ATOM     17  H   LIG d   1      -3.030  93.209 121.762  0.00  0.00     0.149 HD
ENDBRANCH   6  13
BRANCH   5  18
ATOM     18  N   LIG d   1      -4.725  96.541 121.672  0.00  0.00     0.381 N 
ATOM     19  H   LIG d   1      -3.850  96.764 121.242  0.00  0.00    -0.090 HD
ATOM     20  H   LIG d   1      -4.582  96.482 122.665  0.00  0.00    -0.090 HD
ATOM     21  H   LIG d   1      -5.395  97.249 121.467  0.00  0.00    -0.090 HD
ENDBRANCH   5  18
BRANCH   3  22
ATOM     22  C   LIG d   1      -8.206  94.275 119.288  0.00  0.00     0.382 C 
ATOM     23  O   LIG d   1      -9.034  95.002 119.888  0.00  0.00    -0.241 OA
ATOM     24  O   LIG d   1      -8.608  93.465 118.432  0.00  0.00    -0.241 OA
ENDBRANCH   3  22
TORSDOF 7
ENDMDL
MODEL 9
REMARK VINA RESULT:      -4.3     18.383     19.724
REMARK  7 active torsions:
REMARK  status: ('A' for Active; 'I' for Inactive)
REMARK    1  A    between atoms: C_2  and  C_3 
REMARK    2  A    between atoms: C_3  and  O_6 
REMARK    3  A    between atoms: C_3  and  C_4 
REMARK    4  A    between atoms: C_7  and  O_6 
REMARK    5  A    between atoms: C_9  and  C_10 
REMARK    6  A    between atoms: N_15  and  C_14 
REMARK    7  A    between atoms: N_20  and  C_19 
REMARK       I    between atoms: C_22  and  N_20 
ROOT
ATOM      1  C   LIG d   1      -6.358  77.669 118.070  0.00  0.00     0.161 C 
ATOM      2  C   LIG d   1      -6.532  76.332 117.674  0.00  0.00     0.016 C 
ATOM      3  C   LIG d   1      -7.793  75.695 117.619  0.00  0.00     0.038 C 
ATOM      4  C   LIG d   1      -8.989  76.400 117.814  0.00  0.00     0.028 C 
ATOM      5  C   LIG d   1      -8.832  77.625 118.708  0.00  0.00    -0.047 C 
ATOM      6  C   LIG d   1      -7.662  78.486 118.179  0.00  0.00     0.091 C 
ENDROOT
BRANCH   1   7
ATOM      7  O   LIG d   1      -5.428  78.324 117.184  0.00  0.00    -0.368 OA
BRANCH   7   8
ATOM      8  C   LIG d   1      -4.127  78.632 117.741  0.00  0.00     0.119 C 
BRANCH   8   9
ATOM      9  C   LIG d   1      -3.695  80.001 117.180  0.00  0.00     0.028 C 
ATOM     10  C   LIG d   1      -3.690  81.100 118.256  0.00  0.00     0.006 C 
ENDBRANCH   8   9
BRANCH   8  11
ATOM     11  C   LIG d   1      -3.064  77.642 117.255  0.00  0.00     0.028 C 
ATOM     12  C   LIG d   1      -1.821  77.611 118.158  0.00  0.00     0.006 C 
ENDBRANCH   8  11
ENDBRANCH   7   8
ENDBRANCH   1   7
BRANCH   6  13
ATOM     13  N   LIG d   1      -7.386  79.661 119.045  0.00  0.00    -0.311 N 
ATOM     14  C   LIG d   1      -7.334  80.912 118.590  0.00  0.00     0.210 C 
ATOM     15  C   LIG d   1      -7.015  81.973 119.648  0.00  0.00     0.109 C 
ATOM     16  O   LIG d   1      -7.553  81.247 117.416  0.00  0.00    -0.276 OA
ATOM     17  H   LIG d   1      -7.226  79.484 120.018  0.00  0.00     0.149 HD
ENDBRANCH   6  13
BRANCH   5  18
ATOM     18  N   LIG d   1     -10.121  78.342 118.713  0.00  0.00     0.381 N 
ATOM     19  H   LIG d   1     -10.070  79.126 119.332  0.00  0.00    -0.090 HD
ATOM     20  H   LIG d   1     -10.837  77.721 119.048  0.00  0.00    -0.090 HD
ATOM     21  H   LIG d   1     -10.343  78.650 117.792  0.00  0.00    -0.090 HD
ENDBRANCH   5  18
BRANCH   3  22
ATOM     22  C   LIG d   1      -7.862  74.326 117.407  0.00  0.00     0.382 C 
ATOM     23  O   LIG d   1      -6.815  73.673 117.182  0.00  0.00    -0.241 OA
ATOM     24  O   LIG d   1      -8.963  73.744 117.393  0.00  0.00    -0.241 OA
ENDBRANCH   3  22
TORSDOF 7
ENDMDL
