MODEL 1
REMARK VINA RESULT:      -5.0      0.000      0.000
REMARK  7 active torsions:
REMARK  status: ('A' for Active; 'I' for Inactive)
REMARK    1  A    between atoms: C_2  and  C_3 
REMARK    2  A    between atoms: C_3  and  O_6 
REMARK    3  A    between atoms: C_3  and  C_4 
REMARK    4  A    between atoms: C_7  and  O_6 
REMARK    5  A    between atoms: C_9  and  C_10 
REMARK    6  A    between atoms: N_15  and  C_14 
REMARK    7  A    between atoms: N_20  and  C_19 
REMARK       I    between atoms: C_22  and  N_20 
ROOT
ATOM      1  C   LIG d   1       0.289  60.286 118.613  0.00  0.00     0.161 C 
ATOM      2  C   LIG d   1       1.633  60.279 119.022  0.00  0.00     0.016 C 
ATOM      3  C   LIG d   1       2.036  60.400 120.372  0.00  0.00     0.038 C 
ATOM      4  C   LIG d   1       1.110  60.383 121.426  0.00  0.00     0.028 C 
ATOM      5  C   LIG d   1      -0.269  60.899 121.030  0.00  0.00    -0.047 C 
ATOM      6  C   LIG d   1      -0.737  60.155 119.758  0.00  0.00     0.091 C 
ENDROOT
BRANCH   1   7
ATOM      7  O   LIG d   1       0.073  59.257 117.627  0.00  0.00    -0.368 OA
BRANCH   7   8
ATOM      8  C   LIG d   1      -0.445  57.998 118.123  0.00  0.00     0.119 C 
BRANCH   8   9
ATOM      9  C   LIG d   1       0.677  56.951 117.990  0.00  0.00     0.028 C 
ATOM     10  C   LIG d   1       1.314  56.598 119.345  0.00  0.00     0.006 C 
ENDBRANCH   8   9
BRANCH   8  11
ATOM     11  C   LIG d   1      -1.588  57.481 117.244  0.00  0.00     0.028 C 
ATOM     12  C   LIG d   1      -1.972  56.027 117.560  0.00  0.00     0.006 C 
ENDBRANCH   8  11
ENDBRANCH   7   8
ENDBRANCH   1   7
BRANCH   6  13
ATOM     13  N   LIG d   1      -2.041  60.659 119.254  0.00  0.00    -0.311 N 
ATOM     14  C   LIG d   1      -3.209  60.093 119.549  0.00  0.00     0.210 C 
ATOM     15  C   LIG d   1      -4.431  60.759 118.909  0.00  0.00     0.109 C 
ATOM     16  O   LIG d   1      -3.353  59.121 120.306  0.00  0.00    -0.276 OA
ATOM     17  H   LIG d   1      -2.019  61.464 118.658  0.00  0.00     0.149 HD
ENDBRANCH   6  13
BRANCH   5  18
ATOM     18  N   LIG d   1      -1.168  60.697 122.182  0.00  0.00     0.381 N 
ATOM     19  H   LIG d   1      -2.104  60.552 121.859  0.00  0.00    -0.090 HD
ATOM     20  H   LIG d   1      -1.157  61.525 122.752  0.00  0.00    -0.090 HD
ATOM     21  H   LIG d   1      -0.867  59.912 122.716  0.00  0.00    -0.090 HD
ENDBRANCH   5  18
BRANCH   3  22
ATOM     22  C   LIG d   1       3.377  60.579 120.676  0.00  0.00     0.382 C 
ATOM     23  O   LIG d   1       3.707  61.172 121.731  0.00  0.00    -0.241 OA
ATOM     24  O   LIG d   1       4.260  60.193 119.887  0.00  0.00    -0.241 OA
ENDBRANCH   3  22
TORSDOF 7
ENDMDL
MODEL 2
REMARK VINA RESULT:      -4.8      2.581      4.758
REMARK  7 active torsions:
REMARK  status: ('A' for Active; 'I' for Inactive)
REMARK    1  A    between atoms: C_2  and  C_3 
REMARK    2  A    between atoms: C_3  and  O_6 
REMARK    3  A    between atoms: C_3  and  C_4 
REMARK    4  A    between atoms: C_7  and  O_6 
REMARK    5  A    between atoms: C_9  and  C_10 
REMARK    6  A    between atoms: N_15  and  C_14 
REMARK    7  A    between atoms: N_20  and  C_19 
REMARK       I    between atoms: C_22  and  N_20 
ROOT
ATOM      1  C   LIG d   1       1.007  59.703 121.796  0.00  0.00     0.161 C 
ATOM      2  C   LIG d   1       2.395  59.514 121.899  0.00  0.00     0.016 C 
ATOM      3  C   LIG d   1       3.287  59.684 120.815  0.00  0.00     0.038 C 
ATOM      4  C   LIG d   1       2.865  60.205 119.583  0.00  0.00     0.028 C 
ATOM      5  C   LIG d   1       1.396  59.931 119.280  0.00  0.00    -0.047 C 
ATOM      6  C   LIG d   1       0.542  60.380 120.489  0.00  0.00     0.091 C 
ENDROOT
BRANCH   1   7
ATOM      7  O   LIG d   1       0.528  60.440 122.938  0.00  0.00    -0.368 OA
BRANCH   7   8
ATOM      8  C   LIG d   1       0.660  61.881 122.870  0.00  0.00     0.119 C 
BRANCH   8   9
ATOM      9  C   LIG d   1       1.624  62.311 123.992  0.00  0.00     0.028 C 
ATOM     10  C   LIG d   1       3.031  62.637 123.465  0.00  0.00     0.006 C 
ENDBRANCH   8   9
BRANCH   8  11
ATOM     11  C   LIG d   1      -0.667  62.578 123.184  0.00  0.00     0.028 C 
ATOM     12  C   LIG d   1      -0.535  63.640 124.287  0.00  0.00     0.006 C 
ENDBRANCH   8  11
ENDBRANCH   7   8
ENDBRANCH   1   7
BRANCH   6  13
ATOM     13  N   LIG d   1      -0.900  60.069 120.310  0.00  0.00    -0.311 N 
ATOM     14  C   LIG d   1      -1.824  60.996 120.063  0.00  0.00     0.210 C 
ATOM     15  C   LIG d   1      -3.255  60.465 119.934  0.00  0.00     0.109 C 
ATOM     16  O   LIG d   1      -1.590  62.204 119.907  0.00  0.00    -0.276 OA
ATOM     17  H   LIG d   1      -1.174  59.110 120.390  0.00  0.00     0.149 HD
ENDBRANCH   6  13
BRANCH   5  18
ATOM     18  N   LIG d   1       1.056  60.646 118.036  0.00  0.00     0.381 N 
ATOM     19  H   LIG d   1       0.371  61.350 118.225  0.00  0.00    -0.090 HD
ATOM     20  H   LIG d   1       0.663  59.992 117.382  0.00  0.00    -0.090 HD
ATOM     21  H   LIG d   1       1.873  61.063 117.648  0.00  0.00    -0.090 HD
ENDBRANCH   5  18
BRANCH   3  22
ATOM     22  C   LIG d   1       4.611  59.293 120.946  0.00  0.00     0.382 C 
ATOM     23  O   LIG d   1       4.962  58.585 121.921  0.00  0.00    -0.241 OA
ATOM     24  O   LIG d   1       5.467  59.676 120.126  0.00  0.00    -0.241 OA
ENDBRANCH   3  22
TORSDOF 7
ENDMDL
MODEL 3
REMARK VINA RESULT:      -4.7      2.362      4.409
REMARK  7 active torsions:
REMARK  status: ('A' for Active; 'I' for Inactive)
REMARK    1  A    between atoms: C_2  and  C_3 
REMARK    2  A    between atoms: C_3  and  O_6 
REMARK    3  A    between atoms: C_3  and  C_4 
REMARK    4  A    between atoms: C_7  and  O_6 
REMARK    5  A    between atoms: C_9  and  C_10 
REMARK    6  A    between atoms: N_15  and  C_14 
REMARK    7  A    between atoms: N_20  and  C_19 
REMARK       I    between atoms: C_22  and  N_20 
ROOT
ATOM      1  C   LIG d   1      -0.452  60.247 121.353  0.00  0.00     0.161 C 
ATOM      2  C   LIG d   1       0.002  60.886 122.519  0.00  0.00     0.016 C 
ATOM      3  C   LIG d   1       1.342  61.294 122.711  0.00  0.00     0.038 C 
ATOM      4  C   LIG d   1       2.293  61.227 121.681  0.00  0.00     0.028 C 
ATOM      5  C   LIG d   1       2.005  60.129 120.662  0.00  0.00    -0.047 C 
ATOM      6  C   LIG d   1       0.545  60.266 120.175  0.00  0.00     0.091 C 
ENDROOT
BRANCH   1   7
ATOM      7  O   LIG d   1      -1.716  60.810 120.948  0.00  0.00    -0.368 OA
BRANCH   7   8
ATOM      8  C   LIG d   1      -2.893  60.031 121.272  0.00  0.00     0.119 C 
BRANCH   8   9
ATOM      9  C   LIG d   1      -3.471  59.494 119.948  0.00  0.00     0.028 C 
ATOM     10  C   LIG d   1      -3.581  60.586 118.870  0.00  0.00     0.006 C 
ENDBRANCH   8   9
BRANCH   8  11
ATOM     11  C   LIG d   1      -3.996  60.910 121.869  0.00  0.00     0.028 C 
ATOM     12  C   LIG d   1      -4.439  60.444 123.265  0.00  0.00     0.006 C 
ENDBRANCH   8  11
ENDBRANCH   7   8
ENDBRANCH   1   7
BRANCH   6  13
ATOM     13  N   LIG d   1       0.155  59.179 119.239  0.00  0.00    -0.311 N 
ATOM     14  C   LIG d   1      -0.172  59.391 117.965  0.00  0.00     0.210 C 
ATOM     15  C   LIG d   1      -0.562  58.135 117.180  0.00  0.00     0.109 C 
ATOM     16  O   LIG d   1      -0.146  60.496 117.403  0.00  0.00    -0.276 OA
ATOM     17  H   LIG d   1       0.138  58.247 119.604  0.00  0.00     0.149 HD
ENDBRANCH   6  13
BRANCH   5  18
ATOM     18  N   LIG d   1       2.993  60.261 119.574  0.00  0.00     0.381 N 
ATOM     19  H   LIG d   1       3.217  59.357 119.209  0.00  0.00    -0.090 HD
ATOM     20  H   LIG d   1       3.833  60.667 119.946  0.00  0.00    -0.090 HD
ATOM     21  H   LIG d   1       2.627  60.839 118.850  0.00  0.00    -0.090 HD
ENDBRANCH   5  18
BRANCH   3  22
ATOM     22  C   LIG d   1       1.753  61.739 123.958  0.00  0.00     0.382 C 
ATOM     23  O   LIG d   1       1.511  61.053 124.980  0.00  0.00    -0.241 OA
ATOM     24  O   LIG d   1       2.323  62.840 124.079  0.00  0.00    -0.241 OA
ENDBRANCH   3  22
TORSDOF 7
ENDMDL
MODEL 4
REMARK VINA RESULT:      -4.6     21.382     23.674
REMARK  7 active torsions:
REMARK  status: ('A' for Active; 'I' for Inactive)
REMARK    1  A    between atoms: C_2  and  C_3 
REMARK    2  A    between atoms: C_3  and  O_6 
REMARK    3  A    between atoms: C_3  and  C_4 
REMARK    4  A    between atoms: C_7  and  O_6 
REMARK    5  A    between atoms: C_9  and  C_10 
REMARK    6  A    between atoms: N_15  and  C_14 
REMARK    7  A    between atoms: N_20  and  C_19 
REMARK       I    between atoms: C_22  and  N_20 
ROOT
ATOM      1  C   LIG d   1      -9.641  80.853 121.015  0.00  0.00     0.161 C 
ATOM      2  C   LIG d   1      -9.910  82.107 121.588  0.00  0.00     0.016 C 
ATOM      3  C   LIG d   1     -10.113  83.282 120.828  0.00  0.00     0.038 C 
ATOM      4  C   LIG d   1     -10.211  83.253 119.429  0.00  0.00     0.028 C 
ATOM      5  C   LIG d   1      -9.445  82.098 118.792  0.00  0.00    -0.047 C 
ATOM      6  C   LIG d   1      -9.854  80.780 119.488  0.00  0.00     0.091 C 
ENDROOT
BRANCH   1   7
ATOM      7  O   LIG d   1     -10.418  79.836 121.678  0.00  0.00    -0.368 OA
BRANCH   7   8
ATOM      8  C   LIG d   1      -9.688  78.956 122.569  0.00  0.00     0.119 C 
BRANCH   8   9
ATOM      9  C   LIG d   1      -8.188  79.258 122.391  0.00  0.00     0.028 C 
ATOM     10  C   LIG d   1      -7.404  78.044 121.865  0.00  0.00     0.006 C 
ENDBRANCH   8   9
BRANCH   8  11
ATOM     11  C   LIG d   1      -9.858  77.489 122.165  0.00  0.00     0.028 C 
ATOM     12  C   LIG d   1     -11.332  77.078 122.017  0.00  0.00     0.006 C 
ENDBRANCH   8  11
ENDBRANCH   7   8
ENDBRANCH   1   7
BRANCH   6  13
ATOM     13  N   LIG d   1      -9.089  79.611 118.983  0.00  0.00    -0.311 N 
ATOM     14  C   LIG d   1      -9.653  78.446 118.667  0.00  0.00     0.210 C 
ATOM     15  C   LIG d   1      -8.680  77.366 118.185  0.00  0.00     0.109 C 
ATOM     16  O   LIG d   1     -10.871  78.215 118.711  0.00  0.00    -0.276 OA
ATOM     17  H   LIG d   1      -8.098  79.720 118.887  0.00  0.00     0.149 HD
ENDBRANCH   6  13
BRANCH   5  18
ATOM     18  N   LIG d   1      -9.745  82.107 117.348  0.00  0.00     0.381 N 
ATOM     19  H   LIG d   1      -8.892  82.123 116.825  0.00  0.00    -0.090 HD
ATOM     20  H   LIG d   1     -10.265  82.938 117.129  0.00  0.00    -0.090 HD
ATOM     21  H   LIG d   1     -10.276  81.300 117.105  0.00  0.00    -0.090 HD
ENDBRANCH   5  18
BRANCH   3  22
ATOM     22  C   LIG d   1     -10.181  84.511 121.467  0.00  0.00     0.382 C 
ATOM     23  O   LIG d   1      -9.266  84.861 122.251  0.00  0.00    -0.241 OA
ATOM     24  O   LIG d   1     -11.167  85.254 121.304  0.00  0.00    -0.241 OA
ENDBRANCH   3  22
TORSDOF 7
ENDMDL
MODEL 5
REMARK VINA RESULT:      -4.6      2.488      5.603
REMARK  7 active torsions:
REMARK  status: ('A' for Active; 'I' for Inactive)
REMARK    1  A    between atoms: C_2  and  C_3 
REMARK    2  A    between atoms: C_3  and  O_6 
REMARK    3  A    between atoms: C_3  and  C_4 
REMARK    4  A    between atoms: C_7  and  O_6 
REMARK    5  A    between atoms: C_9  and  C_10 
REMARK    6  A    between atoms: N_15  and  C_14 
REMARK    7  A    between atoms: N_20  and  C_19 
REMARK       I    between atoms: C_22  and  N_20 
ROOT
ATOM      1  C   LIG d   1      -0.049  58.529 118.204  0.00  0.00     0.161 C 
ATOM      2  C   LIG d   1      -1.006  59.481 118.593  0.00  0.00     0.016 C 
ATOM      3  C   LIG d   1      -2.267  59.140 119.133  0.00  0.00     0.038 C 
ATOM      4  C   LIG d   1      -2.600  57.818 119.463  0.00  0.00     0.028 C 
ATOM      5  C   LIG d   1      -1.864  56.780 118.621  0.00  0.00    -0.047 C 
ATOM      6  C   LIG d   1      -0.349  57.086 118.659  0.00  0.00     0.091 C 
ENDROOT
BRANCH   1   7
ATOM      7  O   LIG d   1       1.258  58.936 118.658  0.00  0.00    -0.368 OA
BRANCH   7   8
ATOM      8  C   LIG d   1       1.285  59.936 119.706  0.00  0.00     0.119 C 
BRANCH   8   9
ATOM      9  C   LIG d   1       2.527  60.817 119.473  0.00  0.00     0.028 C 
ATOM     10  C   LIG d   1       3.824  60.144 119.952  0.00  0.00     0.006 C 
ENDBRANCH   8   9
BRANCH   8  11
ATOM     11  C   LIG d   1       1.496  59.295 121.082  0.00  0.00     0.028 C 
ATOM     12  C   LIG d   1       0.889  60.125 122.224  0.00  0.00     0.006 C 
ENDBRANCH   8  11
ENDBRANCH   7   8
ENDBRANCH   1   7
BRANCH   6  13
ATOM     13  N   LIG d   1       0.436  56.168 117.793  0.00  0.00    -0.311 N 
ATOM     14  C   LIG d   1       1.434  55.410 118.244  0.00  0.00     0.210 C 
ATOM     15  C   LIG d   1       2.125  54.551 117.180  0.00  0.00     0.109 C 
ATOM     16  O   LIG d   1       1.791  55.343 119.430  0.00  0.00    -0.276 OA
ATOM     17  H   LIG d   1       0.192  56.137 116.823  0.00  0.00     0.149 HD
ENDBRANCH   6  13
BRANCH   5  18
ATOM     18  N   LIG d   1      -2.199  55.449 119.162  0.00  0.00     0.381 N 
ATOM     19  H   LIG d   1      -1.386  55.036 119.572  0.00  0.00    -0.090 HD
ATOM     20  H   LIG d   1      -2.506  54.860 118.408  0.00  0.00    -0.090 HD
ATOM     21  H   LIG d   1      -2.920  55.530 119.844  0.00  0.00    -0.090 HD
ENDBRANCH   5  18
BRANCH   3  22
ATOM     22  C   LIG d   1      -3.227  60.124 119.311  0.00  0.00     0.382 C 
ATOM     23  O   LIG d   1      -2.964  61.316 119.021  0.00  0.00    -0.241 OA
ATOM     24  O   LIG d   1      -4.338  59.843 119.800  0.00  0.00    -0.241 OA
ENDBRANCH   3  22
TORSDOF 7
ENDMDL
MODEL 6
REMARK VINA RESULT:      -4.5      2.855      5.329
REMARK  7 active torsions:
REMARK  status: ('A' for Active; 'I' for Inactive)
REMARK    1  A    between atoms: C_2  and  C_3 
REMARK    2  A    between atoms: C_3  and  O_6 
REMARK    3  A    between atoms: C_3  and  C_4 
REMARK    4  A    between atoms: C_7  and  O_6 
REMARK    5  A    between atoms: C_9  and  C_10 
REMARK    6  A    between atoms: N_15  and  C_14 
REMARK    7  A    between atoms: N_20  and  C_19 
REMARK       I    between atoms: C_22  and  N_20 
ROOT
ATOM      1  C   LIG d   1      -2.724  58.152 121.055  0.00  0.00     0.161 C 
ATOM      2  C   LIG d   1      -3.693  57.762 121.994  0.00  0.00     0.016 C 
ATOM      3  C   LIG d   1      -4.288  58.654 122.915  0.00  0.00     0.038 C 
ATOM      4  C   LIG d   1      -4.062  60.037 122.859  0.00  0.00     0.028 C 
ATOM      5  C   LIG d   1      -2.710  60.406 122.259  0.00  0.00    -0.047 C 
ATOM      6  C   LIG d   1      -2.546  59.677 120.905  0.00  0.00     0.091 C 
ENDROOT
BRANCH   1   7
ATOM      7  O   LIG d   1      -3.013  57.553 119.776  0.00  0.00    -0.368 OA
BRANCH   7   8
ATOM      8  C   LIG d   1      -2.076  56.548 119.317  0.00  0.00     0.119 C 
BRANCH   8   9
ATOM      9  C   LIG d   1      -1.771  56.841 117.835  0.00  0.00     0.028 C 
ATOM     10  C   LIG d   1      -0.262  56.893 117.545  0.00  0.00     0.006 C 
ENDBRANCH   8   9
BRANCH   8  11
ATOM     11  C   LIG d   1      -2.704  55.151 119.334  0.00  0.00     0.028 C 
ATOM     12  C   LIG d   1      -1.824  54.110 120.042  0.00  0.00     0.006 C 
ENDBRANCH   8  11
ENDBRANCH   7   8
ENDBRANCH   1   7
BRANCH   6  13
ATOM     13  N   LIG d   1      -1.215  59.917 120.290  0.00  0.00    -0.311 N 
ATOM     14  C   LIG d   1      -1.047  60.239 119.008  0.00  0.00     0.210 C 
ATOM     15  C   LIG d   1       0.410  60.423 118.573  0.00  0.00     0.109 C 
ATOM     16  O   LIG d   1      -1.968  60.423 118.198  0.00  0.00    -0.276 OA
ATOM     17  H   LIG d   1      -0.414  59.820 120.883  0.00  0.00     0.149 HD
ENDBRANCH   6  13
BRANCH   5  18
ATOM     18  N   LIG d   1      -2.664  61.875 122.134  0.00  0.00     0.381 N 
ATOM     19  H   LIG d   1      -2.577  62.290 123.040  0.00  0.00    -0.090 HD
ATOM     20  H   LIG d   1      -3.523  62.194 121.722  0.00  0.00    -0.090 HD
ATOM     21  H   LIG d   1      -1.893  62.145 121.562  0.00  0.00    -0.090 HD
ENDBRANCH   5  18
BRANCH   3  22
ATOM     22  C   LIG d   1      -5.089  58.158 123.932  0.00  0.00     0.382 C 
ATOM     23  O   LIG d   1      -5.096  56.929 124.183  0.00  0.00    -0.241 OA
ATOM     24  O   LIG d   1      -5.839  58.918 124.573  0.00  0.00    -0.241 OA
ENDBRANCH   3  22
TORSDOF 7
ENDMDL
MODEL 7
REMARK VINA RESULT:      -4.5      2.590      3.836
REMARK  7 active torsions:
REMARK  status: ('A' for Active; 'I' for Inactive)
REMARK    1  A    between atoms: C_2  and  C_3 
REMARK    2  A    between atoms: C_3  and  O_6 
REMARK    3  A    between atoms: C_3  and  C_4 
REMARK    4  A    between atoms: C_7  and  O_6 
REMARK    5  A    between atoms: C_9  and  C_10 
REMARK    6  A    between atoms: N_15  and  C_14 
REMARK    7  A    between atoms: N_20  and  C_19 
REMARK       I    between atoms: C_22  and  N_20 
ROOT
ATOM      1  C   LIG d   1      -2.895  59.698 120.332  0.00  0.00     0.161 C 
ATOM      2  C   LIG d   1      -1.894  59.686 119.346  0.00  0.00     0.016 C 
ATOM      3  C   LIG d   1      -0.712  60.457 119.428  0.00  0.00     0.038 C 
ATOM      4  C   LIG d   1      -0.379  61.183 120.581  0.00  0.00     0.028 C 
ATOM      5  C   LIG d   1      -1.593  61.625 121.390  0.00  0.00    -0.047 C 
ATOM      6  C   LIG d   1      -2.498  60.399 121.648  0.00  0.00     0.091 C 
ENDROOT
BRANCH   1   7
ATOM      7  O   LIG d   1      -3.339  58.353 120.595  0.00  0.00    -0.368 OA
BRANCH   7   8
ATOM      8  C   LIG d   1      -2.312  57.331 120.594  0.00  0.00     0.119 C 
BRANCH   8   9
ATOM      9  C   LIG d   1      -2.832  56.152 119.749  0.00  0.00     0.028 C 
ATOM     10  C   LIG d   1      -1.931  55.855 118.538  0.00  0.00     0.006 C 
ENDBRANCH   8   9
BRANCH   8  11
ATOM     11  C   LIG d   1      -2.094  56.759 121.998  0.00  0.00     0.028 C 
ATOM     12  C   LIG d   1      -0.820  57.295 122.669  0.00  0.00     0.006 C 
ENDBRANCH   8  11
ENDBRANCH   7   8
ENDBRANCH   1   7
BRANCH   6  13
ATOM     13  N   LIG d   1      -3.751  60.759 122.362  0.00  0.00    -0.311 N 
ATOM     14  C   LIG d   1      -4.103  60.236 123.535  0.00  0.00     0.210 C 
ATOM     15  C   LIG d   1      -5.444  60.730 124.087  0.00  0.00     0.109 C 
ATOM     16  O   LIG d   1      -3.416  59.435 124.187  0.00  0.00    -0.276 OA
ATOM     17  H   LIG d   1      -4.353  61.426 121.919  0.00  0.00     0.149 HD
ENDBRANCH   6  13
BRANCH   5  18
ATOM     18  N   LIG d   1      -1.098  62.249 122.632  0.00  0.00     0.381 N 
ATOM     19  H   LIG d   1      -1.293  63.230 122.619  0.00  0.00    -0.090 HD
ATOM     20  H   LIG d   1      -0.102  62.127 122.683  0.00  0.00    -0.090 HD
ATOM     21  H   LIG d   1      -1.533  61.827 123.423  0.00  0.00    -0.090 HD
ENDBRANCH   5  18
BRANCH   3  22
ATOM     22  C   LIG d   1       0.133  60.538 118.331  0.00  0.00     0.382 C 
ATOM     23  O   LIG d   1       1.336  60.855 118.489  0.00  0.00    -0.241 OA
ATOM     24  O   LIG d   1      -0.304  60.341 117.182  0.00  0.00    -0.241 OA
ENDBRANCH   3  22
TORSDOF 7
ENDMDL
MODEL 8
REMARK VINA RESULT:      -4.5      2.456      4.582
REMARK  7 active torsions:
REMARK  status: ('A' for Active; 'I' for Inactive)
REMARK    1  A    between atoms: C_2  and  C_3 
REMARK    2  A    between atoms: C_3  and  O_6 
REMARK    3  A    between atoms: C_3  and  C_4 
REMARK    4  A    between atoms: C_7  and  O_6 
REMARK    5  A    between atoms: C_9  and  C_10 
REMARK    6  A    between atoms: N_15  and  C_14 
REMARK    7  A    between atoms: N_20  and  C_19 
REMARK       I    between atoms: C_22  and  N_20 
ROOT
ATOM      1  C   LIG d   1       0.458  58.112 119.117  0.00  0.00     0.161 C 
ATOM      2  C   LIG d   1       1.422  57.092 119.071  0.00  0.00     0.016 C 
ATOM      3  C   LIG d   1       1.116  55.744 118.770  0.00  0.00     0.038 C 
ATOM      4  C   LIG d   1      -0.161  55.352 118.343  0.00  0.00     0.028 C 
ATOM      5  C   LIG d   1      -1.277  56.253 118.863  0.00  0.00    -0.047 C 
ATOM      6  C   LIG d   1      -0.922  57.724 118.546  0.00  0.00     0.091 C 
ENDROOT
BRANCH   1   7
ATOM      7  O   LIG d   1       0.960  59.290 118.456  0.00  0.00    -0.368 OA
BRANCH   7   8
ATOM      8  C   LIG d   1       1.223  60.434 119.304  0.00  0.00     0.119 C 
BRANCH   8   9
ATOM      9  C   LIG d   1       2.748  60.655 119.326  0.00  0.00     0.028 C 
ATOM     10  C   LIG d   1       3.421  59.980 120.532  0.00  0.00     0.006 C 
ENDBRANCH   8   9
BRANCH   8  11
ATOM     11  C   LIG d   1       0.833  60.151 120.758  0.00  0.00     0.028 C 
ATOM     12  C   LIG d   1      -0.188  61.159 121.309  0.00  0.00     0.006 C 
ENDBRANCH   8  11
ENDBRANCH   7   8
ENDBRANCH   1   7
BRANCH   6  13
ATOM     13  N   LIG d   1      -1.921  58.678 119.095  0.00  0.00    -0.311 N 
ATOM     14  C   LIG d   1      -2.310  59.780 118.457  0.00  0.00     0.210 C 
ATOM     15  C   LIG d   1      -3.333  60.636 119.209  0.00  0.00     0.109 C 
ATOM     16  O   LIG d   1      -1.928  60.113 117.325  0.00  0.00    -0.276 OA
ATOM     17  H   LIG d   1      -2.305  58.468 119.996  0.00  0.00     0.149 HD
ENDBRANCH   6  13
BRANCH   5  18
ATOM     18  N   LIG d   1      -2.535  55.813 118.232  0.00  0.00     0.381 N 
ATOM     19  H   LIG d   1      -2.624  56.229 117.327  0.00  0.00    -0.090 HD
ATOM     20  H   LIG d   1      -3.307  56.119 118.798  0.00  0.00    -0.090 HD
ATOM     21  H   LIG d   1      -2.547  54.820 118.151  0.00  0.00    -0.090 HD
ENDBRANCH   5  18
BRANCH   3  22
ATOM     22  C   LIG d   1       2.086  54.766 118.932  0.00  0.00     0.382 C 
ATOM     23  O   LIG d   1       2.258  54.236 120.056  0.00  0.00    -0.241 OA
ATOM     24  O   LIG d   1       2.820  54.440 117.981  0.00  0.00    -0.241 OA
ENDBRANCH   3  22
TORSDOF 7
ENDMDL
MODEL 9
REMARK VINA RESULT:      -4.4     31.637     33.133
REMARK  7 active torsions:
REMARK  status: ('A' for Active; 'I' for Inactive)
REMARK    1  A    between atoms: C_2  and  C_3 
REMARK    2  A    between atoms: C_3  and  O_6 
REMARK    3  A    between atoms: C_3  and  C_4 
REMARK    4  A    between atoms: C_7  and  O_6 
REMARK    5  A    between atoms: C_9  and  C_10 
REMARK    6  A    between atoms: N_15  and  C_14 
REMARK    7  A    between atoms: N_20  and  C_19 
REMARK       I    between atoms: C_22  and  N_20 
ROOT
ATOM      1  C   LIG d   1      -3.164  92.228 118.526  0.00  0.00     0.161 C 
ATOM      2  C   LIG d   1      -2.523  90.992 118.342  0.00  0.00     0.016 C 
ATOM      3  C   LIG d   1      -3.206  89.806 117.987  0.00  0.00     0.038 C 
ATOM      4  C   LIG d   1      -4.566  89.809 117.643  0.00  0.00     0.028 C 
ATOM      5  C   LIG d   1      -5.356  90.934 118.303  0.00  0.00    -0.047 C 
ATOM      6  C   LIG d   1      -4.630  92.274 118.046  0.00  0.00     0.091 C 
ENDROOT
BRANCH   1   7
ATOM      7  O   LIG d   1      -2.398  93.275 117.898  0.00  0.00    -0.368 OA
BRANCH   7   8
ATOM      8  C   LIG d   1      -1.928  94.332 118.769  0.00  0.00     0.119 C 
BRANCH   8   9
ATOM      9  C   LIG d   1      -0.403  94.447 118.578  0.00  0.00     0.028 C 
ATOM     10  C   LIG d   1       0.359  93.281 119.230  0.00  0.00     0.006 C 
ENDBRANCH   8   9
BRANCH   8  11
ATOM     11  C   LIG d   1      -2.125  93.968 120.244  0.00  0.00     0.028 C 
ATOM     12  C   LIG d   1      -2.862  95.061 121.034  0.00  0.00     0.006 C 
ENDBRANCH   8  11
ENDBRANCH   7   8
ENDBRANCH   1   7
BRANCH   6  13
ATOM     13  N   LIG d   1      -5.292  93.416 118.729  0.00  0.00    -0.311 N 
ATOM     14  C   LIG d   1      -6.350  94.055 118.232  0.00  0.00     0.210 C 
ATOM     15  C   LIG d   1      -6.864  95.217 119.087  0.00  0.00     0.109 C 
ATOM     16  O   LIG d   1      -6.931  93.748 117.180  0.00  0.00    -0.276 OA
ATOM     17  H   LIG d   1      -4.904  93.711 119.604  0.00  0.00     0.149 HD
ENDBRANCH   6  13
BRANCH   5  18
ATOM     18  N   LIG d   1      -6.723  90.901 117.750  0.00  0.00     0.381 N 
ATOM     19  H   LIG d   1      -7.390  90.981 118.491  0.00  0.00    -0.090 HD
ATOM     20  H   LIG d   1      -6.867  90.020 117.290  0.00  0.00    -0.090 HD
ATOM     21  H   LIG d   1      -6.846  91.647 117.101  0.00  0.00    -0.090 HD
ENDBRANCH   5  18
BRANCH   3  22
ATOM     22  C   LIG d   1      -2.535  88.593 118.014  0.00  0.00     0.382 C 
ATOM     23  O   LIG d   1      -1.529  88.417 117.285  0.00  0.00    -0.241 OA
ATOM     24  O   LIG d   1      -2.949  87.657 118.724  0.00  0.00    -0.241 OA
ENDBRANCH   3  22
TORSDOF 7
ENDMDL
