MODEL 1
REMARK VINA RESULT:      -5.0      0.000      0.000
REMARK  7 active torsions:
REMARK  status: ('A' for Active; 'I' for Inactive)
REMARK    1  A    between atoms: C_2  and  C_3 
REMARK    2  A    between atoms: C_3  and  O_6 
REMARK    3  A    between atoms: C_3  and  C_4 
REMARK    4  A    between atoms: C_7  and  O_6 
REMARK    5  A    between atoms: C_9  and  C_10 
REMARK    6  A    between atoms: N_15  and  C_14 
REMARK    7  A    between atoms: N_20  and  C_19 
REMARK       I    between atoms: C_22  and  N_20 
ROOT
ATOM      1  C   LIG d   1      -1.506  60.676 118.904  0.00  0.00     0.161 C 
ATOM      2  C   LIG d   1      -0.104  60.582 118.892  0.00  0.00     0.016 C 
ATOM      3  C   LIG d   1       0.679  60.488 120.065  0.00  0.00     0.038 C 
ATOM      4  C   LIG d   1       0.100  60.328 121.333  0.00  0.00     0.028 C 
ATOM      5  C   LIG d   1      -1.300  60.923 121.439  0.00  0.00    -0.047 C 
ATOM      6  C   LIG d   1      -2.161  60.390 120.271  0.00  0.00     0.091 C 
ENDROOT
BRANCH   1   7
ATOM      7  O   LIG d   1      -2.061  59.813 117.892  0.00  0.00    -0.368 OA
BRANCH   7   8
ATOM      8  C   LIG d   1      -2.477  58.497 118.334  0.00  0.00     0.119 C 
BRANCH   8   9
ATOM      9  C   LIG d   1      -1.545  57.468 117.665  0.00  0.00     0.028 C 
ATOM     10  C   LIG d   1      -0.567  56.825 118.663  0.00  0.00     0.006 C 
ENDBRANCH   8   9
BRANCH   8  11
ATOM     11  C   LIG d   1      -3.883  58.158 117.831  0.00  0.00     0.028 C 
ATOM     12  C   LIG d   1      -4.610  59.373 117.233  0.00  0.00     0.006 C 
ENDBRANCH   8  11
ENDBRANCH   7   8
ENDBRANCH   1   7
BRANCH   6  13
ATOM     13  N   LIG d   1      -3.522  60.988 120.252  0.00  0.00    -0.311 N 
ATOM     14  C   LIG d   1      -4.588  60.402 120.793  0.00  0.00     0.210 C 
ATOM     15  C   LIG d   1      -5.899  61.181 120.644  0.00  0.00     0.109 C 
ATOM     16  O   LIG d   1      -4.567  59.327 121.411  0.00  0.00    -0.276 OA
ATOM     17  H   LIG d   1      -3.623  61.875 119.798  0.00  0.00     0.149 HD
ENDBRANCH   6  13
BRANCH   5  18
ATOM     18  N   LIG d   1      -1.837  60.564 122.765  0.00  0.00     0.381 N 
ATOM     19  H   LIG d   1      -2.779  60.238 122.672  0.00  0.00    -0.090 HD
ATOM     20  H   LIG d   1      -1.843  61.384 123.346  0.00  0.00    -0.090 HD
ATOM     21  H   LIG d   1      -1.273  59.857 123.181  0.00  0.00    -0.090 HD
ENDBRANCH   5  18
BRANCH   3  22
ATOM     22  C   LIG d   1       2.059  60.595 119.980  0.00  0.00     0.382 C 
ATOM     23  O   LIG d   1       2.712  61.070 120.941  0.00  0.00    -0.241 OA
ATOM     24  O   LIG d   1       2.656  60.263 118.938  0.00  0.00    -0.241 OA
ENDBRANCH   3  22
TORSDOF 7
ENDMDL
MODEL 2
REMARK VINA RESULT:      -4.8     21.755     23.725
REMARK  7 active torsions:
REMARK  status: ('A' for Active; 'I' for Inactive)
REMARK    1  A    between atoms: C_2  and  C_3 
REMARK    2  A    between atoms: C_3  and  O_6 
REMARK    3  A    between atoms: C_3  and  C_4 
REMARK    4  A    between atoms: C_7  and  O_6 
REMARK    5  A    between atoms: C_9  and  C_10 
REMARK    6  A    between atoms: N_15  and  C_14 
REMARK    7  A    between atoms: N_20  and  C_19 
REMARK       I    between atoms: C_22  and  N_20 
ROOT
ATOM      1  C   LIG d   1      -8.276  81.981 119.908  0.00  0.00     0.161 C 
ATOM      2  C   LIG d   1      -8.379  80.638 119.511  0.00  0.00     0.016 C 
ATOM      3  C   LIG d   1      -9.457  80.133 118.748  0.00  0.00     0.038 C 
ATOM      4  C   LIG d   1     -10.436  80.975 118.199  0.00  0.00     0.028 C 
ATOM      5  C   LIG d   1     -10.646  82.258 118.995  0.00  0.00    -0.047 C 
ATOM      6  C   LIG d   1      -9.276  82.937 119.225  0.00  0.00     0.091 C 
ENDROOT
BRANCH   1   7
ATOM      7  O   LIG d   1      -6.926  82.446 119.712  0.00  0.00    -0.368 OA
BRANCH   7   8
ATOM      8  C   LIG d   1      -6.127  82.608 120.911  0.00  0.00     0.119 C 
BRANCH   8   9
ATOM      9  C   LIG d   1      -5.957  84.121 121.152  0.00  0.00     0.028 C 
ATOM     10  C   LIG d   1      -6.394  84.542 122.565  0.00  0.00     0.006 C 
ENDBRANCH   8   9
BRANCH   8  11
ATOM     11  C   LIG d   1      -4.708  82.067 120.712  0.00  0.00     0.028 C 
ATOM     12  C   LIG d   1      -4.670  80.798 119.845  0.00  0.00     0.006 C 
ENDBRANCH   8  11
ENDBRANCH   7   8
ENDBRANCH   1   7
BRANCH   6  13
ATOM     13  N   LIG d   1      -9.382  84.156 120.068  0.00  0.00    -0.311 N 
ATOM     14  C   LIG d   1      -9.920  84.160 121.287  0.00  0.00     0.210 C 
ATOM     15  C   LIG d   1      -9.947  85.528 121.976  0.00  0.00     0.109 C 
ATOM     16  O   LIG d   1     -10.347  83.155 121.875  0.00  0.00    -0.276 OA
ATOM     17  H   LIG d   1      -9.031  85.010 119.681  0.00  0.00     0.149 HD
ENDBRANCH   6  13
BRANCH   5  18
ATOM     18  N   LIG d   1     -11.590  83.103 118.239  0.00  0.00     0.381 N 
ATOM     19  H   LIG d   1     -11.951  82.591 117.458  0.00  0.00    -0.090 HD
ATOM     20  H   LIG d   1     -11.099  83.907 117.889  0.00  0.00    -0.090 HD
ATOM     21  H   LIG d   1     -12.338  83.392 118.830  0.00  0.00    -0.090 HD
ENDBRANCH   5  18
BRANCH   3  22
ATOM     22  C   LIG d   1      -9.586  78.765 118.562  0.00  0.00     0.382 C 
ATOM     23  O   LIG d   1      -8.592  78.084 118.210  0.00  0.00    -0.241 OA
ATOM     24  O   LIG d   1     -10.692  78.210 118.697  0.00  0.00    -0.241 OA
ENDBRANCH   3  22
TORSDOF 7
ENDMDL
MODEL 3
REMARK VINA RESULT:      -4.4     21.589     23.532
REMARK  7 active torsions:
REMARK  status: ('A' for Active; 'I' for Inactive)
REMARK    1  A    between atoms: C_2  and  C_3 
REMARK    2  A    between atoms: C_3  and  O_6 
REMARK    3  A    between atoms: C_3  and  C_4 
REMARK    4  A    between atoms: C_7  and  O_6 
REMARK    5  A    between atoms: C_9  and  C_10 
REMARK    6  A    between atoms: N_15  and  C_14 
REMARK    7  A    between atoms: N_20  and  C_19 
REMARK       I    between atoms: C_22  and  N_20 
ROOT
ATOM      1  C   LIG d   1      -8.211  82.004 119.805  0.00  0.00     0.161 C 
ATOM      2  C   LIG d   1      -8.317  80.663 119.401  0.00  0.00     0.016 C 
ATOM      3  C   LIG d   1      -9.427  80.149 118.693  0.00  0.00     0.038 C 
ATOM      4  C   LIG d   1     -10.445  80.981 118.204  0.00  0.00     0.028 C 
ATOM      5  C   LIG d   1     -10.630  82.255 119.021  0.00  0.00    -0.047 C 
ATOM      6  C   LIG d   1      -9.260  82.951 119.184  0.00  0.00     0.091 C 
ENDROOT
BRANCH   1   7
ATOM      7  O   LIG d   1      -6.880  82.490 119.542  0.00  0.00    -0.368 OA
BRANCH   7   8
ATOM      8  C   LIG d   1      -6.035  82.692 120.701  0.00  0.00     0.119 C 
BRANCH   8   9
ATOM      9  C   LIG d   1      -4.877  81.679 120.612  0.00  0.00     0.028 C 
ATOM     10  C   LIG d   1      -5.113  80.439 121.492  0.00  0.00     0.006 C 
ENDBRANCH   8   9
BRANCH   8  11
ATOM     11  C   LIG d   1      -6.775  82.350 121.997  0.00  0.00     0.028 C 
ATOM     12  C   LIG d   1      -6.744  83.495 123.021  0.00  0.00     0.006 C 
ENDBRANCH   8  11
ENDBRANCH   7   8
ENDBRANCH   1   7
BRANCH   6  13
ATOM     13  N   LIG d   1      -9.337  84.162 120.042  0.00  0.00    -0.311 N 
ATOM     14  C   LIG d   1      -9.899  84.170 121.250  0.00  0.00     0.210 C 
ATOM     15  C   LIG d   1      -9.889  85.528 121.958  0.00  0.00     0.109 C 
ATOM     16  O   LIG d   1     -10.375  83.174 121.815  0.00  0.00    -0.276 OA
ATOM     17  H   LIG d   1      -8.946  85.007 119.675  0.00  0.00     0.149 HD
ENDBRANCH   6  13
BRANCH   5  18
ATOM     18  N   LIG d   1     -11.624  83.092 118.323  0.00  0.00     0.381 N 
ATOM     19  H   LIG d   1     -12.344  83.367 118.962  0.00  0.00    -0.090 HD
ATOM     20  H   LIG d   1     -12.045  82.552 117.588  0.00  0.00    -0.090 HD
ATOM     21  H   LIG d   1     -11.183  83.899 117.941  0.00  0.00    -0.090 HD
ENDBRANCH   5  18
BRANCH   3  22
ATOM     22  C   LIG d   1      -9.547  78.781 118.501  0.00  0.00     0.382 C 
ATOM     23  O   LIG d   1     -10.654  78.217 118.675  0.00  0.00    -0.241 OA
ATOM     24  O   LIG d   1      -8.551  78.096 118.199  0.00  0.00    -0.241 OA
ENDBRANCH   3  22
TORSDOF 7
ENDMDL
MODEL 4
REMARK VINA RESULT:      -4.4     20.855     24.212
REMARK  7 active torsions:
REMARK  status: ('A' for Active; 'I' for Inactive)
REMARK    1  A    between atoms: C_2  and  C_3 
REMARK    2  A    between atoms: C_3  and  O_6 
REMARK    3  A    between atoms: C_3  and  C_4 
REMARK    4  A    between atoms: C_7  and  O_6 
REMARK    5  A    between atoms: C_9  and  C_10 
REMARK    6  A    between atoms: N_15  and  C_14 
REMARK    7  A    between atoms: N_20  and  C_19 
REMARK       I    between atoms: C_22  and  N_20 
ROOT
ATOM      1  C   LIG d   1     -17.713  77.136 119.784  0.00  0.00     0.161 C 
ATOM      2  C   LIG d   1     -18.328  78.372 120.046  0.00  0.00     0.016 C 
ATOM      3  C   LIG d   1     -19.727  78.535 120.169  0.00  0.00     0.038 C 
ATOM      4  C   LIG d   1     -20.602  77.438 120.190  0.00  0.00     0.028 C 
ATOM      5  C   LIG d   1     -20.075  76.228 119.425  0.00  0.00    -0.047 C 
ATOM      6  C   LIG d   1     -18.643  75.911 119.914  0.00  0.00     0.091 C 
ENDROOT
BRANCH   1   7
ATOM      7  O   LIG d   1     -16.556  76.977 120.628  0.00  0.00    -0.368 OA
BRANCH   7   8
ATOM      8  C   LIG d   1     -16.729  76.137 121.796  0.00  0.00     0.119 C 
BRANCH   8   9
ATOM      9  C   LIG d   1     -16.673  77.051 123.036  0.00  0.00     0.028 C 
ATOM     10  C   LIG d   1     -18.067  77.334 123.620  0.00  0.00     0.006 C 
ENDBRANCH   8   9
BRANCH   8  11
ATOM     11  C   LIG d   1     -15.559  75.162 121.959  0.00  0.00     0.028 C 
ATOM     12  C   LIG d   1     -15.977  73.835 122.612  0.00  0.00     0.006 C 
ENDBRANCH   8  11
ENDBRANCH   7   8
ENDBRANCH   1   7
BRANCH   6  13
ATOM     13  N   LIG d   1     -18.022  74.792 119.158  0.00  0.00    -0.311 N 
ATOM     14  C   LIG d   1     -18.100  73.518 119.538  0.00  0.00     0.210 C 
ATOM     15  C   LIG d   1     -17.371  72.526 118.627  0.00  0.00     0.109 C 
ATOM     16  O   LIG d   1     -18.731  73.112 120.526  0.00  0.00    -0.276 OA
ATOM     17  H   LIG d   1     -17.516  75.029 118.327  0.00  0.00     0.149 HD
ENDBRANCH   6  13
BRANCH   5  18
ATOM     18  N   LIG d   1     -21.020  75.117 119.644  0.00  0.00     0.381 N 
ATOM     19  H   LIG d   1     -21.951  75.475 119.726  0.00  0.00    -0.090 HD
ATOM     20  H   LIG d   1     -20.784  74.654 120.504  0.00  0.00    -0.090 HD
ATOM     21  H   LIG d   1     -20.970  74.473 118.886  0.00  0.00    -0.090 HD
ENDBRANCH   5  18
BRANCH   3  22
ATOM     22  C   LIG d   1     -20.267  79.810 120.234  0.00  0.00     0.382 C 
ATOM     23  O   LIG d   1     -21.495  79.961 120.443  0.00  0.00    -0.241 OA
ATOM     24  O   LIG d   1     -19.550  80.810 120.043  0.00  0.00    -0.241 OA
ENDBRANCH   3  22
TORSDOF 7
ENDMDL
MODEL 5
REMARK VINA RESULT:      -4.2     33.028     34.380
REMARK  7 active torsions:
REMARK  status: ('A' for Active; 'I' for Inactive)
REMARK    1  A    between atoms: C_2  and  C_3 
REMARK    2  A    between atoms: C_3  and  O_6 
REMARK    3  A    between atoms: C_3  and  C_4 
REMARK    4  A    between atoms: C_7  and  O_6 
REMARK    5  A    between atoms: C_9  and  C_10 
REMARK    6  A    between atoms: N_15  and  C_14 
REMARK    7  A    between atoms: N_20  and  C_19 
REMARK       I    between atoms: C_22  and  N_20 
ROOT
ATOM      1  C   LIG d   1      -5.209  93.477 120.148  0.00  0.00     0.161 C 
ATOM      2  C   LIG d   1      -3.967  93.022 119.674  0.00  0.00     0.016 C 
ATOM      3  C   LIG d   1      -3.825  92.188 118.541  0.00  0.00     0.038 C 
ATOM      4  C   LIG d   1      -4.911  91.875 117.710  0.00  0.00     0.028 C 
ATOM      5  C   LIG d   1      -6.253  91.896 118.434  0.00  0.00    -0.047 C 
ATOM      6  C   LIG d   1      -6.395  93.237 119.190  0.00  0.00     0.091 C 
ENDROOT
BRANCH   1   7
ATOM      7  O   LIG d   1      -5.118  94.874 120.492  0.00  0.00    -0.368 OA
BRANCH   7   8
ATOM      8  C   LIG d   1      -5.318  95.812 119.406  0.00  0.00     0.119 C 
BRANCH   8   9
ATOM      9  C   LIG d   1      -4.003  96.593 119.220  0.00  0.00     0.028 C 
ATOM     10  C   LIG d   1      -4.241  98.082 118.919  0.00  0.00     0.006 C 
ENDBRANCH   8   9
BRANCH   8  11
ATOM     11  C   LIG d   1      -6.368  96.867 119.768  0.00  0.00     0.028 C 
ATOM     12  C   LIG d   1      -6.909  96.704 121.197  0.00  0.00     0.006 C 
ENDBRANCH   8  11
ENDBRANCH   7   8
ENDBRANCH   1   7
BRANCH   6  13
ATOM     13  N   LIG d   1      -7.643  93.306 119.993  0.00  0.00    -0.311 N 
ATOM     14  C   LIG d   1      -8.752  93.912 119.573  0.00  0.00     0.210 C 
ATOM     15  C   LIG d   1      -9.919  93.885 120.565  0.00  0.00     0.109 C 
ATOM     16  O   LIG d   1      -8.891  94.442 118.461  0.00  0.00    -0.276 OA
ATOM     17  H   LIG d   1      -7.629  92.875 120.896  0.00  0.00     0.149 HD
ENDBRANCH   6  13
BRANCH   5  18
ATOM     18  N   LIG d   1      -7.308  91.688 117.423  0.00  0.00     0.381 N 
ATOM     19  H   LIG d   1      -8.161  91.424 117.874  0.00  0.00    -0.090 HD
ATOM     20  H   LIG d   1      -7.029  90.941 116.812  0.00  0.00    -0.090 HD
ATOM     21  H   LIG d   1      -7.446  92.524 116.898  0.00  0.00    -0.090 HD
ENDBRANCH   5  18
BRANCH   3  22
ATOM     22  C   LIG d   1      -2.591  91.625 118.252  0.00  0.00     0.382 C 
ATOM     23  O   LIG d   1      -1.538  92.257 118.510  0.00  0.00    -0.241 OA
ATOM     24  O   LIG d   1      -2.518  90.513 117.696  0.00  0.00    -0.241 OA
ENDBRANCH   3  22
TORSDOF 7
ENDMDL
MODEL 6
REMARK VINA RESULT:      -4.1     20.538     22.378
REMARK  7 active torsions:
REMARK  status: ('A' for Active; 'I' for Inactive)
REMARK    1  A    between atoms: C_2  and  C_3 
REMARK    2  A    between atoms: C_3  and  O_6 
REMARK    3  A    between atoms: C_3  and  C_4 
REMARK    4  A    between atoms: C_7  and  O_6 
REMARK    5  A    between atoms: C_9  and  C_10 
REMARK    6  A    between atoms: N_15  and  C_14 
REMARK    7  A    between atoms: N_20  and  C_19 
REMARK       I    between atoms: C_22  and  N_20 
ROOT
ATOM      1  C   LIG d   1      -7.484  80.892 118.912  0.00  0.00     0.161 C 
ATOM      2  C   LIG d   1      -8.517  79.942 118.977  0.00  0.00     0.016 C 
ATOM      3  C   LIG d   1      -9.834  80.253 119.388  0.00  0.00     0.038 C 
ATOM      4  C   LIG d   1     -10.247  81.573 119.619  0.00  0.00     0.028 C 
ATOM      5  C   LIG d   1      -9.113  82.495 120.054  0.00  0.00    -0.047 C 
ATOM      6  C   LIG d   1      -7.943  82.358 119.053  0.00  0.00     0.091 C 
ENDROOT
BRANCH   1   7
ATOM      7  O   LIG d   1      -6.736  80.716 117.693  0.00  0.00    -0.368 OA
BRANCH   7   8
ATOM      8  C   LIG d   1      -5.432  80.098 117.828  0.00  0.00     0.119 C 
BRANCH   8   9
ATOM      9  C   LIG d   1      -5.513  78.702 117.180  0.00  0.00     0.028 C 
ATOM     10  C   LIG d   1      -5.737  77.587 118.215  0.00  0.00     0.006 C 
ENDBRANCH   8   9
BRANCH   8  11
ATOM     11  C   LIG d   1      -5.086  79.843 119.298  0.00  0.00     0.028 C 
ATOM     12  C   LIG d   1      -3.725  80.433 119.701  0.00  0.00     0.006 C 
ENDBRANCH   8  11
ENDBRANCH   7   8
ENDBRANCH   1   7
BRANCH   6  13
ATOM     13  N   LIG d   1      -6.759  83.164 119.451  0.00  0.00    -0.311 N 
ATOM     14  C   LIG d   1      -6.187  83.082 120.651  0.00  0.00     0.210 C 
ATOM     15  C   LIG d   1      -4.990  84.015 120.861  0.00  0.00     0.109 C 
ATOM     16  O   LIG d   1      -6.536  82.303 121.550  0.00  0.00    -0.276 OA
ATOM     17  H   LIG d   1      -6.391  83.800 118.771  0.00  0.00     0.149 HD
ENDBRANCH   6  13
BRANCH   5  18
ATOM     18  N   LIG d   1      -9.655  83.865 120.126  0.00  0.00     0.381 N 
ATOM     19  H   LIG d   1      -8.971  84.518 119.799  0.00  0.00    -0.090 HD
ATOM     20  H   LIG d   1      -9.865  84.082 121.084  0.00  0.00    -0.090 HD
ATOM     21  H   LIG d   1     -10.481  83.934 119.573  0.00  0.00    -0.090 HD
ENDBRANCH   5  18
BRANCH   3  22
ATOM     22  C   LIG d   1     -10.743  79.230 119.611  0.00  0.00     0.382 C 
ATOM     23  O   LIG d   1     -11.399  79.195 120.680  0.00  0.00    -0.241 OA
ATOM     24  O   LIG d   1     -10.884  78.317 118.775  0.00  0.00    -0.241 OA
ENDBRANCH   3  22
TORSDOF 7
ENDMDL
MODEL 7
REMARK VINA RESULT:      -4.1     21.002     24.530
REMARK  7 active torsions:
REMARK  status: ('A' for Active; 'I' for Inactive)
REMARK    1  A    between atoms: C_2  and  C_3 
REMARK    2  A    between atoms: C_3  and  O_6 
REMARK    3  A    between atoms: C_3  and  C_4 
REMARK    4  A    between atoms: C_7  and  O_6 
REMARK    5  A    between atoms: C_9  and  C_10 
REMARK    6  A    between atoms: N_15  and  C_14 
REMARK    7  A    between atoms: N_20  and  C_19 
REMARK       I    between atoms: C_22  and  N_20 
ROOT
ATOM      1  C   LIG d   1     -20.259  75.607 120.234  0.00  0.00     0.161 C 
ATOM      2  C   LIG d   1     -20.599  76.967 120.320  0.00  0.00     0.016 C 
ATOM      3  C   LIG d   1     -19.653  78.013 120.219  0.00  0.00     0.038 C 
ATOM      4  C   LIG d   1     -18.315  77.773 119.872  0.00  0.00     0.028 C 
ATOM      5  C   LIG d   1     -17.825  76.386 120.273  0.00  0.00    -0.047 C 
ATOM      6  C   LIG d   1     -18.822  75.329 119.744  0.00  0.00     0.091 C 
ENDROOT
BRANCH   1   7
ATOM      7  O   LIG d   1     -21.213  74.916 119.404  0.00  0.00    -0.368 OA
BRANCH   7   8
ATOM      8  C   LIG d   1     -22.155  74.058 120.094  0.00  0.00     0.119 C 
BRANCH   8   9
ATOM      9  C   LIG d   1     -23.484  74.830 120.210  0.00  0.00     0.028 C 
ATOM     10  C   LIG d   1     -24.621  73.959 120.771  0.00  0.00     0.006 C 
ENDBRANCH   8   9
BRANCH   8  11
ATOM     11  C   LIG d   1     -21.713  73.792 121.536  0.00  0.00     0.028 C 
ATOM     12  C   LIG d   1     -21.288  72.334 121.769  0.00  0.00     0.006 C 
ENDBRANCH   8  11
ENDBRANCH   7   8
ENDBRANCH   1   7
BRANCH   6  13
ATOM     13  N   LIG d   1     -18.462  73.950 120.166  0.00  0.00    -0.311 N 
ATOM     14  C   LIG d   1     -17.787  73.100 119.393  0.00  0.00     0.210 C 
ATOM     15  C   LIG d   1     -17.538  71.721 120.013  0.00  0.00     0.109 C 
ATOM     16  O   LIG d   1     -17.343  73.368 118.267  0.00  0.00    -0.276 OA
ATOM     17  H   LIG d   1     -18.756  73.660 121.078  0.00  0.00     0.149 HD
ENDBRANCH   6  13
BRANCH   5  18
ATOM     18  N   LIG d   1     -16.464  76.219 119.730  0.00  0.00     0.381 N 
ATOM     19  H   LIG d   1     -16.156  77.078 119.319  0.00  0.00    -0.090 HD
ATOM     20  H   LIG d   1     -16.484  75.516 119.013  0.00  0.00    -0.090 HD
ATOM     21  H   LIG d   1     -15.838  75.947 120.456  0.00  0.00    -0.090 HD
ENDBRANCH   5  18
BRANCH   3  22
ATOM     22  C   LIG d   1     -20.035  79.315 120.506  0.00  0.00     0.382 C 
ATOM     23  O   LIG d   1     -19.953  80.202 119.622  0.00  0.00    -0.241 OA
ATOM     24  O   LIG d   1     -20.418  79.623 121.651  0.00  0.00    -0.241 OA
ENDBRANCH   3  22
TORSDOF 7
ENDMDL
MODEL 8
REMARK VINA RESULT:      -4.1     20.306     23.158
REMARK  7 active torsions:
REMARK  status: ('A' for Active; 'I' for Inactive)
REMARK    1  A    between atoms: C_2  and  C_3 
REMARK    2  A    between atoms: C_3  and  O_6 
REMARK    3  A    between atoms: C_3  and  C_4 
REMARK    4  A    between atoms: C_7  and  O_6 
REMARK    5  A    between atoms: C_9  and  C_10 
REMARK    6  A    between atoms: N_15  and  C_14 
REMARK    7  A    between atoms: N_20  and  C_19 
REMARK       I    between atoms: C_22  and  N_20 
ROOT
ATOM      1  C   LIG d   1     -16.464  76.454 121.280  0.00  0.00     0.161 C 
ATOM      2  C   LIG d   1     -16.561  77.787 121.711  0.00  0.00     0.016 C 
ATOM      3  C   LIG d   1     -17.553  78.684 121.252  0.00  0.00     0.038 C 
ATOM      4  C   LIG d   1     -18.616  78.261 120.440  0.00  0.00     0.028 C 
ATOM      5  C   LIG d   1     -18.274  77.050 119.578  0.00  0.00    -0.047 C 
ATOM      6  C   LIG d   1     -17.681  75.944 120.480  0.00  0.00     0.091 C 
ENDROOT
BRANCH   1   7
ATOM      7  O   LIG d   1     -16.210  75.593 122.408  0.00  0.00    -0.368 OA
BRANCH   7   8
ATOM      8  C   LIG d   1     -15.032  75.902 123.193  0.00  0.00     0.119 C 
BRANCH   8   9
ATOM      9  C   LIG d   1     -13.939  74.887 122.806  0.00  0.00     0.028 C 
ATOM     10  C   LIG d   1     -12.808  75.527 121.983  0.00  0.00     0.006 C 
ENDBRANCH   8   9
BRANCH   8  11
ATOM     11  C   LIG d   1     -15.283  75.677 124.687  0.00  0.00     0.028 C 
ATOM     12  C   LIG d   1     -16.762  75.836 125.073  0.00  0.00     0.006 C 
ENDBRANCH   8  11
ENDBRANCH   7   8
ENDBRANCH   1   7
BRANCH   6  13
ATOM     13  N   LIG d   1     -17.242  74.755 119.703  0.00  0.00    -0.311 N 
ATOM     14  C   LIG d   1     -18.018  73.696 119.482  0.00  0.00     0.210 C 
ATOM     15  C   LIG d   1     -17.363  72.570 118.675  0.00  0.00     0.109 C 
ATOM     16  O   LIG d   1     -19.198  73.595 119.850  0.00  0.00    -0.276 OA
ATOM     17  H   LIG d   1     -16.308  74.766 119.341  0.00  0.00     0.149 HD
ENDBRANCH   6  13
BRANCH   5  18
ATOM     18  N   LIG d   1     -19.509  76.633 118.887  0.00  0.00     0.381 N 
ATOM     19  H   LIG d   1     -19.278  76.169 118.032  0.00  0.00    -0.090 HD
ATOM     20  H   LIG d   1     -20.050  77.450 118.667  0.00  0.00    -0.090 HD
ATOM     21  H   LIG d   1     -20.038  76.023 119.472  0.00  0.00    -0.090 HD
ENDBRANCH   5  18
BRANCH   3  22
ATOM     22  C   LIG d   1     -17.465  80.030 121.575  0.00  0.00     0.382 C 
ATOM     23  O   LIG d   1     -18.130  80.874 120.927  0.00  0.00    -0.241 OA
ATOM     24  O   LIG d   1     -16.697  80.415 122.476  0.00  0.00    -0.241 OA
ENDBRANCH   3  22
TORSDOF 7
ENDMDL
MODEL 9
REMARK VINA RESULT:      -4.0     21.190     23.111
REMARK  7 active torsions:
REMARK  status: ('A' for Active; 'I' for Inactive)
REMARK    1  A    between atoms: C_2  and  C_3 
REMARK    2  A    between atoms: C_3  and  O_6 
REMARK    3  A    between atoms: C_3  and  C_4 
REMARK    4  A    between atoms: C_7  and  O_6 
REMARK    5  A    between atoms: C_9  and  C_10 
REMARK    6  A    between atoms: N_15  and  C_14 
REMARK    7  A    between atoms: N_20  and  C_19 
REMARK       I    between atoms: C_22  and  N_20 
ROOT
ATOM      1  C   LIG d   1      -8.529  81.618 121.107  0.00  0.00     0.161 C 
ATOM      2  C   LIG d   1      -8.338  80.237 120.941  0.00  0.00     0.016 C 
ATOM      3  C   LIG d   1      -9.304  79.269 121.299  0.00  0.00     0.038 C 
ATOM      4  C   LIG d   1     -10.597  79.628 121.709  0.00  0.00     0.028 C 
ATOM      5  C   LIG d   1     -10.662  81.001 122.371  0.00  0.00    -0.047 C 
ATOM      6  C   LIG d   1      -9.975  82.035 121.450  0.00  0.00     0.091 C 
ENDROOT
BRANCH   1   7
ATOM      7  O   LIG d   1      -8.070  82.319 119.934  0.00  0.00    -0.368 OA
BRANCH   7   8
ATOM      8  C   LIG d   1      -8.467  81.756 118.659  0.00  0.00     0.119 C 
BRANCH   8   9
ATOM      9  C   LIG d   1      -7.241  81.812 117.728  0.00  0.00     0.028 C 
ATOM     10  C   LIG d   1      -6.389  80.533 117.801  0.00  0.00     0.006 C 
ENDBRANCH   8   9
BRANCH   8  11
ATOM     11  C   LIG d   1      -9.534  82.617 117.977  0.00  0.00     0.028 C 
ATOM     12  C   LIG d   1     -10.813  81.831 117.648  0.00  0.00     0.006 C 
ENDBRANCH   8  11
ENDBRANCH   7   8
ENDBRANCH   1   7
BRANCH   6  13
ATOM     13  N   LIG d   1      -9.920  83.389 122.059  0.00  0.00    -0.311 N 
ATOM     14  C   LIG d   1     -10.646  84.418 121.625  0.00  0.00     0.210 C 
ATOM     15  C   LIG d   1     -10.423  85.731 122.382  0.00  0.00     0.109 C 
ATOM     16  O   LIG d   1     -11.476  84.360 120.706  0.00  0.00    -0.276 OA
ATOM     17  H   LIG d   1      -9.296  83.517 122.831  0.00  0.00     0.149 HD
ENDBRANCH   6  13
BRANCH   5  18
ATOM     18  N   LIG d   1     -12.083  81.306 122.623  0.00  0.00     0.381 N 
ATOM     19  H   LIG d   1     -12.435  80.709 123.345  0.00  0.00    -0.090 HD
ATOM     20  H   LIG d   1     -12.608  81.130 121.784  0.00  0.00    -0.090 HD
ATOM     21  H   LIG d   1     -12.184  82.260 122.893  0.00  0.00    -0.090 HD
ENDBRANCH   5  18
BRANCH   3  22
ATOM     22  C   LIG d   1      -8.968  77.924 121.285  0.00  0.00     0.382 C 
ATOM     23  O   LIG d   1      -7.936  77.542 120.681  0.00  0.00    -0.241 OA
ATOM     24  O   LIG d   1      -9.706  77.082 121.831  0.00  0.00    -0.241 OA
ENDBRANCH   3  22
TORSDOF 7
ENDMDL
