MODEL 1
REMARK VINA RESULT:      -5.0      0.000      0.000
REMARK  7 active torsions:
REMARK  status: ('A' for Active; 'I' for Inactive)
REMARK    1  A    between atoms: C_2  and  C_3 
REMARK    2  A    between atoms: C_3  and  O_6 
REMARK    3  A    between atoms: C_3  and  C_4 
REMARK    4  A    between atoms: C_7  and  O_6 
REMARK    5  A    between atoms: C_9  and  C_10 
REMARK    6  A    between atoms: N_15  and  C_14 
REMARK    7  A    between atoms: N_20  and  C_19 
REMARK       I    between atoms: C_22  and  N_20 
ROOT
ATOM      1  C   LIG d   1      -2.668  60.912 120.812  0.00  0.00     0.161 C 
ATOM      2  C   LIG d   1      -3.896  61.185 121.437  0.00  0.00     0.016 C 
ATOM      3  C   LIG d   1      -4.914  60.218 121.609  0.00  0.00     0.038 C 
ATOM      4  C   LIG d   1      -4.710  58.865 121.301  0.00  0.00     0.028 C 
ATOM      5  C   LIG d   1      -3.673  58.642 120.206  0.00  0.00    -0.047 C 
ATOM      6  C   LIG d   1      -2.385  59.414 120.570  0.00  0.00     0.091 C 
ENDROOT
BRANCH   1   7
ATOM      7  O   LIG d   1      -1.594  61.509 121.564  0.00  0.00    -0.368 OA
BRANCH   7   8
ATOM      8  C   LIG d   1      -1.702  61.425 123.007  0.00  0.00     0.119 C 
BRANCH   8   9
ATOM      9  C   LIG d   1      -1.873  62.859 123.543  0.00  0.00     0.028 C 
ATOM     10  C   LIG d   1      -0.527  63.543 123.832  0.00  0.00     0.006 C 
ENDBRANCH   8   9
BRANCH   8  11
ATOM     11  C   LIG d   1      -0.402  60.911 123.634  0.00  0.00     0.028 C 
ATOM     12  C   LIG d   1       0.505  60.194 122.621  0.00  0.00     0.006 C 
ENDBRANCH   8  11
ENDBRANCH   7   8
ENDBRANCH   1   7
BRANCH   6  13
ATOM     13  N   LIG d   1      -1.347  59.318 119.510  0.00  0.00    -0.311 N 
ATOM     14  C   LIG d   1      -0.366  58.418 119.523  0.00  0.00     0.210 C 
ATOM     15  C   LIG d   1       0.608  58.505 118.345  0.00  0.00     0.109 C 
ATOM     16  O   LIG d   1      -0.229  57.534 120.383  0.00  0.00    -0.276 OA
ATOM     17  H   LIG d   1      -1.402  59.977 118.758  0.00  0.00     0.149 HD
ENDBRANCH   6  13
BRANCH   5  18
ATOM     18  N   LIG d   1      -3.460  57.188 120.083  0.00  0.00     0.381 N 
ATOM     19  H   LIG d   1      -3.201  56.961 119.143  0.00  0.00    -0.090 HD
ATOM     20  H   LIG d   1      -4.321  56.714 120.295  0.00  0.00    -0.090 HD
ATOM     21  H   LIG d   1      -2.747  56.893 120.712  0.00  0.00    -0.090 HD
ENDBRANCH   5  18
BRANCH   3  22
ATOM     22  C   LIG d   1      -6.166  60.611 122.057  0.00  0.00     0.382 C 
ATOM     23  O   LIG d   1      -6.857  61.403 121.373  0.00  0.00    -0.241 OA
ATOM     24  O   LIG d   1      -6.594  60.218 123.159  0.00  0.00    -0.241 OA
ENDBRANCH   3  22
TORSDOF 7
ENDMDL
MODEL 2
REMARK VINA RESULT:      -4.8     21.467     23.295
REMARK  7 active torsions:
REMARK  status: ('A' for Active; 'I' for Inactive)
REMARK    1  A    between atoms: C_2  and  C_3 
REMARK    2  A    between atoms: C_3  and  O_6 
REMARK    3  A    between atoms: C_3  and  C_4 
REMARK    4  A    between atoms: C_7  and  O_6 
REMARK    5  A    between atoms: C_9  and  C_10 
REMARK    6  A    between atoms: N_15  and  C_14 
REMARK    7  A    between atoms: N_20  and  C_19 
REMARK       I    between atoms: C_22  and  N_20 
ROOT
ATOM      1  C   LIG d   1      -8.403  83.094 119.035  0.00  0.00     0.161 C 
ATOM      2  C   LIG d   1      -8.815  84.255 119.712  0.00  0.00     0.016 C 
ATOM      3  C   LIG d   1      -9.748  84.246 120.775  0.00  0.00     0.038 C 
ATOM      4  C   LIG d   1     -10.220  83.051 121.337  0.00  0.00     0.028 C 
ATOM      5  C   LIG d   1     -10.221  81.881 120.360  0.00  0.00    -0.047 C 
ATOM      6  C   LIG d   1      -8.823  81.770 119.708  0.00  0.00     0.091 C 
ENDROOT
BRANCH   1   7
ATOM      7  O   LIG d   1      -6.976  83.125 118.837  0.00  0.00    -0.368 OA
BRANCH   7   8
ATOM      8  C   LIG d   1      -6.166  82.740 119.976  0.00  0.00     0.119 C 
BRANCH   8   9
ATOM      9  C   LIG d   1      -5.416  83.997 120.457  0.00  0.00     0.028 C 
ATOM     10  C   LIG d   1      -3.895  83.881 120.267  0.00  0.00     0.006 C 
ENDBRANCH   8   9
BRANCH   8  11
ATOM     11  C   LIG d   1      -5.074  81.746 119.571  0.00  0.00     0.028 C 
ATOM     12  C   LIG d   1      -5.290  81.161 118.166  0.00  0.00     0.006 C 
ENDBRANCH   8  11
ENDBRANCH   7   8
ENDBRANCH   1   7
BRANCH   6  13
ATOM     13  N   LIG d   1      -8.762  80.703 118.676  0.00  0.00    -0.311 N 
ATOM     14  C   LIG d   1      -8.296  79.478 118.915  0.00  0.00     0.210 C 
ATOM     15  C   LIG d   1      -8.302  78.536 117.707  0.00  0.00     0.109 C 
ATOM     16  O   LIG d   1      -7.908  79.072 120.021  0.00  0.00    -0.276 OA
ATOM     17  H   LIG d   1      -9.086  80.936 117.758  0.00  0.00     0.149 HD
ENDBRANCH   6  13
BRANCH   5  18
ATOM     18  N   LIG d   1     -10.604  80.671 121.113  0.00  0.00     0.381 N 
ATOM     19  H   LIG d   1      -9.805  80.300 121.587  0.00  0.00    -0.090 HD
ATOM     20  H   LIG d   1     -10.938  79.978 120.466  0.00  0.00    -0.090 HD
ATOM     21  H   LIG d   1     -11.318  80.892 121.771  0.00  0.00    -0.090 HD
ENDBRANCH   5  18
BRANCH   3  22
ATOM     22  C   LIG d   1     -10.247  85.445 121.260  0.00  0.00     0.382 C 
ATOM     23  O   LIG d   1     -11.469  85.553 121.526  0.00  0.00    -0.241 OA
ATOM     24  O   LIG d   1      -9.501  86.433 121.392  0.00  0.00    -0.241 OA
ENDBRANCH   3  22
TORSDOF 7
ENDMDL
MODEL 3
REMARK VINA RESULT:      -4.7      3.257      5.677
REMARK  7 active torsions:
REMARK  status: ('A' for Active; 'I' for Inactive)
REMARK    1  A    between atoms: C_2  and  C_3 
REMARK    2  A    between atoms: C_3  and  O_6 
REMARK    3  A    between atoms: C_3  and  C_4 
REMARK    4  A    between atoms: C_7  and  O_6 
REMARK    5  A    between atoms: C_9  and  C_10 
REMARK    6  A    between atoms: N_15  and  C_14 
REMARK    7  A    between atoms: N_20  and  C_19 
REMARK       I    between atoms: C_22  and  N_20 
ROOT
ATOM      1  C   LIG d   1      -5.202  59.377 122.802  0.00  0.00     0.161 C 
ATOM      2  C   LIG d   1      -4.974  60.216 121.698  0.00  0.00     0.016 C 
ATOM      3  C   LIG d   1      -4.186  59.841 120.585  0.00  0.00     0.038 C 
ATOM      4  C   LIG d   1      -3.694  58.536 120.431  0.00  0.00     0.028 C 
ATOM      5  C   LIG d   1      -3.475  57.811 121.755  0.00  0.00    -0.047 C 
ATOM      6  C   LIG d   1      -4.765  57.911 122.601  0.00  0.00     0.091 C 
ENDROOT
BRANCH   1   7
ATOM      7  O   LIG d   1      -6.590  59.438 123.183  0.00  0.00    -0.368 OA
BRANCH   7   8
ATOM      8  C   LIG d   1      -7.162  60.764 123.297  0.00  0.00     0.119 C 
BRANCH   8   9
ATOM      9  C   LIG d   1      -7.464  61.013 124.787  0.00  0.00     0.028 C 
ATOM     10  C   LIG d   1      -7.538  59.707 125.596  0.00  0.00     0.006 C 
ENDBRANCH   8   9
BRANCH   8  11
ATOM     11  C   LIG d   1      -8.518  60.849 122.589  0.00  0.00     0.028 C 
ATOM     12  C   LIG d   1      -8.428  61.517 121.208  0.00  0.00     0.006 C 
ENDBRANCH   8  11
ENDBRANCH   7   8
ENDBRANCH   1   7
BRANCH   6  13
ATOM     13  N   LIG d   1      -4.609  57.300 123.947  0.00  0.00    -0.311 N 
ATOM     14  C   LIG d   1      -5.511  56.486 124.492  0.00  0.00     0.210 C 
ATOM     15  C   LIG d   1      -5.164  55.982 125.896  0.00  0.00     0.109 C 
ATOM     16  O   LIG d   1      -6.552  56.108 123.932  0.00  0.00    -0.276 OA
ATOM     17  H   LIG d   1      -3.778  57.528 124.458  0.00  0.00     0.149 HD
ENDBRANCH   6  13
BRANCH   5  18
ATOM     18  N   LIG d   1      -3.093  56.421 121.444  0.00  0.00     0.381 N 
ATOM     19  H   LIG d   1      -2.442  56.410 120.685  0.00  0.00    -0.090 HD
ATOM     20  H   LIG d   1      -3.914  55.914 121.162  0.00  0.00    -0.090 HD
ATOM     21  H   LIG d   1      -2.687  55.991 122.246  0.00  0.00    -0.090 HD
ENDBRANCH   5  18
BRANCH   3  22
ATOM     22  C   LIG d   1      -3.850  60.789 119.631  0.00  0.00     0.382 C 
ATOM     23  O   LIG d   1      -4.620  61.005 118.664  0.00  0.00    -0.241 OA
ATOM     24  O   LIG d   1      -2.766  61.398 119.699  0.00  0.00    -0.241 OA
ENDBRANCH   3  22
TORSDOF 7
ENDMDL
MODEL 4
REMARK VINA RESULT:      -4.7      2.337      5.648
REMARK  7 active torsions:
REMARK  status: ('A' for Active; 'I' for Inactive)
REMARK    1  A    between atoms: C_2  and  C_3 
REMARK    2  A    between atoms: C_3  and  O_6 
REMARK    3  A    between atoms: C_3  and  C_4 
REMARK    4  A    between atoms: C_7  and  O_6 
REMARK    5  A    between atoms: C_9  and  C_10 
REMARK    6  A    between atoms: N_15  and  C_14 
REMARK    7  A    between atoms: N_20  and  C_19 
REMARK       I    between atoms: C_22  and  N_20 
ROOT
ATOM      1  C   LIG d   1      -2.007  60.930 120.855  0.00  0.00     0.161 C 
ATOM      2  C   LIG d   1      -1.730  59.820 120.040  0.00  0.00     0.016 C 
ATOM      3  C   LIG d   1      -0.777  58.830 120.371  0.00  0.00     0.038 C 
ATOM      4  C   LIG d   1      -0.139  58.802 121.620  0.00  0.00     0.028 C 
ATOM      5  C   LIG d   1      -0.013  60.178 122.266  0.00  0.00    -0.047 C 
ATOM      6  C   LIG d   1      -1.402  60.858 122.273  0.00  0.00     0.091 C 
ENDROOT
BRANCH   1   7
ATOM      7  O   LIG d   1      -3.431  61.140 120.929  0.00  0.00    -0.368 OA
BRANCH   7   8
ATOM      8  C   LIG d   1      -4.261  59.994 120.619  0.00  0.00     0.119 C 
BRANCH   8   9
ATOM      9  C   LIG d   1      -5.466  60.501 119.803  0.00  0.00     0.028 C 
ATOM     10  C   LIG d   1      -5.338  60.180 118.305  0.00  0.00     0.006 C 
ENDBRANCH   8   9
BRANCH   8  11
ATOM     11  C   LIG d   1      -4.860  59.380 121.888  0.00  0.00     0.028 C 
ATOM     12  C   LIG d   1      -4.210  58.039 122.265  0.00  0.00     0.006 C 
ENDBRANCH   8  11
ENDBRANCH   7   8
ENDBRANCH   1   7
BRANCH   6  13
ATOM     13  N   LIG d   1      -1.352  62.242 122.812  0.00  0.00    -0.311 N 
ATOM     14  C   LIG d   1      -1.955  62.612 123.940  0.00  0.00     0.210 C 
ATOM     15  C   LIG d   1      -1.794  64.091 124.305  0.00  0.00     0.109 C 
ATOM     16  O   LIG d   1      -2.580  61.848 124.691  0.00  0.00    -0.276 OA
ATOM     17  H   LIG d   1      -0.839  62.920 122.282  0.00  0.00     0.149 HD
ENDBRANCH   6  13
BRANCH   5  18
ATOM     18  N   LIG d   1       0.543  59.986 123.619  0.00  0.00     0.381 N 
ATOM     19  H   LIG d   1       1.421  60.460 123.694  0.00  0.00    -0.090 HD
ATOM     20  H   LIG d   1       0.701  59.005 123.769  0.00  0.00    -0.090 HD
ATOM     21  H   LIG d   1      -0.092  60.336 124.302  0.00  0.00    -0.090 HD
ENDBRANCH   5  18
BRANCH   3  22
ATOM     22  C   LIG d   1      -0.424  57.874 119.430  0.00  0.00     0.382 C 
ATOM     23  O   LIG d   1      -0.906  56.718 119.499  0.00  0.00    -0.241 OA
ATOM     24  O   LIG d   1       0.405  58.141 118.539  0.00  0.00    -0.241 OA
ENDBRANCH   3  22
TORSDOF 7
ENDMDL
MODEL 5
REMARK VINA RESULT:      -4.7      3.080      5.136
REMARK  7 active torsions:
REMARK  status: ('A' for Active; 'I' for Inactive)
REMARK    1  A    between atoms: C_2  and  C_3 
REMARK    2  A    between atoms: C_3  and  O_6 
REMARK    3  A    between atoms: C_3  and  C_4 
REMARK    4  A    between atoms: C_7  and  O_6 
REMARK    5  A    between atoms: C_9  and  C_10 
REMARK    6  A    between atoms: N_15  and  C_14 
REMARK    7  A    between atoms: N_20  and  C_19 
REMARK       I    between atoms: C_22  and  N_20 
ROOT
ATOM      1  C   LIG d   1      -6.254  60.744 121.555  0.00  0.00     0.161 C 
ATOM      2  C   LIG d   1      -7.156  61.775 121.243  0.00  0.00     0.016 C 
ATOM      3  C   LIG d   1      -8.218  62.164 122.092  0.00  0.00     0.038 C 
ATOM      4  C   LIG d   1      -8.359  61.645 123.388  0.00  0.00     0.028 C 
ATOM      5  C   LIG d   1      -7.776  60.245 123.546  0.00  0.00    -0.047 C 
ATOM      6  C   LIG d   1      -6.325  60.242 123.012  0.00  0.00     0.091 C 
ENDROOT
BRANCH   1   7
ATOM      7  O   LIG d   1      -4.911  61.155 121.232  0.00  0.00    -0.368 OA
BRANCH   7   8
ATOM      8  C   LIG d   1      -4.234  60.375 120.216  0.00  0.00     0.119 C 
BRANCH   8   9
ATOM      9  C   LIG d   1      -2.765  60.839 120.179  0.00  0.00     0.028 C 
ATOM     10  C   LIG d   1      -2.181  61.053 121.585  0.00  0.00     0.006 C 
ENDBRANCH   8   9
BRANCH   8  11
ATOM     11  C   LIG d   1      -4.789  60.675 118.820  0.00  0.00     0.028 C 
ATOM     12  C   LIG d   1      -5.656  59.533 118.266  0.00  0.00     0.006 C 
ENDBRANCH   8  11
ENDBRANCH   7   8
ENDBRANCH   1   7
BRANCH   6  13
ATOM     13  N   LIG d   1      -5.709  58.890 123.053  0.00  0.00    -0.311 N 
ATOM     14  C   LIG d   1      -4.545  58.632 123.646  0.00  0.00     0.210 C 
ATOM     15  C   LIG d   1      -4.081  57.175 123.554  0.00  0.00     0.109 C 
ATOM     16  O   LIG d   1      -3.868  59.466 124.266  0.00  0.00    -0.276 OA
ATOM     17  H   LIG d   1      -6.207  58.148 122.600  0.00  0.00     0.149 HD
ENDBRANCH   6  13
BRANCH   5  18
ATOM     18  N   LIG d   1      -7.868  59.883 124.973  0.00  0.00     0.381 N 
ATOM     19  H   LIG d   1      -8.356  59.015 125.072  0.00  0.00    -0.090 HD
ATOM     20  H   LIG d   1      -8.388  60.594 125.456  0.00  0.00    -0.090 HD
ATOM     21  H   LIG d   1      -6.955  59.805 125.365  0.00  0.00    -0.090 HD
ENDBRANCH   5  18
BRANCH   3  22
ATOM     22  C   LIG d   1      -9.176  63.054 121.631  0.00  0.00     0.382 C 
ATOM     23  O   LIG d   1     -10.371  62.688 121.524  0.00  0.00    -0.241 OA
ATOM     24  O   LIG d   1      -8.853  64.204 121.278  0.00  0.00    -0.241 OA
ENDBRANCH   3  22
TORSDOF 7
ENDMDL
MODEL 6
REMARK VINA RESULT:      -4.7      2.837      4.014
REMARK  7 active torsions:
REMARK  status: ('A' for Active; 'I' for Inactive)
REMARK    1  A    between atoms: C_2  and  C_3 
REMARK    2  A    between atoms: C_3  and  O_6 
REMARK    3  A    between atoms: C_3  and  C_4 
REMARK    4  A    between atoms: C_7  and  O_6 
REMARK    5  A    between atoms: C_9  and  C_10 
REMARK    6  A    between atoms: N_15  and  C_14 
REMARK    7  A    between atoms: N_20  and  C_19 
REMARK       I    between atoms: C_22  and  N_20 
ROOT
ATOM      1  C   LIG d   1      -4.777  59.941 121.822  0.00  0.00     0.161 C 
ATOM      2  C   LIG d   1      -6.031  60.536 122.036  0.00  0.00     0.016 C 
ATOM      3  C   LIG d   1      -6.869  60.985 120.989  0.00  0.00     0.038 C 
ATOM      4  C   LIG d   1      -6.573  60.730 119.642  0.00  0.00     0.028 C 
ATOM      5  C   LIG d   1      -5.080  60.583 119.367  0.00  0.00    -0.047 C 
ATOM      6  C   LIG d   1      -4.486  59.554 120.357  0.00  0.00     0.091 C 
ENDROOT
BRANCH   1   7
ATOM      7  O   LIG d   1      -4.627  58.794 122.682  0.00  0.00    -0.368 OA
BRANCH   7   8
ATOM      8  C   LIG d   1      -5.536  58.718 123.808  0.00  0.00     0.119 C 
BRANCH   8   9
ATOM      9  C   LIG d   1      -4.702  58.899 125.090  0.00  0.00     0.028 C 
ATOM     10  C   LIG d   1      -5.093  60.165 125.871  0.00  0.00     0.006 C 
ENDBRANCH   8   9
BRANCH   8  11
ATOM     11  C   LIG d   1      -6.163  57.325 123.924  0.00  0.00     0.028 C 
ATOM     12  C   LIG d   1      -7.496  57.334 124.688  0.00  0.00     0.006 C 
ENDBRANCH   8  11
ENDBRANCH   7   8
ENDBRANCH   1   7
BRANCH   6  13
ATOM     13  N   LIG d   1      -3.014  59.413 120.212  0.00  0.00    -0.311 N 
ATOM     14  C   LIG d   1      -2.383  58.241 120.254  0.00  0.00     0.210 C 
ATOM     15  C   LIG d   1      -0.860  58.321 120.104  0.00  0.00     0.109 C 
ATOM     16  O   LIG d   1      -2.942  57.140 120.368  0.00  0.00    -0.276 OA
ATOM     17  H   LIG d   1      -2.485  60.253 120.085  0.00  0.00     0.149 HD
ENDBRANCH   6  13
BRANCH   5  18
ATOM     18  N   LIG d   1      -4.924  60.184 117.956  0.00  0.00     0.381 N 
ATOM     19  H   LIG d   1      -5.453  59.354 117.778  0.00  0.00    -0.090 HD
ATOM     20  H   LIG d   1      -3.955  59.984 117.780  0.00  0.00    -0.090 HD
ATOM     21  H   LIG d   1      -5.233  60.918 117.358  0.00  0.00    -0.090 HD
ENDBRANCH   5  18
BRANCH   3  22
ATOM     22  C   LIG d   1      -7.998  61.732 121.285  0.00  0.00     0.382 C 
ATOM     23  O   LIG d   1      -9.093  61.157 121.496  0.00  0.00    -0.241 OA
ATOM     24  O   LIG d   1      -7.946  62.977 121.300  0.00  0.00    -0.241 OA
ENDBRANCH   3  22
TORSDOF 7
ENDMDL
MODEL 7
REMARK VINA RESULT:      -4.6     21.732     23.638
REMARK  7 active torsions:
REMARK  status: ('A' for Active; 'I' for Inactive)
REMARK    1  A    between atoms: C_2  and  C_3 
REMARK    2  A    between atoms: C_3  and  O_6 
REMARK    3  A    between atoms: C_3  and  C_4 
REMARK    4  A    between atoms: C_7  and  O_6 
REMARK    5  A    between atoms: C_9  and  C_10 
REMARK    6  A    between atoms: N_15  and  C_14 
REMARK    7  A    between atoms: N_20  and  C_19 
REMARK       I    between atoms: C_22  and  N_20 
ROOT
ATOM      1  C   LIG d   1      -8.614  82.492 120.956  0.00  0.00     0.161 C 
ATOM      2  C   LIG d   1      -9.032  83.717 121.503  0.00  0.00     0.016 C 
ATOM      3  C   LIG d   1     -10.043  84.521 120.929  0.00  0.00     0.038 C 
ATOM      4  C   LIG d   1     -10.817  84.078 119.845  0.00  0.00     0.028 C 
ATOM      5  C   LIG d   1     -10.093  83.074 118.955  0.00  0.00    -0.047 C 
ATOM      6  C   LIG d   1      -9.523  81.940 119.837  0.00  0.00     0.091 C 
ENDROOT
BRANCH   1   7
ATOM      7  O   LIG d   1      -8.462  81.515 122.005  0.00  0.00    -0.368 OA
BRANCH   7   8
ATOM      8  C   LIG d   1      -9.233  81.748 123.209  0.00  0.00     0.119 C 
BRANCH   8   9
ATOM      9  C   LIG d   1      -8.326  81.414 124.410  0.00  0.00     0.028 C 
ATOM     10  C   LIG d   1      -7.016  82.220 124.398  0.00  0.00     0.006 C 
ENDBRANCH   8   9
BRANCH   8  11
ATOM     11  C   LIG d   1     -10.414  80.779 123.311  0.00  0.00     0.028 C 
ATOM     12  C   LIG d   1     -11.772  81.474 123.128  0.00  0.00     0.006 C 
ENDBRANCH   8  11
ENDBRANCH   7   8
ENDBRANCH   1   7
BRANCH   6  13
ATOM     13  N   LIG d   1      -8.727  80.959 119.055  0.00  0.00    -0.311 N 
ATOM     14  C   LIG d   1      -9.254  79.878 118.481  0.00  0.00     0.210 C 
ATOM     15  C   LIG d   1      -8.253  78.987 117.739  0.00  0.00     0.109 C 
ATOM     16  O   LIG d   1     -10.460  79.590 118.490  0.00  0.00    -0.276 OA
ATOM     17  H   LIG d   1      -7.744  81.132 118.970  0.00  0.00     0.149 HD
ENDBRANCH   6  13
BRANCH   5  18
ATOM     18  N   LIG d   1     -11.058  82.594 117.948  0.00  0.00     0.381 N 
ATOM     19  H   LIG d   1     -11.954  82.464 118.373  0.00  0.00    -0.090 HD
ATOM     20  H   LIG d   1     -10.745  81.707 117.595  0.00  0.00    -0.090 HD
ATOM     21  H   LIG d   1     -11.128  83.251 117.202  0.00  0.00    -0.090 HD
ENDBRANCH   5  18
BRANCH   3  22
ATOM     22  C   LIG d   1     -10.263  85.800 121.416  0.00  0.00     0.382 C 
ATOM     23  O   LIG d   1      -9.307  86.606 121.517  0.00  0.00    -0.241 OA
ATOM     24  O   LIG d   1     -11.398  86.145 121.798  0.00  0.00    -0.241 OA
ENDBRANCH   3  22
TORSDOF 7
ENDMDL
MODEL 8
REMARK VINA RESULT:      -4.6     22.408     24.353
REMARK  7 active torsions:
REMARK  status: ('A' for Active; 'I' for Inactive)
REMARK    1  A    between atoms: C_2  and  C_3 
REMARK    2  A    between atoms: C_3  and  O_6 
REMARK    3  A    between atoms: C_3  and  C_4 
REMARK    4  A    between atoms: C_7  and  O_6 
REMARK    5  A    between atoms: C_9  and  C_10 
REMARK    6  A    between atoms: N_15  and  C_14 
REMARK    7  A    between atoms: N_20  and  C_19 
REMARK       I    between atoms: C_22  and  N_20 
ROOT
ATOM      1  C   LIG d   1      -7.538  83.087 120.495  0.00  0.00     0.161 C 
ATOM      2  C   LIG d   1      -7.778  82.099 119.526  0.00  0.00     0.016 C 
ATOM      3  C   LIG d   1      -9.053  81.845 118.972  0.00  0.00     0.038 C 
ATOM      4  C   LIG d   1     -10.156  82.669 119.240  0.00  0.00     0.028 C 
ATOM      5  C   LIG d   1     -10.077  83.364 120.595  0.00  0.00    -0.047 C 
ATOM      6  C   LIG d   1      -8.707  84.070 120.718  0.00  0.00     0.091 C 
ENDROOT
BRANCH   1   7
ATOM      7  O   LIG d   1      -6.333  83.807 120.171  0.00  0.00    -0.368 OA
BRANCH   7   8
ATOM      8  C   LIG d   1      -5.131  83.382 120.859  0.00  0.00     0.119 C 
BRANCH   8   9
ATOM      9  C   LIG d   1      -4.387  84.650 121.319  0.00  0.00     0.028 C 
ATOM     10  C   LIG d   1      -5.254  85.915 121.199  0.00  0.00     0.006 C 
ENDBRANCH   8   9
BRANCH   8  11
ATOM     11  C   LIG d   1      -4.167  82.668 119.908  0.00  0.00     0.028 C 
ATOM     12  C   LIG d   1      -2.769  83.307 119.885  0.00  0.00     0.006 C 
ENDBRANCH   8  11
ENDBRANCH   7   8
ENDBRANCH   1   7
BRANCH   6  13
ATOM     13  N   LIG d   1      -8.513  84.704 122.048  0.00  0.00    -0.311 N 
ATOM     14  C   LIG d   1      -8.824  85.973 122.307  0.00  0.00     0.210 C 
ATOM     15  C   LIG d   1      -8.526  86.433 123.738  0.00  0.00     0.109 C 
ATOM     16  O   LIG d   1      -9.349  86.752 121.498  0.00  0.00    -0.276 OA
ATOM     17  H   LIG d   1      -8.122  84.135 122.772  0.00  0.00     0.149 HD
ENDBRANCH   6  13
BRANCH   5  18
ATOM     18  N   LIG d   1     -11.217  84.295 120.686  0.00  0.00     0.381 N 
ATOM     19  H   LIG d   1     -10.908  85.175 121.048  0.00  0.00    -0.090 HD
ATOM     20  H   LIG d   1     -11.898  83.915 121.320  0.00  0.00    -0.090 HD
ATOM     21  H   LIG d   1     -11.625  84.423 119.786  0.00  0.00    -0.090 HD
ENDBRANCH   5  18
BRANCH   3  22
ATOM     22  C   LIG d   1      -9.244  80.731 118.168  0.00  0.00     0.382 C 
ATOM     23  O   LIG d   1     -10.353  80.143 118.165  0.00  0.00    -0.241 OA
ATOM     24  O   LIG d   1      -8.308  80.279 117.481  0.00  0.00    -0.241 OA
ENDBRANCH   3  22
TORSDOF 7
ENDMDL
MODEL 9
REMARK VINA RESULT:      -4.6     31.887     34.561
REMARK  7 active torsions:
REMARK  status: ('A' for Active; 'I' for Inactive)
REMARK    1  A    between atoms: C_2  and  C_3 
REMARK    2  A    between atoms: C_3  and  O_6 
REMARK    3  A    between atoms: C_3  and  C_4 
REMARK    4  A    between atoms: C_7  and  O_6 
REMARK    5  A    between atoms: C_9  and  C_10 
REMARK    6  A    between atoms: N_15  and  C_14 
REMARK    7  A    between atoms: N_20  and  C_19 
REMARK       I    between atoms: C_22  and  N_20 
ROOT
ATOM      1  C   LIG d   1      -1.345  94.149 117.705  0.00  0.00     0.161 C 
ATOM      2  C   LIG d   1      -0.376  93.142 117.844  0.00  0.00     0.016 C 
ATOM      3  C   LIG d   1       0.709  93.225 118.747  0.00  0.00     0.038 C 
ATOM      4  C   LIG d   1       0.814  94.261 119.686  0.00  0.00     0.028 C 
ATOM      5  C   LIG d   1       0.138  95.554 119.240  0.00  0.00    -0.047 C 
ATOM      6  C   LIG d   1      -1.309  95.237 118.799  0.00  0.00     0.091 C 
ENDROOT
BRANCH   1   7
ATOM      7  O   LIG d   1      -2.657  93.558 117.629  0.00  0.00    -0.368 OA
BRANCH   7   8
ATOM      8  C   LIG d   1      -2.862  92.358 118.415  0.00  0.00     0.119 C 
BRANCH   8   9
ATOM      9  C   LIG d   1      -3.402  91.270 117.466  0.00  0.00     0.028 C 
ATOM     10  C   LIG d   1      -2.808  89.883 117.765  0.00  0.00     0.006 C 
ENDBRANCH   8   9
BRANCH   8  11
ATOM     11  C   LIG d   1      -3.957  92.561 119.466  0.00  0.00     0.028 C 
ATOM     12  C   LIG d   1      -4.739  93.869 119.267  0.00  0.00     0.006 C 
ENDBRANCH   8  11
ENDBRANCH   7   8
ENDBRANCH   1   7
BRANCH   6  13
ATOM     13  N   LIG d   1      -2.015  96.432 118.268  0.00  0.00    -0.311 N 
ATOM     14  C   LIG d   1      -2.724  97.263 119.030  0.00  0.00     0.210 C 
ATOM     15  C   LIG d   1      -3.387  98.422 118.279  0.00  0.00     0.109 C 
ATOM     16  O   LIG d   1      -2.840  97.168 120.261  0.00  0.00    -0.276 OA
ATOM     17  H   LIG d   1      -1.948  96.602 117.284  0.00  0.00     0.149 HD
ENDBRANCH   6  13
BRANCH   5  18
ATOM     18  N   LIG d   1       0.204  96.503 120.367  0.00  0.00     0.381 N 
ATOM     19  H   LIG d   1      -0.541  97.167 120.295  0.00  0.00    -0.090 HD
ATOM     20  H   LIG d   1       1.076  97.001 120.322  0.00  0.00    -0.090 HD
ATOM     21  H   LIG d   1       0.138  96.012 121.231  0.00  0.00    -0.090 HD
ENDBRANCH   5  18
BRANCH   3  22
ATOM     22  C   LIG d   1       1.725  92.283 118.688  0.00  0.00     0.382 C 
ATOM     23  O   LIG d   1       1.498  91.094 119.017  0.00  0.00    -0.241 OA
ATOM     24  O   LIG d   1       2.878  92.618 118.354  0.00  0.00    -0.241 OA
ENDBRANCH   3  22
TORSDOF 7
ENDMDL
