MODEL 1
REMARK VINA RESULT:      -4.5      0.000      0.000
REMARK  7 active torsions:
REMARK  status: ('A' for Active; 'I' for Inactive)
REMARK    1  A    between atoms: C_2  and  C_3 
REMARK    2  A    between atoms: C_3  and  O_6 
REMARK    3  A    between atoms: C_3  and  C_4 
REMARK    4  A    between atoms: C_7  and  O_6 
REMARK    5  A    between atoms: C_9  and  C_10 
REMARK    6  A    between atoms: N_15  and  C_14 
REMARK    7  A    between atoms: N_20  and  C_19 
REMARK       I    between atoms: C_22  and  N_20 
ROOT
ATOM      1  C   LIG d   1      -9.522  81.446 121.055  0.00  0.00     0.161 C 
ATOM      2  C   LIG d   1      -9.910  82.676 121.612  0.00  0.00     0.016 C 
ATOM      3  C   LIG d   1     -10.254  83.807 120.837  0.00  0.00     0.038 C 
ATOM      4  C   LIG d   1     -10.379  83.740 119.441  0.00  0.00     0.028 C 
ATOM      5  C   LIG d   1      -9.509  82.660 118.806  0.00  0.00    -0.047 C 
ATOM      6  C   LIG d   1      -9.760  81.320 119.535  0.00  0.00     0.091 C 
ENDROOT
BRANCH   1   7
ATOM      7  O   LIG d   1     -10.171  80.366 121.755  0.00  0.00    -0.368 OA
BRANCH   7   8
ATOM      8  C   LIG d   1      -9.357  79.647 122.713  0.00  0.00     0.119 C 
BRANCH   8   9
ATOM      9  C   LIG d   1      -9.214  78.199 122.205  0.00  0.00     0.028 C 
ATOM     10  C   LIG d   1      -7.763  77.846 121.840  0.00  0.00     0.006 C 
ENDBRANCH   8   9
BRANCH   8  11
ATOM     11  C   LIG d   1     -10.061  79.533 124.068  0.00  0.00     0.028 C 
ATOM     12  C   LIG d   1     -11.588  79.671 123.960  0.00  0.00     0.006 C 
ENDBRANCH   8  11
ENDBRANCH   7   8
ENDBRANCH   1   7
BRANCH   6  13
ATOM     13  N   LIG d   1      -8.886  80.229 119.032  0.00  0.00    -0.311 N 
ATOM     14  C   LIG d   1      -9.351  79.060 118.593  0.00  0.00     0.210 C 
ATOM     15  C   LIG d   1      -8.278  78.067 118.138  0.00  0.00     0.109 C 
ATOM     16  O   LIG d   1     -10.553  78.765 118.508  0.00  0.00    -0.276 OA
ATOM     17  H   LIG d   1      -7.899  80.396 119.037  0.00  0.00     0.149 HD
ENDBRANCH   6  13
BRANCH   5  18
ATOM     18  N   LIG d   1      -9.840  82.608 117.370  0.00  0.00     0.381 N 
ATOM     19  H   LIG d   1     -10.011  83.532 117.028  0.00  0.00    -0.090 HD
ATOM     20  H   LIG d   1     -10.678  82.067 117.249  0.00  0.00    -0.090 HD
ATOM     21  H   LIG d   1      -9.091  82.191 116.862  0.00  0.00    -0.090 HD
ENDBRANCH   5  18
BRANCH   3  22
ATOM     22  C   LIG d   1     -10.438  85.034 121.456  0.00  0.00     0.382 C 
ATOM     23  O   LIG d   1      -9.540  85.503 122.197  0.00  0.00    -0.241 OA
ATOM     24  O   LIG d   1     -11.507  85.658 121.317  0.00  0.00    -0.241 OA
ENDBRANCH   3  22
TORSDOF 7
ENDMDL
MODEL 2
REMARK VINA RESULT:      -4.4      2.631      5.373
REMARK  7 active torsions:
REMARK  status: ('A' for Active; 'I' for Inactive)
REMARK    1  A    between atoms: C_2  and  C_3 
REMARK    2  A    between atoms: C_3  and  O_6 
REMARK    3  A    between atoms: C_3  and  C_4 
REMARK    4  A    between atoms: C_7  and  O_6 
REMARK    5  A    between atoms: C_9  and  C_10 
REMARK    6  A    between atoms: N_15  and  C_14 
REMARK    7  A    between atoms: N_20  and  C_19 
REMARK       I    between atoms: C_22  and  N_20 
ROOT
ATOM      1  C   LIG d   1      -8.813  80.653 120.578  0.00  0.00     0.161 C 
ATOM      2  C   LIG d   1      -8.078  79.726 119.821  0.00  0.00     0.016 C 
ATOM      3  C   LIG d   1      -7.925  79.814 118.418  0.00  0.00     0.038 C 
ATOM      4  C   LIG d   1      -8.374  80.928 117.692  0.00  0.00     0.028 C 
ATOM      5  C   LIG d   1      -9.558  81.637 118.341  0.00  0.00    -0.047 C 
ATOM      6  C   LIG d   1      -9.216  81.934 119.818  0.00  0.00     0.091 C 
ENDROOT
BRANCH   1   7
ATOM      7  O   LIG d   1      -8.087  80.989 121.777  0.00  0.00    -0.368 OA
BRANCH   7   8
ATOM      8  C   LIG d   1      -6.678  80.652 121.785  0.00  0.00     0.119 C 
BRANCH   8   9
ATOM      9  C   LIG d   1      -6.298  80.282 123.231  0.00  0.00     0.028 C 
ATOM     10  C   LIG d   1      -6.135  81.519 124.130  0.00  0.00     0.006 C 
ENDBRANCH   8   9
BRANCH   8  11
ATOM     11  C   LIG d   1      -5.813  81.867 121.436  0.00  0.00     0.028 C 
ATOM     12  C   LIG d   1      -4.663  81.524 120.475  0.00  0.00     0.006 C 
ENDBRANCH   8  11
ENDBRANCH   7   8
ENDBRANCH   1   7
BRANCH   6  13
ATOM     13  N   LIG d   1     -10.353  82.552 120.550  0.00  0.00    -0.311 N 
ATOM     14  C   LIG d   1     -10.211  83.560 121.408  0.00  0.00     0.210 C 
ATOM     15  C   LIG d   1     -11.509  84.035 122.069  0.00  0.00     0.109 C 
ATOM     16  O   LIG d   1      -9.138  84.128 121.661  0.00  0.00    -0.276 OA
ATOM     17  H   LIG d   1     -11.264  82.173 120.380  0.00  0.00     0.149 HD
ENDBRANCH   6  13
BRANCH   5  18
ATOM     18  N   LIG d   1      -9.833  82.854 117.555  0.00  0.00     0.381 N 
ATOM     19  H   LIG d   1     -10.768  82.823 117.199  0.00  0.00    -0.090 HD
ATOM     20  H   LIG d   1      -9.201  82.888 116.775  0.00  0.00    -0.090 HD
ATOM     21  H   LIG d   1      -9.713  83.662 118.124  0.00  0.00    -0.090 HD
ENDBRANCH   5  18
BRANCH   3  22
ATOM     22  C   LIG d   1      -7.352  78.761 117.721  0.00  0.00     0.382 C 
ATOM     23  O   LIG d   1      -6.229  78.905 117.180  0.00  0.00    -0.241 OA
ATOM     24  O   LIG d   1      -7.962  77.684 117.590  0.00  0.00    -0.241 OA
ENDBRANCH   3  22
TORSDOF 7
ENDMDL
MODEL 3
REMARK VINA RESULT:      -4.4      2.759      5.236
REMARK  7 active torsions:
REMARK  status: ('A' for Active; 'I' for Inactive)
REMARK    1  A    between atoms: C_2  and  C_3 
REMARK    2  A    between atoms: C_3  and  O_6 
REMARK    3  A    between atoms: C_3  and  C_4 
REMARK    4  A    between atoms: C_7  and  O_6 
REMARK    5  A    between atoms: C_9  and  C_10 
REMARK    6  A    between atoms: N_15  and  C_14 
REMARK    7  A    between atoms: N_20  and  C_19 
REMARK       I    between atoms: C_22  and  N_20 
ROOT
ATOM      1  C   LIG d   1      -8.605  81.487 121.054  0.00  0.00     0.161 C 
ATOM      2  C   LIG d   1      -7.692  80.705 120.328  0.00  0.00     0.016 C 
ATOM      3  C   LIG d   1      -7.627  80.694 118.915  0.00  0.00     0.038 C 
ATOM      4  C   LIG d   1      -8.375  81.584 118.132  0.00  0.00     0.028 C 
ATOM      5  C   LIG d   1      -9.672  82.034 118.797  0.00  0.00    -0.047 C 
ATOM      6  C   LIG d   1      -9.354  82.548 120.220  0.00  0.00     0.091 C 
ENDROOT
BRANCH   1   7
ATOM      7  O   LIG d   1      -7.938  82.107 122.171  0.00  0.00    -0.368 OA
BRANCH   7   8
ATOM      8  C   LIG d   1      -7.294  83.377 121.903  0.00  0.00     0.119 C 
BRANCH   8   9
ATOM      9  C   LIG d   1      -5.772  83.148 121.974  0.00  0.00     0.028 C 
ATOM     10  C   LIG d   1      -5.396  81.986 122.909  0.00  0.00     0.006 C 
ENDBRANCH   8   9
BRANCH   8  11
ATOM     11  C   LIG d   1      -7.602  84.400 123.001  0.00  0.00     0.028 C 
ATOM     12  C   LIG d   1      -8.546  83.850 124.081  0.00  0.00     0.006 C 
ENDBRANCH   8  11
ENDBRANCH   7   8
ENDBRANCH   1   7
BRANCH   6  13
ATOM     13  N   LIG d   1     -10.578  82.929 120.971  0.00  0.00    -0.311 N 
ATOM     14  C   LIG d   1     -10.890  84.188 121.274  0.00  0.00     0.210 C 
ATOM     15  C   LIG d   1     -12.187  84.359 122.072  0.00  0.00     0.109 C 
ATOM     16  O   LIG d   1     -10.233  85.182 120.931  0.00  0.00    -0.276 OA
ATOM     17  H   LIG d   1     -11.184  82.187 121.262  0.00  0.00     0.149 HD
ENDBRANCH   6  13
BRANCH   5  18
ATOM     18  N   LIG d   1     -10.282  83.063 117.934  0.00  0.00     0.381 N 
ATOM     19  H   LIG d   1     -10.689  83.782 118.498  0.00  0.00    -0.090 HD
ATOM     20  H   LIG d   1     -11.013  82.639 117.389  0.00  0.00    -0.090 HD
ATOM     21  H   LIG d   1      -9.593  83.454 117.330  0.00  0.00    -0.090 HD
ENDBRANCH   5  18
BRANCH   3  22
ATOM     22  C   LIG d   1      -6.835  79.756 118.271  0.00  0.00     0.382 C 
ATOM     23  O   LIG d   1      -5.730  79.422 118.765  0.00  0.00    -0.241 OA
ATOM     24  O   LIG d   1      -7.189  79.271 117.180  0.00  0.00    -0.241 OA
ENDBRANCH   3  22
TORSDOF 7
ENDMDL
MODEL 4
REMARK VINA RESULT:      -4.4     10.723     13.261
REMARK  7 active torsions:
REMARK  status: ('A' for Active; 'I' for Inactive)
REMARK    1  A    between atoms: C_2  and  C_3 
REMARK    2  A    between atoms: C_3  and  O_6 
REMARK    3  A    between atoms: C_3  and  C_4 
REMARK    4  A    between atoms: C_7  and  O_6 
REMARK    5  A    between atoms: C_9  and  C_10 
REMARK    6  A    between atoms: N_15  and  C_14 
REMARK    7  A    between atoms: N_20  and  C_19 
REMARK       I    between atoms: C_22  and  N_20 
ROOT
ATOM      1  C   LIG d   1      -3.929  92.681 118.435  0.00  0.00     0.161 C 
ATOM      2  C   LIG d   1      -4.895  93.702 118.442  0.00  0.00     0.016 C 
ATOM      3  C   LIG d   1      -6.267  93.477 118.185  0.00  0.00     0.038 C 
ATOM      4  C   LIG d   1      -6.794  92.184 118.051  0.00  0.00     0.028 C 
ATOM      5  C   LIG d   1      -5.781  91.168 117.535  0.00  0.00    -0.047 C 
ATOM      6  C   LIG d   1      -4.503  91.249 118.400  0.00  0.00     0.091 C 
ENDROOT
BRANCH   1   7
ATOM      7  O   LIG d   1      -3.043  92.839 119.560  0.00  0.00    -0.368 OA
BRANCH   7   8
ATOM      8  C   LIG d   1      -1.692  93.262 119.252  0.00  0.00     0.119 C 
BRANCH   8   9
ATOM      9  C   LIG d   1      -1.600  94.771 119.550  0.00  0.00     0.028 C 
ATOM     10  C   LIG d   1      -0.567  95.483 118.660  0.00  0.00     0.006 C 
ENDBRANCH   8   9
BRANCH   8  11
ATOM     11  C   LIG d   1      -1.391  93.125 117.757  0.00  0.00     0.028 C 
ATOM     12  C   LIG d   1      -0.293  92.091 117.462  0.00  0.00     0.006 C 
ENDBRANCH   8  11
ENDBRANCH   7   8
ENDBRANCH   1   7
BRANCH   6  13
ATOM     13  N   LIG d   1      -3.429  90.346 117.910  0.00  0.00    -0.311 N 
ATOM     14  C   LIG d   1      -3.182  89.147 118.435  0.00  0.00     0.210 C 
ATOM     15  C   LIG d   1      -2.017  88.387 117.795  0.00  0.00     0.109 C 
ATOM     16  O   LIG d   1      -3.839  88.627 119.350  0.00  0.00    -0.276 OA
ATOM     17  H   LIG d   1      -2.867  90.676 117.150  0.00  0.00     0.149 HD
ENDBRANCH   6  13
BRANCH   5  18
ATOM     18  N   LIG d   1      -6.423  89.840 117.574  0.00  0.00     0.381 N 
ATOM     19  H   LIG d   1      -7.370  89.912 117.260  0.00  0.00    -0.090 HD
ATOM     20  H   LIG d   1      -6.429  89.510 118.523  0.00  0.00    -0.090 HD
ATOM     21  H   LIG d   1      -5.921  89.202 116.996  0.00  0.00    -0.090 HD
ENDBRANCH   5  18
BRANCH   3  22
ATOM     22  C   LIG d   1      -7.121  94.557 118.021  0.00  0.00     0.382 C 
ATOM     23  O   LIG d   1      -8.329  94.364 117.746  0.00  0.00    -0.241 OA
ATOM     24  O   LIG d   1      -6.688  95.722 118.100  0.00  0.00    -0.241 OA
ENDBRANCH   3  22
TORSDOF 7
ENDMDL
MODEL 5
REMARK VINA RESULT:      -4.4      2.367      5.267
REMARK  7 active torsions:
REMARK  status: ('A' for Active; 'I' for Inactive)
REMARK    1  A    between atoms: C_2  and  C_3 
REMARK    2  A    between atoms: C_3  and  O_6 
REMARK    3  A    between atoms: C_3  and  C_4 
REMARK    4  A    between atoms: C_7  and  O_6 
REMARK    5  A    between atoms: C_9  and  C_10 
REMARK    6  A    between atoms: N_15  and  C_14 
REMARK    7  A    between atoms: N_20  and  C_19 
REMARK       I    between atoms: C_22  and  N_20 
ROOT
ATOM      1  C   LIG d   1      -8.505  80.932 120.779  0.00  0.00     0.161 C 
ATOM      2  C   LIG d   1      -8.752  79.656 120.246  0.00  0.00     0.016 C 
ATOM      3  C   LIG d   1      -9.308  79.443 118.963  0.00  0.00     0.038 C 
ATOM      4  C   LIG d   1      -9.516  80.496 118.061  0.00  0.00     0.028 C 
ATOM      5  C   LIG d   1      -9.753  81.840 118.742  0.00  0.00    -0.047 C 
ATOM      6  C   LIG d   1      -8.622  82.090 119.765  0.00  0.00     0.091 C 
ENDROOT
BRANCH   1   7
ATOM      7  O   LIG d   1      -7.213  80.953 121.417  0.00  0.00    -0.368 OA
BRANCH   7   8
ATOM      8  C   LIG d   1      -6.165  80.200 120.759  0.00  0.00     0.119 C 
BRANCH   8   9
ATOM      9  C   LIG d   1      -5.447  79.366 121.838  0.00  0.00     0.028 C 
ATOM     10  C   LIG d   1      -5.913  77.901 121.854  0.00  0.00     0.006 C 
ENDBRANCH   8   9
BRANCH   8  11
ATOM     11  C   LIG d   1      -5.091  81.127 120.181  0.00  0.00     0.028 C 
ATOM     12  C   LIG d   1      -3.791  80.386 119.830  0.00  0.00     0.006 C 
ENDBRANCH   8  11
ENDBRANCH   7   8
ENDBRANCH   1   7
BRANCH   6  13
ATOM     13  N   LIG d   1      -8.822  83.344 120.537  0.00  0.00    -0.311 N 
ATOM     14  C   LIG d   1      -9.820  83.522 121.400  0.00  0.00     0.210 C 
ATOM     15  C   LIG d   1      -9.855  84.897 122.074  0.00  0.00     0.109 C 
ATOM     16  O   LIG d   1     -10.661  82.660 121.696  0.00  0.00    -0.276 OA
ATOM     17  H   LIG d   1      -8.167  84.085 120.381  0.00  0.00     0.149 HD
ENDBRANCH   6  13
BRANCH   5  18
ATOM     18  N   LIG d   1      -9.816  82.869 117.687  0.00  0.00     0.381 N 
ATOM     19  H   LIG d   1      -9.280  82.576 116.895  0.00  0.00    -0.090 HD
ATOM     20  H   LIG d   1      -9.418  83.721 118.040  0.00  0.00    -0.090 HD
ATOM     21  H   LIG d   1     -10.763  83.023 117.418  0.00  0.00    -0.090 HD
ENDBRANCH   5  18
BRANCH   3  22
ATOM     22  C   LIG d   1      -9.700  78.167 118.588  0.00  0.00     0.382 C 
ATOM     23  O   LIG d   1      -8.877  77.394 118.041  0.00  0.00    -0.241 OA
ATOM     24  O   LIG d   1     -10.878  77.794 118.749  0.00  0.00    -0.241 OA
ENDBRANCH   3  22
TORSDOF 7
ENDMDL
MODEL 6
REMARK VINA RESULT:      -4.4     11.807     13.939
REMARK  7 active torsions:
REMARK  status: ('A' for Active; 'I' for Inactive)
REMARK    1  A    between atoms: C_2  and  C_3 
REMARK    2  A    between atoms: C_3  and  O_6 
REMARK    3  A    between atoms: C_3  and  C_4 
REMARK    4  A    between atoms: C_7  and  O_6 
REMARK    5  A    between atoms: C_9  and  C_10 
REMARK    6  A    between atoms: N_15  and  C_14 
REMARK    7  A    between atoms: N_20  and  C_19 
REMARK       I    between atoms: C_22  and  N_20 
ROOT
ATOM      1  C   LIG d   1      -4.503  93.613 118.400  0.00  0.00     0.161 C 
ATOM      2  C   LIG d   1      -5.687  94.339 118.608  0.00  0.00     0.016 C 
ATOM      3  C   LIG d   1      -6.972  93.751 118.603  0.00  0.00     0.038 C 
ATOM      4  C   LIG d   1      -7.151  92.361 118.539  0.00  0.00     0.028 C 
ATOM      5  C   LIG d   1      -6.016  91.637 117.822  0.00  0.00    -0.047 C 
ATOM      6  C   LIG d   1      -4.670  92.079 118.439  0.00  0.00     0.091 C 
ENDROOT
BRANCH   1   7
ATOM      7  O   LIG d   1      -3.499  94.032 119.345  0.00  0.00    -0.368 OA
BRANCH   7   8
ATOM      8  C   LIG d   1      -2.353  94.726 118.793  0.00  0.00     0.119 C 
BRANCH   8   9
ATOM      9  C   LIG d   1      -1.096  94.171 119.491  0.00  0.00     0.028 C 
ATOM     10  C   LIG d   1      -0.032  93.693 118.488  0.00  0.00     0.006 C 
ENDBRANCH   8   9
BRANCH   8  11
ATOM     11  C   LIG d   1      -2.385  96.217 119.141  0.00  0.00     0.028 C 
ATOM     12  C   LIG d   1      -1.805  97.101 118.025  0.00  0.00     0.006 C 
ENDBRANCH   8  11
ENDBRANCH   7   8
ENDBRANCH   1   7
BRANCH   6  13
ATOM     13  N   LIG d   1      -3.502  91.482 117.740  0.00  0.00    -0.311 N 
ATOM     14  C   LIG d   1      -2.514  90.850 118.371  0.00  0.00     0.210 C 
ATOM     15  C   LIG d   1      -1.397  90.327 117.462  0.00  0.00     0.109 C 
ATOM     16  O   LIG d   1      -2.472  90.646 119.593  0.00  0.00    -0.276 OA
ATOM     17  H   LIG d   1      -3.471  91.574 116.743  0.00  0.00     0.149 HD
ENDBRANCH   6  13
BRANCH   5  18
ATOM     18  N   LIG d   1      -6.261  90.188 117.950  0.00  0.00     0.381 N 
ATOM     19  H   LIG d   1      -5.642  89.798 118.632  0.00  0.00    -0.090 HD
ATOM     20  H   LIG d   1      -6.075  89.747 117.066  0.00  0.00    -0.090 HD
ATOM     21  H   LIG d   1      -7.207  90.024 118.217  0.00  0.00    -0.090 HD
ENDBRANCH   5  18
BRANCH   3  22
ATOM     22  C   LIG d   1      -8.099  94.559 118.623  0.00  0.00     0.382 C 
ATOM     23  O   LIG d   1      -9.149  94.157 119.178  0.00  0.00    -0.241 OA
ATOM     24  O   LIG d   1      -8.091  95.667 118.054  0.00  0.00    -0.241 OA
ENDBRANCH   3  22
TORSDOF 7
ENDMDL
MODEL 7
REMARK VINA RESULT:      -4.4     11.455     14.017
REMARK  7 active torsions:
REMARK  status: ('A' for Active; 'I' for Inactive)
REMARK    1  A    between atoms: C_2  and  C_3 
REMARK    2  A    between atoms: C_3  and  O_6 
REMARK    3  A    between atoms: C_3  and  C_4 
REMARK    4  A    between atoms: C_7  and  O_6 
REMARK    5  A    between atoms: C_9  and  C_10 
REMARK    6  A    between atoms: N_15  and  C_14 
REMARK    7  A    between atoms: N_20  and  C_19 
REMARK       I    between atoms: C_22  and  N_20 
ROOT
ATOM      1  C   LIG d   1      -4.900  93.618 119.974  0.00  0.00     0.161 C 
ATOM      2  C   LIG d   1      -6.266  93.287 119.969  0.00  0.00     0.016 C 
ATOM      3  C   LIG d   1      -7.265  94.116 119.409  0.00  0.00     0.038 C 
ATOM      4  C   LIG d   1      -6.947  95.269 118.677  0.00  0.00     0.028 C 
ATOM      5  C   LIG d   1      -5.624  95.904 119.091  0.00  0.00    -0.047 C 
ATOM      6  C   LIG d   1      -4.523  94.819 119.082  0.00  0.00     0.091 C 
ENDROOT
BRANCH   1   7
ATOM      7  O   LIG d   1      -4.116  92.463 119.618  0.00  0.00    -0.368 OA
BRANCH   7   8
ATOM      8  C   LIG d   1      -4.373  91.898 118.308  0.00  0.00     0.119 C 
BRANCH   8   9
ATOM      9  C   LIG d   1      -4.952  90.485 118.519  0.00  0.00     0.028 C 
ATOM     10  C   LIG d   1      -6.046  90.141 117.495  0.00  0.00     0.006 C 
ENDBRANCH   8   9
BRANCH   8  11
ATOM     11  C   LIG d   1      -3.072  91.690 117.526  0.00  0.00     0.028 C 
ATOM     12  C   LIG d   1      -1.941  91.114 118.393  0.00  0.00     0.006 C 
ENDBRANCH   8  11
ENDBRANCH   7   8
ENDBRANCH   1   7
BRANCH   6  13
ATOM     13  N   LIG d   1      -3.213  95.337 119.557  0.00  0.00    -0.311 N 
ATOM     14  C   LIG d   1      -2.088  95.246 118.849  0.00  0.00     0.210 C 
ATOM     15  C   LIG d   1      -0.846  95.826 119.532  0.00  0.00     0.109 C 
ATOM     16  O   LIG d   1      -2.008  94.769 117.707  0.00  0.00    -0.276 OA
ATOM     17  H   LIG d   1      -3.193  95.768 120.460  0.00  0.00     0.149 HD
ENDBRANCH   6  13
BRANCH   5  18
ATOM     18  N   LIG d   1      -5.350  97.013 118.157  0.00  0.00     0.381 N 
ATOM     19  H   LIG d   1      -6.191  97.269 117.680  0.00  0.00    -0.090 HD
ATOM     20  H   LIG d   1      -4.680  96.705 117.474  0.00  0.00    -0.090 HD
ATOM     21  H   LIG d   1      -4.990  97.797 118.656  0.00  0.00    -0.090 HD
ENDBRANCH   5  18
BRANCH   3  22
ATOM     22  C   LIG d   1      -8.603  93.813 119.613  0.00  0.00     0.382 C 
ATOM     23  O   LIG d   1      -8.929  92.692 120.073  0.00  0.00    -0.241 OA
ATOM     24  O   LIG d   1      -9.490  94.630 119.302  0.00  0.00    -0.241 OA
ENDBRANCH   3  22
TORSDOF 7
ENDMDL
MODEL 8
REMARK VINA RESULT:      -4.4      1.180      2.131
REMARK  7 active torsions:
REMARK  status: ('A' for Active; 'I' for Inactive)
REMARK    1  A    between atoms: C_2  and  C_3 
REMARK    2  A    between atoms: C_3  and  O_6 
REMARK    3  A    between atoms: C_3  and  C_4 
REMARK    4  A    between atoms: C_7  and  O_6 
REMARK    5  A    between atoms: C_9  and  C_10 
REMARK    6  A    between atoms: N_15  and  C_14 
REMARK    7  A    between atoms: N_20  and  C_19 
REMARK       I    between atoms: C_22  and  N_20 
ROOT
ATOM      1  C   LIG d   1      -8.548  81.803 120.791  0.00  0.00     0.161 C 
ATOM      2  C   LIG d   1      -9.320  82.816 121.386  0.00  0.00     0.016 C 
ATOM      3  C   LIG d   1     -10.185  83.664 120.657  0.00  0.00     0.038 C 
ATOM      4  C   LIG d   1     -10.453  83.458 119.296  0.00  0.00     0.028 C 
ATOM      5  C   LIG d   1      -9.314  82.768 118.552  0.00  0.00    -0.047 C 
ATOM      6  C   LIG d   1      -8.911  81.490 119.325  0.00  0.00     0.091 C 
ENDROOT
BRANCH   1   7
ATOM      7  O   LIG d   1      -8.615  80.605 121.590  0.00  0.00    -0.368 OA
BRANCH   7   8
ATOM      8  C   LIG d   1      -9.735  79.725 121.327  0.00  0.00     0.119 C 
BRANCH   8   9
ATOM      9  C   LIG d   1     -10.708  79.846 122.516  0.00  0.00     0.028 C 
ATOM     10  C   LIG d   1     -12.178  79.902 122.067  0.00  0.00     0.006 C 
ENDBRANCH   8   9
BRANCH   8  11
ATOM     11  C   LIG d   1      -9.298  78.257 121.309  0.00  0.00     0.028 C 
ATOM     12  C   LIG d   1      -7.782  78.085 121.497  0.00  0.00     0.006 C 
ENDBRANCH   8  11
ENDBRANCH   7   8
ENDBRANCH   1   7
BRANCH   6  13
ATOM     13  N   LIG d   1      -7.748  80.800 118.711  0.00  0.00    -0.311 N 
ATOM     14  C   LIG d   1      -7.834  79.620 118.099  0.00  0.00     0.210 C 
ATOM     15  C   LIG d   1      -6.510  79.076 117.553  0.00  0.00     0.109 C 
ATOM     16  O   LIG d   1      -8.887  78.987 117.928  0.00  0.00    -0.276 OA
ATOM     17  H   LIG d   1      -6.859  81.257 118.776  0.00  0.00     0.149 HD
ENDBRANCH   6  13
BRANCH   5  18
ATOM     18  N   LIG d   1      -9.780  82.491 117.181  0.00  0.00     0.381 N 
ATOM     19  H   LIG d   1      -9.667  81.519 116.974  0.00  0.00    -0.090 HD
ATOM     20  H   LIG d   1      -9.220  83.018 116.534  0.00  0.00    -0.090 HD
ATOM     21  H   LIG d   1     -10.738  82.748 117.088  0.00  0.00    -0.090 HD
ENDBRANCH   5  18
BRANCH   3  22
ATOM     22  C   LIG d   1     -10.761  84.759 121.283  0.00  0.00     0.382 C 
ATOM     23  O   LIG d   1     -12.008  84.822 121.414  0.00  0.00    -0.241 OA
ATOM     24  O   LIG d   1     -10.055  85.705 121.680  0.00  0.00    -0.241 OA
ENDBRANCH   3  22
TORSDOF 7
ENDMDL
MODEL 9
REMARK VINA RESULT:      -4.1      4.154      7.444
REMARK  7 active torsions:
REMARK  status: ('A' for Active; 'I' for Inactive)
REMARK    1  A    between atoms: C_2  and  C_3 
REMARK    2  A    between atoms: C_3  and  O_6 
REMARK    3  A    between atoms: C_3  and  C_4 
REMARK    4  A    between atoms: C_7  and  O_6 
REMARK    5  A    between atoms: C_9  and  C_10 
REMARK    6  A    between atoms: N_15  and  C_14 
REMARK    7  A    between atoms: N_20  and  C_19 
REMARK       I    between atoms: C_22  and  N_20 
ROOT
ATOM      1  C   LIG d   1      -6.795  77.185 118.584  0.00  0.00     0.161 C 
ATOM      2  C   LIG d   1      -7.461  76.017 118.179  0.00  0.00     0.016 C 
ATOM      3  C   LIG d   1      -8.863  75.939 118.012  0.00  0.00     0.038 C 
ATOM      4  C   LIG d   1      -9.683  77.074 118.093  0.00  0.00     0.028 C 
ATOM      5  C   LIG d   1      -9.118  78.168 118.993  0.00  0.00    -0.047 C 
ATOM      6  C   LIG d   1      -7.661  78.462 118.569  0.00  0.00     0.091 C 
ENDROOT
BRANCH   1   7
ATOM      7  O   LIG d   1      -5.610  77.374 117.785  0.00  0.00    -0.368 OA
BRANCH   7   8
ATOM      8  C   LIG d   1      -4.345  77.252 118.481  0.00  0.00     0.119 C 
BRANCH   8   9
ATOM      9  C   LIG d   1      -3.647  78.624 118.415  0.00  0.00     0.028 C 
ATOM     10  C   LIG d   1      -3.408  79.229 119.808  0.00  0.00     0.006 C 
ENDBRANCH   8   9
BRANCH   8  11
ATOM     11  C   LIG d   1      -3.404  76.282 117.761  0.00  0.00     0.028 C 
ATOM     12  C   LIG d   1      -4.134  75.056 117.190  0.00  0.00     0.006 C 
ENDBRANCH   8  11
ENDBRANCH   7   8
ENDBRANCH   1   7
BRANCH   6  13
ATOM     13  N   LIG d   1      -7.004  79.461 119.453  0.00  0.00    -0.311 N 
ATOM     14  C   LIG d   1      -7.022  80.772 119.217  0.00  0.00     0.210 C 
ATOM     15  C   LIG d   1      -6.267  81.623 120.243  0.00  0.00     0.109 C 
ATOM     16  O   LIG d   1      -7.619  81.313 118.274  0.00  0.00    -0.276 OA
ATOM     17  H   LIG d   1      -6.524  79.111 120.258  0.00  0.00     0.149 HD
ENDBRANCH   6  13
BRANCH   5  18
ATOM     18  N   LIG d   1     -10.002  79.342 118.877  0.00  0.00     0.381 N 
ATOM     19  H   LIG d   1     -10.813  79.214 119.448  0.00  0.00    -0.090 HD
ATOM     20  H   LIG d   1     -10.301  79.431 117.921  0.00  0.00    -0.090 HD
ATOM     21  H   LIG d   1      -9.516  80.165 119.158  0.00  0.00    -0.090 HD
ENDBRANCH   5  18
BRANCH   3  22
ATOM     22  C   LIG d   1      -9.463  74.707 117.799  0.00  0.00     0.382 C 
ATOM     23  O   LIG d   1      -8.773  73.660 117.836  0.00  0.00    -0.241 OA
ATOM     24  O   LIG d   1     -10.676  74.633 117.527  0.00  0.00    -0.241 OA
ENDBRANCH   3  22
TORSDOF 7
ENDMDL
