MODEL 1
REMARK VINA RESULT:      -4.8      0.000      0.000
REMARK  7 active torsions:
REMARK  status: ('A' for Active; 'I' for Inactive)
REMARK    1  A    between atoms: C_2  and  C_3 
REMARK    2  A    between atoms: C_3  and  O_6 
REMARK    3  A    between atoms: C_3  and  C_4 
REMARK    4  A    between atoms: C_7  and  O_6 
REMARK    5  A    between atoms: C_9  and  C_10 
REMARK    6  A    between atoms: N_15  and  C_14 
REMARK    7  A    between atoms: N_20  and  C_19 
REMARK       I    between atoms: C_22  and  N_20 
ROOT
ATOM      1  C   LIG d   1       1.224  58.297 119.494  0.00  0.00     0.161 C 
ATOM      2  C   LIG d   1       0.096  58.921 118.935  0.00  0.00     0.016 C 
ATOM      3  C   LIG d   1      -1.115  59.113 119.637  0.00  0.00     0.038 C 
ATOM      4  C   LIG d   1      -1.232  58.829 121.006  0.00  0.00     0.028 C 
ATOM      5  C   LIG d   1      -0.282  57.734 121.480  0.00  0.00    -0.047 C 
ATOM      6  C   LIG d   1       1.153  58.081 121.020  0.00  0.00     0.091 C 
ENDROOT
BRANCH   1   7
ATOM      7  O   LIG d   1       2.413  59.036 119.148  0.00  0.00    -0.368 OA
BRANCH   7   8
ATOM      8  C   LIG d   1       3.294  58.408 118.184  0.00  0.00     0.119 C 
BRANCH   8   9
ATOM      9  C   LIG d   1       2.767  56.982 117.934  0.00  0.00     0.028 C 
ATOM     10  C   LIG d   1       3.790  55.901 118.322  0.00  0.00     0.006 C 
ENDBRANCH   8   9
BRANCH   8  11
ATOM     11  C   LIG d   1       4.703  58.225 118.756  0.00  0.00     0.028 C 
ATOM     12  C   LIG d   1       5.169  59.427 119.592  0.00  0.00     0.006 C 
ENDBRANCH   8  11
ENDBRANCH   7   8
ENDBRANCH   1   7
BRANCH   6  13
ATOM     13  N   LIG d   1       2.132  57.019 121.370  0.00  0.00    -0.311 N 
ATOM     14  C   LIG d   1       3.238  57.246 122.077  0.00  0.00     0.210 C 
ATOM     15  C   LIG d   1       4.121  56.016 122.308  0.00  0.00     0.109 C 
ATOM     16  O   LIG d   1       3.555  58.343 122.561  0.00  0.00    -0.276 OA
ATOM     17  H   LIG d   1       1.937  56.093 121.044  0.00  0.00     0.149 HD
ENDBRANCH   6  13
BRANCH   5  18
ATOM     18  N   LIG d   1      -0.411  57.636 122.946  0.00  0.00     0.381 N 
ATOM     19  H   LIG d   1      -0.491  56.676 123.216  0.00  0.00    -0.090 HD
ATOM     20  H   LIG d   1      -1.247  58.115 123.232  0.00  0.00    -0.090 HD
ATOM     21  H   LIG d   1       0.382  58.048 123.387  0.00  0.00    -0.090 HD
ENDBRANCH   5  18
BRANCH   3  22
ATOM     22  C   LIG d   1      -2.240  59.559 118.959  0.00  0.00     0.382 C 
ATOM     23  O   LIG d   1      -2.174  60.587 118.243  0.00  0.00    -0.241 OA
ATOM     24  O   LIG d   1      -3.330  58.972 119.090  0.00  0.00    -0.241 OA
ENDBRANCH   3  22
TORSDOF 7
ENDMDL
MODEL 2
REMARK VINA RESULT:      -4.6     21.658     24.294
REMARK  7 active torsions:
REMARK  status: ('A' for Active; 'I' for Inactive)
REMARK    1  A    between atoms: C_2  and  C_3 
REMARK    2  A    between atoms: C_3  and  O_6 
REMARK    3  A    between atoms: C_3  and  C_4 
REMARK    4  A    between atoms: C_7  and  O_6 
REMARK    5  A    between atoms: C_9  and  C_10 
REMARK    6  A    between atoms: N_15  and  C_14 
REMARK    7  A    between atoms: N_20  and  C_19 
REMARK       I    between atoms: C_22  and  N_20 
ROOT
ATOM      1  C   LIG d   1     -10.090  79.114 119.754  0.00  0.00     0.161 C 
ATOM      2  C   LIG d   1     -11.043  78.511 120.591  0.00  0.00     0.016 C 
ATOM      3  C   LIG d   1     -11.778  79.218 121.570  0.00  0.00     0.038 C 
ATOM      4  C   LIG d   1     -11.717  80.616 121.677  0.00  0.00     0.028 C 
ATOM      5  C   LIG d   1     -10.396  81.203 121.193  0.00  0.00    -0.047 C 
ATOM      6  C   LIG d   1     -10.091  80.657 119.780  0.00  0.00     0.091 C 
ENDROOT
BRANCH   1   7
ATOM      7  O   LIG d   1     -10.252  78.635 118.405  0.00  0.00    -0.368 OA
BRANCH   7   8
ATOM      8  C   LIG d   1      -9.258  77.689 117.940  0.00  0.00     0.119 C 
BRANCH   8   9
ATOM      9  C   LIG d   1      -9.894  76.286 117.994  0.00  0.00     0.028 C 
ATOM     10  C   LIG d   1      -8.927  75.185 117.528  0.00  0.00     0.006 C 
ENDBRANCH   8   9
BRANCH   8  11
ATOM     11  C   LIG d   1      -8.060  77.627 118.892  0.00  0.00     0.028 C 
ATOM     12  C   LIG d   1      -6.778  78.210 118.276  0.00  0.00     0.006 C 
ENDBRANCH   8  11
ENDBRANCH   7   8
ENDBRANCH   1   7
BRANCH   6  13
ATOM     13  N   LIG d   1      -8.774  81.116 119.267  0.00  0.00    -0.311 N 
ATOM     14  C   LIG d   1      -8.586  81.566 118.027  0.00  0.00     0.210 C 
ATOM     15  C   LIG d   1      -7.146  81.970 117.697  0.00  0.00     0.109 C 
ATOM     16  O   LIG d   1      -9.482  81.700 117.180  0.00  0.00    -0.276 OA
ATOM     17  H   LIG d   1      -7.998  81.072 119.898  0.00  0.00     0.149 HD
ENDBRANCH   6  13
BRANCH   5  18
ATOM     18  N   LIG d   1     -10.521  82.673 121.231  0.00  0.00     0.381 N 
ATOM     19  H   LIG d   1     -10.551  83.034 120.298  0.00  0.00    -0.090 HD
ATOM     20  H   LIG d   1      -9.715  83.056 121.692  0.00  0.00    -0.090 HD
ATOM     21  H   LIG d   1     -11.348  82.932 121.722  0.00  0.00    -0.090 HD
ENDBRANCH   5  18
BRANCH   3  22
ATOM     22  C   LIG d   1     -12.555  78.521 122.483  0.00  0.00     0.382 C 
ATOM     23  O   LIG d   1     -12.705  77.282 122.361  0.00  0.00    -0.241 OA
ATOM     24  O   LIG d   1     -13.143  79.123 123.401  0.00  0.00    -0.241 OA
ENDBRANCH   3  22
TORSDOF 7
ENDMDL
MODEL 3
REMARK VINA RESULT:      -4.5      2.091      4.239
REMARK  7 active torsions:
REMARK  status: ('A' for Active; 'I' for Inactive)
REMARK    1  A    between atoms: C_2  and  C_3 
REMARK    2  A    between atoms: C_3  and  O_6 
REMARK    3  A    between atoms: C_3  and  C_4 
REMARK    4  A    between atoms: C_7  and  O_6 
REMARK    5  A    between atoms: C_9  and  C_10 
REMARK    6  A    between atoms: N_15  and  C_14 
REMARK    7  A    between atoms: N_20  and  C_19 
REMARK       I    between atoms: C_22  and  N_20 
ROOT
ATOM      1  C   LIG d   1       1.191  59.223 120.582  0.00  0.00     0.161 C 
ATOM      2  C   LIG d   1      -0.174  59.443 120.331  0.00  0.00     0.016 C 
ATOM      3  C   LIG d   1      -0.818  59.056 119.133  0.00  0.00     0.038 C 
ATOM      4  C   LIG d   1      -0.169  58.281 118.160  0.00  0.00     0.028 C 
ATOM      5  C   LIG d   1       1.344  58.471 118.144  0.00  0.00    -0.047 C 
ATOM      6  C   LIG d   1       1.888  58.280 119.578  0.00  0.00     0.091 C 
ENDROOT
BRANCH   1   7
ATOM      7  O   LIG d   1       1.369  58.741 121.928  0.00  0.00    -0.368 OA
BRANCH   7   8
ATOM      8  C   LIG d   1       0.206  58.138 122.549  0.00  0.00     0.119 C 
BRANCH   8   9
ATOM      9  C   LIG d   1       0.104  58.697 123.981  0.00  0.00     0.028 C 
ATOM     10  C   LIG d   1      -1.307  59.214 124.309  0.00  0.00     0.006 C 
ENDBRANCH   8   9
BRANCH   8  11
ATOM     11  C   LIG d   1       0.385  56.626 122.715  0.00  0.00     0.028 C 
ATOM     12  C   LIG d   1       0.137  55.850 121.412  0.00  0.00     0.006 C 
ENDBRANCH   8  11
ENDBRANCH   7   8
ENDBRANCH   1   7
BRANCH   6  13
ATOM     13  N   LIG d   1       3.350  58.531 119.668  0.00  0.00    -0.311 N 
ATOM     14  C   LIG d   1       4.270  57.598 119.430  0.00  0.00     0.210 C 
ATOM     15  C   LIG d   1       5.721  58.062 119.597  0.00  0.00     0.109 C 
ATOM     16  O   LIG d   1       4.024  56.439 119.064  0.00  0.00    -0.276 OA
ATOM     17  H   LIG d   1       3.640  59.454 119.928  0.00  0.00     0.149 HD
ENDBRANCH   6  13
BRANCH   5  18
ATOM     18  N   LIG d   1       1.904  57.505 117.180  0.00  0.00     0.381 N 
ATOM     19  H   LIG d   1       1.908  56.589 117.582  0.00  0.00    -0.090 HD
ATOM     20  H   LIG d   1       2.853  57.763 116.975  0.00  0.00    -0.090 HD
ATOM     21  H   LIG d   1       1.363  57.506 116.343  0.00  0.00    -0.090 HD
ENDBRANCH   5  18
BRANCH   3  22
ATOM     22  C   LIG d   1      -2.114  59.479 118.882  0.00  0.00     0.382 C 
ATOM     23  O   LIG d   1      -3.085  58.769 119.238  0.00  0.00    -0.241 OA
ATOM     24  O   LIG d   1      -2.324  60.541 118.265  0.00  0.00    -0.241 OA
ENDBRANCH   3  22
TORSDOF 7
ENDMDL
MODEL 4
REMARK VINA RESULT:      -4.3     22.021     24.449
REMARK  7 active torsions:
REMARK  status: ('A' for Active; 'I' for Inactive)
REMARK    1  A    between atoms: C_2  and  C_3 
REMARK    2  A    between atoms: C_3  and  O_6 
REMARK    3  A    between atoms: C_3  and  C_4 
REMARK    4  A    between atoms: C_7  and  O_6 
REMARK    5  A    between atoms: C_9  and  C_10 
REMARK    6  A    between atoms: N_15  and  C_14 
REMARK    7  A    between atoms: N_20  and  C_19 
REMARK       I    between atoms: C_22  and  N_20 
ROOT
ATOM      1  C   LIG d   1      -8.349  80.384 120.230  0.00  0.00     0.161 C 
ATOM      2  C   LIG d   1      -8.482  79.097 119.682  0.00  0.00     0.016 C 
ATOM      3  C   LIG d   1      -9.206  78.826 118.498  0.00  0.00     0.038 C 
ATOM      4  C   LIG d   1      -9.723  79.852 117.694  0.00  0.00     0.028 C 
ATOM      5  C   LIG d   1     -10.047  81.125 118.470  0.00  0.00    -0.047 C 
ATOM      6  C   LIG d   1      -8.812  81.530 119.307  0.00  0.00     0.091 C 
ENDROOT
BRANCH   1   7
ATOM      7  O   LIG d   1      -6.987  80.598 120.649  0.00  0.00    -0.368 OA
BRANCH   7   8
ATOM      8  C   LIG d   1      -5.975  79.838 119.943  0.00  0.00     0.119 C 
BRANCH   8   9
ATOM      9  C   LIG d   1      -4.926  79.390 120.978  0.00  0.00     0.028 C 
ATOM     10  C   LIG d   1      -5.093  77.915 121.382  0.00  0.00     0.006 C 
ENDBRANCH   8   9
BRANCH   8  11
ATOM     11  C   LIG d   1      -5.213  80.717 118.947  0.00  0.00     0.028 C 
ATOM     12  C   LIG d   1      -5.704  80.543 117.501  0.00  0.00     0.006 C 
ENDBRANCH   8  11
ENDBRANCH   7   8
ENDBRANCH   1   7
BRANCH   6  13
ATOM     13  N   LIG d   1      -9.072  82.718 120.161  0.00  0.00    -0.311 N 
ATOM     14  C   LIG d   1      -8.230  83.746 120.263  0.00  0.00     0.210 C 
ATOM     15  C   LIG d   1      -8.681  84.859 121.214  0.00  0.00     0.109 C 
ATOM     16  O   LIG d   1      -7.168  83.856 119.632  0.00  0.00    -0.276 OA
ATOM     17  H   LIG d   1      -9.926  82.726 120.684  0.00  0.00     0.149 HD
ENDBRANCH   6  13
BRANCH   5  18
ATOM     18  N   LIG d   1     -10.446  82.154 117.491  0.00  0.00     0.381 N 
ATOM     19  H   LIG d   1     -10.584  81.733 116.594  0.00  0.00    -0.090 HD
ATOM     20  H   LIG d   1      -9.707  82.831 117.412  0.00  0.00    -0.090 HD
ATOM     21  H   LIG d   1     -11.285  82.601 117.789  0.00  0.00    -0.090 HD
ENDBRANCH   5  18
BRANCH   3  22
ATOM     22  C   LIG d   1      -9.453  77.512 118.129  0.00  0.00     0.382 C 
ATOM     23  O   LIG d   1     -10.622  77.059 118.170  0.00  0.00    -0.241 OA
ATOM     24  O   LIG d   1      -8.515  76.762 117.798  0.00  0.00    -0.241 OA
ENDBRANCH   3  22
TORSDOF 7
ENDMDL
MODEL 5
REMARK VINA RESULT:      -4.3     24.800     27.723
REMARK  7 active torsions:
REMARK  status: ('A' for Active; 'I' for Inactive)
REMARK    1  A    between atoms: C_2  and  C_3 
REMARK    2  A    between atoms: C_3  and  O_6 
REMARK    3  A    between atoms: C_3  and  C_4 
REMARK    4  A    between atoms: C_7  and  O_6 
REMARK    5  A    between atoms: C_9  and  C_10 
REMARK    6  A    between atoms: N_15  and  C_14 
REMARK    7  A    between atoms: N_20  and  C_19 
REMARK       I    between atoms: C_22  and  N_20 
ROOT
ATOM      1  C   LIG d   1     -18.138  77.205 120.873  0.00  0.00     0.161 C 
ATOM      2  C   LIG d   1     -19.331  76.518 120.591  0.00  0.00     0.016 C 
ATOM      3  C   LIG d   1     -20.611  77.111 120.686  0.00  0.00     0.038 C 
ATOM      4  C   LIG d   1     -20.777  78.483 120.925  0.00  0.00     0.028 C 
ATOM      5  C   LIG d   1     -19.628  79.104 121.712  0.00  0.00    -0.047 C 
ATOM      6  C   LIG d   1     -18.293  78.732 121.027  0.00  0.00     0.091 C 
ENDROOT
BRANCH   1   7
ATOM      7  O   LIG d   1     -17.150  76.900 119.869  0.00  0.00    -0.368 OA
BRANCH   7   8
ATOM      8  C   LIG d   1     -16.120  75.956 120.255  0.00  0.00     0.119 C 
BRANCH   8   9
ATOM      9  C   LIG d   1     -16.559  74.564 119.759  0.00  0.00     0.028 C 
ATOM     10  C   LIG d   1     -16.587  73.521 120.889  0.00  0.00     0.006 C 
ENDBRANCH   8   9
BRANCH   8  11
ATOM     11  C   LIG d   1     -16.021  75.831 121.778  0.00  0.00     0.028 C 
ATOM     12  C   LIG d   1     -14.757  76.495 122.349  0.00  0.00     0.006 C 
ENDBRANCH   8  11
ENDBRANCH   7   8
ENDBRANCH   1   7
BRANCH   6  13
ATOM     13  N   LIG d   1     -17.112  79.229 121.781  0.00  0.00    -0.311 N 
ATOM     14  C   LIG d   1     -16.508  80.387 121.516  0.00  0.00     0.210 C 
ATOM     15  C   LIG d   1     -15.296  80.700 122.400  0.00  0.00     0.109 C 
ATOM     16  O   LIG d   1     -16.880  81.198 120.656  0.00  0.00    -0.276 OA
ATOM     17  H   LIG d   1     -16.763  78.648 122.517  0.00  0.00     0.149 HD
ENDBRANCH   6  13
BRANCH   5  18
ATOM     18  N   LIG d   1     -19.862  80.559 121.770  0.00  0.00     0.381 N 
ATOM     19  H   LIG d   1     -19.952  80.850 122.723  0.00  0.00    -0.090 HD
ATOM     20  H   LIG d   1     -20.722  80.769 121.293  0.00  0.00    -0.090 HD
ATOM     21  H   LIG d   1     -19.107  81.044 121.337  0.00  0.00    -0.090 HD
ENDBRANCH   5  18
BRANCH   3  22
ATOM     22  C   LIG d   1     -21.745  76.319 120.580  0.00  0.00     0.382 C 
ATOM     23  O   LIG d   1     -22.883  76.840 120.660  0.00  0.00    -0.241 OA
ATOM     24  O   LIG d   1     -21.643  75.084 120.449  0.00  0.00    -0.241 OA
ENDBRANCH   3  22
TORSDOF 7
ENDMDL
MODEL 6
REMARK VINA RESULT:      -4.2     14.848     18.056
REMARK  7 active torsions:
REMARK  status: ('A' for Active; 'I' for Inactive)
REMARK    1  A    between atoms: C_2  and  C_3 
REMARK    2  A    between atoms: C_3  and  O_6 
REMARK    3  A    between atoms: C_3  and  C_4 
REMARK    4  A    between atoms: C_7  and  O_6 
REMARK    5  A    between atoms: C_9  and  C_10 
REMARK    6  A    between atoms: N_15  and  C_14 
REMARK    7  A    between atoms: N_20  and  C_19 
REMARK       I    between atoms: C_22  and  N_20 
ROOT
ATOM      1  C   LIG d   1     -14.157  65.998 121.125  0.00  0.00     0.161 C 
ATOM      2  C   LIG d   1     -12.988  66.177 121.882  0.00  0.00     0.016 C 
ATOM      3  C   LIG d   1     -12.080  65.133 122.171  0.00  0.00     0.038 C 
ATOM      4  C   LIG d   1     -12.203  63.862 121.590  0.00  0.00     0.028 C 
ATOM      5  C   LIG d   1     -13.639  63.498 121.228  0.00  0.00    -0.047 C 
ATOM      6  C   LIG d   1     -14.251  64.644 120.390  0.00  0.00     0.091 C 
ENDROOT
BRANCH   1   7
ATOM      7  O   LIG d   1     -14.307  67.086 120.191  0.00  0.00    -0.368 OA
BRANCH   7   8
ATOM      8  C   LIG d   1     -15.579  67.779 120.218  0.00  0.00     0.119 C 
BRANCH   8   9
ATOM      9  C   LIG d   1     -16.110  67.827 118.773  0.00  0.00     0.028 C 
ATOM     10  C   LIG d   1     -15.100  67.268 117.757  0.00  0.00     0.006 C 
ENDBRANCH   8   9
BRANCH   8  11
ATOM     11  C   LIG d   1     -15.407  69.243 120.636  0.00  0.00     0.028 C 
ATOM     12  C   LIG d   1     -16.428  70.177 119.967  0.00  0.00     0.006 C 
ENDBRANCH   8  11
ENDBRANCH   7   8
ENDBRANCH   1   7
BRANCH   6  13
ATOM     13  N   LIG d   1     -15.681  64.407 120.065  0.00  0.00    -0.311 N 
ATOM     14  C   LIG d   1     -16.097  63.921 118.896  0.00  0.00     0.210 C 
ATOM     15  C   LIG d   1     -17.615  63.773 118.760  0.00  0.00     0.109 C 
ATOM     16  O   LIG d   1     -15.349  63.568 117.972  0.00  0.00    -0.276 OA
ATOM     17  H   LIG d   1     -16.354  64.637 120.770  0.00  0.00     0.149 HD
ENDBRANCH   6  13
BRANCH   5  18
ATOM     18  N   LIG d   1     -13.605  62.211 120.508  0.00  0.00     0.381 N 
ATOM     19  H   LIG d   1     -14.454  62.088 119.994  0.00  0.00    -0.090 HD
ATOM     20  H   LIG d   1     -13.531  61.466 121.178  0.00  0.00    -0.090 HD
ATOM     21  H   LIG d   1     -12.826  62.188 119.887  0.00  0.00    -0.090 HD
ENDBRANCH   5  18
BRANCH   3  22
ATOM     22  C   LIG d   1     -11.056  65.344 123.081  0.00  0.00     0.382 C 
ATOM     23  O   LIG d   1     -10.151  64.486 123.217  0.00  0.00    -0.241 OA
ATOM     24  O   LIG d   1     -11.050  66.362 123.800  0.00  0.00    -0.241 OA
ENDBRANCH   3  22
TORSDOF 7
ENDMDL
MODEL 7
REMARK VINA RESULT:      -4.1     22.945     25.046
REMARK  7 active torsions:
REMARK  status: ('A' for Active; 'I' for Inactive)
REMARK    1  A    between atoms: C_2  and  C_3 
REMARK    2  A    between atoms: C_3  and  O_6 
REMARK    3  A    between atoms: C_3  and  C_4 
REMARK    4  A    between atoms: C_7  and  O_6 
REMARK    5  A    between atoms: C_9  and  C_10 
REMARK    6  A    between atoms: N_15  and  C_14 
REMARK    7  A    between atoms: N_20  and  C_19 
REMARK       I    between atoms: C_22  and  N_20 
ROOT
ATOM      1  C   LIG d   1      -8.886  79.978 120.982  0.00  0.00     0.161 C 
ATOM      2  C   LIG d   1      -9.973  79.155 121.318  0.00  0.00     0.016 C 
ATOM      3  C   LIG d   1     -11.234  79.655 121.715  0.00  0.00     0.038 C 
ATOM      4  C   LIG d   1     -11.541  81.023 121.657  0.00  0.00     0.028 C 
ATOM      5  C   LIG d   1     -10.321  81.925 121.807  0.00  0.00    -0.047 C 
ATOM      6  C   LIG d   1      -9.235  81.471 120.805  0.00  0.00     0.091 C 
ENDROOT
BRANCH   1   7
ATOM      7  O   LIG d   1      -8.237  79.472 119.798  0.00  0.00    -0.368 OA
BRANCH   7   8
ATOM      8  C   LIG d   1      -9.051  79.414 118.601  0.00  0.00     0.119 C 
BRANCH   8   9
ATOM      9  C   LIG d   1      -8.875  78.011 117.989  0.00  0.00     0.028 C 
ATOM     10  C   LIG d   1     -10.043  77.070 118.330  0.00  0.00     0.006 C 
ENDBRANCH   8   9
BRANCH   8  11
ATOM     11  C   LIG d   1      -8.543  80.388 117.534  0.00  0.00     0.028 C 
ATOM     12  C   LIG d   1      -7.018  80.575 117.575  0.00  0.00     0.006 C 
ENDBRANCH   8  11
ENDBRANCH   7   8
ENDBRANCH   1   7
BRANCH   6  13
ATOM     13  N   LIG d   1      -7.975  82.247 120.944  0.00  0.00    -0.311 N 
ATOM     14  C   LIG d   1      -7.593  83.186 120.079  0.00  0.00     0.210 C 
ATOM     15  C   LIG d   1      -6.251  83.851 120.399  0.00  0.00     0.109 C 
ATOM     16  O   LIG d   1      -8.254  83.553 119.096  0.00  0.00    -0.276 OA
ATOM     17  H   LIG d   1      -7.394  82.036 121.731  0.00  0.00     0.149 HD
ENDBRANCH   6  13
BRANCH   5  18
ATOM     18  N   LIG d   1     -10.764  83.315 121.590  0.00  0.00     0.381 N 
ATOM     19  H   LIG d   1     -11.641  83.319 121.108  0.00  0.00    -0.090 HD
ATOM     20  H   LIG d   1     -10.086  83.786 121.017  0.00  0.00    -0.090 HD
ATOM     21  H   LIG d   1     -10.855  83.784 122.464  0.00  0.00    -0.090 HD
ENDBRANCH   5  18
BRANCH   3  22
ATOM     22  C   LIG d   1     -12.192  78.786 122.215  0.00  0.00     0.382 C 
ATOM     23  O   LIG d   1     -12.270  77.616 121.770  0.00  0.00    -0.241 OA
ATOM     24  O   LIG d   1     -13.008  79.171 123.074  0.00  0.00    -0.241 OA
ENDBRANCH   3  22
TORSDOF 7
ENDMDL
MODEL 8
REMARK VINA RESULT:      -4.1     14.235     17.817
REMARK  7 active torsions:
REMARK  status: ('A' for Active; 'I' for Inactive)
REMARK    1  A    between atoms: C_2  and  C_3 
REMARK    2  A    between atoms: C_3  and  O_6 
REMARK    3  A    between atoms: C_3  and  C_4 
REMARK    4  A    between atoms: C_7  and  O_6 
REMARK    5  A    between atoms: C_9  and  C_10 
REMARK    6  A    between atoms: N_15  and  C_14 
REMARK    7  A    between atoms: N_20  and  C_19 
REMARK       I    between atoms: C_22  and  N_20 
ROOT
ATOM      1  C   LIG d   1     -14.063  65.741 122.132  0.00  0.00     0.161 C 
ATOM      2  C   LIG d   1     -12.816  65.513 122.738  0.00  0.00     0.016 C 
ATOM      3  C   LIG d   1     -11.866  64.592 122.240  0.00  0.00     0.038 C 
ATOM      4  C   LIG d   1     -12.037  63.944 121.008  0.00  0.00     0.028 C 
ATOM      5  C   LIG d   1     -13.500  63.763 120.616  0.00  0.00    -0.047 C 
ATOM      6  C   LIG d   1     -14.221  65.125 120.726  0.00  0.00     0.091 C 
ENDROOT
BRANCH   1   7
ATOM      7  O   LIG d   1     -14.335  67.156 122.093  0.00  0.00    -0.368 OA
BRANCH   7   8
ATOM      8  C   LIG d   1     -13.910  67.854 120.896  0.00  0.00     0.119 C 
BRANCH   8   9
ATOM      9  C   LIG d   1     -12.775  68.815 121.300  0.00  0.00     0.028 C 
ATOM     10  C   LIG d   1     -12.971  69.396 122.711  0.00  0.00     0.006 C 
ENDBRANCH   8   9
BRANCH   8  11
ATOM     11  C   LIG d   1     -15.024  68.750 120.348  0.00  0.00     0.028 C 
ATOM     12  C   LIG d   1     -16.361  68.554 121.080  0.00  0.00     0.006 C 
ENDBRANCH   8  11
ENDBRANCH   7   8
ENDBRANCH   1   7
BRANCH   6  13
ATOM     13  N   LIG d   1     -15.676  65.021 120.442  0.00  0.00    -0.311 N 
ATOM     14  C   LIG d   1     -16.202  65.206 119.232  0.00  0.00     0.210 C 
ATOM     15  C   LIG d   1     -17.726  65.072 119.162  0.00  0.00     0.109 C 
ATOM     16  O   LIG d   1     -15.547  65.437 118.204  0.00  0.00    -0.276 OA
ATOM     17  H   LIG d   1     -16.277  64.806 121.213  0.00  0.00     0.149 HD
ENDBRANCH   6  13
BRANCH   5  18
ATOM     18  N   LIG d   1     -13.530  63.201 119.253  0.00  0.00     0.381 N 
ATOM     19  H   LIG d   1     -12.834  63.644 118.688  0.00  0.00    -0.090 HD
ATOM     20  H   LIG d   1     -14.430  63.384 118.846  0.00  0.00    -0.090 HD
ATOM     21  H   LIG d   1     -13.365  62.219 119.285  0.00  0.00    -0.090 HD
ENDBRANCH   5  18
BRANCH   3  22
ATOM     22  C   LIG d   1     -10.746  64.283 122.997  0.00  0.00     0.382 C 
ATOM     23  O   LIG d   1      -9.896  63.473 122.556  0.00  0.00    -0.241 OA
ATOM     24  O   LIG d   1     -10.599  64.769 124.134  0.00  0.00    -0.241 OA
ENDBRANCH   3  22
TORSDOF 7
ENDMDL
MODEL 9
REMARK VINA RESULT:      -4.1     24.996     27.916
REMARK  7 active torsions:
REMARK  status: ('A' for Active; 'I' for Inactive)
REMARK    1  A    between atoms: C_2  and  C_3 
REMARK    2  A    between atoms: C_3  and  O_6 
REMARK    3  A    between atoms: C_3  and  C_4 
REMARK    4  A    between atoms: C_7  and  O_6 
REMARK    5  A    between atoms: C_9  and  C_10 
REMARK    6  A    between atoms: N_15  and  C_14 
REMARK    7  A    between atoms: N_20  and  C_19 
REMARK       I    between atoms: C_22  and  N_20 
ROOT
ATOM      1  C   LIG d   1     -19.087  77.416 119.854  0.00  0.00     0.161 C 
ATOM      2  C   LIG d   1     -18.399  78.600 120.168  0.00  0.00     0.016 C 
ATOM      3  C   LIG d   1     -18.641  79.353 121.340  0.00  0.00     0.038 C 
ATOM      4  C   LIG d   1     -19.487  78.889 122.358  0.00  0.00     0.028 C 
ATOM      5  C   LIG d   1     -20.581  77.952 121.856  0.00  0.00    -0.047 C 
ATOM      6  C   LIG d   1     -19.933  76.835 121.006  0.00  0.00     0.091 C 
ENDROOT
BRANCH   1   7
ATOM      7  O   LIG d   1     -18.159  76.427 119.366  0.00  0.00    -0.368 OA
BRANCH   7   8
ATOM      8  C   LIG d   1     -17.485  75.633 120.374  0.00  0.00     0.119 C 
BRANCH   8   9
ATOM      9  C   LIG d   1     -15.975  75.914 120.252  0.00  0.00     0.028 C 
ATOM     10  C   LIG d   1     -15.352  76.361 121.585  0.00  0.00     0.006 C 
ENDBRANCH   8   9
BRANCH   8  11
ATOM     11  C   LIG d   1     -17.642  74.134 120.100  0.00  0.00     0.028 C 
ATOM     12  C   LIG d   1     -16.662  73.618 119.034  0.00  0.00     0.006 C 
ENDBRANCH   8  11
ENDBRANCH   7   8
ENDBRANCH   1   7
BRANCH   6  13
ATOM     13  N   LIG d   1     -20.942  75.922 120.406  0.00  0.00    -0.311 N 
ATOM     14  C   LIG d   1     -21.323  74.778 120.972  0.00  0.00     0.210 C 
ATOM     15  C   LIG d   1     -22.359  73.978 120.178  0.00  0.00     0.109 C 
ATOM     16  O   LIG d   1     -20.925  74.366 122.072  0.00  0.00    -0.276 OA
ATOM     17  H   LIG d   1     -21.339  76.195 119.529  0.00  0.00     0.149 HD
ENDBRANCH   6  13
BRANCH   5  18
ATOM     18  N   LIG d   1     -21.301  77.436 123.036  0.00  0.00     0.381 N 
ATOM     19  H   LIG d   1     -22.212  77.847 123.083  0.00  0.00    -0.090 HD
ATOM     20  H   LIG d   1     -20.795  77.695 123.864  0.00  0.00    -0.090 HD
ATOM     21  H   LIG d   1     -21.379  76.444 122.981  0.00  0.00    -0.090 HD
ENDBRANCH   5  18
BRANCH   3  22
ATOM     22  C   LIG d   1     -18.064  80.605 121.483  0.00  0.00     0.382 C 
ATOM     23  O   LIG d   1     -17.060  80.915 120.797  0.00  0.00    -0.241 OA
ATOM     24  O   LIG d   1     -18.506  81.413 122.322  0.00  0.00    -0.241 OA
ENDBRANCH   3  22
TORSDOF 7
ENDMDL
