MODEL 1
REMARK VINA RESULT:      -4.7      0.000      0.000
REMARK  7 active torsions:
REMARK  status: ('A' for Active; 'I' for Inactive)
REMARK    1  A    between atoms: C_2  and  C_3 
REMARK    2  A    between atoms: C_3  and  O_6 
REMARK    3  A    between atoms: C_3  and  C_4 
REMARK    4  A    between atoms: C_7  and  O_6 
REMARK    5  A    between atoms: C_9  and  C_10 
REMARK    6  A    between atoms: N_15  and  C_14 
REMARK    7  A    between atoms: N_20  and  C_19 
REMARK       I    between atoms: C_22  and  N_20 
ROOT
ATOM      1  C   LIG d   1       1.424  58.033 117.892  0.00  0.00     0.161 C 
ATOM      2  C   LIG d   1       0.795  59.204 118.345  0.00  0.00     0.016 C 
ATOM      3  C   LIG d   1      -0.103  59.232 119.437  0.00  0.00     0.038 C 
ATOM      4  C   LIG d   1      -0.317  58.109 120.250  0.00  0.00     0.028 C 
ATOM      5  C   LIG d   1      -0.093  56.786 119.526  0.00  0.00    -0.047 C 
ATOM      6  C   LIG d   1       1.289  56.820 118.835  0.00  0.00     0.091 C 
ENDROOT
BRANCH   1   7
ATOM      7  O   LIG d   1       2.813  58.301 117.615  0.00  0.00    -0.368 OA
BRANCH   7   8
ATOM      8  C   LIG d   1       3.507  59.131 118.580  0.00  0.00     0.119 C 
BRANCH   8   9
ATOM      9  C   LIG d   1       4.497  60.017 117.800  0.00  0.00     0.028 C 
ATOM     10  C   LIG d   1       5.895  59.385 117.698  0.00  0.00     0.006 C 
ENDBRANCH   8   9
BRANCH   8  11
ATOM     11  C   LIG d   1       4.371  58.287 119.521  0.00  0.00     0.028 C 
ATOM     12  C   LIG d   1       3.921  58.381 120.988  0.00  0.00     0.006 C 
ENDBRANCH   8  11
ENDBRANCH   7   8
ENDBRANCH   1   7
BRANCH   6  13
ATOM     13  N   LIG d   1       1.553  55.596 118.034  0.00  0.00    -0.311 N 
ATOM     14  C   LIG d   1       2.315  54.591 118.461  0.00  0.00     0.210 C 
ATOM     15  C   LIG d   1       2.472  53.433 117.470  0.00  0.00     0.109 C 
ATOM     16  O   LIG d   1       2.850  54.533 119.578  0.00  0.00    -0.276 OA
ATOM     17  H   LIG d   1       1.132  55.545 117.127  0.00  0.00     0.149 HD
ENDBRANCH   6  13
BRANCH   5  18
ATOM     18  N   LIG d   1      -0.214  55.706 120.524  0.00  0.00     0.381 N 
ATOM     19  H   LIG d   1      -0.099  54.818 120.078  0.00  0.00    -0.090 HD
ATOM     20  H   LIG d   1      -1.134  55.739 120.928  0.00  0.00    -0.090 HD
ATOM     21  H   LIG d   1       0.474  55.820 121.235  0.00  0.00    -0.090 HD
ENDBRANCH   5  18
BRANCH   3  22
ATOM     22  C   LIG d   1      -0.829  60.384 119.700  0.00  0.00     0.382 C 
ATOM     23  O   LIG d   1      -0.965  60.783 120.882  0.00  0.00    -0.241 OA
ATOM     24  O   LIG d   1      -1.387  61.005 118.775  0.00  0.00    -0.241 OA
ENDBRANCH   3  22
TORSDOF 7
ENDMDL
MODEL 2
REMARK VINA RESULT:      -4.6     21.958     24.811
REMARK  7 active torsions:
REMARK  status: ('A' for Active; 'I' for Inactive)
REMARK    1  A    between atoms: C_2  and  C_3 
REMARK    2  A    between atoms: C_3  and  O_6 
REMARK    3  A    between atoms: C_3  and  C_4 
REMARK    4  A    between atoms: C_7  and  O_6 
REMARK    5  A    between atoms: C_9  and  C_10 
REMARK    6  A    between atoms: N_15  and  C_14 
REMARK    7  A    between atoms: N_20  and  C_19 
REMARK       I    between atoms: C_22  and  N_20 
ROOT
ATOM      1  C   LIG d   1     -10.173  79.288 119.926  0.00  0.00     0.161 C 
ATOM      2  C   LIG d   1      -9.362  80.011 119.036  0.00  0.00     0.016 C 
ATOM      3  C   LIG d   1      -8.851  81.299 119.319  0.00  0.00     0.038 C 
ATOM      4  C   LIG d   1      -8.992  81.891 120.583  0.00  0.00     0.028 C 
ATOM      5  C   LIG d   1     -10.228  81.416 121.340  0.00  0.00    -0.047 C 
ATOM      6  C   LIG d   1     -10.245  79.870 121.353  0.00  0.00     0.091 C 
ENDROOT
BRANCH   1   7
ATOM      7  O   LIG d   1      -9.746  77.912 119.968  0.00  0.00    -0.368 OA
BRANCH   7   8
ATOM      8  C   LIG d   1      -9.386  77.318 118.696  0.00  0.00     0.119 C 
BRANCH   8   9
ATOM      9  C   LIG d   1     -10.442  76.244 118.371  0.00  0.00     0.028 C 
ATOM     10  C   LIG d   1      -9.902  75.154 117.430  0.00  0.00     0.006 C 
ENDBRANCH   8   9
BRANCH   8  11
ATOM     11  C   LIG d   1      -8.056  76.563 118.790  0.00  0.00     0.028 C 
ATOM     12  C   LIG d   1      -7.350  76.767 120.140  0.00  0.00     0.006 C 
ENDBRANCH   8  11
ENDBRANCH   7   8
ENDBRANCH   1   7
BRANCH   6  13
ATOM     13  N   LIG d   1     -11.466  79.322 122.001  0.00  0.00    -0.311 N 
ATOM     14  C   LIG d   1     -11.526  78.991 123.290  0.00  0.00     0.210 C 
ATOM     15  C   LIG d   1     -12.873  78.426 123.750  0.00  0.00     0.109 C 
ATOM     16  O   LIG d   1     -10.601  79.142 124.102  0.00  0.00    -0.276 OA
ATOM     17  H   LIG d   1     -12.272  79.197 121.421  0.00  0.00     0.149 HD
ENDBRANCH   6  13
BRANCH   5  18
ATOM     18  N   LIG d   1     -10.178  82.005 122.691  0.00  0.00     0.381 N 
ATOM     19  H   LIG d   1     -11.064  81.896 123.141  0.00  0.00    -0.090 HD
ATOM     20  H   LIG d   1      -9.984  82.988 122.610  0.00  0.00    -0.090 HD
ATOM     21  H   LIG d   1      -9.466  81.562 123.230  0.00  0.00    -0.090 HD
ENDBRANCH   5  18
BRANCH   3  22
ATOM     22  C   LIG d   1      -8.223  82.025 118.318  0.00  0.00     0.382 C 
ATOM     23  O   LIG d   1      -8.855  82.336 117.280  0.00  0.00    -0.241 OA
ATOM     24  O   LIG d   1      -7.021  82.334 118.421  0.00  0.00    -0.241 OA
ENDBRANCH   3  22
TORSDOF 7
ENDMDL
MODEL 3
REMARK VINA RESULT:      -4.6     21.136     24.127
REMARK  7 active torsions:
REMARK  status: ('A' for Active; 'I' for Inactive)
REMARK    1  A    between atoms: C_2  and  C_3 
REMARK    2  A    between atoms: C_3  and  O_6 
REMARK    3  A    between atoms: C_3  and  C_4 
REMARK    4  A    between atoms: C_7  and  O_6 
REMARK    5  A    between atoms: C_9  and  C_10 
REMARK    6  A    between atoms: N_15  and  C_14 
REMARK    7  A    between atoms: N_20  and  C_19 
REMARK       I    between atoms: C_22  and  N_20 
ROOT
ATOM      1  C   LIG d   1      -7.207  79.971 119.041  0.00  0.00     0.161 C 
ATOM      2  C   LIG d   1      -5.982  79.814 118.371  0.00  0.00     0.016 C 
ATOM      3  C   LIG d   1      -5.499  78.566 117.916  0.00  0.00     0.038 C 
ATOM      4  C   LIG d   1      -6.283  77.404 117.968  0.00  0.00     0.028 C 
ATOM      5  C   LIG d   1      -7.315  77.419 119.090  0.00  0.00    -0.047 C 
ATOM      6  C   LIG d   1      -8.126  78.732 119.008  0.00  0.00     0.091 C 
ENDROOT
BRANCH   1   7
ATOM      7  O   LIG d   1      -7.902  81.124 118.526  0.00  0.00    -0.368 OA
BRANCH   7   8
ATOM      8  C   LIG d   1      -8.105  82.215 119.458  0.00  0.00     0.119 C 
BRANCH   8   9
ATOM      9  C   LIG d   1      -9.598  82.592 119.411  0.00  0.00     0.028 C 
ATOM     10  C   LIG d   1     -10.348  81.877 118.275  0.00  0.00     0.006 C 
ENDBRANCH   8   9
BRANCH   8  11
ATOM     11  C   LIG d   1      -7.354  83.474 119.014  0.00  0.00     0.028 C 
ATOM     12  C   LIG d   1      -6.142  83.790 119.905  0.00  0.00     0.006 C 
ENDBRANCH   8  11
ENDBRANCH   7   8
ENDBRANCH   1   7
BRANCH   6  13
ATOM     13  N   LIG d   1      -9.103  78.866 120.120  0.00  0.00    -0.311 N 
ATOM     14  C   LIG d   1     -10.370  78.464 120.036  0.00  0.00     0.210 C 
ATOM     15  C   LIG d   1     -11.212  78.713 121.291  0.00  0.00     0.109 C 
ATOM     16  O   LIG d   1     -10.867  77.895 119.053  0.00  0.00    -0.276 OA
ATOM     17  H   LIG d   1      -8.774  79.288 120.967  0.00  0.00     0.149 HD
ENDBRANCH   6  13
BRANCH   5  18
ATOM     18  N   LIG d   1      -8.152  76.213 118.942  0.00  0.00     0.381 N 
ATOM     19  H   LIG d   1      -9.062  76.383 119.319  0.00  0.00    -0.090 HD
ATOM     20  H   LIG d   1      -7.732  75.460 119.458  0.00  0.00    -0.090 HD
ATOM     21  H   LIG d   1      -8.225  75.964 117.980  0.00  0.00    -0.090 HD
ENDBRANCH   5  18
BRANCH   3  22
ATOM     22  C   LIG d   1      -4.201  78.464 117.439  0.00  0.00     0.382 C 
ATOM     23  O   LIG d   1      -3.545  79.502 117.180  0.00  0.00    -0.241 OA
ATOM     24  O   LIG d   1      -3.693  77.348 117.223  0.00  0.00    -0.241 OA
ENDBRANCH   3  22
TORSDOF 7
ENDMDL
MODEL 4
REMARK VINA RESULT:      -4.6      3.600      6.492
REMARK  7 active torsions:
REMARK  status: ('A' for Active; 'I' for Inactive)
REMARK    1  A    between atoms: C_2  and  C_3 
REMARK    2  A    between atoms: C_3  and  O_6 
REMARK    3  A    between atoms: C_3  and  C_4 
REMARK    4  A    between atoms: C_7  and  O_6 
REMARK    5  A    between atoms: C_9  and  C_10 
REMARK    6  A    between atoms: N_15  and  C_14 
REMARK    7  A    between atoms: N_20  and  C_19 
REMARK       I    between atoms: C_22  and  N_20 
ROOT
ATOM      1  C   LIG d   1      -0.180  60.179 121.896  0.00  0.00     0.161 C 
ATOM      2  C   LIG d   1       1.002  59.893 121.193  0.00  0.00     0.016 C 
ATOM      3  C   LIG d   1       1.054  59.027 120.076  0.00  0.00     0.038 C 
ATOM      4  C   LIG d   1      -0.108  58.503 119.491  0.00  0.00     0.028 C 
ATOM      5  C   LIG d   1      -1.268  58.360 120.470  0.00  0.00    -0.047 C 
ATOM      6  C   LIG d   1      -1.475  59.705 121.204  0.00  0.00     0.091 C 
ENDROOT
BRANCH   1   7
ATOM      7  O   LIG d   1      -0.251  61.591 122.177  0.00  0.00    -0.368 OA
BRANCH   7   8
ATOM      8  C   LIG d   1       0.547  62.060 123.292  0.00  0.00     0.119 C 
BRANCH   8   9
ATOM      9  C   LIG d   1       0.122  61.256 124.536  0.00  0.00     0.028 C 
ATOM     10  C   LIG d   1      -0.843  62.041 125.440  0.00  0.00     0.006 C 
ENDBRANCH   8   9
BRANCH   8  11
ATOM     11  C   LIG d   1       0.234  63.521 123.627  0.00  0.00     0.028 C 
ATOM     12  C   LIG d   1       1.481  64.419 123.599  0.00  0.00     0.006 C 
ENDBRANCH   8  11
ENDBRANCH   7   8
ENDBRANCH   1   7
BRANCH   6  13
ATOM     13  N   LIG d   1      -2.536  59.627 122.241  0.00  0.00    -0.311 N 
ATOM     14  C   LIG d   1      -3.789  60.034 122.039  0.00  0.00     0.210 C 
ATOM     15  C   LIG d   1      -4.719  59.884 123.247  0.00  0.00     0.109 C 
ATOM     16  O   LIG d   1      -4.225  60.474 120.965  0.00  0.00    -0.276 OA
ATOM     17  H   LIG d   1      -2.277  59.254 123.132  0.00  0.00     0.149 HD
ENDBRANCH   6  13
BRANCH   5  18
ATOM     18  N   LIG d   1      -2.452  57.934 119.699  0.00  0.00     0.381 N 
ATOM     19  H   LIG d   1      -2.164  57.395 118.907  0.00  0.00    -0.090 HD
ATOM     20  H   LIG d   1      -2.934  58.751 119.367  0.00  0.00    -0.090 HD
ATOM     21  H   LIG d   1      -3.058  57.393 120.276  0.00  0.00    -0.090 HD
ENDBRANCH   5  18
BRANCH   3  22
ATOM     22  C   LIG d   1       2.282  58.645 119.559  0.00  0.00     0.382 C 
ATOM     23  O   LIG d   1       3.329  58.832 120.225  0.00  0.00    -0.241 OA
ATOM     24  O   LIG d   1       2.362  58.157 118.416  0.00  0.00    -0.241 OA
ENDBRANCH   3  22
TORSDOF 7
ENDMDL
MODEL 5
REMARK VINA RESULT:      -4.5     21.273     23.678
REMARK  7 active torsions:
REMARK  status: ('A' for Active; 'I' for Inactive)
REMARK    1  A    between atoms: C_2  and  C_3 
REMARK    2  A    between atoms: C_3  and  O_6 
REMARK    3  A    between atoms: C_3  and  C_4 
REMARK    4  A    between atoms: C_7  and  O_6 
REMARK    5  A    between atoms: C_9  and  C_10 
REMARK    6  A    between atoms: N_15  and  C_14 
REMARK    7  A    between atoms: N_20  and  C_19 
REMARK       I    between atoms: C_22  and  N_20 
ROOT
ATOM      1  C   LIG d   1      -8.754  79.126 120.421  0.00  0.00     0.161 C 
ATOM      2  C   LIG d   1      -9.335  79.947 119.440  0.00  0.00     0.016 C 
ATOM      3  C   LIG d   1      -8.680  81.064 118.873  0.00  0.00     0.038 C 
ATOM      4  C   LIG d   1      -7.332  81.348 119.140  0.00  0.00     0.028 C 
ATOM      5  C   LIG d   1      -6.866  80.846 120.502  0.00  0.00    -0.047 C 
ATOM      6  C   LIG d   1      -7.244  79.354 120.644  0.00  0.00     0.091 C 
ENDROOT
BRANCH   1   7
ATOM      7  O   LIG d   1      -9.011  77.741 120.114  0.00  0.00    -0.368 OA
BRANCH   7   8
ATOM      8  C   LIG d   1      -9.035  77.394 118.708  0.00  0.00     0.119 C 
BRANCH   8   9
ATOM      9  C   LIG d   1     -10.271  76.505 118.471  0.00  0.00     0.028 C 
ATOM     10  C   LIG d   1      -9.942  75.251 117.643  0.00  0.00     0.006 C 
ENDBRANCH   8   9
BRANCH   8  11
ATOM     11  C   LIG d   1      -7.832  76.525 118.328  0.00  0.00     0.028 C 
ATOM     12  C   LIG d   1      -6.696  77.331 117.678  0.00  0.00     0.006 C 
ENDBRANCH   8  11
ENDBRANCH   7   8
ENDBRANCH   1   7
BRANCH   6  13
ATOM     13  N   LIG d   1      -6.899  78.806 121.981  0.00  0.00    -0.311 N 
ATOM     14  C   LIG d   1      -6.143  77.723 122.158  0.00  0.00     0.210 C 
ATOM     15  C   LIG d   1      -5.927  77.317 123.619  0.00  0.00     0.109 C 
ATOM     16  O   LIG d   1      -5.605  77.080 121.244  0.00  0.00    -0.276 OA
ATOM     17  H   LIG d   1      -7.268  79.285 122.779  0.00  0.00     0.149 HD
ENDBRANCH   6  13
BRANCH   5  18
ATOM     18  N   LIG d   1      -5.413  81.085 120.592  0.00  0.00     0.381 N 
ATOM     19  H   LIG d   1      -4.918  80.238 120.401  0.00  0.00    -0.090 HD
ATOM     20  H   LIG d   1      -5.189  81.378 121.527  0.00  0.00    -0.090 HD
ATOM     21  H   LIG d   1      -5.143  81.791 119.943  0.00  0.00    -0.090 HD
ENDBRANCH   5  18
BRANCH   3  22
ATOM     22  C   LIG d   1      -9.387  81.934 118.057  0.00  0.00     0.382 C 
ATOM     23  O   LIG d   1      -8.785  82.601 117.181  0.00  0.00    -0.241 OA
ATOM     24  O   LIG d   1     -10.612  82.094 118.216  0.00  0.00    -0.241 OA
ENDBRANCH   3  22
TORSDOF 7
ENDMDL
MODEL 6
REMARK VINA RESULT:      -4.5     21.985     24.769
REMARK  7 active torsions:
REMARK  status: ('A' for Active; 'I' for Inactive)
REMARK    1  A    between atoms: C_2  and  C_3 
REMARK    2  A    between atoms: C_3  and  O_6 
REMARK    3  A    between atoms: C_3  and  C_4 
REMARK    4  A    between atoms: C_7  and  O_6 
REMARK    5  A    between atoms: C_9  and  C_10 
REMARK    6  A    between atoms: N_15  and  C_14 
REMARK    7  A    between atoms: N_20  and  C_19 
REMARK       I    between atoms: C_22  and  N_20 
ROOT
ATOM      1  C   LIG d   1      -9.990  78.924 120.428  0.00  0.00     0.161 C 
ATOM      2  C   LIG d   1     -11.020  78.473 121.269  0.00  0.00     0.016 C 
ATOM      3  C   LIG d   1     -11.746  79.322 122.136  0.00  0.00     0.038 C 
ATOM      4  C   LIG d   1     -11.591  80.716 122.109  0.00  0.00     0.028 C 
ATOM      5  C   LIG d   1     -10.210  81.163 121.640  0.00  0.00    -0.047 C 
ATOM      6  C   LIG d   1      -9.882  80.458 120.304  0.00  0.00     0.091 C 
ENDROOT
BRANCH   1   7
ATOM      7  O   LIG d   1     -10.125  78.324 119.125  0.00  0.00    -0.368 OA
BRANCH   7   8
ATOM      8  C   LIG d   1      -9.561  76.998 118.972  0.00  0.00     0.119 C 
BRANCH   8   9
ATOM      9  C   LIG d   1      -8.251  77.141 118.173  0.00  0.00     0.028 C 
ATOM     10  C   LIG d   1      -7.014  77.214 119.084  0.00  0.00     0.006 C 
ENDBRANCH   8   9
BRANCH   8  11
ATOM     11  C   LIG d   1     -10.463  76.105 118.115  0.00  0.00     0.028 C 
ATOM     12  C   LIG d   1      -9.681  75.019 117.359  0.00  0.00     0.006 C 
ENDBRANCH   8  11
ENDBRANCH   7   8
ENDBRANCH   1   7
BRANCH   6  13
ATOM     13  N   LIG d   1      -8.513  80.775 119.818  0.00  0.00    -0.311 N 
ATOM     14  C   LIG d   1      -8.270  81.391 118.662  0.00  0.00     0.210 C 
ATOM     15  C   LIG d   1      -6.787  81.603 118.342  0.00  0.00     0.109 C 
ATOM     16  O   LIG d   1      -9.143  81.811 117.887  0.00  0.00    -0.276 OA
ATOM     17  H   LIG d   1      -7.747  80.498 120.399  0.00  0.00     0.149 HD
ENDBRANCH   6  13
BRANCH   5  18
ATOM     18  N   LIG d   1     -10.232  82.634 121.528  0.00  0.00     0.381 N 
ATOM     19  H   LIG d   1      -9.830  83.042 122.348  0.00  0.00    -0.090 HD
ATOM     20  H   LIG d   1     -11.186  82.940 121.458  0.00  0.00    -0.090 HD
ATOM     21  H   LIG d   1      -9.723  82.922 120.721  0.00  0.00    -0.090 HD
ENDBRANCH   5  18
BRANCH   3  22
ATOM     22  C   LIG d   1     -12.611  78.774 123.070  0.00  0.00     0.382 C 
ATOM     23  O   LIG d   1     -12.353  77.659 123.586  0.00  0.00    -0.241 OA
ATOM     24  O   LIG d   1     -13.669  79.358 123.372  0.00  0.00    -0.241 OA
ENDBRANCH   3  22
TORSDOF 7
ENDMDL
MODEL 7
REMARK VINA RESULT:      -4.3     24.022     26.706
REMARK  7 active torsions:
REMARK  status: ('A' for Active; 'I' for Inactive)
REMARK    1  A    between atoms: C_2  and  C_3 
REMARK    2  A    between atoms: C_3  and  O_6 
REMARK    3  A    between atoms: C_3  and  C_4 
REMARK    4  A    between atoms: C_7  and  O_6 
REMARK    5  A    between atoms: C_9  and  C_10 
REMARK    6  A    between atoms: N_15  and  C_14 
REMARK    7  A    between atoms: N_20  and  C_19 
REMARK       I    between atoms: C_22  and  N_20 
ROOT
ATOM      1  C   LIG d   1     -16.669  75.817 120.389  0.00  0.00     0.161 C 
ATOM      2  C   LIG d   1     -17.018  74.598 119.784  0.00  0.00     0.016 C 
ATOM      3  C   LIG d   1     -17.179  73.391 120.503  0.00  0.00     0.038 C 
ATOM      4  C   LIG d   1     -17.149  73.352 121.904  0.00  0.00     0.028 C 
ATOM      5  C   LIG d   1     -16.301  74.459 122.523  0.00  0.00    -0.047 C 
ATOM      6  C   LIG d   1     -16.741  75.818 121.931  0.00  0.00     0.091 C 
ENDROOT
BRANCH   1   7
ATOM      7  O   LIG d   1     -17.478  76.880 119.849  0.00  0.00    -0.368 OA
BRANCH   7   8
ATOM      8  C   LIG d   1     -18.690  77.193 120.580  0.00  0.00     0.119 C 
BRANCH   8   9
ATOM      9  C   LIG d   1     -19.824  76.339 119.981  0.00  0.00     0.028 C 
ATOM     10  C   LIG d   1     -20.466  75.404 121.021  0.00  0.00     0.006 C 
ENDBRANCH   8   9
BRANCH   8  11
ATOM     11  C   LIG d   1     -19.116  78.647 120.356  0.00  0.00     0.028 C 
ATOM     12  C   LIG d   1     -18.471  79.617 121.358  0.00  0.00     0.006 C 
ENDBRANCH   8  11
ENDBRANCH   7   8
ENDBRANCH   1   7
BRANCH   6  13
ATOM     13  N   LIG d   1     -15.905  76.946 122.419  0.00  0.00    -0.311 N 
ATOM     14  C   LIG d   1     -16.232  77.701 123.466  0.00  0.00     0.210 C 
ATOM     15  C   LIG d   1     -15.241  78.823 123.789  0.00  0.00     0.109 C 
ATOM     16  O   LIG d   1     -17.233  77.527 124.178  0.00  0.00    -0.276 OA
ATOM     17  H   LIG d   1     -15.059  77.137 121.919  0.00  0.00     0.149 HD
ENDBRANCH   6  13
BRANCH   5  18
ATOM     18  N   LIG d   1     -16.469  74.384 123.986  0.00  0.00     0.381 N 
ATOM     19  H   LIG d   1     -16.515  73.427 124.274  0.00  0.00    -0.090 HD
ATOM     20  H   LIG d   1     -17.334  74.831 124.237  0.00  0.00    -0.090 HD
ATOM     21  H   LIG d   1     -15.708  74.839 124.440  0.00  0.00    -0.090 HD
ENDBRANCH   5  18
BRANCH   3  22
ATOM     22  C   LIG d   1     -17.334  72.197 119.814  0.00  0.00     0.382 C 
ATOM     23  O   LIG d   1     -16.560  71.914 118.868  0.00  0.00    -0.241 OA
ATOM     24  O   LIG d   1     -18.266  71.420 120.098  0.00  0.00    -0.241 OA
ENDBRANCH   3  22
TORSDOF 7
ENDMDL
MODEL 8
REMARK VINA RESULT:      -4.3     22.864     25.301
REMARK  7 active torsions:
REMARK  status: ('A' for Active; 'I' for Inactive)
REMARK    1  A    between atoms: C_2  and  C_3 
REMARK    2  A    between atoms: C_3  and  O_6 
REMARK    3  A    between atoms: C_3  and  C_4 
REMARK    4  A    between atoms: C_7  and  O_6 
REMARK    5  A    between atoms: C_9  and  C_10 
REMARK    6  A    between atoms: N_15  and  C_14 
REMARK    7  A    between atoms: N_20  and  C_19 
REMARK       I    between atoms: C_22  and  N_20 
ROOT
ATOM      1  C   LIG d   1      -8.522  80.067 120.736  0.00  0.00     0.161 C 
ATOM      2  C   LIG d   1      -8.671  79.091 119.737  0.00  0.00     0.016 C 
ATOM      3  C   LIG d   1      -9.804  78.251 119.632  0.00  0.00     0.038 C 
ATOM      4  C   LIG d   1     -10.940  78.435 120.435  0.00  0.00     0.028 C 
ATOM      5  C   LIG d   1     -10.631  79.075 121.784  0.00  0.00    -0.047 C 
ATOM      6  C   LIG d   1      -9.798  80.357 121.553  0.00  0.00     0.091 C 
ENDROOT
BRANCH   1   7
ATOM      7  O   LIG d   1      -8.009  81.283 120.158  0.00  0.00    -0.368 OA
BRANCH   7   8
ATOM      8  C   LIG d   1      -7.980  81.338 118.711  0.00  0.00     0.119 C 
BRANCH   8   9
ATOM      9  C   LIG d   1      -6.552  81.738 118.291  0.00  0.00     0.028 C 
ATOM     10  C   LIG d   1      -5.583  80.545 118.296  0.00  0.00     0.006 C 
ENDBRANCH   8   9
BRANCH   8  11
ATOM     11  C   LIG d   1      -8.886  82.451 118.177  0.00  0.00     0.028 C 
ATOM     12  C   LIG d   1     -10.370  82.050 118.149  0.00  0.00     0.006 C 
ENDBRANCH   8  11
ENDBRANCH   7   8
ENDBRANCH   1   7
BRANCH   6  13
ATOM     13  N   LIG d   1      -9.382  81.000 122.826  0.00  0.00    -0.311 N 
ATOM     14  C   LIG d   1     -10.083  81.959 123.428  0.00  0.00     0.210 C 
ATOM     15  C   LIG d   1      -9.465  82.498 124.721  0.00  0.00     0.109 C 
ATOM     16  O   LIG d   1     -11.176  82.391 123.030  0.00  0.00    -0.276 OA
ATOM     17  H   LIG d   1      -8.523  80.687 123.235  0.00  0.00     0.149 HD
ENDBRANCH   6  13
BRANCH   5  18
ATOM     18  N   LIG d   1     -11.916  79.334 122.459  0.00  0.00     0.381 N 
ATOM     19  H   LIG d   1     -12.668  78.967 121.910  0.00  0.00    -0.090 HD
ATOM     20  H   LIG d   1     -12.045  80.327 122.544  0.00  0.00    -0.090 HD
ATOM     21  H   LIG d   1     -11.918  78.914 123.362  0.00  0.00    -0.090 HD
ENDBRANCH   5  18
BRANCH   3  22
ATOM     22  C   LIG d   1      -9.792  77.188 118.742  0.00  0.00     0.382 C 
ATOM     23  O   LIG d   1     -10.861  76.597 118.456  0.00  0.00    -0.241 OA
ATOM     24  O   LIG d   1      -8.719  76.784 118.255  0.00  0.00    -0.241 OA
ENDBRANCH   3  22
TORSDOF 7
ENDMDL
MODEL 9
REMARK VINA RESULT:      -4.2     25.471     28.130
REMARK  7 active torsions:
REMARK  status: ('A' for Active; 'I' for Inactive)
REMARK    1  A    between atoms: C_2  and  C_3 
REMARK    2  A    between atoms: C_3  and  O_6 
REMARK    3  A    between atoms: C_3  and  C_4 
REMARK    4  A    between atoms: C_7  and  O_6 
REMARK    5  A    between atoms: C_9  and  C_10 
REMARK    6  A    between atoms: N_15  and  C_14 
REMARK    7  A    between atoms: N_20  and  C_19 
REMARK       I    between atoms: C_22  and  N_20 
ROOT
ATOM      1  C   LIG d   1      -8.416  84.056 121.020  0.00  0.00     0.161 C 
ATOM      2  C   LIG d   1      -8.203  85.335 121.561  0.00  0.00     0.016 C 
ATOM      3  C   LIG d   1      -9.089  85.951 122.474  0.00  0.00     0.038 C 
ATOM      4  C   LIG d   1     -10.179  85.264 123.028  0.00  0.00     0.028 C 
ATOM      5  C   LIG d   1     -10.715  84.154 122.131  0.00  0.00    -0.047 C 
ATOM      6  C   LIG d   1      -9.541  83.246 121.699  0.00  0.00     0.091 C 
ENDROOT
BRANCH   1   7
ATOM      7  O   LIG d   1      -7.184  83.308 121.033  0.00  0.00    -0.368 OA
BRANCH   7   8
ATOM      8  C   LIG d   1      -6.308  83.504 119.895  0.00  0.00     0.119 C 
BRANCH   8   9
ATOM      9  C   LIG d   1      -6.381  82.230 119.031  0.00  0.00     0.028 C 
ATOM     10  C   LIG d   1      -7.526  82.281 118.005  0.00  0.00     0.006 C 
ENDBRANCH   8   9
BRANCH   8  11
ATOM     11  C   LIG d   1      -4.844  83.615 120.331  0.00  0.00     0.028 C 
ATOM     12  C   LIG d   1      -4.456  85.039 120.759  0.00  0.00     0.006 C 
ENDBRANCH   8  11
ENDBRANCH   7   8
ENDBRANCH   1   7
BRANCH   6  13
ATOM     13  N   LIG d   1      -9.965  82.184 120.750  0.00  0.00    -0.311 N 
ATOM     14  C   LIG d   1      -9.579  80.913 120.852  0.00  0.00     0.210 C 
ATOM     15  C   LIG d   1     -10.116  79.985 119.758  0.00  0.00     0.109 C 
ATOM     16  O   LIG d   1      -8.869  80.461 121.763  0.00  0.00    -0.276 OA
ATOM     17  H   LIG d   1     -10.568  82.457 119.999  0.00  0.00     0.149 HD
ENDBRANCH   6  13
BRANCH   5  18
ATOM     18  N   LIG d   1     -11.756  83.433 122.887  0.00  0.00     0.381 N 
ATOM     19  H   LIG d   1     -11.336  82.922 123.638  0.00  0.00    -0.090 HD
ATOM     20  H   LIG d   1     -12.208  82.777 122.275  0.00  0.00    -0.090 HD
ATOM     21  H   LIG d   1     -12.425  84.078 123.247  0.00  0.00    -0.090 HD
ENDBRANCH   5  18
BRANCH   3  22
ATOM     22  C   LIG d   1      -8.911  87.285 122.810  0.00  0.00     0.382 C 
ATOM     23  O   LIG d   1      -9.767  87.874 123.513  0.00  0.00    -0.241 OA
ATOM     24  O   LIG d   1      -7.927  87.918 122.384  0.00  0.00    -0.241 OA
ENDBRANCH   3  22
TORSDOF 7
ENDMDL
