MODEL 1
REMARK VINA RESULT:      -4.8      0.000      0.000
REMARK  7 active torsions:
REMARK  status: ('A' for Active; 'I' for Inactive)
REMARK    1  A    between atoms: C_2  and  C_3 
REMARK    2  A    between atoms: C_3  and  O_6 
REMARK    3  A    between atoms: C_3  and  C_4 
REMARK    4  A    between atoms: C_7  and  O_6 
REMARK    5  A    between atoms: C_9  and  C_10 
REMARK    6  A    between atoms: N_15  and  C_14 
REMARK    7  A    between atoms: N_20  and  C_19 
REMARK       I    between atoms: C_22  and  N_20 
ROOT
ATOM      1  C   LIG d   1     -13.739  67.905 122.245  0.00  0.00     0.161 C 
ATOM      2  C   LIG d   1     -12.567  67.766 123.006  0.00  0.00     0.016 C 
ATOM      3  C   LIG d   1     -11.683  66.669 122.881  0.00  0.00     0.038 C 
ATOM      4  C   LIG d   1     -11.836  65.705 121.873  0.00  0.00     0.028 C 
ATOM      5  C   LIG d   1     -13.279  65.533 121.413  0.00  0.00    -0.047 C 
ATOM      6  C   LIG d   1     -13.864  66.921 121.063  0.00  0.00     0.091 C 
ENDROOT
BRANCH   1   7
ATOM      7  O   LIG d   1     -13.863  69.264 121.781  0.00  0.00    -0.368 OA
BRANCH   7   8
ATOM      8  C   LIG d   1     -14.904  70.057 122.401  0.00  0.00     0.119 C 
BRANCH   8   9
ATOM      9  C   LIG d   1     -15.974  70.337 121.327  0.00  0.00     0.028 C 
ATOM     10  C   LIG d   1     -16.393  71.816 121.288  0.00  0.00     0.006 C 
ENDBRANCH   8   9
BRANCH   8  11
ATOM     11  C   LIG d   1     -14.381  71.434 122.820  0.00  0.00     0.028 C 
ATOM     12  C   LIG d   1     -12.855  71.461 123.004  0.00  0.00     0.006 C 
ENDBRANCH   8  11
ENDBRANCH   7   8
ENDBRANCH   1   7
BRANCH   6  13
ATOM     13  N   LIG d   1     -15.299  66.852 120.685  0.00  0.00    -0.311 N 
ATOM     14  C   LIG d   1     -15.752  67.156 119.469  0.00  0.00     0.210 C 
ATOM     15  C   LIG d   1     -17.270  67.037 119.297  0.00  0.00     0.109 C 
ATOM     16  O   LIG d   1     -15.038  67.481 118.509  0.00  0.00    -0.276 OA
ATOM     17  H   LIG d   1     -15.945  66.567 121.395  0.00  0.00     0.149 HD
ENDBRANCH   6  13
BRANCH   5  18
ATOM     18  N   LIG d   1     -13.275  64.602 120.269  0.00  0.00     0.381 N 
ATOM     19  H   LIG d   1     -13.725  65.029 119.484  0.00  0.00    -0.090 HD
ATOM     20  H   LIG d   1     -13.790  63.777 120.519  0.00  0.00    -0.090 HD
ATOM     21  H   LIG d   1     -12.338  64.359 120.031  0.00  0.00    -0.090 HD
ENDBRANCH   5  18
BRANCH   3  22
ATOM     22  C   LIG d   1     -10.655  66.507 123.797  0.00  0.00     0.382 C 
ATOM     23  O   LIG d   1      -9.820  65.583 123.645  0.00  0.00    -0.241 OA
ATOM     24  O   LIG d   1     -10.578  67.244 124.798  0.00  0.00    -0.241 OA
ENDBRANCH   3  22
TORSDOF 7
ENDMDL
MODEL 2
REMARK VINA RESULT:      -4.5     12.467     14.191
REMARK  7 active torsions:
REMARK  status: ('A' for Active; 'I' for Inactive)
REMARK    1  A    between atoms: C_2  and  C_3 
REMARK    2  A    between atoms: C_3  and  O_6 
REMARK    3  A    between atoms: C_3  and  C_4 
REMARK    4  A    between atoms: C_7  and  O_6 
REMARK    5  A    between atoms: C_9  and  C_10 
REMARK    6  A    between atoms: N_15  and  C_14 
REMARK    7  A    between atoms: N_20  and  C_19 
REMARK       I    between atoms: C_22  and  N_20 
ROOT
ATOM      1  C   LIG d   1      -3.580  59.178 122.044  0.00  0.00     0.161 C 
ATOM      2  C   LIG d   1      -4.662  58.901 122.895  0.00  0.00     0.016 C 
ATOM      3  C   LIG d   1      -4.912  59.610 124.092  0.00  0.00     0.038 C 
ATOM      4  C   LIG d   1      -4.177  60.753 124.444  0.00  0.00     0.028 C 
ATOM      5  C   LIG d   1      -2.763  60.762 123.874  0.00  0.00    -0.047 C 
ATOM      6  C   LIG d   1      -2.832  60.492 122.354  0.00  0.00     0.091 C 
ENDROOT
BRANCH   1   7
ATOM      7  O   LIG d   1      -4.021  59.165 120.672  0.00  0.00    -0.368 OA
BRANCH   7   8
ATOM      8  C   LIG d   1      -4.114  57.862 120.045  0.00  0.00     0.119 C 
BRANCH   8   9
ATOM      9  C   LIG d   1      -2.713  57.223 120.095  0.00  0.00     0.028 C 
ATOM     10  C   LIG d   1      -2.736  55.807 120.696  0.00  0.00     0.006 C 
ENDBRANCH   8   9
BRANCH   8  11
ATOM     11  C   LIG d   1      -4.451  57.983 118.555  0.00  0.00     0.028 C 
ATOM     12  C   LIG d   1      -4.518  59.442 118.077  0.00  0.00     0.006 C 
ENDBRANCH   8  11
ENDBRANCH   7   8
ENDBRANCH   1   7
BRANCH   6  13
ATOM     13  N   LIG d   1      -1.486  60.401 121.732  0.00  0.00    -0.311 N 
ATOM     14  C   LIG d   1      -1.189  60.929 120.546  0.00  0.00     0.210 C 
ATOM     15  C   LIG d   1       0.253  60.703 120.080  0.00  0.00     0.109 C 
ATOM     16  O   LIG d   1      -1.974  61.590 119.850  0.00  0.00    -0.276 OA
ATOM     17  H   LIG d   1      -0.780  59.908 122.243  0.00  0.00     0.149 HD
ENDBRANCH   6  13
BRANCH   5  18
ATOM     18  N   LIG d   1      -2.159  62.068 124.202  0.00  0.00     0.381 N 
ATOM     19  H   LIG d   1      -1.164  61.977 124.255  0.00  0.00    -0.090 HD
ATOM     20  H   LIG d   1      -2.497  62.365 125.101  0.00  0.00    -0.090 HD
ATOM     21  H   LIG d   1      -2.403  62.740 123.508  0.00  0.00    -0.090 HD
ENDBRANCH   5  18
BRANCH   3  22
ATOM     22  C   LIG d   1      -5.882  59.154 124.972  0.00  0.00     0.382 C 
ATOM     23  O   LIG d   1      -6.817  59.913 125.323  0.00  0.00    -0.241 OA
ATOM     24  O   LIG d   1      -5.808  58.008 125.454  0.00  0.00    -0.241 OA
ENDBRANCH   3  22
TORSDOF 7
ENDMDL
MODEL 3
REMARK VINA RESULT:      -4.4     13.680     16.686
REMARK  7 active torsions:
REMARK  status: ('A' for Active; 'I' for Inactive)
REMARK    1  A    between atoms: C_2  and  C_3 
REMARK    2  A    between atoms: C_3  and  O_6 
REMARK    3  A    between atoms: C_3  and  C_4 
REMARK    4  A    between atoms: C_7  and  O_6 
REMARK    5  A    between atoms: C_9  and  C_10 
REMARK    6  A    between atoms: N_15  and  C_14 
REMARK    7  A    between atoms: N_20  and  C_19 
REMARK       I    between atoms: C_22  and  N_20 
ROOT
ATOM      1  C   LIG d   1       0.799  59.380 122.146  0.00  0.00     0.161 C 
ATOM      2  C   LIG d   1       2.146  59.067 122.391  0.00  0.00     0.016 C 
ATOM      3  C   LIG d   1       3.151  59.127 121.398  0.00  0.00     0.038 C 
ATOM      4  C   LIG d   1       2.903  59.655 120.122  0.00  0.00     0.028 C 
ATOM      5  C   LIG d   1       1.451  59.509 119.679  0.00  0.00    -0.047 C 
ATOM      6  C   LIG d   1       0.529  60.063 120.790  0.00  0.00     0.091 C 
ENDROOT
BRANCH   1   7
ATOM      7  O   LIG d   1       0.281  60.185 123.224  0.00  0.00    -0.368 OA
BRANCH   7   8
ATOM      8  C   LIG d   1       0.504  61.612 123.118  0.00  0.00     0.119 C 
BRANCH   8   9
ATOM      9  C   LIG d   1       1.566  61.994 124.166  0.00  0.00     0.028 C 
ATOM     10  C   LIG d   1       1.250  63.328 124.863  0.00  0.00     0.006 C 
ENDBRANCH   8   9
BRANCH   8  11
ATOM     11  C   LIG d   1      -0.750  62.402 123.505  0.00  0.00     0.028 C 
ATOM     12  C   LIG d   1      -1.957  61.498 123.798  0.00  0.00     0.006 C 
ENDBRANCH   8  11
ENDBRANCH   7   8
ENDBRANCH   1   7
BRANCH   6  13
ATOM     13  N   LIG d   1      -0.912  59.883 120.473  0.00  0.00    -0.311 N 
ATOM     14  C   LIG d   1      -1.730  60.892 120.181  0.00  0.00     0.210 C 
ATOM     15  C   LIG d   1      -3.182  60.488 119.906  0.00  0.00     0.109 C 
ATOM     16  O   LIG d   1      -1.385  62.080 120.092  0.00  0.00    -0.276 OA
ATOM     17  H   LIG d   1      -1.269  58.947 120.492  0.00  0.00     0.149 HD
ENDBRANCH   6  13
BRANCH   5  18
ATOM     18  N   LIG d   1       1.303  60.221 118.396  0.00  0.00     0.381 N 
ATOM     19  H   LIG d   1       1.294  61.209 118.556  0.00  0.00    -0.090 HD
ATOM     20  H   LIG d   1       0.426  59.962 117.979  0.00  0.00    -0.090 HD
ATOM     21  H   LIG d   1       2.053  59.982 117.785  0.00  0.00    -0.090 HD
ENDBRANCH   5  18
BRANCH   3  22
ATOM     22  C   LIG d   1       4.413  58.620 121.666  0.00  0.00     0.382 C 
ATOM     23  O   LIG d   1       4.923  57.769 120.898  0.00  0.00    -0.241 OA
ATOM     24  O   LIG d   1       5.030  58.969 122.691  0.00  0.00    -0.241 OA
ENDBRANCH   3  22
TORSDOF 7
ENDMDL
MODEL 4
REMARK VINA RESULT:      -4.4     13.122     15.617
REMARK  7 active torsions:
REMARK  status: ('A' for Active; 'I' for Inactive)
REMARK    1  A    between atoms: C_2  and  C_3 
REMARK    2  A    between atoms: C_3  and  O_6 
REMARK    3  A    between atoms: C_3  and  C_4 
REMARK    4  A    between atoms: C_7  and  O_6 
REMARK    5  A    between atoms: C_9  and  C_10 
REMARK    6  A    between atoms: N_15  and  C_14 
REMARK    7  A    between atoms: N_20  and  C_19 
REMARK       I    between atoms: C_22  and  N_20 
ROOT
ATOM      1  C   LIG d   1      -0.632  60.642 120.795  0.00  0.00     0.161 C 
ATOM      2  C   LIG d   1       0.089  61.343 121.776  0.00  0.00     0.016 C 
ATOM      3  C   LIG d   1      -0.507  61.898 122.932  0.00  0.00     0.038 C 
ATOM      4  C   LIG d   1      -1.849  61.659 123.262  0.00  0.00     0.028 C 
ATOM      5  C   LIG d   1      -2.732  61.384 122.049  0.00  0.00    -0.047 C 
ATOM      6  C   LIG d   1      -2.077  60.275 121.193  0.00  0.00     0.091 C 
ENDROOT
BRANCH   1   7
ATOM      7  O   LIG d   1       0.095  59.461 120.405  0.00  0.00    -0.368 OA
BRANCH   7   8
ATOM      8  C   LIG d   1       1.539  59.580 120.381  0.00  0.00     0.119 C 
BRANCH   8   9
ATOM      9  C   LIG d   1       1.956  59.872 118.927  0.00  0.00     0.028 C 
ATOM     10  C   LIG d   1       3.418  60.337 118.817  0.00  0.00     0.006 C 
ENDBRANCH   8   9
BRANCH   8  11
ATOM     11  C   LIG d   1       2.213  58.252 120.737  0.00  0.00     0.028 C 
ATOM     12  C   LIG d   1       3.095  58.349 121.992  0.00  0.00     0.006 C 
ENDBRANCH   8  11
ENDBRANCH   7   8
ENDBRANCH   1   7
BRANCH   6  13
ATOM     13  N   LIG d   1      -2.833  60.004 119.943  0.00  0.00    -0.311 N 
ATOM     14  C   LIG d   1      -3.740  59.035 119.830  0.00  0.00     0.210 C 
ATOM     15  C   LIG d   1      -4.388  58.914 118.447  0.00  0.00     0.109 C 
ATOM     16  O   LIG d   1      -4.093  58.286 120.753  0.00  0.00    -0.276 OA
ATOM     17  H   LIG d   1      -2.632  60.585 119.153  0.00  0.00     0.149 HD
ENDBRANCH   6  13
BRANCH   5  18
ATOM     18  N   LIG d   1      -4.071  61.016 122.546  0.00  0.00     0.381 N 
ATOM     19  H   LIG d   1      -4.004  60.210 123.135  0.00  0.00    -0.090 HD
ATOM     20  H   LIG d   1      -4.657  60.786 121.763  0.00  0.00    -0.090 HD
ATOM     21  H   LIG d   1      -4.467  61.776 123.054  0.00  0.00    -0.090 HD
ENDBRANCH   5  18
BRANCH   3  22
ATOM     22  C   LIG d   1       0.233  62.737 123.751  0.00  0.00     0.382 C 
ATOM     23  O   LIG d   1       1.347  62.362 124.190  0.00  0.00    -0.241 OA
ATOM     24  O   LIG d   1      -0.219  63.847 124.093  0.00  0.00    -0.241 OA
ENDBRANCH   3  22
TORSDOF 7
ENDMDL
MODEL 5
REMARK VINA RESULT:      -4.3     13.109     15.172
REMARK  7 active torsions:
REMARK  status: ('A' for Active; 'I' for Inactive)
REMARK    1  A    between atoms: C_2  and  C_3 
REMARK    2  A    between atoms: C_3  and  O_6 
REMARK    3  A    between atoms: C_3  and  C_4 
REMARK    4  A    between atoms: C_7  and  O_6 
REMARK    5  A    between atoms: C_9  and  C_10 
REMARK    6  A    between atoms: N_15  and  C_14 
REMARK    7  A    between atoms: N_20  and  C_19 
REMARK       I    between atoms: C_22  and  N_20 
ROOT
ATOM      1  C   LIG d   1      -1.511  61.296 121.350  0.00  0.00     0.161 C 
ATOM      2  C   LIG d   1      -2.631  61.032 122.156  0.00  0.00     0.016 C 
ATOM      3  C   LIG d   1      -3.145  59.733 122.373  0.00  0.00     0.038 C 
ATOM      4  C   LIG d   1      -2.478  58.586 121.918  0.00  0.00     0.028 C 
ATOM      5  C   LIG d   1      -1.627  58.833 120.677  0.00  0.00    -0.047 C 
ATOM      6  C   LIG d   1      -0.705  60.047 120.935  0.00  0.00     0.091 C 
ENDROOT
BRANCH   1   7
ATOM      7  O   LIG d   1      -0.653  62.252 122.003  0.00  0.00    -0.368 OA
BRANCH   7   8
ATOM      8  C   LIG d   1      -0.314  61.966 123.382  0.00  0.00     0.119 C 
BRANCH   8   9
ATOM      9  C   LIG d   1      -0.370  63.297 124.158  0.00  0.00     0.028 C 
ATOM     10  C   LIG d   1      -1.652  63.434 124.996  0.00  0.00     0.006 C 
ENDBRANCH   8   9
BRANCH   8  11
ATOM     11  C   LIG d   1       1.133  61.482 123.511  0.00  0.00     0.028 C 
ATOM     12  C   LIG d   1       1.942  62.289 124.539  0.00  0.00     0.006 C 
ENDBRANCH   8  11
ENDBRANCH   7   8
ENDBRANCH   1   7
BRANCH   6  13
ATOM     13  N   LIG d   1       0.102  60.409 119.741  0.00  0.00    -0.311 N 
ATOM     14  C   LIG d   1       1.363  60.019 119.562  0.00  0.00     0.210 C 
ATOM     15  C   LIG d   1       2.018  60.520 118.271  0.00  0.00     0.109 C 
ATOM     16  O   LIG d   1       1.990  59.278 120.334  0.00  0.00    -0.276 OA
ATOM     17  H   LIG d   1      -0.339  60.982 119.048  0.00  0.00     0.149 HD
ENDBRANCH   6  13
BRANCH   5  18
ATOM     18  N   LIG d   1      -0.882  57.592 120.393  0.00  0.00     0.381 N 
ATOM     19  H   LIG d   1       0.020  57.632 120.824  0.00  0.00    -0.090 HD
ATOM     20  H   LIG d   1      -0.754  57.510 119.400  0.00  0.00    -0.090 HD
ATOM     21  H   LIG d   1      -1.388  56.805 120.736  0.00  0.00    -0.090 HD
ENDBRANCH   5  18
BRANCH   3  22
ATOM     22  C   LIG d   1      -4.361  59.575 123.020  0.00  0.00     0.382 C 
ATOM     23  O   LIG d   1      -4.752  60.439 123.841  0.00  0.00    -0.241 OA
ATOM     24  O   LIG d   1      -5.052  58.556 122.827  0.00  0.00    -0.241 OA
ENDBRANCH   3  22
TORSDOF 7
ENDMDL
MODEL 6
REMARK VINA RESULT:      -4.3     24.833     27.170
REMARK  7 active torsions:
REMARK  status: ('A' for Active; 'I' for Inactive)
REMARK    1  A    between atoms: C_2  and  C_3 
REMARK    2  A    between atoms: C_3  and  O_6 
REMARK    3  A    between atoms: C_3  and  C_4 
REMARK    4  A    between atoms: C_7  and  O_6 
REMARK    5  A    between atoms: C_9  and  C_10 
REMARK    6  A    between atoms: N_15  and  C_14 
REMARK    7  A    between atoms: N_20  and  C_19 
REMARK       I    between atoms: C_22  and  N_20 
ROOT
ATOM      1  C   LIG d   1      -3.780  92.386 119.829  0.00  0.00     0.161 C 
ATOM      2  C   LIG d   1      -3.055  91.411 119.124  0.00  0.00     0.016 C 
ATOM      3  C   LIG d   1      -3.540  90.770 117.961  0.00  0.00     0.038 C 
ATOM      4  C   LIG d   1      -4.728  91.173 117.333  0.00  0.00     0.028 C 
ATOM      5  C   LIG d   1      -5.734  91.804 118.289  0.00  0.00    -0.047 C 
ATOM      6  C   LIG d   1      -5.029  92.918 119.096  0.00  0.00     0.091 C 
ENDROOT
BRANCH   1   7
ATOM      7  O   LIG d   1      -2.909  93.476 120.190  0.00  0.00    -0.368 OA
BRANCH   7   8
ATOM      8  C   LIG d   1      -1.778  93.706 119.314  0.00  0.00     0.119 C 
BRANCH   8   9
ATOM      9  C   LIG d   1      -0.540  93.925 120.204  0.00  0.00     0.028 C 
ATOM     10  C   LIG d   1      -0.879  93.877 121.704  0.00  0.00     0.006 C 
ENDBRANCH   8   9
BRANCH   8  11
ATOM     11  C   LIG d   1      -1.943  95.006 118.522  0.00  0.00     0.028 C 
ATOM     12  C   LIG d   1      -2.860  96.020 119.224  0.00  0.00     0.006 C 
ENDBRANCH   8  11
ENDBRANCH   7   8
ENDBRANCH   1   7
BRANCH   6  13
ATOM     13  N   LIG d   1      -5.921  93.531 120.115  0.00  0.00    -0.311 N 
ATOM     14  C   LIG d   1      -6.667  94.610 119.883  0.00  0.00     0.210 C 
ATOM     15  C   LIG d   1      -7.500  95.090 121.076  0.00  0.00     0.109 C 
ATOM     16  O   LIG d   1      -6.743  95.195 118.792  0.00  0.00    -0.276 OA
ATOM     17  H   LIG d   1      -5.945  93.101 121.019  0.00  0.00     0.149 HD
ENDBRANCH   6  13
BRANCH   5  18
ATOM     18  N   LIG d   1      -6.864  92.302 117.482  0.00  0.00     0.381 N 
ATOM     19  H   LIG d   1      -6.813  91.922 116.558  0.00  0.00    -0.090 HD
ATOM     20  H   LIG d   1      -6.801  93.302 117.416  0.00  0.00    -0.090 HD
ATOM     21  H   LIG d   1      -7.727  92.044 117.908  0.00  0.00    -0.090 HD
ENDBRANCH   5  18
BRANCH   3  22
ATOM     22  C   LIG d   1      -2.852  89.686 117.436  0.00  0.00     0.382 C 
ATOM     23  O   LIG d   1      -3.445  88.595 117.258  0.00  0.00    -0.241 OA
ATOM     24  O   LIG d   1      -1.637  89.773 117.181  0.00  0.00    -0.241 OA
ENDBRANCH   3  22
TORSDOF 7
ENDMDL
MODEL 7
REMARK VINA RESULT:      -4.3     14.025     16.537
REMARK  7 active torsions:
REMARK  status: ('A' for Active; 'I' for Inactive)
REMARK    1  A    between atoms: C_2  and  C_3 
REMARK    2  A    between atoms: C_3  and  O_6 
REMARK    3  A    between atoms: C_3  and  C_4 
REMARK    4  A    between atoms: C_7  and  O_6 
REMARK    5  A    between atoms: C_9  and  C_10 
REMARK    6  A    between atoms: N_15  and  C_14 
REMARK    7  A    between atoms: N_20  and  C_19 
REMARK       I    between atoms: C_22  and  N_20 
ROOT
ATOM      1  C   LIG d   1      -0.466  58.051 121.382  0.00  0.00     0.161 C 
ATOM      2  C   LIG d   1      -1.177  59.151 121.889  0.00  0.00     0.016 C 
ATOM      3  C   LIG d   1      -1.051  60.463 121.376  0.00  0.00     0.038 C 
ATOM      4  C   LIG d   1      -0.313  60.736 120.215  0.00  0.00     0.028 C 
ATOM      5  C   LIG d   1       0.822  59.747 119.971  0.00  0.00    -0.047 C 
ATOM      6  C   LIG d   1       0.258  58.309 120.045  0.00  0.00     0.091 C 
ENDROOT
BRANCH   1   7
ATOM      7  O   LIG d   1      -1.345  56.914 121.265  0.00  0.00    -0.368 OA
BRANCH   7   8
ATOM      8  C   LIG d   1      -2.762  57.208 121.195  0.00  0.00     0.119 C 
BRANCH   8   9
ATOM      9  C   LIG d   1      -3.503  56.099 121.968  0.00  0.00     0.028 C 
ATOM     10  C   LIG d   1      -4.289  56.647 123.171  0.00  0.00     0.006 C 
ENDBRANCH   8   9
BRANCH   8  11
ATOM     11  C   LIG d   1      -3.280  57.116 119.757  0.00  0.00     0.028 C 
ATOM     12  C   LIG d   1      -4.049  58.373 119.320  0.00  0.00     0.006 C 
ENDBRANCH   8  11
ENDBRANCH   7   8
ENDBRANCH   1   7
BRANCH   6  13
ATOM     13  N   LIG d   1       1.318  57.277 119.901  0.00  0.00    -0.311 N 
ATOM     14  C   LIG d   1       1.245  56.267 119.036  0.00  0.00     0.210 C 
ATOM     15  C   LIG d   1       2.436  55.304 119.063  0.00  0.00     0.109 C 
ATOM     16  O   LIG d   1       0.321  56.095 118.227  0.00  0.00    -0.276 OA
ATOM     17  H   LIG d   1       2.118  57.358 120.497  0.00  0.00     0.149 HD
ENDBRANCH   6  13
BRANCH   5  18
ATOM     18  N   LIG d   1       1.418  60.067 118.660  0.00  0.00     0.381 N 
ATOM     19  H   LIG d   1       2.415  60.087 118.738  0.00  0.00    -0.090 HD
ATOM     20  H   LIG d   1       1.106  60.979 118.375  0.00  0.00    -0.090 HD
ATOM     21  H   LIG d   1       1.144  59.388 117.985  0.00  0.00    -0.090 HD
ENDBRANCH   5  18
BRANCH   3  22
ATOM     22  C   LIG d   1      -1.635  61.524 122.051  0.00  0.00     0.382 C 
ATOM     23  O   LIG d   1      -0.914  62.372 122.629  0.00  0.00    -0.241 OA
ATOM     24  O   LIG d   1      -2.875  61.619 122.126  0.00  0.00    -0.241 OA
ENDBRANCH   3  22
TORSDOF 7
ENDMDL
MODEL 8
REMARK VINA RESULT:      -4.3      7.279     11.419
REMARK  7 active torsions:
REMARK  status: ('A' for Active; 'I' for Inactive)
REMARK    1  A    between atoms: C_2  and  C_3 
REMARK    2  A    between atoms: C_3  and  O_6 
REMARK    3  A    between atoms: C_3  and  C_4 
REMARK    4  A    between atoms: C_7  and  O_6 
REMARK    5  A    between atoms: C_9  and  C_10 
REMARK    6  A    between atoms: N_15  and  C_14 
REMARK    7  A    between atoms: N_20  and  C_19 
REMARK       I    between atoms: C_22  and  N_20 
ROOT
ATOM      1  C   LIG d   1     -19.527  75.282 120.298  0.00  0.00     0.161 C 
ATOM      2  C   LIG d   1     -20.865  75.638 120.058  0.00  0.00     0.016 C 
ATOM      3  C   LIG d   1     -21.289  76.968 119.836  0.00  0.00     0.038 C 
ATOM      4  C   LIG d   1     -20.375  78.022 119.688  0.00  0.00     0.028 C 
ATOM      5  C   LIG d   1     -19.060  77.791 120.424  0.00  0.00    -0.047 C 
ATOM      6  C   LIG d   1     -18.502  76.404 120.031  0.00  0.00     0.091 C 
ENDROOT
BRANCH   1   7
ATOM      7  O   LIG d   1     -19.191  74.104 119.538  0.00  0.00    -0.368 OA
BRANCH   7   8
ATOM      8  C   LIG d   1     -18.939  72.901 120.306  0.00  0.00     0.119 C 
BRANCH   8   9
ATOM      9  C   LIG d   1     -17.629  72.283 119.781  0.00  0.00     0.028 C 
ATOM     10  C   LIG d   1     -17.097  71.169 120.698  0.00  0.00     0.006 C 
ENDBRANCH   8   9
BRANCH   8  11
ATOM     11  C   LIG d   1     -20.017  71.843 120.052  0.00  0.00     0.028 C 
ATOM     12  C   LIG d   1     -21.137  71.869 121.104  0.00  0.00     0.006 C 
ENDBRANCH   8  11
ENDBRANCH   7   8
ENDBRANCH   1   7
BRANCH   6  13
ATOM     13  N   LIG d   1     -17.259  76.062 120.770  0.00  0.00    -0.311 N 
ATOM     14  C   LIG d   1     -16.160  75.596 120.180  0.00  0.00     0.210 C 
ATOM     15  C   LIG d   1     -14.997  75.288 121.129  0.00  0.00     0.109 C 
ATOM     16  O   LIG d   1     -16.027  75.437 118.957  0.00  0.00    -0.276 OA
ATOM     17  H   LIG d   1     -17.269  76.190 121.763  0.00  0.00     0.149 HD
ENDBRANCH   6  13
BRANCH   5  18
ATOM     18  N   LIG d   1     -18.152  78.900 120.073  0.00  0.00     0.381 N 
ATOM     19  H   LIG d   1     -17.448  78.997 120.777  0.00  0.00    -0.090 HD
ATOM     20  H   LIG d   1     -18.681  79.753 120.036  0.00  0.00    -0.090 HD
ATOM     21  H   LIG d   1     -17.727  78.725 119.189  0.00  0.00    -0.090 HD
ENDBRANCH   5  18
BRANCH   3  22
ATOM     22  C   LIG d   1     -22.644  77.261 119.799  0.00  0.00     0.382 C 
ATOM     23  O   LIG d   1     -23.028  78.455 119.818  0.00  0.00    -0.241 OA
ATOM     24  O   LIG d   1     -23.488  76.345 119.792  0.00  0.00    -0.241 OA
ENDBRANCH   3  22
TORSDOF 7
ENDMDL
MODEL 9
REMARK VINA RESULT:      -4.3      7.201     10.736
REMARK  7 active torsions:
REMARK  status: ('A' for Active; 'I' for Inactive)
REMARK    1  A    between atoms: C_2  and  C_3 
REMARK    2  A    between atoms: C_3  and  O_6 
REMARK    3  A    between atoms: C_3  and  C_4 
REMARK    4  A    between atoms: C_7  and  O_6 
REMARK    5  A    between atoms: C_9  and  C_10 
REMARK    6  A    between atoms: N_15  and  C_14 
REMARK    7  A    between atoms: N_20  and  C_19 
REMARK       I    between atoms: C_22  and  N_20 
ROOT
ATOM      1  C   LIG d   1     -19.476  74.691 121.225  0.00  0.00     0.161 C 
ATOM      2  C   LIG d   1     -20.852  74.801 120.961  0.00  0.00     0.016 C 
ATOM      3  C   LIG d   1     -21.395  75.710 120.025  0.00  0.00     0.038 C 
ATOM      4  C   LIG d   1     -20.581  76.471 119.173  0.00  0.00     0.028 C 
ATOM      5  C   LIG d   1     -19.201  76.762 119.753  0.00  0.00    -0.047 C 
ATOM      6  C   LIG d   1     -18.565  75.434 120.225  0.00  0.00     0.091 C 
ENDROOT
BRANCH   1   7
ATOM      7  O   LIG d   1     -19.103  73.301 121.304  0.00  0.00    -0.368 OA
BRANCH   7   8
ATOM      8  C   LIG d   1     -18.973  72.603 120.041  0.00  0.00     0.119 C 
BRANCH   8   9
ATOM      9  C   LIG d   1     -20.034  71.485 120.018  0.00  0.00     0.028 C 
ATOM     10  C   LIG d   1     -20.345  70.942 121.423  0.00  0.00     0.006 C 
ENDBRANCH   8   9
BRANCH   8  11
ATOM     11  C   LIG d   1     -17.624  71.884 119.939  0.00  0.00     0.028 C 
ATOM     12  C   LIG d   1     -16.768  72.040 121.206  0.00  0.00     0.006 C 
ENDBRANCH   8  11
ENDBRANCH   7   8
ENDBRANCH   1   7
BRANCH   6  13
ATOM     13  N   LIG d   1     -17.248  75.638 120.883  0.00  0.00    -0.311 N 
ATOM     14  C   LIG d   1     -16.086  75.560 120.237  0.00  0.00     0.210 C 
ATOM     15  C   LIG d   1     -14.846  75.785 121.108  0.00  0.00     0.109 C 
ATOM     16  O   LIG d   1     -15.966  75.359 119.020  0.00  0.00    -0.276 OA
ATOM     17  H   LIG d   1     -17.255  75.838 121.864  0.00  0.00     0.149 HD
ENDBRANCH   6  13
BRANCH   5  18
ATOM     18  N   LIG d   1     -18.412  77.441 118.709  0.00  0.00     0.381 N 
ATOM     19  H   LIG d   1     -18.557  78.430 118.764  0.00  0.00    -0.090 HD
ATOM     20  H   LIG d   1     -18.725  77.126 117.808  0.00  0.00    -0.090 HD
ATOM     21  H   LIG d   1     -17.444  77.234 118.823  0.00  0.00    -0.090 HD
ENDBRANCH   5  18
BRANCH   3  22
ATOM     22  C   LIG d   1     -22.767  75.894 119.962  0.00  0.00     0.382 C 
ATOM     23  O   LIG d   1     -23.530  74.901 119.889  0.00  0.00    -0.241 OA
ATOM     24  O   LIG d   1     -23.250  77.042 119.932  0.00  0.00    -0.241 OA
ENDBRANCH   3  22
TORSDOF 7
ENDMDL
