MODEL 1
REMARK VINA RESULT:      -4.8      0.000      0.000
REMARK  7 active torsions:
REMARK  status: ('A' for Active; 'I' for Inactive)
REMARK    1  A    between atoms: C_2  and  C_3 
REMARK    2  A    between atoms: C_3  and  O_6 
REMARK    3  A    between atoms: C_3  and  C_4 
REMARK    4  A    between atoms: C_7  and  O_6 
REMARK    5  A    between atoms: C_9  and  C_10 
REMARK    6  A    between atoms: N_15  and  C_14 
REMARK    7  A    between atoms: N_20  and  C_19 
REMARK       I    between atoms: C_22  and  N_20 
ROOT
ATOM      1  C   LIG d   1     -18.520  77.453 120.473  0.00  0.00     0.161 C 
ATOM      2  C   LIG d   1     -19.258  78.485 119.870  0.00  0.00     0.016 C 
ATOM      3  C   LIG d   1     -19.249  79.821 120.333  0.00  0.00     0.038 C 
ATOM      4  C   LIG d   1     -18.377  80.250 121.345  0.00  0.00     0.028 C 
ATOM      5  C   LIG d   1     -17.985  79.141 122.316  0.00  0.00    -0.047 C 
ATOM      6  C   LIG d   1     -17.477  77.924 121.509  0.00  0.00     0.091 C 
ENDROOT
BRANCH   1   7
ATOM      7  O   LIG d   1     -17.889  76.647 119.459  0.00  0.00    -0.368 OA
BRANCH   7   8
ATOM      8  C   LIG d   1     -18.440  75.321 119.265  0.00  0.00     0.119 C 
BRANCH   8   9
ATOM      9  C   LIG d   1     -19.625  75.165 120.238  0.00  0.00     0.028 C 
ATOM     10  C   LIG d   1     -20.953  74.903 119.509  0.00  0.00     0.006 C 
ENDBRANCH   8   9
BRANCH   8  11
ATOM     11  C   LIG d   1     -17.438  74.236 119.669  0.00  0.00     0.028 C 
ATOM     12  C   LIG d   1     -17.692  72.896 118.961  0.00  0.00     0.006 C 
ENDBRANCH   8  11
ENDBRANCH   7   8
ENDBRANCH   1   7
BRANCH   6  13
ATOM     13  N   LIG d   1     -17.152  76.763 122.378  0.00  0.00    -0.311 N 
ATOM     14  C   LIG d   1     -15.995  76.106 122.321  0.00  0.00     0.210 C 
ATOM     15  C   LIG d   1     -15.872  74.927 123.291  0.00  0.00     0.109 C 
ATOM     16  O   LIG d   1     -15.046  76.407 121.581  0.00  0.00    -0.276 OA
ATOM     17  H   LIG d   1     -17.853  76.471 123.030  0.00  0.00     0.149 HD
ENDBRANCH   6  13
BRANCH   5  18
ATOM     18  N   LIG d   1     -16.969  79.691 123.233  0.00  0.00     0.381 N 
ATOM     19  H   LIG d   1     -16.069  79.666 122.796  0.00  0.00    -0.090 HD
ATOM     20  H   LIG d   1     -16.934  79.120 124.059  0.00  0.00    -0.090 HD
ATOM     21  H   LIG d   1     -17.202  80.628 123.478  0.00  0.00    -0.090 HD
ENDBRANCH   5  18
BRANCH   3  22
ATOM     22  C   LIG d   1     -20.149  80.737 119.808  0.00  0.00     0.382 C 
ATOM     23  O   LIG d   1     -19.747  81.632 119.026  0.00  0.00    -0.241 OA
ATOM     24  O   LIG d   1     -21.348  80.705 120.140  0.00  0.00    -0.241 OA
ENDBRANCH   3  22
TORSDOF 7
ENDMDL
MODEL 2
REMARK VINA RESULT:      -4.8     10.039     12.486
REMARK  7 active torsions:
REMARK  status: ('A' for Active; 'I' for Inactive)
REMARK    1  A    between atoms: C_2  and  C_3 
REMARK    2  A    between atoms: C_3  and  O_6 
REMARK    3  A    between atoms: C_3  and  C_4 
REMARK    4  A    between atoms: C_7  and  O_6 
REMARK    5  A    between atoms: C_9  and  C_10 
REMARK    6  A    between atoms: N_15  and  C_14 
REMARK    7  A    between atoms: N_20  and  C_19 
REMARK       I    between atoms: C_22  and  N_20 
ROOT
ATOM      1  C   LIG d   1      -8.331  81.016 121.048  0.00  0.00     0.161 C 
ATOM      2  C   LIG d   1      -7.605  80.057 120.323  0.00  0.00     0.016 C 
ATOM      3  C   LIG d   1      -7.841  79.769 118.959  0.00  0.00     0.038 C 
ATOM      4  C   LIG d   1      -8.726  80.533 118.183  0.00  0.00     0.028 C 
ATOM      5  C   LIG d   1      -9.845  81.176 118.995  0.00  0.00    -0.047 C 
ATOM      6  C   LIG d   1      -9.224  81.937 120.189  0.00  0.00     0.091 C 
ENDROOT
BRANCH   1   7
ATOM      7  O   LIG d   1      -7.432  81.802 121.856  0.00  0.00    -0.368 OA
BRANCH   7   8
ATOM      8  C   LIG d   1      -6.469  82.609 121.136  0.00  0.00     0.119 C 
BRANCH   8   9
ATOM      9  C   LIG d   1      -5.072  82.018 121.410  0.00  0.00     0.028 C 
ATOM     10  C   LIG d   1      -3.979  83.097 121.470  0.00  0.00     0.006 C 
ENDBRANCH   8   9
BRANCH   8  11
ATOM     11  C   LIG d   1      -6.418  84.038 121.685  0.00  0.00     0.028 C 
ATOM     12  C   LIG d   1      -7.163  84.190 123.020  0.00  0.00     0.006 C 
ENDBRANCH   8  11
ENDBRANCH   7   8
ENDBRANCH   1   7
BRANCH   6  13
ATOM     13  N   LIG d   1     -10.254  82.526 121.084  0.00  0.00    -0.311 N 
ATOM     14  C   LIG d   1     -10.408  83.837 121.261  0.00  0.00     0.210 C 
ATOM     15  C   LIG d   1     -11.517  84.230 122.242  0.00  0.00     0.109 C 
ATOM     16  O   LIG d   1      -9.753  84.711 120.675  0.00  0.00    -0.276 OA
ATOM     17  H   LIG d   1     -10.850  81.888 121.575  0.00  0.00     0.149 HD
ENDBRANCH   6  13
BRANCH   5  18
ATOM     18  N   LIG d   1     -10.609  82.051 118.087  0.00  0.00     0.381 N 
ATOM     19  H   LIG d   1     -11.588  81.949 118.263  0.00  0.00    -0.090 HD
ATOM     20  H   LIG d   1     -10.428  81.772 117.138  0.00  0.00    -0.090 HD
ATOM     21  H   LIG d   1     -10.337  83.000 118.219  0.00  0.00    -0.090 HD
ENDBRANCH   5  18
BRANCH   3  22
ATOM     22  C   LIG d   1      -7.218  78.680 118.368  0.00  0.00     0.382 C 
ATOM     23  O   LIG d   1      -6.160  78.221 118.860  0.00  0.00    -0.241 OA
ATOM     24  O   LIG d   1      -7.677  78.179 117.324  0.00  0.00    -0.241 OA
ENDBRANCH   3  22
TORSDOF 7
ENDMDL
MODEL 3
REMARK VINA RESULT:      -4.6      2.469      5.992
REMARK  7 active torsions:
REMARK  status: ('A' for Active; 'I' for Inactive)
REMARK    1  A    between atoms: C_2  and  C_3 
REMARK    2  A    between atoms: C_3  and  O_6 
REMARK    3  A    between atoms: C_3  and  C_4 
REMARK    4  A    between atoms: C_7  and  O_6 
REMARK    5  A    between atoms: C_9  and  C_10 
REMARK    6  A    between atoms: N_15  and  C_14 
REMARK    7  A    between atoms: N_20  and  C_19 
REMARK       I    between atoms: C_22  and  N_20 
ROOT
ATOM      1  C   LIG d   1     -17.122  75.832 122.234  0.00  0.00     0.161 C 
ATOM      2  C   LIG d   1     -17.027  74.525 121.727  0.00  0.00     0.016 C 
ATOM      3  C   LIG d   1     -17.338  74.185 120.391  0.00  0.00     0.038 C 
ATOM      4  C   LIG d   1     -17.621  75.161 119.424  0.00  0.00     0.028 C 
ATOM      5  C   LIG d   1     -18.221  76.436 120.008  0.00  0.00    -0.047 C 
ATOM      6  C   LIG d   1     -17.323  76.927 121.166  0.00  0.00     0.091 C 
ENDROOT
BRANCH   1   7
ATOM      7  O   LIG d   1     -15.966  76.127 123.043  0.00  0.00    -0.368 OA
BRANCH   7   8
ATOM      8  C   LIG d   1     -14.796  76.604 122.334  0.00  0.00     0.119 C 
BRANCH   8   9
ATOM      9  C   LIG d   1     -13.636  75.642 122.656  0.00  0.00     0.028 C 
ATOM     10  C   LIG d   1     -12.331  76.037 121.945  0.00  0.00     0.006 C 
ENDBRANCH   8   9
BRANCH   8  11
ATOM     11  C   LIG d   1     -14.346  77.971 122.856  0.00  0.00     0.028 C 
ATOM     12  C   LIG d   1     -15.058  78.376 124.157  0.00  0.00     0.006 C 
ENDBRANCH   8  11
ENDBRANCH   7   8
ENDBRANCH   1   7
BRANCH   6  13
ATOM     13  N   LIG d   1     -17.881  78.124 121.848  0.00  0.00    -0.311 N 
ATOM     14  C   LIG d   1     -17.584  79.373 121.496  0.00  0.00     0.210 C 
ATOM     15  C   LIG d   1     -18.254  80.460 122.344  0.00  0.00     0.109 C 
ATOM     16  O   LIG d   1     -16.855  79.686 120.543  0.00  0.00    -0.276 OA
ATOM     17  H   LIG d   1     -18.507  77.962 122.613  0.00  0.00     0.149 HD
ENDBRANCH   6  13
BRANCH   5  18
ATOM     18  N   LIG d   1     -18.338  77.416 118.911  0.00  0.00     0.381 N 
ATOM     19  H   LIG d   1     -19.018  78.110 119.149  0.00  0.00    -0.090 HD
ATOM     20  H   LIG d   1     -18.650  76.940 118.083  0.00  0.00    -0.090 HD
ATOM     21  H   LIG d   1     -17.456  77.847 118.744  0.00  0.00    -0.090 HD
ENDBRANCH   5  18
BRANCH   3  22
ATOM     22  C   LIG d   1     -17.405  72.851 120.019  0.00  0.00     0.382 C 
ATOM     23  O   LIG d   1     -17.433  72.538 118.804  0.00  0.00    -0.241 OA
ATOM     24  O   LIG d   1     -17.483  71.957 120.884  0.00  0.00    -0.241 OA
ENDBRANCH   3  22
TORSDOF 7
ENDMDL
MODEL 4
REMARK VINA RESULT:      -4.6      2.260      4.162
REMARK  7 active torsions:
REMARK  status: ('A' for Active; 'I' for Inactive)
REMARK    1  A    between atoms: C_2  and  C_3 
REMARK    2  A    between atoms: C_3  and  O_6 
REMARK    3  A    between atoms: C_3  and  C_4 
REMARK    4  A    between atoms: C_7  and  O_6 
REMARK    5  A    between atoms: C_9  and  C_10 
REMARK    6  A    between atoms: N_15  and  C_14 
REMARK    7  A    between atoms: N_20  and  C_19 
REMARK       I    between atoms: C_22  and  N_20 
ROOT
ATOM      1  C   LIG d   1     -17.828  76.630 119.717  0.00  0.00     0.161 C 
ATOM      2  C   LIG d   1     -18.333  77.907 120.015  0.00  0.00     0.016 C 
ATOM      3  C   LIG d   1     -19.713  78.189 120.136  0.00  0.00     0.038 C 
ATOM      4  C   LIG d   1     -20.682  77.175 120.116  0.00  0.00     0.028 C 
ATOM      5  C   LIG d   1     -20.258  75.948 119.315  0.00  0.00    -0.047 C 
ATOM      6  C   LIG d   1     -18.864  75.489 119.801  0.00  0.00     0.091 C 
ENDROOT
BRANCH   1   7
ATOM      7  O   LIG d   1     -16.697  76.342 120.562  0.00  0.00    -0.368 OA
BRANCH   7   8
ATOM      8  C   LIG d   1     -16.751  76.881 121.906  0.00  0.00     0.119 C 
BRANCH   8   9
ATOM      9  C   LIG d   1     -15.328  77.339 122.279  0.00  0.00     0.028 C 
ATOM     10  C   LIG d   1     -14.326  76.172 122.313  0.00  0.00     0.006 C 
ENDBRANCH   8   9
BRANCH   8  11
ATOM     11  C   LIG d   1     -17.109  75.797 122.926  0.00  0.00     0.028 C 
ATOM     12  C   LIG d   1     -18.529  75.956 123.492  0.00  0.00     0.006 C 
ENDBRANCH   8  11
ENDBRANCH   7   8
ENDBRANCH   1   7
BRANCH   6  13
ATOM     13  N   LIG d   1     -18.337  74.345 119.013  0.00  0.00    -0.311 N 
ATOM     14  C   LIG d   1     -17.827  73.246 119.566  0.00  0.00     0.210 C 
ATOM     15  C   LIG d   1     -17.322  72.196 118.572  0.00  0.00     0.109 C 
ATOM     16  O   LIG d   1     -17.774  73.028 120.786  0.00  0.00    -0.276 OA
ATOM     17  H   LIG d   1     -18.371  74.424 118.015  0.00  0.00     0.149 HD
ENDBRANCH   6  13
BRANCH   5  18
ATOM     18  N   LIG d   1     -21.300  74.919 119.492  0.00  0.00     0.381 N 
ATOM     19  H   LIG d   1     -21.103  74.134 118.904  0.00  0.00    -0.090 HD
ATOM     20  H   LIG d   1     -22.187  75.304 119.218  0.00  0.00    -0.090 HD
ATOM     21  H   LIG d   1     -21.334  74.629 120.444  0.00  0.00    -0.090 HD
ENDBRANCH   5  18
BRANCH   3  22
ATOM     22  C   LIG d   1     -20.139  79.505 120.240  0.00  0.00     0.382 C 
ATOM     23  O   LIG d   1     -19.392  80.437 119.857  0.00  0.00    -0.241 OA
ATOM     24  O   LIG d   1     -21.242  79.773 120.753  0.00  0.00    -0.241 OA
ENDBRANCH   3  22
TORSDOF 7
ENDMDL
MODEL 5
REMARK VINA RESULT:      -4.4      9.522     13.119
REMARK  7 active torsions:
REMARK  status: ('A' for Active; 'I' for Inactive)
REMARK    1  A    between atoms: C_2  and  C_3 
REMARK    2  A    between atoms: C_3  and  O_6 
REMARK    3  A    between atoms: C_3  and  C_4 
REMARK    4  A    between atoms: C_7  and  O_6 
REMARK    5  A    between atoms: C_9  and  C_10 
REMARK    6  A    between atoms: N_15  and  C_14 
REMARK    7  A    between atoms: N_20  and  C_19 
REMARK       I    between atoms: C_22  and  N_20 
ROOT
ATOM      1  C   LIG d   1     -13.334  66.999 122.269  0.00  0.00     0.161 C 
ATOM      2  C   LIG d   1     -12.151  66.747 122.984  0.00  0.00     0.016 C 
ATOM      3  C   LIG d   1     -11.306  65.643 122.726  0.00  0.00     0.038 C 
ATOM      4  C   LIG d   1     -11.510  64.794 121.628  0.00  0.00     0.028 C 
ATOM      5  C   LIG d   1     -12.968  64.713 121.188  0.00  0.00    -0.047 C 
ATOM      6  C   LIG d   1     -13.514  66.146 120.996  0.00  0.00     0.091 C 
ENDROOT
BRANCH   1   7
ATOM      7  O   LIG d   1     -13.422  68.402 121.949  0.00  0.00    -0.368 OA
BRANCH   7   8
ATOM      8  C   LIG d   1     -14.096  69.236 122.923  0.00  0.00     0.119 C 
BRANCH   8   9
ATOM      9  C   LIG d   1     -15.608  69.146 122.643  0.00  0.00     0.028 C 
ATOM     10  C   LIG d   1     -16.010  69.874 121.349  0.00  0.00     0.006 C 
ENDBRANCH   8   9
BRANCH   8  11
ATOM     11  C   LIG d   1     -13.736  70.713 122.736  0.00  0.00     0.028 C 
ATOM     12  C   LIG d   1     -13.167  71.354 124.011  0.00  0.00     0.006 C 
ENDBRANCH   8  11
ENDBRANCH   7   8
ENDBRANCH   1   7
BRANCH   6  13
ATOM     13  N   LIG d   1     -14.958  66.160 120.646  0.00  0.00    -0.311 N 
ATOM     14  C   LIG d   1     -15.438  66.714 119.533  0.00  0.00     0.210 C 
ATOM     15  C   LIG d   1     -16.960  66.636 119.376  0.00  0.00     0.109 C 
ATOM     16  O   LIG d   1     -14.744  67.235 118.647  0.00  0.00    -0.276 OA
ATOM     17  H   LIG d   1     -15.589  65.732 121.294  0.00  0.00     0.149 HD
ENDBRANCH   6  13
BRANCH   5  18
ATOM     18  N   LIG d   1     -13.016  63.906 119.954  0.00  0.00     0.381 N 
ATOM     19  H   LIG d   1     -13.171  62.944 120.184  0.00  0.00    -0.090 HD
ATOM     20  H   LIG d   1     -12.132  63.978 119.483  0.00  0.00    -0.090 HD
ATOM     21  H   LIG d   1     -13.745  64.234 119.360  0.00  0.00    -0.090 HD
ENDBRANCH   5  18
BRANCH   3  22
ATOM     22  C   LIG d   1     -10.266  65.356 123.596  0.00  0.00     0.382 C 
ATOM     23  O   LIG d   1      -9.938  66.188 124.477  0.00  0.00    -0.241 OA
ATOM     24  O   LIG d   1      -9.622  64.296 123.484  0.00  0.00    -0.241 OA
ENDBRANCH   3  22
TORSDOF 7
ENDMDL
MODEL 6
REMARK VINA RESULT:      -4.2      9.528     11.730
REMARK  7 active torsions:
REMARK  status: ('A' for Active; 'I' for Inactive)
REMARK    1  A    between atoms: C_2  and  C_3 
REMARK    2  A    between atoms: C_3  and  O_6 
REMARK    3  A    between atoms: C_3  and  C_4 
REMARK    4  A    between atoms: C_7  and  O_6 
REMARK    5  A    between atoms: C_9  and  C_10 
REMARK    6  A    between atoms: N_15  and  C_14 
REMARK    7  A    between atoms: N_20  and  C_19 
REMARK       I    between atoms: C_22  and  N_20 
ROOT
ATOM      1  C   LIG d   1     -17.675  89.217 123.079  0.00  0.00     0.161 C 
ATOM      2  C   LIG d   1     -18.416  90.191 122.388  0.00  0.00     0.016 C 
ATOM      3  C   LIG d   1     -17.865  91.020 121.383  0.00  0.00     0.038 C 
ATOM      4  C   LIG d   1     -16.565  90.827 120.893  0.00  0.00     0.028 C 
ATOM      5  C   LIG d   1     -15.622  90.192 121.910  0.00  0.00    -0.047 C 
ATOM      6  C   LIG d   1     -16.285  88.917 122.480  0.00  0.00     0.091 C 
ENDROOT
BRANCH   1   7
ATOM      7  O   LIG d   1     -18.446  88.004 123.189  0.00  0.00    -0.368 OA
BRANCH   7   8
ATOM      8  C   LIG d   1     -18.478  87.160 122.012  0.00  0.00     0.119 C 
BRANCH   8   9
ATOM      9  C   LIG d   1     -19.944  87.070 121.547  0.00  0.00     0.028 C 
ATOM     10  C   LIG d   1     -20.182  87.796 120.212  0.00  0.00     0.006 C 
ENDBRANCH   8   9
BRANCH   8  11
ATOM     11  C   LIG d   1     -18.070  85.722 122.347  0.00  0.00     0.028 C 
ATOM     12  C   LIG d   1     -17.851  85.500 123.852  0.00  0.00     0.006 C 
ENDBRANCH   8  11
ENDBRANCH   7   8
ENDBRANCH   1   7
BRANCH   6  13
ATOM     13  N   LIG d   1     -15.466  88.280 123.543  0.00  0.00    -0.311 N 
ATOM     14  C   LIG d   1     -14.601  87.293 123.311  0.00  0.00     0.210 C 
ATOM     15  C   LIG d   1     -13.873  86.765 124.551  0.00  0.00     0.109 C 
ATOM     16  O   LIG d   1     -14.344  86.828 122.191  0.00  0.00    -0.276 OA
ATOM     17  H   LIG d   1     -15.588  88.618 124.478  0.00  0.00     0.149 HD
ENDBRANCH   6  13
BRANCH   5  18
ATOM     18  N   LIG d   1     -14.344  89.922 121.224  0.00  0.00     0.381 N 
ATOM     19  H   LIG d   1     -13.719  90.691 121.359  0.00  0.00    -0.090 HD
ATOM     20  H   LIG d   1     -14.518  89.825 120.239  0.00  0.00    -0.090 HD
ATOM     21  H   LIG d   1     -13.936  89.086 121.581  0.00  0.00    -0.090 HD
ENDBRANCH   5  18
BRANCH   3  22
ATOM     22  C   LIG d   1     -18.606  92.082 120.887  0.00  0.00     0.382 C 
ATOM     23  O   LIG d   1     -19.767  91.888 120.454  0.00  0.00    -0.241 OA
ATOM     24  O   LIG d   1     -18.110  93.223 120.825  0.00  0.00    -0.241 OA
ENDBRANCH   3  22
TORSDOF 7
ENDMDL
MODEL 7
REMARK VINA RESULT:      -4.1     10.542     13.473
REMARK  7 active torsions:
REMARK  status: ('A' for Active; 'I' for Inactive)
REMARK    1  A    between atoms: C_2  and  C_3 
REMARK    2  A    between atoms: C_3  and  O_6 
REMARK    3  A    between atoms: C_3  and  C_4 
REMARK    4  A    between atoms: C_7  and  O_6 
REMARK    5  A    between atoms: C_9  and  C_10 
REMARK    6  A    between atoms: N_15  and  C_14 
REMARK    7  A    between atoms: N_20  and  C_19 
REMARK       I    between atoms: C_22  and  N_20 
ROOT
ATOM      1  C   LIG d   1     -16.776  89.920 121.575  0.00  0.00     0.161 C 
ATOM      2  C   LIG d   1     -15.390  89.751 121.724  0.00  0.00     0.016 C 
ATOM      3  C   LIG d   1     -14.728  88.521 121.501  0.00  0.00     0.038 C 
ATOM      4  C   LIG d   1     -15.391  87.409 120.963  0.00  0.00     0.028 C 
ATOM      5  C   LIG d   1     -16.884  87.385 121.274  0.00  0.00    -0.047 C 
ATOM      6  C   LIG d   1     -17.500  88.747 120.881  0.00  0.00     0.091 C 
ENDROOT
BRANCH   1   7
ATOM      7  O   LIG d   1     -17.045  91.155 120.881  0.00  0.00    -0.368 OA
BRANCH   7   8
ATOM      8  C   LIG d   1     -17.758  92.167 121.635  0.00  0.00     0.119 C 
BRANCH   8   9
ATOM      9  C   LIG d   1     -17.950  91.629 123.066  0.00  0.00     0.028 C 
ATOM     10  C   LIG d   1     -19.420  91.663 123.514  0.00  0.00     0.006 C 
ENDBRANCH   8   9
BRANCH   8  11
ATOM     11  C   LIG d   1     -19.174  92.374 121.087  0.00  0.00     0.028 C 
ATOM     12  C   LIG d   1     -19.350  93.733 120.391  0.00  0.00     0.006 C 
ENDBRANCH   8  11
ENDBRANCH   7   8
ENDBRANCH   1   7
BRANCH   6  13
ATOM     13  N   LIG d   1     -18.942  88.839 121.231  0.00  0.00    -0.311 N 
ATOM     14  C   LIG d   1     -19.923  88.685 120.343  0.00  0.00     0.210 C 
ATOM     15  C   LIG d   1     -21.338  88.839 120.909  0.00  0.00     0.109 C 
ATOM     16  O   LIG d   1     -19.756  88.403 119.147  0.00  0.00    -0.276 OA
ATOM     17  H   LIG d   1     -19.168  89.034 122.186  0.00  0.00     0.149 HD
ENDBRANCH   6  13
BRANCH   5  18
ATOM     18  N   LIG d   1     -17.474  86.250 120.540  0.00  0.00     0.381 N 
ATOM     19  H   LIG d   1     -18.405  86.083 120.866  0.00  0.00    -0.090 HD
ATOM     20  H   LIG d   1     -16.926  85.427 120.718  0.00  0.00    -0.090 HD
ATOM     21  H   LIG d   1     -17.487  86.445 119.563  0.00  0.00    -0.090 HD
ENDBRANCH   5  18
BRANCH   3  22
ATOM     22  C   LIG d   1     -13.394  88.385 121.855  0.00  0.00     0.382 C 
ATOM     23  O   LIG d   1     -12.494  88.661 121.025  0.00  0.00    -0.241 OA
ATOM     24  O   LIG d   1     -13.080  87.948 122.978  0.00  0.00    -0.241 OA
ENDBRANCH   3  22
TORSDOF 7
ENDMDL
MODEL 8
REMARK VINA RESULT:      -4.1      2.529      3.812
REMARK  7 active torsions:
REMARK  status: ('A' for Active; 'I' for Inactive)
REMARK    1  A    between atoms: C_2  and  C_3 
REMARK    2  A    between atoms: C_3  and  O_6 
REMARK    3  A    between atoms: C_3  and  C_4 
REMARK    4  A    between atoms: C_7  and  O_6 
REMARK    5  A    between atoms: C_9  and  C_10 
REMARK    6  A    between atoms: N_15  and  C_14 
REMARK    7  A    between atoms: N_20  and  C_19 
REMARK       I    between atoms: C_22  and  N_20 
ROOT
ATOM      1  C   LIG d   1     -20.450  75.528 120.082  0.00  0.00     0.161 C 
ATOM      2  C   LIG d   1     -20.756  76.899 120.083  0.00  0.00     0.016 C 
ATOM      3  C   LIG d   1     -19.777  77.915 119.993  0.00  0.00     0.038 C 
ATOM      4  C   LIG d   1     -18.428  77.624 119.742  0.00  0.00     0.028 C 
ATOM      5  C   LIG d   1     -18.003  76.247 120.238  0.00  0.00    -0.047 C 
ATOM      6  C   LIG d   1     -18.994  75.191 119.698  0.00  0.00     0.091 C 
ENDROOT
BRANCH   1   7
ATOM      7  O   LIG d   1     -21.370  74.822 119.226  0.00  0.00    -0.368 OA
BRANCH   7   8
ATOM      8  C   LIG d   1     -22.347  73.985 119.893  0.00  0.00     0.119 C 
BRANCH   8   9
ATOM      9  C   LIG d   1     -23.703  74.713 119.828  0.00  0.00     0.028 C 
ATOM     10  C   LIG d   1     -24.079  75.374 121.164  0.00  0.00     0.006 C 
ENDBRANCH   8   9
BRANCH   8  11
ATOM     11  C   LIG d   1     -22.033  73.844 121.386  0.00  0.00     0.028 C 
ATOM     12  C   LIG d   1     -21.695  72.401 121.791  0.00  0.00     0.006 C 
ENDBRANCH   8  11
ENDBRANCH   7   8
ENDBRANCH   1   7
BRANCH   6  13
ATOM     13  N   LIG d   1     -18.700  73.825 120.205  0.00  0.00    -0.311 N 
ATOM     14  C   LIG d   1     -17.929  72.953 119.557  0.00  0.00     0.210 C 
ATOM     15  C   LIG d   1     -17.772  71.594 120.246  0.00  0.00     0.109 C 
ATOM     16  O   LIG d   1     -17.334  73.188 118.495  0.00  0.00    -0.276 OA
ATOM     17  H   LIG d   1     -19.117  73.562 121.076  0.00  0.00     0.149 HD
ENDBRANCH   6  13
BRANCH   5  18
ATOM     18  N   LIG d   1     -16.616  76.020 119.790  0.00  0.00     0.381 N 
ATOM     19  H   LIG d   1     -16.308  76.794 119.235  0.00  0.00    -0.090 HD
ATOM     20  H   LIG d   1     -16.589  75.193 119.220  0.00  0.00    -0.090 HD
ATOM     21  H   LIG d   1     -16.017  75.909 120.579  0.00  0.00    -0.090 HD
ENDBRANCH   5  18
BRANCH   3  22
ATOM     22  C   LIG d   1     -20.140  79.238 120.194  0.00  0.00     0.382 C 
ATOM     23  O   LIG d   1     -21.217  79.512 120.777  0.00  0.00    -0.241 OA
ATOM     24  O   LIG d   1     -19.425  80.162 119.760  0.00  0.00    -0.241 OA
ENDBRANCH   3  22
TORSDOF 7
ENDMDL
MODEL 9
REMARK VINA RESULT:      -4.0      2.836      5.820
REMARK  7 active torsions:
REMARK  status: ('A' for Active; 'I' for Inactive)
REMARK    1  A    between atoms: C_2  and  C_3 
REMARK    2  A    between atoms: C_3  and  O_6 
REMARK    3  A    between atoms: C_3  and  C_4 
REMARK    4  A    between atoms: C_7  and  O_6 
REMARK    5  A    between atoms: C_9  and  C_10 
REMARK    6  A    between atoms: N_15  and  C_14 
REMARK    7  A    between atoms: N_20  and  C_19 
REMARK       I    between atoms: C_22  and  N_20 
ROOT
ATOM      1  C   LIG d   1     -20.312  75.019 120.539  0.00  0.00     0.161 C 
ATOM      2  C   LIG d   1     -19.490  73.911 120.272  0.00  0.00     0.016 C 
ATOM      3  C   LIG d   1     -18.189  74.021 119.729  0.00  0.00     0.038 C 
ATOM      4  C   LIG d   1     -17.559  75.263 119.557  0.00  0.00     0.028 C 
ATOM      5  C   LIG d   1     -18.537  76.412 119.339  0.00  0.00    -0.047 C 
ATOM      6  C   LIG d   1     -19.600  76.386 120.461  0.00  0.00     0.091 C 
ENDROOT
BRANCH   1   7
ATOM      7  O   LIG d   1     -20.947  74.857 121.822  0.00  0.00    -0.368 OA
BRANCH   7   8
ATOM      8  C   LIG d   1     -22.384  74.669 121.803  0.00  0.00     0.119 C 
BRANCH   8   9
ATOM      9  C   LIG d   1     -22.671  73.241 122.307  0.00  0.00     0.028 C 
ATOM     10  C   LIG d   1     -22.906  72.249 121.156  0.00  0.00     0.006 C 
ENDBRANCH   8   9
BRANCH   8  11
ATOM     11  C   LIG d   1     -22.932  74.712 120.373  0.00  0.00     0.028 C 
ATOM     12  C   LIG d   1     -23.922  75.866 120.149  0.00  0.00     0.006 C 
ENDBRANCH   8  11
ENDBRANCH   7   8
ENDBRANCH   1   7
BRANCH   6  13
ATOM     13  N   LIG d   1     -20.645  77.427 120.277  0.00  0.00    -0.311 N 
ATOM     14  C   LIG d   1     -20.596  78.625 120.856  0.00  0.00     0.210 C 
ATOM     15  C   LIG d   1     -21.786  79.541 120.549  0.00  0.00     0.109 C 
ATOM     16  O   LIG d   1     -19.665  79.029 121.569  0.00  0.00    -0.276 OA
ATOM     17  H   LIG d   1     -21.421  77.195 119.688  0.00  0.00     0.149 HD
ENDBRANCH   6  13
BRANCH   5  18
ATOM     18  N   LIG d   1     -17.756  77.663 119.312  0.00  0.00     0.381 N 
ATOM     19  H   LIG d   1     -16.911  77.524 118.794  0.00  0.00    -0.090 HD
ATOM     20  H   LIG d   1     -17.511  77.914 120.254  0.00  0.00    -0.090 HD
ATOM     21  H   LIG d   1     -18.293  78.392 118.896  0.00  0.00    -0.090 HD
ENDBRANCH   5  18
BRANCH   3  22
ATOM     22  C   LIG d   1     -17.518  72.880 119.316  0.00  0.00     0.382 C 
ATOM     23  O   LIG d   1     -17.256  72.713 118.100  0.00  0.00    -0.241 OA
ATOM     24  O   LIG d   1     -17.212  71.994 120.136  0.00  0.00    -0.241 OA
ENDBRANCH   3  22
TORSDOF 7
ENDMDL
