MODEL 1
REMARK VINA RESULT:      -4.7      0.000      0.000
REMARK  7 active torsions:
REMARK  status: ('A' for Active; 'I' for Inactive)
REMARK    1  A    between atoms: C_2  and  C_3 
REMARK    2  A    between atoms: C_3  and  O_6 
REMARK    3  A    between atoms: C_3  and  C_4 
REMARK    4  A    between atoms: C_7  and  O_6 
REMARK    5  A    between atoms: C_9  and  C_10 
REMARK    6  A    between atoms: N_15  and  C_14 
REMARK    7  A    between atoms: N_20  and  C_19 
REMARK       I    between atoms: C_22  and  N_20 
ROOT
ATOM      1  C   LIG d   1       0.532  59.406 118.663  0.00  0.00     0.161 C 
ATOM      2  C   LIG d   1       1.750  59.479 117.966  0.00  0.00     0.016 C 
ATOM      3  C   LIG d   1       2.995  59.708 118.596  0.00  0.00     0.038 C 
ATOM      4  C   LIG d   1       3.127  59.729 119.992  0.00  0.00     0.028 C 
ATOM      5  C   LIG d   1       1.855  60.163 120.714  0.00  0.00    -0.047 C 
ATOM      6  C   LIG d   1       0.670  59.316 120.198  0.00  0.00     0.091 C 
ENDROOT
BRANCH   1   7
ATOM      7  O   LIG d   1      -0.251  58.304 118.165  0.00  0.00    -0.368 OA
BRANCH   7   8
ATOM      8  C   LIG d   1      -1.263  58.634 117.182  0.00  0.00     0.119 C 
BRANCH   8   9
ATOM      9  C   LIG d   1      -1.737  60.072 117.471  0.00  0.00     0.028 C 
ATOM     10  C   LIG d   1      -3.269  60.203 117.436  0.00  0.00     0.006 C 
ENDBRANCH   8   9
BRANCH   8  11
ATOM     11  C   LIG d   1      -2.507  57.756 117.348  0.00  0.00     0.028 C 
ATOM     12  C   LIG d   1      -2.346  56.694 118.447  0.00  0.00     0.006 C 
ENDBRANCH   8  11
ENDBRANCH   7   8
ENDBRANCH   1   7
BRANCH   6  13
ATOM     13  N   LIG d   1      -0.626  59.734 120.791  0.00  0.00    -0.311 N 
ATOM     14  C   LIG d   1      -1.451  58.894 121.415  0.00  0.00     0.210 C 
ATOM     15  C   LIG d   1      -2.745  59.527 121.936  0.00  0.00     0.109 C 
ATOM     16  O   LIG d   1      -1.219  57.693 121.616  0.00  0.00    -0.276 OA
ATOM     17  H   LIG d   1      -0.879  60.698 120.702  0.00  0.00     0.149 HD
ENDBRANCH   6  13
BRANCH   5  18
ATOM     18  N   LIG d   1       2.090  60.008 122.162  0.00  0.00     0.381 N 
ATOM     19  H   LIG d   1       2.966  60.422 122.410  0.00  0.00    -0.090 HD
ATOM     20  H   LIG d   1       2.131  59.028 122.381  0.00  0.00    -0.090 HD
ATOM     21  H   LIG d   1       1.353  60.440 122.675  0.00  0.00    -0.090 HD
ENDBRANCH   5  18
BRANCH   3  22
ATOM     22  C   LIG d   1       4.119  59.959 117.824  0.00  0.00     0.382 C 
ATOM     23  O   LIG d   1       4.658  59.027 117.180  0.00  0.00    -0.241 OA
ATOM     24  O   LIG d   1       4.628  61.096 117.800  0.00  0.00    -0.241 OA
ENDBRANCH   3  22
TORSDOF 7
ENDMDL
MODEL 2
REMARK VINA RESULT:      -4.4     34.732     36.073
REMARK  7 active torsions:
REMARK  status: ('A' for Active; 'I' for Inactive)
REMARK    1  A    between atoms: C_2  and  C_3 
REMARK    2  A    between atoms: C_3  and  O_6 
REMARK    3  A    between atoms: C_3  and  C_4 
REMARK    4  A    between atoms: C_7  and  O_6 
REMARK    5  A    between atoms: C_9  and  C_10 
REMARK    6  A    between atoms: N_15  and  C_14 
REMARK    7  A    between atoms: N_20  and  C_19 
REMARK       I    between atoms: C_22  and  N_20 
ROOT
ATOM      1  C   LIG d   1      -5.355  94.199 120.136  0.00  0.00     0.161 C 
ATOM      2  C   LIG d   1      -6.582  93.524 120.246  0.00  0.00     0.016 C 
ATOM      3  C   LIG d   1      -7.831  94.184 120.312  0.00  0.00     0.038 C 
ATOM      4  C   LIG d   1      -7.948  95.569 120.118  0.00  0.00     0.028 C 
ATOM      5  C   LIG d   1      -6.694  96.343 120.508  0.00  0.00    -0.047 C 
ATOM      6  C   LIG d   1      -5.472  95.703 119.812  0.00  0.00     0.091 C 
ENDROOT
BRANCH   1   7
ATOM      7  O   LIG d   1      -4.521  93.540 119.163  0.00  0.00    -0.368 OA
BRANCH   7   8
ATOM      8  C   LIG d   1      -4.419  92.099 119.282  0.00  0.00     0.119 C 
BRANCH   8   9
ATOM      9  C   LIG d   1      -3.044  91.781 119.899  0.00  0.00     0.028 C 
ATOM     10  C   LIG d   1      -2.020  91.324 118.846  0.00  0.00     0.006 C 
ENDBRANCH   8   9
BRANCH   8  11
ATOM     11  C   LIG d   1      -4.412  91.426 117.906  0.00  0.00     0.028 C 
ATOM     12  C   LIG d   1      -5.812  91.340 117.277  0.00  0.00     0.006 C 
ENDBRANCH   8  11
ENDBRANCH   7   8
ENDBRANCH   1   7
BRANCH   6  13
ATOM     13  N   LIG d   1      -4.192  96.348 120.206  0.00  0.00    -0.311 N 
ATOM     14  C   LIG d   1      -3.582  97.276 119.470  0.00  0.00     0.210 C 
ATOM     15  C   LIG d   1      -2.263  97.796 120.050  0.00  0.00     0.109 C 
ATOM     16  O   LIG d   1      -4.024  97.740 118.409  0.00  0.00    -0.276 OA
ATOM     17  H   LIG d   1      -3.779  96.053 121.069  0.00  0.00     0.149 HD
ENDBRANCH   6  13
BRANCH   5  18
ATOM     18  N   LIG d   1      -6.904  97.753 120.127  0.00  0.00     0.381 N 
ATOM     19  H   LIG d   1      -6.409  98.351 120.758  0.00  0.00    -0.090 HD
ATOM     20  H   LIG d   1      -7.884  97.965 120.194  0.00  0.00    -0.090 HD
ATOM     21  H   LIG d   1      -6.587  97.905 119.195  0.00  0.00    -0.090 HD
ENDBRANCH   5  18
BRANCH   3  22
ATOM     22  C   LIG d   1      -8.975  93.462 120.613  0.00  0.00     0.382 C 
ATOM     23  O   LIG d   1      -9.891  93.353 119.762  0.00  0.00    -0.241 OA
ATOM     24  O   LIG d   1      -9.123  92.955 121.741  0.00  0.00    -0.241 OA
ENDBRANCH   3  22
TORSDOF 7
ENDMDL
MODEL 3
REMARK VINA RESULT:      -4.3     20.827     22.484
REMARK  7 active torsions:
REMARK  status: ('A' for Active; 'I' for Inactive)
REMARK    1  A    between atoms: C_2  and  C_3 
REMARK    2  A    between atoms: C_3  and  O_6 
REMARK    3  A    between atoms: C_3  and  C_4 
REMARK    4  A    between atoms: C_7  and  O_6 
REMARK    5  A    between atoms: C_9  and  C_10 
REMARK    6  A    between atoms: N_15  and  C_14 
REMARK    7  A    between atoms: N_20  and  C_19 
REMARK       I    between atoms: C_22  and  N_20 
ROOT
ATOM      1  C   LIG d   1      -7.189  79.358 118.705  0.00  0.00     0.161 C 
ATOM      2  C   LIG d   1      -7.513  78.100 118.170  0.00  0.00     0.016 C 
ATOM      3  C   LIG d   1      -8.786  77.501 118.308  0.00  0.00     0.038 C 
ATOM      4  C   LIG d   1      -9.874  78.190 118.864  0.00  0.00     0.028 C 
ATOM      5  C   LIG d   1      -9.463  79.263 119.866  0.00  0.00    -0.047 C 
ATOM      6  C   LIG d   1      -8.395  80.173 119.218  0.00  0.00     0.091 C 
ENDROOT
BRANCH   1   7
ATOM      7  O   LIG d   1      -6.443  80.123 117.737  0.00  0.00    -0.368 OA
BRANCH   7   8
ATOM      8  C   LIG d   1      -5.076  80.444 118.095  0.00  0.00     0.119 C 
BRANCH   8   9
ATOM      9  C   LIG d   1      -4.848  81.932 117.766  0.00  0.00     0.028 C 
ATOM     10  C   LIG d   1      -4.242  82.708 118.947  0.00  0.00     0.006 C 
ENDBRANCH   8   9
BRANCH   8  11
ATOM     11  C   LIG d   1      -4.077  79.678 117.223  0.00  0.00     0.028 C 
ATOM     12  C   LIG d   1      -3.154  78.760 118.039  0.00  0.00     0.006 C 
ENDBRANCH   8  11
ENDBRANCH   7   8
ENDBRANCH   1   7
BRANCH   6  13
ATOM     13  N   LIG d   1      -7.877  81.199 120.160  0.00  0.00    -0.311 N 
ATOM     14  C   LIG d   1      -7.884  82.505 119.898  0.00  0.00     0.210 C 
ATOM     15  C   LIG d   1      -7.284  83.388 120.997  0.00  0.00     0.109 C 
ATOM     16  O   LIG d   1      -8.360  83.018 118.875  0.00  0.00    -0.276 OA
ATOM     17  H   LIG d   1      -7.500  80.872 121.028  0.00  0.00     0.149 HD
ENDBRANCH   6  13
BRANCH   5  18
ATOM     18  N   LIG d   1     -10.682  79.994 120.262  0.00  0.00     0.381 N 
ATOM     19  H   LIG d   1     -10.740  80.041 121.259  0.00  0.00    -0.090 HD
ATOM     20  H   LIG d   1     -11.485  79.493 119.923  0.00  0.00    -0.090 HD
ATOM     21  H   LIG d   1     -10.668  80.913 119.878  0.00  0.00    -0.090 HD
ENDBRANCH   5  18
BRANCH   3  22
ATOM     22  C   LIG d   1      -8.969  76.181 117.923  0.00  0.00     0.382 C 
ATOM     23  O   LIG d   1     -10.118  75.676 117.942  0.00  0.00    -0.241 OA
ATOM     24  O   LIG d   1      -7.995  75.477 117.598  0.00  0.00    -0.241 OA
ENDBRANCH   3  22
TORSDOF 7
ENDMDL
MODEL 4
REMARK VINA RESULT:      -4.3     22.016     23.663
REMARK  7 active torsions:
REMARK  status: ('A' for Active; 'I' for Inactive)
REMARK    1  A    between atoms: C_2  and  C_3 
REMARK    2  A    between atoms: C_3  and  O_6 
REMARK    3  A    between atoms: C_3  and  C_4 
REMARK    4  A    between atoms: C_7  and  O_6 
REMARK    5  A    between atoms: C_9  and  C_10 
REMARK    6  A    between atoms: N_15  and  C_14 
REMARK    7  A    between atoms: N_20  and  C_19 
REMARK       I    between atoms: C_22  and  N_20 
ROOT
ATOM      1  C   LIG d   1      -7.647  80.646 119.711  0.00  0.00     0.161 C 
ATOM      2  C   LIG d   1      -8.075  79.346 119.395  0.00  0.00     0.016 C 
ATOM      3  C   LIG d   1      -9.246  79.071 118.653  0.00  0.00     0.038 C 
ATOM      4  C   LIG d   1      -9.994  80.089 118.043  0.00  0.00     0.028 C 
ATOM      5  C   LIG d   1      -9.884  81.432 118.757  0.00  0.00    -0.047 C 
ATOM      6  C   LIG d   1      -8.389  81.772 118.960  0.00  0.00     0.091 C 
ENDROOT
BRANCH   1   7
ATOM      7  O   LIG d   1      -6.226  80.758 119.502  0.00  0.00    -0.368 OA
BRANCH   7   8
ATOM      8  C   LIG d   1      -5.789  80.852 118.124  0.00  0.00     0.119 C 
BRANCH   8   9
ATOM      9  C   LIG d   1      -4.881  79.639 117.842  0.00  0.00     0.028 C 
ATOM     10  C   LIG d   1      -4.284  79.042 119.127  0.00  0.00     0.006 C 
ENDBRANCH   8   9
BRANCH   8  11
ATOM     11  C   LIG d   1      -4.904  82.082 117.903  0.00  0.00     0.028 C 
ATOM     12  C   LIG d   1      -4.622  82.854 119.201  0.00  0.00     0.006 C 
ENDBRANCH   8  11
ENDBRANCH   7   8
ENDBRANCH   1   7
BRANCH   6  13
ATOM     13  N   LIG d   1      -8.193  83.030 119.726  0.00  0.00    -0.311 N 
ATOM     14  C   LIG d   1      -8.728  83.248 120.926  0.00  0.00     0.210 C 
ATOM     15  C   LIG d   1      -8.417  84.620 121.533  0.00  0.00     0.109 C 
ATOM     16  O   LIG d   1      -9.405  82.424 121.560  0.00  0.00    -0.276 OA
ATOM     17  H   LIG d   1      -7.632  83.741 119.300  0.00  0.00     0.149 HD
ENDBRANCH   6  13
BRANCH   5  18
ATOM     18  N   LIG d   1     -10.598  82.431 117.940  0.00  0.00     0.381 N 
ATOM     19  H   LIG d   1     -10.497  82.210 116.969  0.00  0.00    -0.090 HD
ATOM     20  H   LIG d   1     -10.189  83.335 118.101  0.00  0.00    -0.090 HD
ATOM     21  H   LIG d   1     -11.563  82.447 118.186  0.00  0.00    -0.090 HD
ENDBRANCH   5  18
BRANCH   3  22
ATOM     22  C   LIG d   1      -9.703  77.766 118.548  0.00  0.00     0.382 C 
ATOM     23  O   LIG d   1      -8.952  76.874 118.085  0.00  0.00    -0.241 OA
ATOM     24  O   LIG d   1     -10.871  77.478 118.870  0.00  0.00    -0.241 OA
ENDBRANCH   3  22
TORSDOF 7
ENDMDL
MODEL 5
REMARK VINA RESULT:      -4.3     22.361     23.966
REMARK  7 active torsions:
REMARK  status: ('A' for Active; 'I' for Inactive)
REMARK    1  A    between atoms: C_2  and  C_3 
REMARK    2  A    between atoms: C_3  and  O_6 
REMARK    3  A    between atoms: C_3  and  C_4 
REMARK    4  A    between atoms: C_7  and  O_6 
REMARK    5  A    between atoms: C_9  and  C_10 
REMARK    6  A    between atoms: N_15  and  C_14 
REMARK    7  A    between atoms: N_20  and  C_19 
REMARK       I    between atoms: C_22  and  N_20 
ROOT
ATOM      1  C   LIG d   1      -8.394  80.696 120.680  0.00  0.00     0.161 C 
ATOM      2  C   LIG d   1      -8.613  79.477 120.018  0.00  0.00     0.016 C 
ATOM      3  C   LIG d   1      -9.800  78.720 120.154  0.00  0.00     0.038 C 
ATOM      4  C   LIG d   1     -10.916  79.209 120.848  0.00  0.00     0.028 C 
ATOM      5  C   LIG d   1     -10.558  80.204 121.948  0.00  0.00    -0.047 C 
ATOM      6  C   LIG d   1      -9.644  81.300 121.354  0.00  0.00     0.091 C 
ENDROOT
BRANCH   1   7
ATOM      7  O   LIG d   1      -7.806  81.647 119.771  0.00  0.00    -0.368 OA
BRANCH   7   8
ATOM      8  C   LIG d   1      -7.772  81.258 118.376  0.00  0.00     0.119 C 
BRANCH   8   9
ATOM      9  C   LIG d   1      -6.349  81.535 117.852  0.00  0.00     0.028 C 
ATOM     10  C   LIG d   1      -5.411  80.330 118.037  0.00  0.00     0.006 C 
ENDBRANCH   8   9
BRANCH   8  11
ATOM     11  C   LIG d   1      -8.694  82.139 117.528  0.00  0.00     0.028 C 
ATOM     12  C   LIG d   1     -10.093  81.530 117.340  0.00  0.00     0.006 C 
ENDBRANCH   8  11
ENDBRANCH   7   8
ENDBRANCH   1   7
BRANCH   6  13
ATOM     13  N   LIG d   1      -9.178  82.268 122.381  0.00  0.00    -0.311 N 
ATOM     14  C   LIG d   1      -9.506  83.558 122.375  0.00  0.00     0.210 C 
ATOM     15  C   LIG d   1      -8.902  84.385 123.515  0.00  0.00     0.109 C 
ATOM     16  O   LIG d   1     -10.266  84.091 121.552  0.00  0.00    -0.276 OA
ATOM     17  H   LIG d   1      -8.582  81.914 123.104  0.00  0.00     0.149 HD
ENDBRANCH   6  13
BRANCH   5  18
ATOM     18  N   LIG d   1     -11.819  80.737 122.495  0.00  0.00     0.381 N 
ATOM     19  H   LIG d   1     -12.211  81.402 121.859  0.00  0.00    -0.090 HD
ATOM     20  H   LIG d   1     -11.625  81.206 123.362  0.00  0.00    -0.090 HD
ATOM     21  H   LIG d   1     -12.465  79.993 122.650  0.00  0.00    -0.090 HD
ENDBRANCH   5  18
BRANCH   3  22
ATOM     22  C   LIG d   1      -9.863  77.440 119.625  0.00  0.00     0.382 C 
ATOM     23  O   LIG d   1     -10.555  77.218 118.602  0.00  0.00    -0.241 OA
ATOM     24  O   LIG d   1      -9.272  76.495 120.183  0.00  0.00    -0.241 OA
ENDBRANCH   3  22
TORSDOF 7
ENDMDL
MODEL 6
REMARK VINA RESULT:      -4.3     20.567     22.314
REMARK  7 active torsions:
REMARK  status: ('A' for Active; 'I' for Inactive)
REMARK    1  A    between atoms: C_2  and  C_3 
REMARK    2  A    between atoms: C_3  and  O_6 
REMARK    3  A    between atoms: C_3  and  C_4 
REMARK    4  A    between atoms: C_7  and  O_6 
REMARK    5  A    between atoms: C_9  and  C_10 
REMARK    6  A    between atoms: N_15  and  C_14 
REMARK    7  A    between atoms: N_20  and  C_19 
REMARK       I    between atoms: C_22  and  N_20 
ROOT
ATOM      1  C   LIG d   1      -7.445  79.598 118.347  0.00  0.00     0.161 C 
ATOM      2  C   LIG d   1      -8.536  78.721 118.472  0.00  0.00     0.016 C 
ATOM      3  C   LIG d   1      -8.423  77.317 118.351  0.00  0.00     0.038 C 
ATOM      4  C   LIG d   1      -7.178  76.679 118.246  0.00  0.00     0.028 C 
ATOM      5  C   LIG d   1      -6.102  77.553 117.611  0.00  0.00    -0.047 C 
ATOM      6  C   LIG d   1      -6.062  78.913 118.344  0.00  0.00     0.091 C 
ENDROOT
BRANCH   1   7
ATOM      7  O   LIG d   1      -7.505  80.602 119.379  0.00  0.00    -0.368 OA
BRANCH   7   8
ATOM      8  C   LIG d   1      -7.733  81.961 118.934  0.00  0.00     0.119 C 
BRANCH   8   9
ATOM      9  C   LIG d   1      -6.947  82.895 119.876  0.00  0.00     0.028 C 
ATOM     10  C   LIG d   1      -7.822  83.454 121.011  0.00  0.00     0.006 C 
ENDBRANCH   8   9
BRANCH   8  11
ATOM     11  C   LIG d   1      -9.202  82.363 119.098  0.00  0.00     0.028 C 
ATOM     12  C   LIG d   1     -10.014  82.192 117.804  0.00  0.00     0.006 C 
ENDBRANCH   8  11
ENDBRANCH   7   8
ENDBRANCH   1   7
BRANCH   6  13
ATOM     13  N   LIG d   1      -5.093  79.859 117.731  0.00  0.00    -0.311 N 
ATOM     14  C   LIG d   1      -4.232  80.588 118.439  0.00  0.00     0.210 C 
ATOM     15  C   LIG d   1      -3.336  81.514 117.612  0.00  0.00     0.109 C 
ATOM     16  O   LIG d   1      -4.103  80.531 119.671  0.00  0.00    -0.276 OA
ATOM     17  H   LIG d   1      -5.108  79.945 116.733  0.00  0.00     0.149 HD
ENDBRANCH   6  13
BRANCH   5  18
ATOM     18  N   LIG d   1      -4.826  76.816 117.690  0.00  0.00     0.381 N 
ATOM     19  H   LIG d   1      -4.987  75.841 117.532  0.00  0.00    -0.090 HD
ATOM     20  H   LIG d   1      -4.444  76.927 118.613  0.00  0.00    -0.090 HD
ATOM     21  H   LIG d   1      -4.186  77.169 117.013  0.00  0.00    -0.090 HD
ENDBRANCH   5  18
BRANCH   3  22
ATOM     22  C   LIG d   1      -9.569  76.538 118.294  0.00  0.00     0.382 C 
ATOM     23  O   LIG d   1     -10.696  77.068 118.448  0.00  0.00    -0.241 OA
ATOM     24  O   LIG d   1      -9.488  75.306 118.134  0.00  0.00    -0.241 OA
ENDBRANCH   3  22
TORSDOF 7
ENDMDL
MODEL 7
REMARK VINA RESULT:      -4.2     34.188     35.380
REMARK  7 active torsions:
REMARK  status: ('A' for Active; 'I' for Inactive)
REMARK    1  A    between atoms: C_2  and  C_3 
REMARK    2  A    between atoms: C_3  and  O_6 
REMARK    3  A    between atoms: C_3  and  C_4 
REMARK    4  A    between atoms: C_7  and  O_6 
REMARK    5  A    between atoms: C_9  and  C_10 
REMARK    6  A    between atoms: N_15  and  C_14 
REMARK    7  A    between atoms: N_20  and  C_19 
REMARK       I    between atoms: C_22  and  N_20 
ROOT
ATOM      1  C   LIG d   1      -4.699  93.856 120.583  0.00  0.00     0.161 C 
ATOM      2  C   LIG d   1      -3.398  93.535 120.162  0.00  0.00     0.016 C 
ATOM      3  C   LIG d   1      -3.122  92.668 119.080  0.00  0.00     0.038 C 
ATOM      4  C   LIG d   1      -4.138  92.180 118.243  0.00  0.00     0.028 C 
ATOM      5  C   LIG d   1      -5.492  92.072 118.935  0.00  0.00    -0.047 C 
ATOM      6  C   LIG d   1      -5.819  93.422 119.614  0.00  0.00     0.091 C 
ENDROOT
BRANCH   1   7
ATOM      7  O   LIG d   1      -4.791  95.269 120.852  0.00  0.00    -0.368 OA
BRANCH   7   8
ATOM      8  C   LIG d   1      -5.115  96.114 119.721  0.00  0.00     0.119 C 
BRANCH   8   9
ATOM      9  C   LIG d   1      -3.895  97.016 119.452  0.00  0.00     0.028 C 
ATOM     10  C   LIG d   1      -3.100  97.325 120.732  0.00  0.00     0.006 C 
ENDBRANCH   8   9
BRANCH   8  11
ATOM     11  C   LIG d   1      -6.263  97.073 120.052  0.00  0.00     0.028 C 
ATOM     12  C   LIG d   1      -6.851  96.837 121.452  0.00  0.00     0.006 C 
ENDBRANCH   8  11
ENDBRANCH   7   8
ENDBRANCH   1   7
BRANCH   6  13
ATOM     13  N   LIG d   1      -7.089  93.376 120.384  0.00  0.00    -0.311 N 
ATOM     14  C   LIG d   1      -8.271  93.709 119.869  0.00  0.00     0.210 C 
ATOM     15  C   LIG d   1      -9.451  93.610 120.841  0.00  0.00     0.109 C 
ATOM     16  O   LIG d   1      -8.460  94.045 118.690  0.00  0.00    -0.276 OA
ATOM     17  H   LIG d   1      -7.032  93.085 121.340  0.00  0.00     0.149 HD
ENDBRANCH   6  13
BRANCH   5  18
ATOM     18  N   LIG d   1      -6.484  91.683 117.914  0.00  0.00     0.381 N 
ATOM     19  H   LIG d   1      -6.809  90.754 118.094  0.00  0.00    -0.090 HD
ATOM     20  H   LIG d   1      -6.043  91.694 117.012  0.00  0.00    -0.090 HD
ATOM     21  H   LIG d   1      -7.251  92.319 117.925  0.00  0.00    -0.090 HD
ENDBRANCH   5  18
BRANCH   3  22
ATOM     22  C   LIG d   1      -1.821  92.249 118.849  0.00  0.00     0.382 C 
ATOM     23  O   LIG d   1      -1.405  91.183 119.363  0.00  0.00    -0.241 OA
ATOM     24  O   LIG d   1      -1.044  92.947 118.169  0.00  0.00    -0.241 OA
ENDBRANCH   3  22
TORSDOF 7
ENDMDL
MODEL 8
REMARK VINA RESULT:      -4.1     22.521     24.085
REMARK  7 active torsions:
REMARK  status: ('A' for Active; 'I' for Inactive)
REMARK    1  A    between atoms: C_2  and  C_3 
REMARK    2  A    between atoms: C_3  and  O_6 
REMARK    3  A    between atoms: C_3  and  C_4 
REMARK    4  A    between atoms: C_7  and  O_6 
REMARK    5  A    between atoms: C_9  and  C_10 
REMARK    6  A    between atoms: N_15  and  C_14 
REMARK    7  A    between atoms: N_20  and  C_19 
REMARK       I    between atoms: C_22  and  N_20 
ROOT
ATOM      1  C   LIG d   1      -7.977  80.522 120.925  0.00  0.00     0.161 C 
ATOM      2  C   LIG d   1      -8.935  81.365 121.512  0.00  0.00     0.016 C 
ATOM      3  C   LIG d   1      -8.948  82.768 121.338  0.00  0.00     0.038 C 
ATOM      4  C   LIG d   1      -8.087  83.411 120.437  0.00  0.00     0.028 C 
ATOM      5  C   LIG d   1      -6.779  82.662 120.209  0.00  0.00    -0.047 C 
ATOM      6  C   LIG d   1      -7.098  81.193 119.849  0.00  0.00     0.091 C 
ENDROOT
BRANCH   1   7
ATOM      7  O   LIG d   1      -8.622  79.351 120.386  0.00  0.00    -0.368 OA
BRANCH   7   8
ATOM      8  C   LIG d   1      -9.959  79.544 119.861  0.00  0.00     0.119 C 
BRANCH   8   9
ATOM      9  C   LIG d   1     -10.772  78.276 120.188  0.00  0.00     0.028 C 
ATOM     10  C   LIG d   1     -11.398  78.326 121.592  0.00  0.00     0.006 C 
ENDBRANCH   8   9
BRANCH   8  11
ATOM     11  C   LIG d   1      -9.949  79.636 118.333  0.00  0.00     0.028 C 
ATOM     12  C   LIG d   1     -10.288  81.044 117.819  0.00  0.00     0.006 C 
ENDBRANCH   8  11
ENDBRANCH   7   8
ENDBRANCH   1   7
BRANCH   6  13
ATOM     13  N   LIG d   1      -5.871  80.368 119.693  0.00  0.00    -0.311 N 
ATOM     14  C   LIG d   1      -5.234  80.216 118.533  0.00  0.00     0.210 C 
ATOM     15  C   LIG d   1      -4.001  79.308 118.588  0.00  0.00     0.109 C 
ATOM     16  O   LIG d   1      -5.553  80.772 117.472  0.00  0.00    -0.276 OA
ATOM     17  H   LIG d   1      -5.525  79.906 120.511  0.00  0.00     0.149 HD
ENDBRANCH   6  13
BRANCH   5  18
ATOM     18  N   LIG d   1      -6.039  83.370 119.147  0.00  0.00     0.381 N 
ATOM     19  H   LIG d   1      -6.518  83.268 118.275  0.00  0.00    -0.090 HD
ATOM     20  H   LIG d   1      -5.127  82.957 119.056  0.00  0.00    -0.090 HD
ATOM     21  H   LIG d   1      -5.953  84.335 119.377  0.00  0.00    -0.090 HD
ENDBRANCH   5  18
BRANCH   3  22
ATOM     22  C   LIG d   1      -9.804  83.547 122.102  0.00  0.00     0.382 C 
ATOM     23  O   LIG d   1     -10.251  83.108 123.189  0.00  0.00    -0.241 OA
ATOM     24  O   LIG d   1     -10.170  84.667 121.697  0.00  0.00    -0.241 OA
ENDBRANCH   3  22
TORSDOF 7
ENDMDL
MODEL 9
REMARK VINA RESULT:      -4.1     33.847     35.038
REMARK  7 active torsions:
REMARK  status: ('A' for Active; 'I' for Inactive)
REMARK    1  A    between atoms: C_2  and  C_3 
REMARK    2  A    between atoms: C_3  and  O_6 
REMARK    3  A    between atoms: C_3  and  C_4 
REMARK    4  A    between atoms: C_7  and  O_6 
REMARK    5  A    between atoms: C_9  and  C_10 
REMARK    6  A    between atoms: N_15  and  C_14 
REMARK    7  A    between atoms: N_20  and  C_19 
REMARK       I    between atoms: C_22  and  N_20 
ROOT
ATOM      1  C   LIG d   1      -3.745  93.150 120.669  0.00  0.00     0.161 C 
ATOM      2  C   LIG d   1      -3.060  92.338 119.749  0.00  0.00     0.016 C 
ATOM      3  C   LIG d   1      -3.672  91.765 118.611  0.00  0.00     0.038 C 
ATOM      4  C   LIG d   1      -4.983  92.089 118.231  0.00  0.00     0.028 C 
ATOM      5  C   LIG d   1      -5.868  92.502 119.402  0.00  0.00    -0.047 C 
ATOM      6  C   LIG d   1      -5.147  93.604 120.211  0.00  0.00     0.091 C 
ENDROOT
BRANCH   1   7
ATOM      7  O   LIG d   1      -2.935  94.291 121.012  0.00  0.00    -0.368 OA
BRANCH   7   8
ATOM      8  C   LIG d   1      -2.730  95.266 119.960  0.00  0.00     0.119 C 
BRANCH   8   9
ATOM      9  C   LIG d   1      -1.223  95.585 119.912  0.00  0.00     0.028 C 
ATOM     10  C   LIG d   1      -0.522  94.934 118.708  0.00  0.00     0.006 C 
ENDBRANCH   8   9
BRANCH   8  11
ATOM     11  C   LIG d   1      -3.415  96.595 120.290  0.00  0.00     0.028 C 
ATOM     12  C   LIG d   1      -4.000  97.288 119.049  0.00  0.00     0.006 C 
ENDBRANCH   8  11
ENDBRANCH   7   8
ENDBRANCH   1   7
BRANCH   6  13
ATOM     13  N   LIG d   1      -5.907  94.007 121.423  0.00  0.00    -0.311 N 
ATOM     14  C   LIG d   1      -6.725  95.057 121.460  0.00  0.00     0.210 C 
ATOM     15  C   LIG d   1      -7.395  95.307 122.815  0.00  0.00     0.109 C 
ATOM     16  O   LIG d   1      -6.984  95.786 120.491  0.00  0.00    -0.276 OA
ATOM     17  H   LIG d   1      -5.780  93.452 122.247  0.00  0.00     0.149 HD
ENDBRANCH   6  13
BRANCH   5  18
ATOM     18  N   LIG d   1      -7.162  92.944 118.849  0.00  0.00     0.381 N 
ATOM     19  H   LIG d   1      -7.843  92.996 119.580  0.00  0.00    -0.090 HD
ATOM     20  H   LIG d   1      -7.475  92.268 118.174  0.00  0.00    -0.090 HD
ATOM     21  H   LIG d   1      -7.061  93.835 118.414  0.00  0.00    -0.090 HD
ENDBRANCH   5  18
BRANCH   3  22
ATOM     22  C   LIG d   1      -2.982  90.824 117.861  0.00  0.00     0.382 C 
ATOM     23  O   LIG d   1      -1.776  91.014 117.572  0.00  0.00    -0.241 OA
ATOM     24  O   LIG d   1      -3.563  89.809 117.432  0.00  0.00    -0.241 OA
ENDBRANCH   3  22
TORSDOF 7
ENDMDL
