MODEL 1
REMARK VINA RESULT:      -4.9      0.000      0.000
REMARK  7 active torsions:
REMARK  status: ('A' for Active; 'I' for Inactive)
REMARK    1  A    between atoms: C_2  and  C_3 
REMARK    2  A    between atoms: C_3  and  O_6 
REMARK    3  A    between atoms: C_3  and  C_4 
REMARK    4  A    between atoms: C_7  and  O_6 
REMARK    5  A    between atoms: C_9  and  C_10 
REMARK    6  A    between atoms: N_15  and  C_14 
REMARK    7  A    between atoms: N_20  and  C_19 
REMARK       I    between atoms: C_22  and  N_20 
ROOT
ATOM      1  C   LIG d   1      -2.605  58.307 121.246  0.00  0.00     0.161 C 
ATOM      2  C   LIG d   1      -3.233  57.402 120.375  0.00  0.00     0.016 C 
ATOM      3  C   LIG d   1      -4.352  57.738 119.578  0.00  0.00     0.038 C 
ATOM      4  C   LIG d   1      -4.829  59.054 119.486  0.00  0.00     0.028 C 
ATOM      5  C   LIG d   1      -4.543  59.890 120.729  0.00  0.00    -0.047 C 
ATOM      6  C   LIG d   1      -3.041  59.778 121.076  0.00  0.00     0.091 C 
ENDROOT
BRANCH   1   7
ATOM      7  O   LIG d   1      -1.173  58.192 121.121  0.00  0.00    -0.368 OA
BRANCH   7   8
ATOM      8  C   LIG d   1      -0.670  57.913 119.792  0.00  0.00     0.119 C 
BRANCH   8   9
ATOM      9  C   LIG d   1       0.354  56.768 119.916  0.00  0.00     0.028 C 
ATOM     10  C   LIG d   1       0.746  56.487 121.376  0.00  0.00     0.006 C 
ENDBRANCH   8   9
BRANCH   8  11
ATOM     11  C   LIG d   1       0.117  59.102 119.233  0.00  0.00     0.028 C 
ATOM     12  C   LIG d   1       1.201  58.680 118.228  0.00  0.00     0.006 C 
ENDBRANCH   8  11
ENDBRANCH   7   8
ENDBRANCH   1   7
BRANCH   6  13
ATOM     13  N   LIG d   1      -2.693  60.498 122.328  0.00  0.00    -0.311 N 
ATOM     14  C   LIG d   1      -1.678  61.355 122.422  0.00  0.00     0.210 C 
ATOM     15  C   LIG d   1      -1.481  61.973 123.810  0.00  0.00     0.109 C 
ATOM     16  O   LIG d   1      -0.942  61.687 121.481  0.00  0.00    -0.276 OA
ATOM     17  H   LIG d   1      -3.258  60.312 123.133  0.00  0.00     0.149 HD
ENDBRANCH   6  13
BRANCH   5  18
ATOM     18  N   LIG d   1      -4.969  61.273 120.443  0.00  0.00     0.381 N 
ATOM     19  H   LIG d   1      -4.232  61.765 119.980  0.00  0.00    -0.090 HD
ATOM     20  H   LIG d   1      -5.163  61.739 121.312  0.00  0.00    -0.090 HD
ATOM     21  H   LIG d   1      -5.785  61.267 119.872  0.00  0.00    -0.090 HD
ENDBRANCH   5  18
BRANCH   3  22
ATOM     22  C   LIG d   1      -5.032  56.742 118.894  0.00  0.00     0.382 C 
ATOM     23  O   LIG d   1      -4.678  56.426 117.732  0.00  0.00    -0.241 OA
ATOM     24  O   LIG d   1      -6.022  56.185 119.406  0.00  0.00    -0.241 OA
ENDBRANCH   3  22
TORSDOF 7
ENDMDL
MODEL 2
REMARK VINA RESULT:      -4.6      3.364      5.784
REMARK  7 active torsions:
REMARK  status: ('A' for Active; 'I' for Inactive)
REMARK    1  A    between atoms: C_2  and  C_3 
REMARK    2  A    between atoms: C_3  and  O_6 
REMARK    3  A    between atoms: C_3  and  C_4 
REMARK    4  A    between atoms: C_7  and  O_6 
REMARK    5  A    between atoms: C_9  and  C_10 
REMARK    6  A    between atoms: N_15  and  C_14 
REMARK    7  A    between atoms: N_20  and  C_19 
REMARK       I    between atoms: C_22  and  N_20 
ROOT
ATOM      1  C   LIG d   1      -4.502  58.190 121.183  0.00  0.00     0.161 C 
ATOM      2  C   LIG d   1      -4.943  58.464 122.488  0.00  0.00     0.016 C 
ATOM      3  C   LIG d   1      -4.993  57.491 123.513  0.00  0.00     0.038 C 
ATOM      4  C   LIG d   1      -4.460  56.205 123.341  0.00  0.00     0.028 C 
ATOM      5  C   LIG d   1      -4.468  55.735 121.890  0.00  0.00    -0.047 C 
ATOM      6  C   LIG d   1      -3.812  56.821 121.007  0.00  0.00     0.091 C 
ENDROOT
BRANCH   1   7
ATOM      7  O   LIG d   1      -3.637  59.250 120.728  0.00  0.00    -0.368 OA
BRANCH   7   8
ATOM      8  C   LIG d   1      -4.294  60.413 120.167  0.00  0.00     0.119 C 
BRANCH   8   9
ATOM      9  C   LIG d   1      -5.317  59.911 119.130  0.00  0.00     0.028 C 
ATOM     10  C   LIG d   1      -5.955  61.061 118.331  0.00  0.00     0.006 C 
ENDBRANCH   8   9
BRANCH   8  11
ATOM     11  C   LIG d   1      -3.310  61.283 119.379  0.00  0.00     0.028 C 
ATOM     12  C   LIG d   1      -1.869  60.752 119.433  0.00  0.00     0.006 C 
ENDBRANCH   8  11
ENDBRANCH   7   8
ENDBRANCH   1   7
BRANCH   6  13
ATOM     13  N   LIG d   1      -3.854  56.479 119.562  0.00  0.00    -0.311 N 
ATOM     14  C   LIG d   1      -4.971  56.141 118.921  0.00  0.00     0.210 C 
ATOM     15  C   LIG d   1      -4.789  55.806 117.437  0.00  0.00     0.109 C 
ATOM     16  O   LIG d   1      -6.101  56.118 119.432  0.00  0.00    -0.276 OA
ATOM     17  H   LIG d   1      -2.987  56.503 119.062  0.00  0.00     0.149 HD
ENDBRANCH   6  13
BRANCH   5  18
ATOM     18  N   LIG d   1      -3.760  54.442 121.837  0.00  0.00     0.381 N 
ATOM     19  H   LIG d   1      -2.857  54.532 122.256  0.00  0.00    -0.090 HD
ATOM     20  H   LIG d   1      -3.636  54.178 120.875  0.00  0.00    -0.090 HD
ATOM     21  H   LIG d   1      -4.288  53.745 122.314  0.00  0.00    -0.090 HD
ENDBRANCH   5  18
BRANCH   3  22
ATOM     22  C   LIG d   1      -5.619  57.789 124.714  0.00  0.00     0.382 C 
ATOM     23  O   LIG d   1      -6.128  56.871 125.400  0.00  0.00    -0.241 OA
ATOM     24  O   LIG d   1      -5.720  58.970 125.097  0.00  0.00    -0.241 OA
ENDBRANCH   3  22
TORSDOF 7
ENDMDL
MODEL 3
REMARK VINA RESULT:      -4.4     22.528     24.923
REMARK  7 active torsions:
REMARK  status: ('A' for Active; 'I' for Inactive)
REMARK    1  A    between atoms: C_2  and  C_3 
REMARK    2  A    between atoms: C_3  and  O_6 
REMARK    3  A    between atoms: C_3  and  C_4 
REMARK    4  A    between atoms: C_7  and  O_6 
REMARK    5  A    between atoms: C_9  and  C_10 
REMARK    6  A    between atoms: N_15  and  C_14 
REMARK    7  A    between atoms: N_20  and  C_19 
REMARK       I    between atoms: C_22  and  N_20 
ROOT
ATOM      1  C   LIG d   1      -7.624  82.644 120.703  0.00  0.00     0.161 C 
ATOM      2  C   LIG d   1      -7.855  81.500 119.922  0.00  0.00     0.016 C 
ATOM      3  C   LIG d   1      -9.148  81.006 119.629  0.00  0.00     0.038 C 
ATOM      4  C   LIG d   1     -10.308  81.715 119.974  0.00  0.00     0.028 C 
ATOM      5  C   LIG d   1     -10.131  82.609 121.197  0.00  0.00    -0.047 C 
ATOM      6  C   LIG d   1      -8.879  83.493 120.994  0.00  0.00     0.091 C 
ENDROOT
BRANCH   1   7
ATOM      7  O   LIG d   1      -6.602  83.455 120.090  0.00  0.00    -0.368 OA
BRANCH   7   8
ATOM      8  C   LIG d   1      -5.375  83.612 120.844  0.00  0.00     0.119 C 
BRANCH   8   9
ATOM      9  C   LIG d   1      -5.195  85.116 121.128  0.00  0.00     0.028 C 
ATOM     10  C   LIG d   1      -5.106  85.423 122.632  0.00  0.00     0.006 C 
ENDBRANCH   8   9
BRANCH   8  11
ATOM     11  C   LIG d   1      -4.154  83.208 120.013  0.00  0.00     0.028 C 
ATOM     12  C   LIG d   1      -4.031  81.686 119.836  0.00  0.00     0.006 C 
ENDBRANCH   8  11
ENDBRANCH   7   8
ENDBRANCH   1   7
BRANCH   6  13
ATOM     13  N   LIG d   1      -8.584  84.339 122.181  0.00  0.00    -0.311 N 
ATOM     14  C   LIG d   1      -9.009  85.595 122.309  0.00  0.00     0.210 C 
ATOM     15  C   LIG d   1      -8.576  86.294 123.602  0.00  0.00     0.109 C 
ATOM     16  O   LIG d   1      -9.729  86.185 121.491  0.00  0.00    -0.276 OA
ATOM     17  H   LIG d   1      -8.032  83.928 122.908  0.00  0.00     0.149 HD
ENDBRANCH   6  13
BRANCH   5  18
ATOM     18  N   LIG d   1     -11.371  83.391 121.361  0.00  0.00     0.381 N 
ATOM     19  H   LIG d   1     -12.164  82.785 121.295  0.00  0.00    -0.090 HD
ATOM     20  H   LIG d   1     -11.428  84.068 120.621  0.00  0.00    -0.090 HD
ATOM     21  H   LIG d   1     -11.368  83.853 122.244  0.00  0.00    -0.090 HD
ENDBRANCH   5  18
BRANCH   3  22
ATOM     22  C   LIG d   1      -9.288  79.769 119.019  0.00  0.00     0.382 C 
ATOM     23  O   LIG d   1     -10.395  79.433 118.531  0.00  0.00    -0.241 OA
ATOM     24  O   LIG d   1      -8.336  78.967 118.989  0.00  0.00    -0.241 OA
ENDBRANCH   3  22
TORSDOF 7
ENDMDL
MODEL 4
REMARK VINA RESULT:      -4.2     11.839     14.702
REMARK  7 active torsions:
REMARK  status: ('A' for Active; 'I' for Inactive)
REMARK    1  A    between atoms: C_2  and  C_3 
REMARK    2  A    between atoms: C_3  and  O_6 
REMARK    3  A    between atoms: C_3  and  C_4 
REMARK    4  A    between atoms: C_7  and  O_6 
REMARK    5  A    between atoms: C_9  and  C_10 
REMARK    6  A    between atoms: N_15  and  C_14 
REMARK    7  A    between atoms: N_20  and  C_19 
REMARK       I    between atoms: C_22  and  N_20 
ROOT
ATOM      1  C   LIG d   1     -13.427  66.655 122.163  0.00  0.00     0.161 C 
ATOM      2  C   LIG d   1     -12.191  66.521 122.816  0.00  0.00     0.016 C 
ATOM      3  C   LIG d   1     -11.189  65.610 122.409  0.00  0.00     0.038 C 
ATOM      4  C   LIG d   1     -11.298  64.873 121.220  0.00  0.00     0.028 C 
ATOM      5  C   LIG d   1     -12.740  64.603 120.804  0.00  0.00    -0.047 C 
ATOM      6  C   LIG d   1     -13.519  65.939 120.799  0.00  0.00     0.091 C 
ENDROOT
BRANCH   1   7
ATOM      7  O   LIG d   1     -13.755  68.051 122.018  0.00  0.00    -0.368 OA
BRANCH   7   8
ATOM      8  C   LIG d   1     -14.763  68.566 122.922  0.00  0.00     0.119 C 
BRANCH   8   9
ATOM      9  C   LIG d   1     -16.084  68.666 122.134  0.00  0.00     0.028 C 
ATOM     10  C   LIG d   1     -16.807  70.003 122.368  0.00  0.00     0.006 C 
ENDBRANCH   8   9
BRANCH   8  11
ATOM     11  C   LIG d   1     -14.442  69.999 123.358  0.00  0.00     0.028 C 
ATOM     12  C   LIG d   1     -12.948  70.339 123.232  0.00  0.00     0.006 C 
ENDBRANCH   8  11
ENDBRANCH   7   8
ENDBRANCH   1   7
BRANCH   6  13
ATOM     13  N   LIG d   1     -14.959  65.754 120.484  0.00  0.00    -0.311 N 
ATOM     14  C   LIG d   1     -15.456  65.833 119.251  0.00  0.00     0.210 C 
ATOM     15  C   LIG d   1     -16.971  65.630 119.150  0.00  0.00     0.109 C 
ATOM     16  O   LIG d   1     -14.781  66.020 118.228  0.00  0.00    -0.276 OA
ATOM     17  H   LIG d   1     -15.574  65.567 121.252  0.00  0.00     0.149 HD
ENDBRANCH   6  13
BRANCH   5  18
ATOM     18  N   LIG d   1     -12.707  63.949 119.482  0.00  0.00     0.381 N 
ATOM     19  H   LIG d   1     -11.915  63.340 119.425  0.00  0.00    -0.090 HD
ATOM     20  H   LIG d   1     -12.615  64.654 118.772  0.00  0.00    -0.090 HD
ATOM     21  H   LIG d   1     -13.545  63.430 119.338  0.00  0.00    -0.090 HD
ENDBRANCH   5  18
BRANCH   3  22
ATOM     22  C   LIG d   1     -10.081  65.400 123.215  0.00  0.00     0.382 C 
ATOM     23  O   LIG d   1      -9.632  66.337 123.919  0.00  0.00    -0.241 OA
ATOM     24  O   LIG d   1      -9.499  64.299 123.214  0.00  0.00    -0.241 OA
ENDBRANCH   3  22
TORSDOF 7
ENDMDL
MODEL 5
REMARK VINA RESULT:      -4.2     21.419     24.327
REMARK  7 active torsions:
REMARK  status: ('A' for Active; 'I' for Inactive)
REMARK    1  A    between atoms: C_2  and  C_3 
REMARK    2  A    between atoms: C_3  and  O_6 
REMARK    3  A    between atoms: C_3  and  C_4 
REMARK    4  A    between atoms: C_7  and  O_6 
REMARK    5  A    between atoms: C_9  and  C_10 
REMARK    6  A    between atoms: N_15  and  C_14 
REMARK    7  A    between atoms: N_20  and  C_19 
REMARK       I    between atoms: C_22  and  N_20 
ROOT
ATOM      1  C   LIG d   1      -8.019  81.731 121.289  0.00  0.00     0.161 C 
ATOM      2  C   LIG d   1      -8.194  82.987 121.894  0.00  0.00     0.016 C 
ATOM      3  C   LIG d   1      -8.985  84.016 121.333  0.00  0.00     0.038 C 
ATOM      4  C   LIG d   1      -9.781  83.806 120.198  0.00  0.00     0.028 C 
ATOM      5  C   LIG d   1      -9.243  82.718 119.274  0.00  0.00    -0.047 C 
ATOM      6  C   LIG d   1      -8.968  81.444 120.107  0.00  0.00     0.091 C 
ENDROOT
BRANCH   1   7
ATOM      7  O   LIG d   1      -8.127  80.691 122.281  0.00  0.00    -0.368 OA
BRANCH   7   8
ATOM      8  C   LIG d   1      -9.451  80.139 122.485  0.00  0.00     0.119 C 
BRANCH   8   9
ATOM      9  C   LIG d   1      -9.891  80.506 123.915  0.00  0.00     0.028 C 
ATOM     10  C   LIG d   1      -8.714  80.530 124.904  0.00  0.00     0.006 C 
ENDBRANCH   8   9
BRANCH   8  11
ATOM     11  C   LIG d   1      -9.428  78.608 122.448  0.00  0.00     0.028 C 
ATOM     12  C   LIG d   1      -8.041  78.041 122.106  0.00  0.00     0.006 C 
ENDBRANCH   8  11
ENDBRANCH   7   8
ENDBRANCH   1   7
BRANCH   6  13
ATOM     13  N   LIG d   1      -8.361  80.357 119.295  0.00  0.00    -0.311 N 
ATOM     14  C   LIG d   1      -9.075  79.425 118.666  0.00  0.00     0.210 C 
ATOM     15  C   LIG d   1      -8.250  78.385 117.902  0.00  0.00     0.109 C 
ATOM     16  O   LIG d   1     -10.314  79.380 118.642  0.00  0.00    -0.276 OA
ATOM     17  H   LIG d   1      -7.362  80.337 119.235  0.00  0.00     0.149 HD
ENDBRANCH   6  13
BRANCH   5  18
ATOM     18  N   LIG d   1     -10.239  82.507 118.207  0.00  0.00     0.381 N 
ATOM     19  H   LIG d   1      -9.773  82.299 117.346  0.00  0.00    -0.090 HD
ATOM     20  H   LIG d   1     -10.767  83.353 118.083  0.00  0.00    -0.090 HD
ATOM     21  H   LIG d   1     -10.849  81.758 118.452  0.00  0.00    -0.090 HD
ENDBRANCH   5  18
BRANCH   3  22
ATOM     22  C   LIG d   1      -8.953  85.287 121.889  0.00  0.00     0.382 C 
ATOM     23  O   LIG d   1      -9.824  86.132 121.571  0.00  0.00    -0.241 OA
ATOM     24  O   LIG d   1      -8.038  85.612 122.669  0.00  0.00    -0.241 OA
ENDBRANCH   3  22
TORSDOF 7
ENDMDL
MODEL 6
REMARK VINA RESULT:      -4.2     23.756     25.991
REMARK  7 active torsions:
REMARK  status: ('A' for Active; 'I' for Inactive)
REMARK    1  A    between atoms: C_2  and  C_3 
REMARK    2  A    between atoms: C_3  and  O_6 
REMARK    3  A    between atoms: C_3  and  C_4 
REMARK    4  A    between atoms: C_7  and  O_6 
REMARK    5  A    between atoms: C_9  and  C_10 
REMARK    6  A    between atoms: N_15  and  C_14 
REMARK    7  A    between atoms: N_20  and  C_19 
REMARK       I    between atoms: C_22  and  N_20 
ROOT
ATOM      1  C   LIG d   1     -19.149  78.484 120.774  0.00  0.00     0.161 C 
ATOM      2  C   LIG d   1     -19.312  79.696 120.083  0.00  0.00     0.016 C 
ATOM      3  C   LIG d   1     -19.457  80.946 120.729  0.00  0.00     0.038 C 
ATOM      4  C   LIG d   1     -19.296  81.087 122.115  0.00  0.00     0.028 C 
ATOM      5  C   LIG d   1     -19.633  79.821 122.896  0.00  0.00    -0.047 C 
ATOM      6  C   LIG d   1     -18.860  78.632 122.282  0.00  0.00     0.091 C 
ENDROOT
BRANCH   1   7
ATOM      7  O   LIG d   1     -18.121  77.696 120.141  0.00  0.00    -0.368 OA
BRANCH   7   8
ATOM      8  C   LIG d   1     -18.575  76.569 119.353  0.00  0.00     0.119 C 
BRANCH   8   9
ATOM      9  C   LIG d   1     -20.013  76.241 119.800  0.00  0.00     0.028 C 
ATOM     10  C   LIG d   1     -20.193  74.755 120.154  0.00  0.00     0.006 C 
ENDBRANCH   8   9
BRANCH   8  11
ATOM     11  C   LIG d   1     -17.758  75.310 119.658  0.00  0.00     0.028 C 
ATOM     12  C   LIG d   1     -16.411  75.622 120.329  0.00  0.00     0.006 C 
ENDBRANCH   8  11
ENDBRANCH   7   8
ENDBRANCH   1   7
BRANCH   6  13
ATOM     13  N   LIG d   1     -19.197  77.340 122.934  0.00  0.00    -0.311 N 
ATOM     14  C   LIG d   1     -18.288  76.540 123.489  0.00  0.00     0.210 C 
ATOM     15  C   LIG d   1     -18.846  75.245 124.088  0.00  0.00     0.109 C 
ATOM     16  O   LIG d   1     -17.077  76.795 123.571  0.00  0.00    -0.276 OA
ATOM     17  H   LIG d   1     -20.161  77.070 122.940  0.00  0.00     0.149 HD
ENDBRANCH   6  13
BRANCH   5  18
ATOM     18  N   LIG d   1     -19.290  80.065 124.310  0.00  0.00     0.381 N 
ATOM     19  H   LIG d   1     -20.052  79.787 124.896  0.00  0.00    -0.090 HD
ATOM     20  H   LIG d   1     -19.135  81.049 124.442  0.00  0.00    -0.090 HD
ATOM     21  H   LIG d   1     -18.470  79.556 124.555  0.00  0.00    -0.090 HD
ENDBRANCH   5  18
BRANCH   3  22
ATOM     22  C   LIG d   1     -19.806  82.065 119.989  0.00  0.00     0.382 C 
ATOM     23  O   LIG d   1     -19.077  82.441 119.039  0.00  0.00    -0.241 OA
ATOM     24  O   LIG d   1     -20.817  82.729 120.287  0.00  0.00    -0.241 OA
ENDBRANCH   3  22
TORSDOF 7
ENDMDL
MODEL 7
REMARK VINA RESULT:      -4.2     34.157     36.577
REMARK  7 active torsions:
REMARK  status: ('A' for Active; 'I' for Inactive)
REMARK    1  A    between atoms: C_2  and  C_3 
REMARK    2  A    between atoms: C_3  and  O_6 
REMARK    3  A    between atoms: C_3  and  C_4 
REMARK    4  A    between atoms: C_7  and  O_6 
REMARK    5  A    between atoms: C_9  and  C_10 
REMARK    6  A    between atoms: N_15  and  C_14 
REMARK    7  A    between atoms: N_20  and  C_19 
REMARK       I    between atoms: C_22  and  N_20 
ROOT
ATOM      1  C   LIG d   1      -5.987  94.601 119.831  0.00  0.00     0.161 C 
ATOM      2  C   LIG d   1      -4.685  94.433 119.330  0.00  0.00     0.016 C 
ATOM      3  C   LIG d   1      -4.365  93.548 118.276  0.00  0.00     0.038 C 
ATOM      4  C   LIG d   1      -5.356  92.877 117.544  0.00  0.00     0.028 C 
ATOM      5  C   LIG d   1      -6.633  92.629 118.340  0.00  0.00    -0.047 C 
ATOM      6  C   LIG d   1      -7.097  93.961 118.972  0.00  0.00     0.091 C 
ENDROOT
BRANCH   1   7
ATOM      7  O   LIG d   1      -6.255  96.002 120.034  0.00  0.00    -0.368 OA
BRANCH   7   8
ATOM      8  C   LIG d   1      -5.981  96.874 118.910  0.00  0.00     0.119 C 
BRANCH   8   9
ATOM      9  C   LIG d   1      -5.034  97.984 119.405  0.00  0.00     0.028 C 
ATOM     10  C   LIG d   1      -3.690  97.986 118.658  0.00  0.00     0.006 C 
ENDBRANCH   8   9
BRANCH   8  11
ATOM     11  C   LIG d   1      -7.247  97.598 118.444  0.00  0.00     0.028 C 
ATOM     12  C   LIG d   1      -8.055  98.194 119.607  0.00  0.00     0.006 C 
ENDBRANCH   8  11
ENDBRANCH   7   8
ENDBRANCH   1   7
BRANCH   6  13
ATOM     13  N   LIG d   1      -8.294  93.792 119.837  0.00  0.00    -0.311 N 
ATOM     14  C   LIG d   1      -9.453  94.409 119.614  0.00  0.00     0.210 C 
ATOM     15  C   LIG d   1     -10.552  94.110 120.639  0.00  0.00     0.109 C 
ATOM     16  O   LIG d   1      -9.685  95.151 118.647  0.00  0.00    -0.276 OA
ATOM     17  H   LIG d   1      -8.203  93.183 120.626  0.00  0.00     0.149 HD
ENDBRANCH   6  13
BRANCH   5  18
ATOM     18  N   LIG d   1      -7.627  92.049 117.418  0.00  0.00     0.381 N 
ATOM     19  H   LIG d   1      -8.549  92.187 117.782  0.00  0.00    -0.090 HD
ATOM     20  H   LIG d   1      -7.463  91.061 117.342  0.00  0.00    -0.090 HD
ATOM     21  H   LIG d   1      -7.550  92.475 116.520  0.00  0.00    -0.090 HD
ENDBRANCH   5  18
BRANCH   3  22
ATOM     22  C   LIG d   1      -3.036  93.295 117.970  0.00  0.00     0.382 C 
ATOM     23  O   LIG d   1      -2.275  94.241 117.655  0.00  0.00    -0.241 OA
ATOM     24  O   LIG d   1      -2.600  92.129 117.962  0.00  0.00    -0.241 OA
ENDBRANCH   3  22
TORSDOF 7
ENDMDL
MODEL 8
REMARK VINA RESULT:      -4.2     19.834     22.441
REMARK  7 active torsions:
REMARK  status: ('A' for Active; 'I' for Inactive)
REMARK    1  A    between atoms: C_2  and  C_3 
REMARK    2  A    between atoms: C_3  and  O_6 
REMARK    3  A    between atoms: C_3  and  C_4 
REMARK    4  A    between atoms: C_7  and  O_6 
REMARK    5  A    between atoms: C_9  and  C_10 
REMARK    6  A    between atoms: N_15  and  C_14 
REMARK    7  A    between atoms: N_20  and  C_19 
REMARK       I    between atoms: C_22  and  N_20 
ROOT
ATOM      1  C   LIG d   1      -5.768  80.804 117.923  0.00  0.00     0.161 C 
ATOM      2  C   LIG d   1      -6.966  81.528 118.044  0.00  0.00     0.016 C 
ATOM      3  C   LIG d   1      -8.237  80.917 118.150  0.00  0.00     0.038 C 
ATOM      4  C   LIG d   1      -8.383  79.529 118.293  0.00  0.00     0.028 C 
ATOM      5  C   LIG d   1      -7.242  78.732 117.669  0.00  0.00    -0.047 C 
ATOM      6  C   LIG d   1      -5.897  79.290 118.189  0.00  0.00     0.091 C 
ENDROOT
BRANCH   1   7
ATOM      7  O   LIG d   1      -4.761  81.379 118.778  0.00  0.00    -0.368 OA
BRANCH   7   8
ATOM      8  C   LIG d   1      -5.244  82.072 119.955  0.00  0.00     0.119 C 
BRANCH   8   9
ATOM      9  C   LIG d   1      -4.327  83.289 120.185  0.00  0.00     0.028 C 
ATOM     10  C   LIG d   1      -2.846  82.966 119.923  0.00  0.00     0.006 C 
ENDBRANCH   8   9
BRANCH   8  11
ATOM     11  C   LIG d   1      -5.094  81.208 121.211  0.00  0.00     0.028 C 
ATOM     12  C   LIG d   1      -6.420  80.574 121.660  0.00  0.00     0.006 C 
ENDBRANCH   8  11
ENDBRANCH   7   8
ENDBRANCH   1   7
BRANCH   6  13
ATOM     13  N   LIG d   1      -4.727  78.621 117.563  0.00  0.00    -0.311 N 
ATOM     14  C   LIG d   1      -3.671  78.194 118.253  0.00  0.00     0.210 C 
ATOM     15  C   LIG d   1      -2.565  77.551 117.411  0.00  0.00     0.109 C 
ATOM     16  O   LIG d   1      -3.559  78.258 119.487  0.00  0.00    -0.276 OA
ATOM     17  H   LIG d   1      -4.748  78.501 116.569  0.00  0.00     0.149 HD
ENDBRANCH   6  13
BRANCH   5  18
ATOM     18  N   LIG d   1      -7.451  77.313 118.011  0.00  0.00     0.381 N 
ATOM     19  H   LIG d   1      -6.576  76.828 117.992  0.00  0.00    -0.090 HD
ATOM     20  H   LIG d   1      -8.056  76.898 117.324  0.00  0.00    -0.090 HD
ATOM     21  H   LIG d   1      -7.861  77.237 118.915  0.00  0.00    -0.090 HD
ENDBRANCH   5  18
BRANCH   3  22
ATOM     22  C   LIG d   1      -9.382  81.695 118.072  0.00  0.00     0.382 C 
ATOM     23  O   LIG d   1     -10.497  81.152 117.881  0.00  0.00    -0.241 OA
ATOM     24  O   LIG d   1      -9.308  82.936 118.147  0.00  0.00    -0.241 OA
ENDBRANCH   3  22
TORSDOF 7
ENDMDL
MODEL 9
REMARK VINA RESULT:      -4.1     32.634     35.467
REMARK  7 active torsions:
REMARK  status: ('A' for Active; 'I' for Inactive)
REMARK    1  A    between atoms: C_2  and  C_3 
REMARK    2  A    between atoms: C_3  and  O_6 
REMARK    3  A    between atoms: C_3  and  C_4 
REMARK    4  A    between atoms: C_7  and  O_6 
REMARK    5  A    between atoms: C_9  and  C_10 
REMARK    6  A    between atoms: N_15  and  C_14 
REMARK    7  A    between atoms: N_20  and  C_19 
REMARK       I    between atoms: C_22  and  N_20 
ROOT
ATOM      1  C   LIG d   1      -5.423  93.710 119.211  0.00  0.00     0.161 C 
ATOM      2  C   LIG d   1      -4.215  93.107 118.822  0.00  0.00     0.016 C 
ATOM      3  C   LIG d   1      -4.146  91.993 117.954  0.00  0.00     0.038 C 
ATOM      4  C   LIG d   1      -5.279  91.497 117.293  0.00  0.00     0.028 C 
ATOM      5  C   LIG d   1      -6.580  91.754 118.045  0.00  0.00    -0.047 C 
ATOM      6  C   LIG d   1      -6.661  93.253 118.412  0.00  0.00     0.091 C 
ENDROOT
BRANCH   1   7
ATOM      7  O   LIG d   1      -5.293  95.145 119.156  0.00  0.00    -0.368 OA
BRANCH   7   8
ATOM      8  C   LIG d   1      -5.133  95.820 120.428  0.00  0.00     0.119 C 
BRANCH   8   9
ATOM      9  C   LIG d   1      -6.445  96.574 120.719  0.00  0.00     0.028 C 
ATOM     10  C   LIG d   1      -7.233  95.952 121.885  0.00  0.00     0.006 C 
ENDBRANCH   8   9
BRANCH   8  11
ATOM     11  C   LIG d   1      -4.052  96.902 120.353  0.00  0.00     0.028 C 
ATOM     12  C   LIG d   1      -3.588  97.181 118.915  0.00  0.00     0.006 C 
ENDBRANCH   8  11
ENDBRANCH   7   8
ENDBRANCH   1   7
BRANCH   6  13
ATOM     13  N   LIG d   1      -7.864  93.574 119.223  0.00  0.00    -0.311 N 
ATOM     14  C   LIG d   1      -8.882  94.302 118.768  0.00  0.00     0.210 C 
ATOM     15  C   LIG d   1     -10.014  94.531 119.775  0.00  0.00     0.109 C 
ATOM     16  O   LIG d   1      -8.971  94.752 117.616  0.00  0.00    -0.276 OA
ATOM     17  H   LIG d   1      -7.890  93.222 120.160  0.00  0.00     0.149 HD
ENDBRANCH   6  13
BRANCH   5  18
ATOM     18  N   LIG d   1      -7.690  91.309 117.180  0.00  0.00     0.381 N 
ATOM     19  H   LIG d   1      -7.522  90.375 116.866  0.00  0.00    -0.090 HD
ATOM     20  H   LIG d   1      -7.735  91.909 116.375  0.00  0.00    -0.090 HD
ATOM     21  H   LIG d   1      -8.550  91.349 117.682  0.00  0.00    -0.090 HD
ENDBRANCH   5  18
BRANCH   3  22
ATOM     22  C   LIG d   1      -2.937  91.338 117.772  0.00  0.00     0.382 C 
ATOM     23  O   LIG d   1      -1.860  91.924 118.039  0.00  0.00    -0.241 OA
ATOM     24  O   LIG d   1      -2.909  90.185 117.303  0.00  0.00    -0.241 OA
ENDBRANCH   3  22
TORSDOF 7
ENDMDL
