MODEL 1
REMARK VINA RESULT:      -4.8      0.000      0.000
REMARK  7 active torsions:
REMARK  status: ('A' for Active; 'I' for Inactive)
REMARK    1  A    between atoms: C_2  and  C_3 
REMARK    2  A    between atoms: C_3  and  O_6 
REMARK    3  A    between atoms: C_3  and  C_4 
REMARK    4  A    between atoms: C_7  and  O_6 
REMARK    5  A    between atoms: C_9  and  C_10 
REMARK    6  A    between atoms: N_15  and  C_14 
REMARK    7  A    between atoms: N_20  and  C_19 
REMARK       I    between atoms: C_22  and  N_20 
ROOT
ATOM      1  C   LIG d   1      -2.271  58.769 118.769  0.00  0.00     0.161 C 
ATOM      2  C   LIG d   1      -3.432  58.512 118.021  0.00  0.00     0.016 C 
ATOM      3  C   LIG d   1      -4.731  58.862 118.455  0.00  0.00     0.038 C 
ATOM      4  C   LIG d   1      -4.944  59.634 119.607  0.00  0.00     0.028 C 
ATOM      5  C   LIG d   1      -3.845  59.480 120.652  0.00  0.00    -0.047 C 
ATOM      6  C   LIG d   1      -2.474  59.709 119.975  0.00  0.00     0.091 C 
ENDROOT
BRANCH   1   7
ATOM      7  O   LIG d   1      -1.236  59.279 117.905  0.00  0.00    -0.368 OA
BRANCH   7   8
ATOM      8  C   LIG d   1      -0.373  58.290 117.292  0.00  0.00     0.119 C 
BRANCH   8   9
ATOM      9  C   LIG d   1      -0.529  56.981 118.089  0.00  0.00     0.028 C 
ATOM     10  C   LIG d   1      -0.787  55.767 117.180  0.00  0.00     0.006 C 
ENDBRANCH   8   9
BRANCH   8  11
ATOM     11  C   LIG d   1       1.103  58.675 117.430  0.00  0.00     0.028 C 
ATOM     12  C   LIG d   1       1.562  58.757 118.895  0.00  0.00     0.006 C 
ENDBRANCH   8  11
ENDBRANCH   7   8
ENDBRANCH   1   7
BRANCH   6  13
ATOM     13  N   LIG d   1      -1.338  59.494 120.909  0.00  0.00    -0.311 N 
ATOM     14  C   LIG d   1      -0.820  60.458 121.668  0.00  0.00     0.210 C 
ATOM     15  C   LIG d   1       0.360  60.028 122.545  0.00  0.00     0.109 C 
ATOM     16  O   LIG d   1      -1.247  61.621 121.723  0.00  0.00    -0.276 OA
ATOM     17  H   LIG d   1      -0.950  58.572 120.951  0.00  0.00     0.149 HD
ENDBRANCH   6  13
BRANCH   5  18
ATOM     18  N   LIG d   1      -4.122  60.441 121.736  0.00  0.00     0.381 N 
ATOM     19  H   LIG d   1      -4.370  61.328 121.347  0.00  0.00    -0.090 HD
ATOM     20  H   LIG d   1      -3.290  60.560 122.286  0.00  0.00    -0.090 HD
ATOM     21  H   LIG d   1      -4.863  60.103 122.310  0.00  0.00    -0.090 HD
ENDBRANCH   5  18
BRANCH   3  22
ATOM     22  C   LIG d   1      -5.836  58.404 117.755  0.00  0.00     0.382 C 
ATOM     23  O   LIG d   1      -6.764  59.196 117.460  0.00  0.00    -0.241 OA
ATOM     24  O   LIG d   1      -5.939  57.200 117.453  0.00  0.00    -0.241 OA
ENDBRANCH   3  22
TORSDOF 7
ENDMDL
MODEL 2
REMARK VINA RESULT:      -4.8     22.246     23.890
REMARK  7 active torsions:
REMARK  status: ('A' for Active; 'I' for Inactive)
REMARK    1  A    between atoms: C_2  and  C_3 
REMARK    2  A    between atoms: C_3  and  O_6 
REMARK    3  A    between atoms: C_3  and  C_4 
REMARK    4  A    between atoms: C_7  and  O_6 
REMARK    5  A    between atoms: C_9  and  C_10 
REMARK    6  A    between atoms: N_15  and  C_14 
REMARK    7  A    between atoms: N_20  and  C_19 
REMARK       I    between atoms: C_22  and  N_20 
ROOT
ATOM      1  C   LIG d   1      -8.162  81.210 121.046  0.00  0.00     0.161 C 
ATOM      2  C   LIG d   1      -7.366  80.319 120.306  0.00  0.00     0.016 C 
ATOM      3  C   LIG d   1      -7.624  79.980 118.958  0.00  0.00     0.038 C 
ATOM      4  C   LIG d   1      -8.615  80.629 118.207  0.00  0.00     0.028 C 
ATOM      5  C   LIG d   1      -9.763  81.166 119.055  0.00  0.00    -0.047 C 
ATOM      6  C   LIG d   1      -9.181  82.013 120.210  0.00  0.00     0.091 C 
ENDROOT
BRANCH   1   7
ATOM      7  O   LIG d   1      -7.322  82.103 121.803  0.00  0.00    -0.368 OA
BRANCH   7   8
ATOM      8  C   LIG d   1      -6.183  82.657 121.100  0.00  0.00     0.119 C 
BRANCH   8   9
ATOM      9  C   LIG d   1      -4.913  82.032 121.710  0.00  0.00     0.028 C 
ATOM     10  C   LIG d   1      -3.624  82.602 121.095  0.00  0.00     0.006 C 
ENDBRANCH   8   9
BRANCH   8  11
ATOM     11  C   LIG d   1      -6.053  84.162 121.348  0.00  0.00     0.028 C 
ATOM     12  C   LIG d   1      -6.484  84.572 122.765  0.00  0.00     0.006 C 
ENDBRANCH   8  11
ENDBRANCH   7   8
ENDBRANCH   1   7
BRANCH   6  13
ATOM     13  N   LIG d   1     -10.233  82.507 121.137  0.00  0.00    -0.311 N 
ATOM     14  C   LIG d   1     -10.307  83.769 121.556  0.00  0.00     0.210 C 
ATOM     15  C   LIG d   1     -11.457  84.062 122.524  0.00  0.00     0.109 C 
ATOM     16  O   LIG d   1      -9.548  84.680 121.193  0.00  0.00    -0.276 OA
ATOM     17  H   LIG d   1     -10.908  81.840 121.457  0.00  0.00     0.149 HD
ENDBRANCH   6  13
BRANCH   5  18
ATOM     18  N   LIG d   1     -10.652  81.937 118.165  0.00  0.00     0.381 N 
ATOM     19  H   LIG d   1     -10.638  81.541 117.246  0.00  0.00    -0.090 HD
ATOM     20  H   LIG d   1     -10.314  82.881 118.106  0.00  0.00    -0.090 HD
ATOM     21  H   LIG d   1     -11.582  81.931 118.523  0.00  0.00    -0.090 HD
ENDBRANCH   5  18
BRANCH   3  22
ATOM     22  C   LIG d   1      -6.912  78.952 118.360  0.00  0.00     0.382 C 
ATOM     23  O   LIG d   1      -6.614  77.928 119.021  0.00  0.00    -0.241 OA
ATOM     24  O   LIG d   1      -6.525  79.055 117.180  0.00  0.00    -0.241 OA
ENDBRANCH   3  22
TORSDOF 7
ENDMDL
MODEL 3
REMARK VINA RESULT:      -4.7      2.223      5.083
REMARK  7 active torsions:
REMARK  status: ('A' for Active; 'I' for Inactive)
REMARK    1  A    between atoms: C_2  and  C_3 
REMARK    2  A    between atoms: C_3  and  O_6 
REMARK    3  A    between atoms: C_3  and  C_4 
REMARK    4  A    between atoms: C_7  and  O_6 
REMARK    5  A    between atoms: C_9  and  C_10 
REMARK    6  A    between atoms: N_15  and  C_14 
REMARK    7  A    between atoms: N_20  and  C_19 
REMARK       I    between atoms: C_22  and  N_20 
ROOT
ATOM      1  C   LIG d   1      -2.200  60.572 119.901  0.00  0.00     0.161 C 
ATOM      2  C   LIG d   1      -0.882  60.236 119.549  0.00  0.00     0.016 C 
ATOM      3  C   LIG d   1      -0.042  59.435 120.356  0.00  0.00     0.038 C 
ATOM      4  C   LIG d   1      -0.517  58.787 121.506  0.00  0.00     0.028 C 
ATOM      5  C   LIG d   1      -1.689  59.504 122.165  0.00  0.00    -0.047 C 
ATOM      6  C   LIG d   1      -2.771  59.783 121.097  0.00  0.00     0.091 C 
ENDROOT
BRANCH   1   7
ATOM      7  O   LIG d   1      -3.062  60.437 118.753  0.00  0.00    -0.368 OA
BRANCH   7   8
ATOM      8  C   LIG d   1      -3.675  59.138 118.567  0.00  0.00     0.119 C 
BRANCH   8   9
ATOM      9  C   LIG d   1      -3.067  58.517 117.294  0.00  0.00     0.028 C 
ATOM     10  C   LIG d   1      -2.121  57.345 117.608  0.00  0.00     0.006 C 
ENDBRANCH   8   9
BRANCH   8  11
ATOM     11  C   LIG d   1      -5.174  59.265 118.279  0.00  0.00     0.028 C 
ATOM     12  C   LIG d   1      -5.773  57.991 117.663  0.00  0.00     0.006 C 
ENDBRANCH   8  11
ENDBRANCH   7   8
ENDBRANCH   1   7
BRANCH   6  13
ATOM     13  N   LIG d   1      -3.918  60.558 121.640  0.00  0.00    -0.311 N 
ATOM     14  C   LIG d   1      -5.011  59.990 122.147  0.00  0.00     0.210 C 
ATOM     15  C   LIG d   1      -6.082  60.972 122.634  0.00  0.00     0.109 C 
ATOM     16  O   LIG d   1      -5.183  58.768 122.268  0.00  0.00    -0.276 OA
ATOM     17  H   LIG d   1      -3.849  61.556 121.610  0.00  0.00     0.149 HD
ENDBRANCH   6  13
BRANCH   5  18
ATOM     18  N   LIG d   1      -2.171  58.651 123.267  0.00  0.00     0.381 N 
ATOM     19  H   LIG d   1      -3.057  58.984 123.592  0.00  0.00    -0.090 HD
ATOM     20  H   LIG d   1      -1.517  58.702 124.028  0.00  0.00    -0.090 HD
ATOM     21  H   LIG d   1      -2.257  57.708 122.956  0.00  0.00    -0.090 HD
ENDBRANCH   5  18
BRANCH   3  22
ATOM     22  C   LIG d   1       1.301  59.308 120.035  0.00  0.00     0.382 C 
ATOM     23  O   LIG d   1       1.661  59.301 118.834  0.00  0.00    -0.241 OA
ATOM     24  O   LIG d   1       2.153  59.156 120.932  0.00  0.00    -0.241 OA
ENDBRANCH   3  22
TORSDOF 7
ENDMDL
MODEL 4
REMARK VINA RESULT:      -4.7     22.664     24.138
REMARK  7 active torsions:
REMARK  status: ('A' for Active; 'I' for Inactive)
REMARK    1  A    between atoms: C_2  and  C_3 
REMARK    2  A    between atoms: C_3  and  O_6 
REMARK    3  A    between atoms: C_3  and  C_4 
REMARK    4  A    between atoms: C_7  and  O_6 
REMARK    5  A    between atoms: C_9  and  C_10 
REMARK    6  A    between atoms: N_15  and  C_14 
REMARK    7  A    between atoms: N_20  and  C_19 
REMARK       I    between atoms: C_22  and  N_20 
ROOT
ATOM      1  C   LIG d   1      -6.988  81.924 120.839  0.00  0.00     0.161 C 
ATOM      2  C   LIG d   1      -7.140  80.984 119.806  0.00  0.00     0.016 C 
ATOM      3  C   LIG d   1      -8.348  80.797 119.095  0.00  0.00     0.038 C 
ATOM      4  C   LIG d   1      -9.450  81.648 119.269  0.00  0.00     0.028 C 
ATOM      5  C   LIG d   1      -9.511  82.284 120.653  0.00  0.00    -0.047 C 
ATOM      6  C   LIG d   1      -8.145  82.937 120.967  0.00  0.00     0.091 C 
ENDROOT
BRANCH   1   7
ATOM      7  O   LIG d   1      -5.732  82.614 120.690  0.00  0.00    -0.368 OA
BRANCH   7   8
ATOM      8  C   LIG d   1      -4.674  82.213 121.595  0.00  0.00     0.119 C 
BRANCH   8   9
ATOM      9  C   LIG d   1      -3.916  83.488 122.015  0.00  0.00     0.028 C 
ATOM     10  C   LIG d   1      -4.752  84.762 121.809  0.00  0.00     0.006 C 
ENDBRANCH   8   9
BRANCH   8  11
ATOM     11  C   LIG d   1      -3.635  81.339 120.886  0.00  0.00     0.028 C 
ATOM     12  C   LIG d   1      -2.364  82.115 120.506  0.00  0.00     0.006 C 
ENDBRANCH   8  11
ENDBRANCH   7   8
ENDBRANCH   1   7
BRANCH   6  13
ATOM     13  N   LIG d   1      -8.092  83.510 122.337  0.00  0.00    -0.311 N 
ATOM     14  C   LIG d   1      -8.390  84.778 122.613  0.00  0.00     0.210 C 
ATOM     15  C   LIG d   1      -8.251  85.169 124.088  0.00  0.00     0.109 C 
ATOM     16  O   LIG d   1      -8.788  85.608 121.782  0.00  0.00    -0.276 OA
ATOM     17  H   LIG d   1      -7.809  82.897 123.077  0.00  0.00     0.149 HD
ENDBRANCH   6  13
BRANCH   5  18
ATOM     18  N   LIG d   1     -10.626  83.250 120.651  0.00  0.00     0.381 N 
ATOM     19  H   LIG d   1     -10.378  84.053 120.107  0.00  0.00    -0.090 HD
ATOM     20  H   LIG d   1     -10.799  83.550 121.594  0.00  0.00    -0.090 HD
ATOM     21  H   LIG d   1     -11.444  82.825 120.274  0.00  0.00    -0.090 HD
ENDBRANCH   5  18
BRANCH   3  22
ATOM     22  C   LIG d   1      -8.476  79.723 118.227  0.00  0.00     0.382 C 
ATOM     23  O   LIG d   1      -7.511  79.389 117.497  0.00  0.00    -0.241 OA
ATOM     24  O   LIG d   1      -9.557  79.112 118.132  0.00  0.00    -0.241 OA
ENDBRANCH   3  22
TORSDOF 7
ENDMDL
MODEL 5
REMARK VINA RESULT:      -4.7     22.284     23.912
REMARK  7 active torsions:
REMARK  status: ('A' for Active; 'I' for Inactive)
REMARK    1  A    between atoms: C_2  and  C_3 
REMARK    2  A    between atoms: C_3  and  O_6 
REMARK    3  A    between atoms: C_3  and  C_4 
REMARK    4  A    between atoms: C_7  and  O_6 
REMARK    5  A    between atoms: C_9  and  C_10 
REMARK    6  A    between atoms: N_15  and  C_14 
REMARK    7  A    between atoms: N_20  and  C_19 
REMARK       I    between atoms: C_22  and  N_20 
ROOT
ATOM      1  C   LIG d   1      -6.958  82.380 120.604  0.00  0.00     0.161 C 
ATOM      2  C   LIG d   1      -7.419  83.485 121.339  0.00  0.00     0.016 C 
ATOM      3  C   LIG d   1      -8.746  83.967 121.269  0.00  0.00     0.038 C 
ATOM      4  C   LIG d   1      -9.749  83.279 120.570  0.00  0.00     0.028 C 
ATOM      5  C   LIG d   1      -9.216  82.447 119.409  0.00  0.00    -0.047 C 
ATOM      6  C   LIG d   1      -8.065  81.550 119.922  0.00  0.00     0.091 C 
ENDROOT
BRANCH   1   7
ATOM      7  O   LIG d   1      -6.147  81.537 121.446  0.00  0.00    -0.368 OA
BRANCH   7   8
ATOM      8  C   LIG d   1      -4.802  81.272 120.977  0.00  0.00     0.119 C 
BRANCH   8   9
ATOM      9  C   LIG d   1      -4.526  79.771 121.187  0.00  0.00     0.028 C 
ATOM     10  C   LIG d   1      -3.772  79.142 120.004  0.00  0.00     0.006 C 
ENDBRANCH   8   9
BRANCH   8  11
ATOM     11  C   LIG d   1      -3.760  82.000 121.831  0.00  0.00     0.028 C 
ATOM     12  C   LIG d   1      -2.979  83.063 121.041  0.00  0.00     0.006 C 
ENDBRANCH   8  11
ENDBRANCH   7   8
ENDBRANCH   1   7
BRANCH   6  13
ATOM     13  N   LIG d   1      -7.431  80.764 118.832  0.00  0.00    -0.311 N 
ATOM     14  C   LIG d   1      -7.384  79.433 118.819  0.00  0.00     0.210 C 
ATOM     15  C   LIG d   1      -6.666  78.822 117.612  0.00  0.00     0.109 C 
ATOM     16  O   LIG d   1      -7.898  78.699 119.677  0.00  0.00    -0.276 OA
ATOM     17  H   LIG d   1      -7.017  81.279 118.079  0.00  0.00     0.149 HD
ENDBRANCH   6  13
BRANCH   5  18
ATOM     18  N   LIG d   1     -10.346  81.677 118.856  0.00  0.00     0.381 N 
ATOM     19  H   LIG d   1     -10.731  82.159 118.069  0.00  0.00    -0.090 HD
ATOM     20  H   LIG d   1     -11.061  81.599 119.558  0.00  0.00    -0.090 HD
ATOM     21  H   LIG d   1     -10.039  80.769 118.583  0.00  0.00    -0.090 HD
ENDBRANCH   5  18
BRANCH   3  22
ATOM     22  C   LIG d   1      -9.072  85.172 121.872  0.00  0.00     0.382 C 
ATOM     23  O   LIG d   1     -10.272  85.534 121.943  0.00  0.00    -0.241 OA
ATOM     24  O   LIG d   1      -8.179  85.924 122.307  0.00  0.00    -0.241 OA
ENDBRANCH   3  22
TORSDOF 7
ENDMDL
MODEL 6
REMARK VINA RESULT:      -4.6      1.803      4.940
REMARK  7 active torsions:
REMARK  status: ('A' for Active; 'I' for Inactive)
REMARK    1  A    between atoms: C_2  and  C_3 
REMARK    2  A    between atoms: C_3  and  O_6 
REMARK    3  A    between atoms: C_3  and  C_4 
REMARK    4  A    between atoms: C_7  and  O_6 
REMARK    5  A    between atoms: C_9  and  C_10 
REMARK    6  A    between atoms: N_15  and  C_14 
REMARK    7  A    between atoms: N_20  and  C_19 
REMARK       I    between atoms: C_22  and  N_20 
ROOT
ATOM      1  C   LIG d   1      -2.393  60.383 119.699  0.00  0.00     0.161 C 
ATOM      2  C   LIG d   1      -1.487  60.911 120.634  0.00  0.00     0.016 C 
ATOM      3  C   LIG d   1      -1.648  60.780 122.032  0.00  0.00     0.038 C 
ATOM      4  C   LIG d   1      -2.652  59.976 122.591  0.00  0.00     0.028 C 
ATOM      5  C   LIG d   1      -3.884  59.840 121.702  0.00  0.00    -0.047 C 
ATOM      6  C   LIG d   1      -3.435  59.409 120.287  0.00  0.00     0.091 C 
ENDROOT
BRANCH   1   7
ATOM      7  O   LIG d   1      -1.672  59.755 118.620  0.00  0.00    -0.368 OA
BRANCH   7   8
ATOM      8  C   LIG d   1      -0.409  59.138 118.973  0.00  0.00     0.119 C 
BRANCH   8   9
ATOM      9  C   LIG d   1       0.532  59.285 117.761  0.00  0.00     0.028 C 
ATOM     10  C   LIG d   1       1.745  58.344 117.843  0.00  0.00     0.006 C 
ENDBRANCH   8   9
BRANCH   8  11
ATOM     11  C   LIG d   1      -0.566  57.629 119.183  0.00  0.00     0.028 C 
ATOM     12  C   LIG d   1      -0.495  57.224 120.664  0.00  0.00     0.006 C 
ENDBRANCH   8  11
ENDBRANCH   7   8
ENDBRANCH   1   7
BRANCH   6  13
ATOM     13  N   LIG d   1      -4.570  59.333 119.331  0.00  0.00    -0.311 N 
ATOM     14  C   LIG d   1      -4.757  58.315 118.493  0.00  0.00     0.210 C 
ATOM     15  C   LIG d   1      -5.978  58.446 117.578  0.00  0.00     0.109 C 
ATOM     16  O   LIG d   1      -4.044  57.301 118.442  0.00  0.00    -0.276 OA
ATOM     17  H   LIG d   1      -5.215  60.100 119.326  0.00  0.00     0.149 HD
ENDBRANCH   6  13
BRANCH   5  18
ATOM     18  N   LIG d   1      -4.790  58.868 122.342  0.00  0.00     0.381 N 
ATOM     19  H   LIG d   1      -4.304  58.010 122.508  0.00  0.00    -0.090 HD
ATOM     20  H   LIG d   1      -5.557  58.681 121.721  0.00  0.00    -0.090 HD
ATOM     21  H   LIG d   1      -5.132  59.236 123.202  0.00  0.00    -0.090 HD
ENDBRANCH   5  18
BRANCH   3  22
ATOM     22  C   LIG d   1      -0.820  61.491 122.888  0.00  0.00     0.382 C 
ATOM     23  O   LIG d   1       0.382  61.157 123.018  0.00  0.00    -0.241 OA
ATOM     24  O   LIG d   1      -1.271  62.434 123.565  0.00  0.00    -0.241 OA
ENDBRANCH   3  22
TORSDOF 7
ENDMDL
MODEL 7
REMARK VINA RESULT:      -4.5     34.837     36.263
REMARK  7 active torsions:
REMARK  status: ('A' for Active; 'I' for Inactive)
REMARK    1  A    between atoms: C_2  and  C_3 
REMARK    2  A    between atoms: C_3  and  O_6 
REMARK    3  A    between atoms: C_3  and  C_4 
REMARK    4  A    between atoms: C_7  and  O_6 
REMARK    5  A    between atoms: C_9  and  C_10 
REMARK    6  A    between atoms: N_15  and  C_14 
REMARK    7  A    between atoms: N_20  and  C_19 
REMARK       I    between atoms: C_22  and  N_20 
ROOT
ATOM      1  C   LIG d   1      -5.553  95.156 120.207  0.00  0.00     0.161 C 
ATOM      2  C   LIG d   1      -6.617  94.362 119.748  0.00  0.00     0.016 C 
ATOM      3  C   LIG d   1      -7.460  94.734 118.676  0.00  0.00     0.038 C 
ATOM      4  C   LIG d   1      -7.200  95.864 117.886  0.00  0.00     0.028 C 
ATOM      5  C   LIG d   1      -6.438  96.958 118.627  0.00  0.00    -0.047 C 
ATOM      6  C   LIG d   1      -5.185  96.338 119.286  0.00  0.00     0.091 C 
ENDROOT
BRANCH   1   7
ATOM      7  O   LIG d   1      -4.396  94.330 120.448  0.00  0.00    -0.368 OA
BRANCH   7   8
ATOM      8  C   LIG d   1      -4.405  93.023 119.823  0.00  0.00     0.119 C 
BRANCH   8   9
ATOM      9  C   LIG d   1      -3.894  92.009 120.864  0.00  0.00     0.028 C 
ATOM     10  C   LIG d   1      -2.949  90.962 120.250  0.00  0.00     0.006 C 
ENDBRANCH   8   9
BRANCH   8  11
ATOM     11  C   LIG d   1      -3.406  92.952 118.664  0.00  0.00     0.028 C 
ATOM     12  C   LIG d   1      -4.088  92.973 117.287  0.00  0.00     0.006 C 
ENDBRANCH   8  11
ENDBRANCH   7   8
ENDBRANCH   1   7
BRANCH   6  13
ATOM     13  N   LIG d   1      -4.428  97.324 120.101  0.00  0.00    -0.311 N 
ATOM     14  C   LIG d   1      -3.239  97.809 119.746  0.00  0.00     0.210 C 
ATOM     15  C   LIG d   1      -2.622  98.799 120.740  0.00  0.00     0.109 C 
ATOM     16  O   LIG d   1      -2.653  97.539 118.687  0.00  0.00    -0.276 OA
ATOM     17  H   LIG d   1      -4.845  97.621 120.961  0.00  0.00     0.149 HD
ENDBRANCH   6  13
BRANCH   5  18
ATOM     18  N   LIG d   1      -6.115  98.015 117.650  0.00  0.00     0.381 N 
ATOM     19  H   LIG d   1      -6.957  98.453 117.333  0.00  0.00    -0.090 HD
ATOM     20  H   LIG d   1      -5.659  97.597 116.858  0.00  0.00    -0.090 HD
ATOM     21  H   LIG d   1      -5.516  98.693 118.067  0.00  0.00    -0.090 HD
ENDBRANCH   5  18
BRANCH   3  22
ATOM     22  C   LIG d   1      -8.602  93.993 118.410  0.00  0.00     0.382 C 
ATOM     23  O   LIG d   1      -8.828  93.586 117.245  0.00  0.00    -0.241 OA
ATOM     24  O   LIG d   1      -9.431  93.764 119.311  0.00  0.00    -0.241 OA
ENDBRANCH   3  22
TORSDOF 7
ENDMDL
MODEL 8
REMARK VINA RESULT:      -4.5     21.514     23.278
REMARK  7 active torsions:
REMARK  status: ('A' for Active; 'I' for Inactive)
REMARK    1  A    between atoms: C_2  and  C_3 
REMARK    2  A    between atoms: C_3  and  O_6 
REMARK    3  A    between atoms: C_3  and  C_4 
REMARK    4  A    between atoms: C_7  and  O_6 
REMARK    5  A    between atoms: C_9  and  C_10 
REMARK    6  A    between atoms: N_15  and  C_14 
REMARK    7  A    between atoms: N_20  and  C_19 
REMARK       I    between atoms: C_22  and  N_20 
ROOT
ATOM      1  C   LIG d   1      -9.279  80.613 121.548  0.00  0.00     0.161 C 
ATOM      2  C   LIG d   1     -10.084  81.560 122.203  0.00  0.00     0.016 C 
ATOM      3  C   LIG d   1     -10.150  82.921 121.824  0.00  0.00     0.038 C 
ATOM      4  C   LIG d   1      -9.524  83.398 120.663  0.00  0.00     0.028 C 
ATOM      5  C   LIG d   1      -8.296  82.589 120.260  0.00  0.00    -0.047 C 
ATOM      6  C   LIG d   1      -8.676  81.091 120.211  0.00  0.00     0.091 C 
ENDROOT
BRANCH   1   7
ATOM      7  O   LIG d   1     -10.020  79.392 121.356  0.00  0.00    -0.368 OA
BRANCH   7   8
ATOM      8  C   LIG d   1      -9.785  78.344 122.329  0.00  0.00     0.119 C 
BRANCH   8   9
ATOM      9  C   LIG d   1      -8.685  77.425 121.764  0.00  0.00     0.028 C 
ATOM     10  C   LIG d   1      -7.346  77.590 122.501  0.00  0.00     0.006 C 
ENDBRANCH   8   9
BRANCH   8  11
ATOM     11  C   LIG d   1     -11.017  77.450 122.493  0.00  0.00     0.028 C 
ATOM     12  C   LIG d   1     -10.951  76.181 121.627  0.00  0.00     0.006 C 
ENDBRANCH   8  11
ENDBRANCH   7   8
ENDBRANCH   1   7
BRANCH   6  13
ATOM     13  N   LIG d   1      -7.511  80.221 119.906  0.00  0.00    -0.311 N 
ATOM     14  C   LIG d   1      -7.205  79.809 118.677  0.00  0.00     0.210 C 
ATOM     15  C   LIG d   1      -5.974  78.901 118.587  0.00  0.00     0.109 C 
ATOM     16  O   LIG d   1      -7.817  80.135 117.649  0.00  0.00    -0.276 OA
ATOM     17  H   LIG d   1      -6.942  79.934 120.679  0.00  0.00     0.149 HD
ENDBRANCH   6  13
BRANCH   5  18
ATOM     18  N   LIG d   1      -7.826  83.109 118.962  0.00  0.00     0.381 N 
ATOM     19  H   LIG d   1      -8.162  84.042 118.829  0.00  0.00    -0.090 HD
ATOM     20  H   LIG d   1      -8.197  82.532 118.227  0.00  0.00    -0.090 HD
ATOM     21  H   LIG d   1      -6.831  83.099 118.931  0.00  0.00    -0.090 HD
ENDBRANCH   5  18
BRANCH   3  22
ATOM     22  C   LIG d   1     -10.814  83.829 122.635  0.00  0.00     0.382 C 
ATOM     23  O   LIG d   1     -12.017  84.106 122.410  0.00  0.00    -0.241 OA
ATOM     24  O   LIG d   1     -10.214  84.407 123.560  0.00  0.00    -0.241 OA
ENDBRANCH   3  22
TORSDOF 7
ENDMDL
MODEL 9
REMARK VINA RESULT:      -4.4     21.203     22.723
REMARK  7 active torsions:
REMARK  status: ('A' for Active; 'I' for Inactive)
REMARK    1  A    between atoms: C_2  and  C_3 
REMARK    2  A    between atoms: C_3  and  O_6 
REMARK    3  A    between atoms: C_3  and  C_4 
REMARK    4  A    between atoms: C_7  and  O_6 
REMARK    5  A    between atoms: C_9  and  C_10 
REMARK    6  A    between atoms: N_15  and  C_14 
REMARK    7  A    between atoms: N_20  and  C_19 
REMARK       I    between atoms: C_22  and  N_20 
ROOT
ATOM      1  C   LIG d   1      -8.536  80.254 121.190  0.00  0.00     0.161 C 
ATOM      2  C   LIG d   1      -8.901  78.899 121.249  0.00  0.00     0.016 C 
ATOM      3  C   LIG d   1     -10.100  78.440 121.841  0.00  0.00     0.038 C 
ATOM      4  C   LIG d   1     -11.094  79.325 122.283  0.00  0.00     0.028 C 
ATOM      5  C   LIG d   1     -10.550  80.686 122.703  0.00  0.00    -0.047 C 
ATOM      6  C   LIG d   1      -9.660  81.242 121.568  0.00  0.00     0.091 C 
ENDROOT
BRANCH   1   7
ATOM      7  O   LIG d   1      -8.015  80.564 119.883  0.00  0.00    -0.368 OA
BRANCH   7   8
ATOM      8  C   LIG d   1      -8.433  79.688 118.806  0.00  0.00     0.119 C 
BRANCH   8   9
ATOM      9  C   LIG d   1      -7.202  79.430 117.916  0.00  0.00     0.028 C 
ATOM     10  C   LIG d   1      -6.120  78.607 118.635  0.00  0.00     0.006 C 
ENDBRANCH   8   9
BRANCH   8  11
ATOM     11  C   LIG d   1      -9.455  80.374 117.895  0.00  0.00     0.028 C 
ATOM     12  C   LIG d   1      -8.997  81.763 117.424  0.00  0.00     0.006 C 
ENDBRANCH   8  11
ENDBRANCH   7   8
ENDBRANCH   1   7
BRANCH   6  13
ATOM     13  N   LIG d   1      -9.019  82.533 121.931  0.00  0.00    -0.311 N 
ATOM     14  C   LIG d   1      -9.552  83.721 121.649  0.00  0.00     0.210 C 
ATOM     15  C   LIG d   1      -8.718  84.926 122.094  0.00  0.00     0.109 C 
ATOM     16  O   LIG d   1     -10.652  83.890 121.101  0.00  0.00    -0.276 OA
ATOM     17  H   LIG d   1      -8.139  82.488 122.406  0.00  0.00     0.149 HD
ENDBRANCH   6  13
BRANCH   5  18
ATOM     18  N   LIG d   1     -11.704  81.552 123.009  0.00  0.00     0.381 N 
ATOM     19  H   LIG d   1     -11.621  82.416 122.511  0.00  0.00    -0.090 HD
ATOM     20  H   LIG d   1     -11.706  81.755 123.994  0.00  0.00    -0.090 HD
ATOM     21  H   LIG d   1     -12.551  81.094 122.756  0.00  0.00    -0.090 HD
ENDBRANCH   5  18
BRANCH   3  22
ATOM     22  C   LIG d   1     -10.296  77.080 122.031  0.00  0.00     0.382 C 
ATOM     23  O   LIG d   1      -9.478  76.256 121.556  0.00  0.00    -0.241 OA
ATOM     24  O   LIG d   1     -11.304  76.666 122.634  0.00  0.00    -0.241 OA
ENDBRANCH   3  22
TORSDOF 7
ENDMDL
