MODEL 1
REMARK VINA RESULT:      -5.0      0.000      0.000
REMARK  7 active torsions:
REMARK  status: ('A' for Active; 'I' for Inactive)
REMARK    1  A    between atoms: C_2  and  C_3 
REMARK    2  A    between atoms: C_3  and  O_6 
REMARK    3  A    between atoms: C_3  and  C_4 
REMARK    4  A    between atoms: C_7  and  O_6 
REMARK    5  A    between atoms: C_9  and  C_10 
REMARK    6  A    between atoms: N_15  and  C_14 
REMARK    7  A    between atoms: N_20  and  C_19 
REMARK       I    between atoms: C_22  and  N_20 
ROOT
ATOM      1  C   LIG d   1      -3.132  58.628 120.382  0.00  0.00     0.161 C 
ATOM      2  C   LIG d   1      -1.767  58.333 120.231  0.00  0.00     0.016 C 
ATOM      3  C   LIG d   1      -0.771  58.777 121.130  0.00  0.00     0.038 C 
ATOM      4  C   LIG d   1      -1.093  59.423 122.333  0.00  0.00     0.028 C 
ATOM      5  C   LIG d   1      -2.414  60.184 122.277  0.00  0.00    -0.047 C 
ATOM      6  C   LIG d   1      -3.515  59.237 121.746  0.00  0.00     0.091 C 
ENDROOT
BRANCH   1   7
ATOM      7  O   LIG d   1      -3.919  57.448 120.122  0.00  0.00    -0.368 OA
BRANCH   7   8
ATOM      8  C   LIG d   1      -4.151  57.131 118.727  0.00  0.00     0.119 C 
BRANCH   8   9
ATOM      9  C   LIG d   1      -5.345  57.982 118.252  0.00  0.00     0.028 C 
ATOM     10  C   LIG d   1      -4.944  59.009 117.180  0.00  0.00     0.006 C 
ENDBRANCH   8   9
BRANCH   8  11
ATOM     11  C   LIG d   1      -4.594  55.676 118.553  0.00  0.00     0.028 C 
ATOM     12  C   LIG d   1      -4.997  55.012 119.879  0.00  0.00     0.006 C 
ENDBRANCH   8  11
ENDBRANCH   7   8
ENDBRANCH   1   7
BRANCH   6  13
ATOM     13  N   LIG d   1      -4.822  59.926 121.581  0.00  0.00    -0.311 N 
ATOM     14  C   LIG d   1      -5.804  59.860 122.479  0.00  0.00     0.210 C 
ATOM     15  C   LIG d   1      -7.076  60.627 122.103  0.00  0.00     0.109 C 
ATOM     16  O   LIG d   1      -5.730  59.267 123.565  0.00  0.00    -0.276 OA
ATOM     17  H   LIG d   1      -4.955  60.456 120.742  0.00  0.00     0.149 HD
ENDBRANCH   6  13
BRANCH   5  18
ATOM     18  N   LIG d   1      -2.693  60.693 123.633  0.00  0.00     0.381 N 
ATOM     19  H   LIG d   1      -3.463  61.330 123.604  0.00  0.00    -0.090 HD
ATOM     20  H   LIG d   1      -1.885  61.189 123.966  0.00  0.00    -0.090 HD
ATOM     21  H   LIG d   1      -2.902  59.935 124.245  0.00  0.00    -0.090 HD
ENDBRANCH   5  18
BRANCH   3  22
ATOM     22  C   LIG d   1       0.568  58.609 120.810  0.00  0.00     0.382 C 
ATOM     23  O   LIG d   1       0.896  58.251 119.654  0.00  0.00    -0.241 OA
ATOM     24  O   LIG d   1       1.449  58.770 121.676  0.00  0.00    -0.241 OA
ENDBRANCH   3  22
TORSDOF 7
ENDMDL
MODEL 2
REMARK VINA RESULT:      -4.9     19.798     21.786
REMARK  7 active torsions:
REMARK  status: ('A' for Active; 'I' for Inactive)
REMARK    1  A    between atoms: C_2  and  C_3 
REMARK    2  A    between atoms: C_3  and  O_6 
REMARK    3  A    between atoms: C_3  and  C_4 
REMARK    4  A    between atoms: C_7  and  O_6 
REMARK    5  A    between atoms: C_9  and  C_10 
REMARK    6  A    between atoms: N_15  and  C_14 
REMARK    7  A    between atoms: N_20  and  C_19 
REMARK       I    between atoms: C_22  and  N_20 
ROOT
ATOM      1  C   LIG d   1      -7.293  79.331 118.325  0.00  0.00     0.161 C 
ATOM      2  C   LIG d   1      -6.973  78.046 117.858  0.00  0.00     0.016 C 
ATOM      3  C   LIG d   1      -7.899  76.978 117.822  0.00  0.00     0.038 C 
ATOM      4  C   LIG d   1      -9.259  77.166 118.111  0.00  0.00     0.028 C 
ATOM      5  C   LIG d   1      -9.520  78.323 119.069  0.00  0.00    -0.047 C 
ATOM      6  C   LIG d   1      -8.800  79.584 118.541  0.00  0.00     0.091 C 
ENDROOT
BRANCH   1   7
ATOM      7  O   LIG d   1      -6.740  80.325 117.439  0.00  0.00    -0.368 OA
BRANCH   7   8
ATOM      8  C   LIG d   1      -5.558  81.015 117.915  0.00  0.00     0.119 C 
BRANCH   8   9
ATOM      9  C   LIG d   1      -4.330  80.269 117.358  0.00  0.00     0.028 C 
ATOM     10  C   LIG d   1      -3.061  80.523 118.189  0.00  0.00     0.006 C 
ENDBRANCH   8   9
BRANCH   8  11
ATOM     11  C   LIG d   1      -5.433  80.921 119.438  0.00  0.00     0.028 C 
ATOM     12  C   LIG d   1      -5.760  82.245 120.146  0.00  0.00     0.006 C 
ENDBRANCH   8  11
ENDBRANCH   7   8
ENDBRANCH   1   7
BRANCH   6  13
ATOM     13  N   LIG d   1      -8.934  80.742 119.463  0.00  0.00    -0.311 N 
ATOM     14  C   LIG d   1      -9.634  81.836 119.169  0.00  0.00     0.210 C 
ATOM     15  C   LIG d   1      -9.626  82.920 120.252  0.00  0.00     0.109 C 
ATOM     16  O   LIG d   1     -10.287  82.000 118.127  0.00  0.00    -0.276 OA
ATOM     17  H   LIG d   1      -8.462  80.681 120.343  0.00  0.00     0.149 HD
ENDBRANCH   6  13
BRANCH   5  18
ATOM     18  N   LIG d   1     -10.981  78.493 119.175  0.00  0.00     0.381 N 
ATOM     19  H   LIG d   1     -11.352  77.835 119.832  0.00  0.00    -0.090 HD
ATOM     20  H   LIG d   1     -11.395  78.310 118.278  0.00  0.00    -0.090 HD
ATOM     21  H   LIG d   1     -11.196  79.421 119.466  0.00  0.00    -0.090 HD
ENDBRANCH   5  18
BRANCH   3  22
ATOM     22  C   LIG d   1      -7.458  75.696 117.531  0.00  0.00     0.382 C 
ATOM     23  O   LIG d   1      -8.237  74.720 117.662  0.00  0.00    -0.241 OA
ATOM     24  O   LIG d   1      -6.280  75.497 117.181  0.00  0.00    -0.241 OA
ENDBRANCH   3  22
TORSDOF 7
ENDMDL
MODEL 3
REMARK VINA RESULT:      -4.8     20.825     23.321
REMARK  7 active torsions:
REMARK  status: ('A' for Active; 'I' for Inactive)
REMARK    1  A    between atoms: C_2  and  C_3 
REMARK    2  A    between atoms: C_3  and  O_6 
REMARK    3  A    between atoms: C_3  and  C_4 
REMARK    4  A    between atoms: C_7  and  O_6 
REMARK    5  A    between atoms: C_9  and  C_10 
REMARK    6  A    between atoms: N_15  and  C_14 
REMARK    7  A    between atoms: N_20  and  C_19 
REMARK       I    between atoms: C_22  and  N_20 
ROOT
ATOM      1  C   LIG d   1      -8.457  80.540 121.209  0.00  0.00     0.161 C 
ATOM      2  C   LIG d   1      -8.466  81.819 121.788  0.00  0.00     0.016 C 
ATOM      3  C   LIG d   1      -9.149  82.923 121.228  0.00  0.00     0.038 C 
ATOM      4  C   LIG d   1     -10.001  82.784 120.123  0.00  0.00     0.028 C 
ATOM      5  C   LIG d   1      -9.624  81.622 119.210  0.00  0.00    -0.047 C 
ATOM      6  C   LIG d   1      -9.472  80.342 120.063  0.00  0.00     0.091 C 
ENDROOT
BRANCH   1   7
ATOM      7  O   LIG d   1      -8.653  79.540 122.228  0.00  0.00    -0.368 OA
BRANCH   7   8
ATOM      8  C   LIG d   1     -10.012  79.075 122.413  0.00  0.00     0.119 C 
BRANCH   8   9
ATOM      9  C   LIG d   1     -10.515  79.638 123.757  0.00  0.00     0.028 C 
ATOM     10  C   LIG d   1     -11.576  80.736 123.572  0.00  0.00     0.006 C 
ENDBRANCH   8   9
BRANCH   8  11
ATOM     11  C   LIG d   1     -10.064  77.552 122.567  0.00  0.00     0.028 C 
ATOM     12  C   LIG d   1      -8.762  76.864 122.129  0.00  0.00     0.006 C 
ENDBRANCH   8  11
ENDBRANCH   7   8
ENDBRANCH   1   7
BRANCH   6  13
ATOM     13  N   LIG d   1      -9.022  79.176 119.260  0.00  0.00    -0.311 N 
ATOM     14  C   LIG d   1      -9.855  78.267 118.756  0.00  0.00     0.210 C 
ATOM     15  C   LIG d   1      -9.182  77.134 117.975  0.00  0.00     0.109 C 
ATOM     16  O   LIG d   1     -11.091  78.310 118.853  0.00  0.00    -0.276 OA
ATOM     17  H   LIG d   1      -8.037  79.081 119.105  0.00  0.00     0.149 HD
ENDBRANCH   6  13
BRANCH   5  18
ATOM     18  N   LIG d   1     -10.672  81.508 118.178  0.00  0.00     0.381 N 
ATOM     19  H   LIG d   1     -11.331  82.254 118.281  0.00  0.00    -0.090 HD
ATOM     20  H   LIG d   1     -11.158  80.638 118.303  0.00  0.00    -0.090 HD
ATOM     21  H   LIG d   1     -10.262  81.541 117.270  0.00  0.00    -0.090 HD
ENDBRANCH   5  18
BRANCH   3  22
ATOM     22  C   LIG d   1      -8.951  84.191 121.752  0.00  0.00     0.382 C 
ATOM     23  O   LIG d   1      -7.899  84.452 122.384  0.00  0.00    -0.241 OA
ATOM     24  O   LIG d   1      -9.831  85.066 121.640  0.00  0.00    -0.241 OA
ENDBRANCH   3  22
TORSDOF 7
ENDMDL
MODEL 4
REMARK VINA RESULT:      -4.7     33.477     35.250
REMARK  7 active torsions:
REMARK  status: ('A' for Active; 'I' for Inactive)
REMARK    1  A    between atoms: C_2  and  C_3 
REMARK    2  A    between atoms: C_3  and  O_6 
REMARK    3  A    between atoms: C_3  and  C_4 
REMARK    4  A    between atoms: C_7  and  O_6 
REMARK    5  A    between atoms: C_9  and  C_10 
REMARK    6  A    between atoms: N_15  and  C_14 
REMARK    7  A    between atoms: N_20  and  C_19 
REMARK       I    between atoms: C_22  and  N_20 
ROOT
ATOM      1  C   LIG d   1      -5.685  92.892 120.092  0.00  0.00     0.161 C 
ATOM      2  C   LIG d   1      -5.624  91.728 119.308  0.00  0.00     0.016 C 
ATOM      3  C   LIG d   1      -6.361  91.555 118.114  0.00  0.00     0.038 C 
ATOM      4  C   LIG d   1      -7.098  92.600 117.539  0.00  0.00     0.028 C 
ATOM      5  C   LIG d   1      -7.592  93.624 118.556  0.00  0.00    -0.047 C 
ATOM      6  C   LIG d   1      -6.398  94.086 119.423  0.00  0.00     0.091 C 
ENDROOT
BRANCH   1   7
ATOM      7  O   LIG d   1      -4.358  93.271 120.509  0.00  0.00    -0.368 OA
BRANCH   7   8
ATOM      8  C   LIG d   1      -3.477  93.757 119.467  0.00  0.00     0.119 C 
BRANCH   8   9
ATOM      9  C   LIG d   1      -2.268  92.804 119.401  0.00  0.00     0.028 C 
ATOM     10  C   LIG d   1      -2.076  92.194 118.002  0.00  0.00     0.006 C 
ENDBRANCH   8   9
BRANCH   8  11
ATOM     11  C   LIG d   1      -2.894  95.127 119.824  0.00  0.00     0.028 C 
ATOM     12  C   LIG d   1      -3.004  95.449 121.323  0.00  0.00     0.006 C 
ENDBRANCH   8  11
ENDBRANCH   7   8
ENDBRANCH   1   7
BRANCH   6  13
ATOM     13  N   LIG d   1      -6.809  95.026 120.499  0.00  0.00    -0.311 N 
ATOM     14  C   LIG d   1      -6.535  96.329 120.478  0.00  0.00     0.210 C 
ATOM     15  C   LIG d   1      -7.032  97.114 121.696  0.00  0.00     0.109 C 
ATOM     16  O   LIG d   1      -5.956  96.915 119.551  0.00  0.00    -0.276 OA
ATOM     17  H   LIG d   1      -7.310  94.639 121.275  0.00  0.00     0.149 HD
ENDBRANCH   6  13
BRANCH   5  18
ATOM     18  N   LIG d   1      -8.224  94.727 117.808  0.00  0.00     0.381 N 
ATOM     19  H   LIG d   1      -8.047  94.617 116.830  0.00  0.00    -0.090 HD
ATOM     20  H   LIG d   1      -7.819  95.597 118.107  0.00  0.00    -0.090 HD
ATOM     21  H   LIG d   1      -9.206  94.734 117.976  0.00  0.00    -0.090 HD
ENDBRANCH   5  18
BRANCH   3  22
ATOM     22  C   LIG d   1      -6.396  90.310 117.503  0.00  0.00     0.382 C 
ATOM     23  O   LIG d   1      -7.497  89.801 117.181  0.00  0.00    -0.241 OA
ATOM     24  O   LIG d   1      -5.345  89.671 117.310  0.00  0.00    -0.241 OA
ENDBRANCH   3  22
TORSDOF 7
ENDMDL
MODEL 5
REMARK VINA RESULT:      -4.7     20.650     23.191
REMARK  7 active torsions:
REMARK  status: ('A' for Active; 'I' for Inactive)
REMARK    1  A    between atoms: C_2  and  C_3 
REMARK    2  A    between atoms: C_3  and  O_6 
REMARK    3  A    between atoms: C_3  and  C_4 
REMARK    4  A    between atoms: C_7  and  O_6 
REMARK    5  A    between atoms: C_9  and  C_10 
REMARK    6  A    between atoms: N_15  and  C_14 
REMARK    7  A    between atoms: N_20  and  C_19 
REMARK       I    between atoms: C_22  and  N_20 
ROOT
ATOM      1  C   LIG d   1      -9.546  80.535 121.190  0.00  0.00     0.161 C 
ATOM      2  C   LIG d   1      -9.798  81.797 121.754  0.00  0.00     0.016 C 
ATOM      3  C   LIG d   1     -10.154  82.933 120.991  0.00  0.00     0.038 C 
ATOM      4  C   LIG d   1     -10.429  82.848 119.619  0.00  0.00     0.028 C 
ATOM      5  C   LIG d   1      -9.697  81.704 118.924  0.00  0.00    -0.047 C 
ATOM      6  C   LIG d   1      -9.950  80.397 119.708  0.00  0.00     0.091 C 
ENDROOT
BRANCH   1   7
ATOM      7  O   LIG d   1     -10.181  79.511 121.981  0.00  0.00    -0.368 OA
BRANCH   7   8
ATOM      8  C   LIG d   1      -9.296  78.652 122.742  0.00  0.00     0.119 C 
BRANCH   8   9
ATOM      9  C   LIG d   1      -7.851  78.997 122.331  0.00  0.00     0.028 C 
ATOM     10  C   LIG d   1      -7.096  77.782 121.766  0.00  0.00     0.006 C 
ENDBRANCH   8   9
BRANCH   8  11
ATOM     11  C   LIG d   1      -9.485  77.181 122.363  0.00  0.00     0.028 C 
ATOM     12  C   LIG d   1     -10.276  76.391 123.418  0.00  0.00     0.006 C 
ENDBRANCH   8  11
ENDBRANCH   7   8
ENDBRANCH   1   7
BRANCH   6  13
ATOM     13  N   LIG d   1      -9.201  79.244 119.143  0.00  0.00    -0.311 N 
ATOM     14  C   LIG d   1      -9.792  78.161 118.639  0.00  0.00     0.210 C 
ATOM     15  C   LIG d   1      -8.834  77.081 118.128  0.00  0.00     0.109 C 
ATOM     16  O   LIG d   1     -11.018  78.008 118.538  0.00  0.00    -0.276 OA
ATOM     17  H   LIG d   1      -8.201  79.298 119.157  0.00  0.00     0.149 HD
ENDBRANCH   6  13
BRANCH   5  18
ATOM     18  N   LIG d   1     -10.181  81.647 117.531  0.00  0.00     0.381 N 
ATOM     19  H   LIG d   1     -10.569  82.531 117.270  0.00  0.00    -0.090 HD
ATOM     20  H   LIG d   1     -10.906  80.953 117.468  0.00  0.00    -0.090 HD
ATOM     21  H   LIG d   1      -9.431  81.411 116.919  0.00  0.00    -0.090 HD
ENDBRANCH   5  18
BRANCH   3  22
ATOM     22  C   LIG d   1     -10.197  84.180 121.596  0.00  0.00     0.382 C 
ATOM     23  O   LIG d   1     -11.274  84.604 122.081  0.00  0.00    -0.241 OA
ATOM     24  O   LIG d   1      -9.184  84.905 121.622  0.00  0.00    -0.241 OA
ENDBRANCH   3  22
TORSDOF 7
ENDMDL
MODEL 6
REMARK VINA RESULT:      -4.7     33.336     35.017
REMARK  7 active torsions:
REMARK  status: ('A' for Active; 'I' for Inactive)
REMARK    1  A    between atoms: C_2  and  C_3 
REMARK    2  A    between atoms: C_3  and  O_6 
REMARK    3  A    between atoms: C_3  and  C_4 
REMARK    4  A    between atoms: C_7  and  O_6 
REMARK    5  A    between atoms: C_9  and  C_10 
REMARK    6  A    between atoms: N_15  and  C_14 
REMARK    7  A    between atoms: N_20  and  C_19 
REMARK       I    between atoms: C_22  and  N_20 
ROOT
ATOM      1  C   LIG d   1      -5.078  93.266 119.574  0.00  0.00     0.161 C 
ATOM      2  C   LIG d   1      -3.839  92.781 119.125  0.00  0.00     0.016 C 
ATOM      3  C   LIG d   1      -3.702  91.636 118.307  0.00  0.00     0.038 C 
ATOM      4  C   LIG d   1      -4.813  90.982 117.755  0.00  0.00     0.028 C 
ATOM      5  C   LIG d   1      -6.081  91.132 118.589  0.00  0.00    -0.047 C 
ATOM      6  C   LIG d   1      -6.307  92.631 118.892  0.00  0.00     0.091 C 
ENDROOT
BRANCH   1   7
ATOM      7  O   LIG d   1      -5.117  94.701 119.444  0.00  0.00    -0.368 OA
BRANCH   7   8
ATOM      8  C   LIG d   1      -4.794  95.459 120.635  0.00  0.00     0.119 C 
BRANCH   8   9
ATOM      9  C   LIG d   1      -5.970  96.416 120.909  0.00  0.00     0.028 C 
ATOM     10  C   LIG d   1      -6.829  96.663 119.657  0.00  0.00     0.006 C 
ENDBRANCH   8   9
BRANCH   8  11
ATOM     11  C   LIG d   1      -3.579  96.364 120.407  0.00  0.00     0.028 C 
ATOM     12  C   LIG d   1      -3.167  96.446 118.929  0.00  0.00     0.006 C 
ENDBRANCH   8  11
ENDBRANCH   7   8
ENDBRANCH   1   7
BRANCH   6  13
ATOM     13  N   LIG d   1      -7.480  92.860 119.775  0.00  0.00    -0.311 N 
ATOM     14  C   LIG d   1      -8.582  93.496 119.380  0.00  0.00     0.210 C 
ATOM     15  C   LIG d   1      -9.665  93.641 120.455  0.00  0.00     0.109 C 
ATOM     16  O   LIG d   1      -8.779  93.924 118.233  0.00  0.00    -0.276 OA
ATOM     17  H   LIG d   1      -7.418  92.517 120.714  0.00  0.00     0.149 HD
ENDBRANCH   6  13
BRANCH   5  18
ATOM     18  N   LIG d   1      -7.189  90.521 117.831  0.00  0.00     0.381 N 
ATOM     19  H   LIG d   1      -7.306  90.998 116.959  0.00  0.00    -0.090 HD
ATOM     20  H   LIG d   1      -8.037  90.619 118.360  0.00  0.00    -0.090 HD
ATOM     21  H   LIG d   1      -6.999  89.557 117.668  0.00  0.00    -0.090 HD
ENDBRANCH   5  18
BRANCH   3  22
ATOM     22  C   LIG d   1      -2.441  91.110 118.065  0.00  0.00     0.382 C 
ATOM     23  O   LIG d   1      -2.287  89.868 117.972  0.00  0.00    -0.241 OA
ATOM     24  O   LIG d   1      -1.449  91.859 117.984  0.00  0.00    -0.241 OA
ENDBRANCH   3  22
TORSDOF 7
ENDMDL
MODEL 7
REMARK VINA RESULT:      -4.6      1.680      2.031
REMARK  7 active torsions:
REMARK  status: ('A' for Active; 'I' for Inactive)
REMARK    1  A    between atoms: C_2  and  C_3 
REMARK    2  A    between atoms: C_3  and  O_6 
REMARK    3  A    between atoms: C_3  and  C_4 
REMARK    4  A    between atoms: C_7  and  O_6 
REMARK    5  A    between atoms: C_9  and  C_10 
REMARK    6  A    between atoms: N_15  and  C_14 
REMARK    7  A    between atoms: N_20  and  C_19 
REMARK       I    between atoms: C_22  and  N_20 
ROOT
ATOM      1  C   LIG d   1      -2.946  59.278 120.533  0.00  0.00     0.161 C 
ATOM      2  C   LIG d   1      -2.029  59.127 119.479  0.00  0.00     0.016 C 
ATOM      3  C   LIG d   1      -0.697  58.691 119.663  0.00  0.00     0.038 C 
ATOM      4  C   LIG d   1      -0.232  58.230 120.903  0.00  0.00     0.028 C 
ATOM      5  C   LIG d   1      -0.968  58.840 122.091  0.00  0.00    -0.047 C 
ATOM      6  C   LIG d   1      -2.490  58.673 121.878  0.00  0.00     0.091 C 
ENDROOT
BRANCH   1   7
ATOM      7  O   LIG d   1      -4.226  58.738 120.149  0.00  0.00    -0.368 OA
BRANCH   7   8
ATOM      8  C   LIG d   1      -4.201  57.688 119.152  0.00  0.00     0.119 C 
BRANCH   8   9
ATOM      9  C   LIG d   1      -5.321  57.987 118.137  0.00  0.00     0.028 C 
ATOM     10  C   LIG d   1      -4.956  59.135 117.181  0.00  0.00     0.006 C 
ENDBRANCH   8   9
BRANCH   8  11
ATOM     11  C   LIG d   1      -4.560  56.330 119.763  0.00  0.00     0.028 C 
ATOM     12  C   LIG d   1      -3.323  55.478 120.090  0.00  0.00     0.006 C 
ENDBRANCH   8  11
ENDBRANCH   7   8
ENDBRANCH   1   7
BRANCH   6  13
ATOM     13  N   LIG d   1      -3.287  59.317 122.954  0.00  0.00    -0.311 N 
ATOM     14  C   LIG d   1      -4.148  58.655 123.725  0.00  0.00     0.210 C 
ATOM     15  C   LIG d   1      -4.881  59.514 124.761  0.00  0.00     0.109 C 
ATOM     16  O   LIG d   1      -4.350  57.433 123.672  0.00  0.00    -0.276 OA
ATOM     17  H   LIG d   1      -3.163  60.302 123.087  0.00  0.00     0.149 HD
ENDBRANCH   6  13
BRANCH   5  18
ATOM     18  N   LIG d   1      -0.479  58.170 123.311  0.00  0.00     0.381 N 
ATOM     19  H   LIG d   1       0.239  57.515 123.072  0.00  0.00    -0.090 HD
ATOM     20  H   LIG d   1      -1.239  57.665 123.732  0.00  0.00    -0.090 HD
ATOM     21  H   LIG d   1      -0.123  58.845 123.951  0.00  0.00    -0.090 HD
ENDBRANCH   5  18
BRANCH   3  22
ATOM     22  C   LIG d   1       0.198  58.753 118.605  0.00  0.00     0.382 C 
ATOM     23  O   LIG d   1      -0.028  59.517 117.636  0.00  0.00    -0.241 OA
ATOM     24  O   LIG d   1       1.206  58.021 118.587  0.00  0.00    -0.241 OA
ENDBRANCH   3  22
TORSDOF 7
ENDMDL
MODEL 8
REMARK VINA RESULT:      -4.6      2.630      4.682
REMARK  7 active torsions:
REMARK  status: ('A' for Active; 'I' for Inactive)
REMARK    1  A    between atoms: C_2  and  C_3 
REMARK    2  A    between atoms: C_3  and  O_6 
REMARK    3  A    between atoms: C_3  and  C_4 
REMARK    4  A    between atoms: C_7  and  O_6 
REMARK    5  A    between atoms: C_9  and  C_10 
REMARK    6  A    between atoms: N_15  and  C_14 
REMARK    7  A    between atoms: N_20  and  C_19 
REMARK       I    between atoms: C_22  and  N_20 
ROOT
ATOM      1  C   LIG d   1      -0.941  58.997 121.462  0.00  0.00     0.161 C 
ATOM      2  C   LIG d   1       0.291  58.935 122.135  0.00  0.00     0.016 C 
ATOM      3  C   LIG d   1       1.485  58.480 121.531  0.00  0.00     0.038 C 
ATOM      4  C   LIG d   1       1.561  58.195 120.159  0.00  0.00     0.028 C 
ATOM      5  C   LIG d   1       0.229  57.761 119.556  0.00  0.00    -0.047 C 
ATOM      6  C   LIG d   1      -0.855  58.796 119.935  0.00  0.00     0.091 C 
ENDROOT
BRANCH   1   7
ATOM      7  O   LIG d   1      -1.603  60.241 121.767  0.00  0.00    -0.368 OA
BRANCH   7   8
ATOM      8  C   LIG d   1      -2.738  60.156 122.664  0.00  0.00     0.119 C 
BRANCH   8   9
ATOM      9  C   LIG d   1      -2.235  60.494 124.081  0.00  0.00     0.028 C 
ATOM     10  C   LIG d   1      -2.168  59.255 124.990  0.00  0.00     0.006 C 
ENDBRANCH   8   9
BRANCH   8  11
ATOM     11  C   LIG d   1      -3.271  58.723 122.754  0.00  0.00     0.028 C 
ATOM     12  C   LIG d   1      -4.709  58.588 122.230  0.00  0.00     0.006 C 
ENDBRANCH   8  11
ENDBRANCH   7   8
ENDBRANCH   1   7
BRANCH   6  13
ATOM     13  N   LIG d   1      -2.206  58.404 119.455  0.00  0.00    -0.311 N 
ATOM     14  C   LIG d   1      -3.056  59.254 118.882  0.00  0.00     0.210 C 
ATOM     15  C   LIG d   1      -4.404  58.648 118.480  0.00  0.00     0.109 C 
ATOM     16  O   LIG d   1      -2.809  60.445 118.639  0.00  0.00    -0.276 OA
ATOM     17  H   LIG d   1      -2.476  57.448 119.584  0.00  0.00     0.149 HD
ENDBRANCH   6  13
BRANCH   5  18
ATOM     18  N   LIG d   1       0.421  57.631 118.099  0.00  0.00     0.381 N 
ATOM     19  H   LIG d   1       1.317  57.228 117.910  0.00  0.00    -0.090 HD
ATOM     20  H   LIG d   1       0.392  58.545 117.685  0.00  0.00    -0.090 HD
ATOM     21  H   LIG d   1      -0.297  57.059 117.711  0.00  0.00    -0.090 HD
ENDBRANCH   5  18
BRANCH   3  22
ATOM     22  C   LIG d   1       2.611  58.266 122.311  0.00  0.00     0.382 C 
ATOM     23  O   LIG d   1       3.683  57.891 121.776  0.00  0.00    -0.241 OA
ATOM     24  O   LIG d   1       2.558  58.401 123.548  0.00  0.00    -0.241 OA
ENDBRANCH   3  22
TORSDOF 7
ENDMDL
MODEL 9
REMARK VINA RESULT:      -4.3     10.386     13.276
REMARK  7 active torsions:
REMARK  status: ('A' for Active; 'I' for Inactive)
REMARK    1  A    between atoms: C_2  and  C_3 
REMARK    2  A    between atoms: C_3  and  O_6 
REMARK    3  A    between atoms: C_3  and  C_4 
REMARK    4  A    between atoms: C_7  and  O_6 
REMARK    5  A    between atoms: C_9  and  C_10 
REMARK    6  A    between atoms: N_15  and  C_14 
REMARK    7  A    between atoms: N_20  and  C_19 
REMARK       I    between atoms: C_22  and  N_20 
ROOT
ATOM      1  C   LIG d   1     -14.476  64.953 122.226  0.00  0.00     0.161 C 
ATOM      2  C   LIG d   1     -13.334  64.932 123.044  0.00  0.00     0.016 C 
ATOM      3  C   LIG d   1     -12.167  64.198 122.733  0.00  0.00     0.038 C 
ATOM      4  C   LIG d   1     -12.006  63.550 121.499  0.00  0.00     0.028 C 
ATOM      5  C   LIG d   1     -13.324  63.126 120.861  0.00  0.00    -0.047 C 
ATOM      6  C   LIG d   1     -14.278  64.342 120.823  0.00  0.00     0.091 C 
ENDROOT
BRANCH   1   7
ATOM      7  O   LIG d   1     -14.977  66.300 122.120  0.00  0.00    -0.368 OA
BRANCH   7   8
ATOM      8  C   LIG d   1     -14.217  67.198 121.274  0.00  0.00     0.119 C 
BRANCH   8   9
ATOM      9  C   LIG d   1     -13.993  68.501 122.066  0.00  0.00     0.028 C 
ATOM     10  C   LIG d   1     -14.702  68.487 123.431  0.00  0.00     0.006 C 
ENDBRANCH   8   9
BRANCH   8  11
ATOM     11  C   LIG d   1     -15.018  67.609 120.035  0.00  0.00     0.028 C 
ATOM     12  C   LIG d   1     -16.537  67.573 120.269  0.00  0.00     0.006 C 
ENDBRANCH   8  11
ENDBRANCH   7   8
ENDBRANCH   1   7
BRANCH   6  13
ATOM     13  N   LIG d   1     -15.620  63.993 120.290  0.00  0.00    -0.311 N 
ATOM     14  C   LIG d   1     -15.950  64.102 119.004  0.00  0.00     0.210 C 
ATOM     15  C   LIG d   1     -17.393  63.709 118.671  0.00  0.00     0.109 C 
ATOM     16  O   LIG d   1     -15.175  64.457 118.103  0.00  0.00    -0.276 OA
ATOM     17  H   LIG d   1     -16.301  63.667 120.948  0.00  0.00     0.149 HD
ENDBRANCH   6  13
BRANCH   5  18
ATOM     18  N   LIG d   1     -13.018  62.589 119.521  0.00  0.00     0.381 N 
ATOM     19  H   LIG d   1     -12.088  62.222 119.507  0.00  0.00    -0.090 HD
ATOM     20  H   LIG d   1     -13.072  63.337 118.851  0.00  0.00    -0.090 HD
ATOM     21  H   LIG d   1     -13.669  61.874 119.283  0.00  0.00    -0.090 HD
ENDBRANCH   5  18
BRANCH   3  22
ATOM     22  C   LIG d   1     -11.161  64.073 123.679  0.00  0.00     0.382 C 
ATOM     23  O   LIG d   1     -10.733  62.937 123.993  0.00  0.00    -0.241 OA
ATOM     24  O   LIG d   1     -10.706  65.080 124.254  0.00  0.00    -0.241 OA
ENDBRANCH   3  22
TORSDOF 7
ENDMDL
