MODEL 1
REMARK VINA RESULT:      -4.9      0.000      0.000
REMARK  7 active torsions:
REMARK  status: ('A' for Active; 'I' for Inactive)
REMARK    1  A    between atoms: C_2  and  C_3 
REMARK    2  A    between atoms: C_3  and  O_6 
REMARK    3  A    between atoms: C_3  and  C_4 
REMARK    4  A    between atoms: C_7  and  O_6 
REMARK    5  A    between atoms: C_9  and  C_10 
REMARK    6  A    between atoms: N_15  and  C_14 
REMARK    7  A    between atoms: N_20  and  C_19 
REMARK       I    between atoms: C_22  and  N_20 
ROOT
ATOM      1  C   LIG d   1      -1.920  57.164 120.092  0.00  0.00     0.161 C 
ATOM      2  C   LIG d   1      -2.304  57.933 118.981  0.00  0.00     0.016 C 
ATOM      3  C   LIG d   1      -3.121  59.084 119.076  0.00  0.00     0.038 C 
ATOM      4  C   LIG d   1      -3.486  59.634 120.313  0.00  0.00     0.028 C 
ATOM      5  C   LIG d   1      -3.543  58.607 121.440  0.00  0.00    -0.047 C 
ATOM      6  C   LIG d   1      -2.217  57.812 121.461  0.00  0.00     0.091 C 
ENDROOT
BRANCH   1   7
ATOM      7  O   LIG d   1      -0.523  56.824 119.992  0.00  0.00    -0.368 OA
BRANCH   7   8
ATOM      8  C   LIG d   1       0.238  57.545 118.992  0.00  0.00     0.119 C 
BRANCH   8   9
ATOM      9  C   LIG d   1       1.000  56.503 118.150  0.00  0.00     0.028 C 
ATOM     10  C   LIG d   1       0.888  55.083 118.732  0.00  0.00     0.006 C 
ENDBRANCH   8   9
BRANCH   8  11
ATOM     11  C   LIG d   1       1.320  58.416 119.636  0.00  0.00     0.028 C 
ATOM     12  C   LIG d   1       2.685  58.282 118.940  0.00  0.00     0.006 C 
ENDBRANCH   8  11
ENDBRANCH   7   8
ENDBRANCH   1   7
BRANCH   6  13
ATOM     13  N   LIG d   1      -2.222  56.730 122.479  0.00  0.00    -0.311 N 
ATOM     14  C   LIG d   1      -1.765  56.889 123.720  0.00  0.00     0.210 C 
ATOM     15  C   LIG d   1      -1.844  55.639 124.604  0.00  0.00     0.109 C 
ATOM     16  O   LIG d   1      -1.332  57.954 124.183  0.00  0.00    -0.276 OA
ATOM     17  H   LIG d   1      -2.585  55.840 122.198  0.00  0.00     0.149 HD
ENDBRANCH   6  13
BRANCH   5  18
ATOM     18  N   LIG d   1      -3.800  59.336 122.696  0.00  0.00     0.381 N 
ATOM     19  H   LIG d   1      -3.983  58.686 123.434  0.00  0.00    -0.090 HD
ATOM     20  H   LIG d   1      -4.613  59.914 122.575  0.00  0.00    -0.090 HD
ATOM     21  H   LIG d   1      -3.014  59.902 122.929  0.00  0.00    -0.090 HD
ENDBRANCH   5  18
BRANCH   3  22
ATOM     22  C   LIG d   1      -3.613  59.674 117.922  0.00  0.00     0.382 C 
ATOM     23  O   LIG d   1      -2.848  60.340 117.183  0.00  0.00    -0.241 OA
ATOM     24  O   LIG d   1      -4.822  59.585 117.633  0.00  0.00    -0.241 OA
ENDBRANCH   3  22
TORSDOF 7
ENDMDL
MODEL 2
REMARK VINA RESULT:      -4.8     21.013     23.222
REMARK  7 active torsions:
REMARK  status: ('A' for Active; 'I' for Inactive)
REMARK    1  A    between atoms: C_2  and  C_3 
REMARK    2  A    between atoms: C_3  and  O_6 
REMARK    3  A    between atoms: C_3  and  C_4 
REMARK    4  A    between atoms: C_7  and  O_6 
REMARK    5  A    between atoms: C_9  and  C_10 
REMARK    6  A    between atoms: N_15  and  C_14 
REMARK    7  A    between atoms: N_20  and  C_19 
REMARK       I    between atoms: C_22  and  N_20 
ROOT
ATOM      1  C   LIG d   1      -8.577  79.519 121.119  0.00  0.00     0.161 C 
ATOM      2  C   LIG d   1      -8.960  78.297 120.540  0.00  0.00     0.016 C 
ATOM      3  C   LIG d   1      -9.749  78.204 119.371  0.00  0.00     0.038 C 
ATOM      4  C   LIG d   1     -10.085  79.334 118.611  0.00  0.00     0.028 C 
ATOM      5  C   LIG d   1     -10.149  80.618 119.431  0.00  0.00    -0.047 C 
ATOM      6  C   LIG d   1      -8.841  80.761 120.243  0.00  0.00     0.091 C 
ENDROOT
BRANCH   1   7
ATOM      7  O   LIG d   1      -7.190  79.463 121.505  0.00  0.00    -0.368 OA
BRANCH   7   8
ATOM      8  C   LIG d   1      -6.228  79.816 120.480  0.00  0.00     0.119 C 
BRANCH   8   9
ATOM      9  C   LIG d   1      -5.344  78.580 120.229  0.00  0.00     0.028 C 
ATOM     10  C   LIG d   1      -5.711  77.851 118.926  0.00  0.00     0.006 C 
ENDBRANCH   8   9
BRANCH   8  11
ATOM     11  C   LIG d   1      -5.271  80.908 120.966  0.00  0.00     0.028 C 
ATOM     12  C   LIG d   1      -3.806  80.624 120.598  0.00  0.00     0.006 C 
ENDBRANCH   8  11
ENDBRANCH   7   8
ENDBRANCH   1   7
BRANCH   6  13
ATOM     13  N   LIG d   1      -8.855  81.948 121.137  0.00  0.00    -0.311 N 
ATOM     14  C   LIG d   1      -8.300  83.115 120.815  0.00  0.00     0.210 C 
ATOM     15  C   LIG d   1      -8.411  84.201 121.890  0.00  0.00     0.109 C 
ATOM     16  O   LIG d   1      -7.755  83.363 119.729  0.00  0.00    -0.276 OA
ATOM     17  H   LIG d   1      -9.304  81.844 122.026  0.00  0.00     0.149 HD
ENDBRANCH   6  13
BRANCH   5  18
ATOM     18  N   LIG d   1     -10.372  81.735 118.494  0.00  0.00     0.381 N 
ATOM     19  H   LIG d   1      -9.517  81.963 118.028  0.00  0.00    -0.090 HD
ATOM     20  H   LIG d   1     -10.672  82.541 119.014  0.00  0.00    -0.090 HD
ATOM     21  H   LIG d   1     -11.067  81.486 117.825  0.00  0.00    -0.090 HD
ENDBRANCH   5  18
BRANCH   3  22
ATOM     22  C   LIG d   1     -10.244  76.972 118.973  0.00  0.00     0.382 C 
ATOM     23  O   LIG d   1     -11.469  76.835 118.736  0.00  0.00    -0.241 OA
ATOM     24  O   LIG d   1      -9.490  75.984 118.890  0.00  0.00    -0.241 OA
ENDBRANCH   3  22
TORSDOF 7
ENDMDL
MODEL 3
REMARK VINA RESULT:      -4.8     34.544     36.470
REMARK  7 active torsions:
REMARK  status: ('A' for Active; 'I' for Inactive)
REMARK    1  A    between atoms: C_2  and  C_3 
REMARK    2  A    between atoms: C_3  and  O_6 
REMARK    3  A    between atoms: C_3  and  C_4 
REMARK    4  A    between atoms: C_7  and  O_6 
REMARK    5  A    between atoms: C_9  and  C_10 
REMARK    6  A    between atoms: N_15  and  C_14 
REMARK    7  A    between atoms: N_20  and  C_19 
REMARK       I    between atoms: C_22  and  N_20 
ROOT
ATOM      1  C   LIG d   1      -5.312  93.594 119.914  0.00  0.00     0.161 C 
ATOM      2  C   LIG d   1      -6.552  93.127 119.446  0.00  0.00     0.016 C 
ATOM      3  C   LIG d   1      -7.502  93.954 118.803  0.00  0.00     0.038 C 
ATOM      4  C   LIG d   1      -7.212  95.280 118.449  0.00  0.00     0.028 C 
ATOM      5  C   LIG d   1      -6.170  95.933 119.350  0.00  0.00    -0.047 C 
ATOM      6  C   LIG d   1      -4.932  95.011 119.437  0.00  0.00     0.091 C 
ENDROOT
BRANCH   1   7
ATOM      7  O   LIG d   1      -4.275  92.654 119.570  0.00  0.00    -0.368 OA
BRANCH   7   8
ATOM      8  C   LIG d   1      -3.734  92.765 118.230  0.00  0.00     0.119 C 
BRANCH   8   9
ATOM      9  C   LIG d   1      -4.111  91.478 117.471  0.00  0.00     0.028 C 
ATOM     10  C   LIG d   1      -3.877  90.211 118.311  0.00  0.00     0.006 C 
ENDBRANCH   8   9
BRANCH   8  11
ATOM     11  C   LIG d   1      -2.203  92.792 118.248  0.00  0.00     0.028 C 
ATOM     12  C   LIG d   1      -1.623  92.784 119.671  0.00  0.00     0.006 C 
ENDBRANCH   8  11
ENDBRANCH   7   8
ENDBRANCH   1   7
BRANCH   6  13
ATOM     13  N   LIG d   1      -3.898  95.536 120.366  0.00  0.00    -0.311 N 
ATOM     14  C   LIG d   1      -2.866  96.279 119.970  0.00  0.00     0.210 C 
ATOM     15  C   LIG d   1      -1.906  96.700 121.087  0.00  0.00     0.109 C 
ATOM     16  O   LIG d   1      -2.673  96.657 118.805  0.00  0.00    -0.276 OA
ATOM     17  H   LIG d   1      -3.996  95.304 121.335  0.00  0.00     0.149 HD
ENDBRANCH   6  13
BRANCH   5  18
ATOM     18  N   LIG d   1      -5.862  97.261 118.785  0.00  0.00     0.381 N 
ATOM     19  H   LIG d   1      -5.802  97.936 119.521  0.00  0.00    -0.090 HD
ATOM     20  H   LIG d   1      -6.608  97.533 118.168  0.00  0.00    -0.090 HD
ATOM     21  H   LIG d   1      -5.002  97.227 118.283  0.00  0.00    -0.090 HD
ENDBRANCH   5  18
BRANCH   3  22
ATOM     22  C   LIG d   1      -8.774  93.466 118.545  0.00  0.00     0.382 C 
ATOM     23  O   LIG d   1      -9.547  93.196 119.495  0.00  0.00    -0.241 OA
ATOM     24  O   LIG d   1      -9.143  93.251 117.375  0.00  0.00    -0.241 OA
ENDBRANCH   3  22
TORSDOF 7
ENDMDL
MODEL 4
REMARK VINA RESULT:      -4.6     19.686     21.934
REMARK  7 active torsions:
REMARK  status: ('A' for Active; 'I' for Inactive)
REMARK    1  A    between atoms: C_2  and  C_3 
REMARK    2  A    between atoms: C_3  and  O_6 
REMARK    3  A    between atoms: C_3  and  C_4 
REMARK    4  A    between atoms: C_7  and  O_6 
REMARK    5  A    between atoms: C_9  and  C_10 
REMARK    6  A    between atoms: N_15  and  C_14 
REMARK    7  A    between atoms: N_20  and  C_19 
REMARK       I    between atoms: C_22  and  N_20 
ROOT
ATOM      1  C   LIG d   1      -7.620  78.673 118.433  0.00  0.00     0.161 C 
ATOM      2  C   LIG d   1      -7.980  79.989 118.768  0.00  0.00     0.016 C 
ATOM      3  C   LIG d   1      -9.267  80.351 119.226  0.00  0.00     0.038 C 
ATOM      4  C   LIG d   1     -10.244  79.391 119.527  0.00  0.00     0.028 C 
ATOM      5  C   LIG d   1     -10.093  78.101 118.727  0.00  0.00    -0.047 C 
ATOM      6  C   LIG d   1      -8.638  77.596 118.860  0.00  0.00     0.091 C 
ENDROOT
BRANCH   1   7
ATOM      7  O   LIG d   1      -6.316  78.372 118.969  0.00  0.00    -0.368 OA
BRANCH   7   8
ATOM      8  C   LIG d   1      -5.989  78.994 120.236  0.00  0.00     0.119 C 
BRANCH   8   9
ATOM      9  C   LIG d   1      -4.476  79.287 120.231  0.00  0.00     0.028 C 
ATOM     10  C   LIG d   1      -4.150  80.696 120.756  0.00  0.00     0.006 C 
ENDBRANCH   8   9
BRANCH   8  11
ATOM     11  C   LIG d   1      -6.211  78.029 121.405  0.00  0.00     0.028 C 
ATOM     12  C   LIG d   1      -7.422  78.410 122.271  0.00  0.00     0.006 C 
ENDBRANCH   8  11
ENDBRANCH   7   8
ENDBRANCH   1   7
BRANCH   6  13
ATOM     13  N   LIG d   1      -8.382  76.384 118.039  0.00  0.00    -0.311 N 
ATOM     14  C   LIG d   1      -8.003  75.216 118.555  0.00  0.00     0.210 C 
ATOM     15  C   LIG d   1      -7.773  74.100 117.530  0.00  0.00     0.109 C 
ATOM     16  O   LIG d   1      -7.866  74.988 119.767  0.00  0.00    -0.276 OA
ATOM     17  H   LIG d   1      -8.499  76.470 117.049  0.00  0.00     0.149 HD
ENDBRANCH   6  13
BRANCH   5  18
ATOM     18  N   LIG d   1     -11.088  77.140 119.238  0.00  0.00     0.381 N 
ATOM     19  H   LIG d   1     -11.281  77.332 120.200  0.00  0.00    -0.090 HD
ATOM     20  H   LIG d   1     -10.708  76.212 119.171  0.00  0.00    -0.090 HD
ATOM     21  H   LIG d   1     -11.928  77.203 118.704  0.00  0.00    -0.090 HD
ENDBRANCH   5  18
BRANCH   3  22
ATOM     22  C   LIG d   1      -9.601  81.691 119.350  0.00  0.00     0.382 C 
ATOM     23  O   LIG d   1      -9.625  82.428 118.335  0.00  0.00    -0.241 OA
ATOM     24  O   LIG d   1      -9.835  82.183 120.470  0.00  0.00    -0.241 OA
ENDBRANCH   3  22
TORSDOF 7
ENDMDL
MODEL 5
REMARK VINA RESULT:      -4.5     34.304     36.223
REMARK  7 active torsions:
REMARK  status: ('A' for Active; 'I' for Inactive)
REMARK    1  A    between atoms: C_2  and  C_3 
REMARK    2  A    between atoms: C_3  and  O_6 
REMARK    3  A    between atoms: C_3  and  C_4 
REMARK    4  A    between atoms: C_7  and  O_6 
REMARK    5  A    between atoms: C_9  and  C_10 
REMARK    6  A    between atoms: N_15  and  C_14 
REMARK    7  A    between atoms: N_20  and  C_19 
REMARK       I    between atoms: C_22  and  N_20 
ROOT
ATOM      1  C   LIG d   1      -5.522  94.616 119.711  0.00  0.00     0.161 C 
ATOM      2  C   LIG d   1      -6.889  94.333 119.555  0.00  0.00     0.016 C 
ATOM      3  C   LIG d   1      -7.382  93.328 118.691  0.00  0.00     0.038 C 
ATOM      4  C   LIG d   1      -6.527  92.432 118.033  0.00  0.00     0.028 C 
ATOM      5  C   LIG d   1      -5.139  93.002 117.767  0.00  0.00    -0.047 C 
ATOM      6  C   LIG d   1      -4.571  93.574 119.086  0.00  0.00     0.091 C 
ENDROOT
BRANCH   1   7
ATOM      7  O   LIG d   1      -5.217  94.798 121.108  0.00  0.00    -0.368 OA
BRANCH   7   8
ATOM      8  C   LIG d   1      -6.107  94.144 122.046  0.00  0.00     0.119 C 
BRANCH   8   9
ATOM      9  C   LIG d   1      -6.267  95.077 123.261  0.00  0.00     0.028 C 
ATOM     10  C   LIG d   1      -7.098  96.329 122.934  0.00  0.00     0.006 C 
ENDBRANCH   8   9
BRANCH   8  11
ATOM     11  C   LIG d   1      -5.485  92.859 122.600  0.00  0.00     0.028 C 
ATOM     12  C   LIG d   1      -6.144  91.588 122.041  0.00  0.00     0.006 C 
ENDBRANCH   8  11
ENDBRANCH   7   8
ENDBRANCH   1   7
BRANCH   6  13
ATOM     13  N   LIG d   1      -3.249  94.228 118.898  0.00  0.00    -0.311 N 
ATOM     14  C   LIG d   1      -2.089  93.618 119.136  0.00  0.00     0.210 C 
ATOM     15  C   LIG d   1      -0.845  94.480 118.897  0.00  0.00     0.109 C 
ATOM     16  O   LIG d   1      -1.971  92.436 119.492  0.00  0.00    -0.276 OA
ATOM     17  H   LIG d   1      -3.251  95.178 118.582  0.00  0.00     0.149 HD
ENDBRANCH   6  13
BRANCH   5  18
ATOM     18  N   LIG d   1      -4.312  91.919 117.203  0.00  0.00     0.381 N 
ATOM     19  H   LIG d   1      -4.892  91.275 116.704  0.00  0.00    -0.090 HD
ATOM     20  H   LIG d   1      -3.866  91.424 117.956  0.00  0.00    -0.090 HD
ATOM     21  H   LIG d   1      -3.623  92.299 116.592  0.00  0.00    -0.090 HD
ENDBRANCH   5  18
BRANCH   3  22
ATOM     22  C   LIG d   1      -8.744  93.240 118.446  0.00  0.00     0.382 C 
ATOM     23  O   LIG d   1      -9.172  93.253 117.267  0.00  0.00    -0.241 OA
ATOM     24  O   LIG d   1      -9.554  93.192 119.392  0.00  0.00    -0.241 OA
ENDBRANCH   3  22
TORSDOF 7
ENDMDL
MODEL 6
REMARK VINA RESULT:      -4.4     35.269     37.319
REMARK  7 active torsions:
REMARK  status: ('A' for Active; 'I' for Inactive)
REMARK    1  A    between atoms: C_2  and  C_3 
REMARK    2  A    between atoms: C_3  and  O_6 
REMARK    3  A    between atoms: C_3  and  C_4 
REMARK    4  A    between atoms: C_7  and  O_6 
REMARK    5  A    between atoms: C_9  and  C_10 
REMARK    6  A    between atoms: N_15  and  C_14 
REMARK    7  A    between atoms: N_20  and  C_19 
REMARK       I    between atoms: C_22  and  N_20 
ROOT
ATOM      1  C   LIG d   1      -5.538  95.002 119.377  0.00  0.00     0.161 C 
ATOM      2  C   LIG d   1      -6.902  94.679 119.298  0.00  0.00     0.016 C 
ATOM      3  C   LIG d   1      -7.384  93.459 118.769  0.00  0.00     0.038 C 
ATOM      4  C   LIG d   1      -6.520  92.410 118.420  0.00  0.00     0.028 C 
ATOM      5  C   LIG d   1      -5.129  92.882 118.011  0.00  0.00    -0.047 C 
ATOM      6  C   LIG d   1      -4.577  93.826 119.104  0.00  0.00     0.091 C 
ENDROOT
BRANCH   1   7
ATOM      7  O   LIG d   1      -5.250  95.596 120.659  0.00  0.00    -0.368 OA
BRANCH   7   8
ATOM      8  C   LIG d   1      -4.977  97.019 120.654  0.00  0.00     0.119 C 
BRANCH   8   9
ATOM      9  C   LIG d   1      -6.227  97.732 121.206  0.00  0.00     0.028 C 
ATOM     10  C   LIG d   1      -6.937  98.583 120.139  0.00  0.00     0.006 C 
ENDBRANCH   8   9
BRANCH   8  11
ATOM     11  C   LIG d   1      -4.805  97.549 119.228  0.00  0.00     0.028 C 
ATOM     12  C   LIG d   1      -3.370  98.015 118.935  0.00  0.00     0.006 C 
ENDBRANCH   8  11
ENDBRANCH   7   8
ENDBRANCH   1   7
BRANCH   6  13
ATOM     13  N   LIG d   1      -3.255  94.399 118.743  0.00  0.00    -0.311 N 
ATOM     14  C   LIG d   1      -2.183  94.323 119.531  0.00  0.00     0.210 C 
ATOM     15  C   LIG d   1      -0.924  94.998 118.977  0.00  0.00     0.109 C 
ATOM     16  O   LIG d   1      -2.147  93.732 120.621  0.00  0.00    -0.276 OA
ATOM     17  H   LIG d   1      -3.186  94.869 117.862  0.00  0.00     0.149 HD
ENDBRANCH   6  13
BRANCH   5  18
ATOM     18  N   LIG d   1      -4.294  91.683 117.807  0.00  0.00     0.381 N 
ATOM     19  H   LIG d   1      -4.867  90.916 117.518  0.00  0.00    -0.090 HD
ATOM     20  H   LIG d   1      -3.857  91.439 118.678  0.00  0.00    -0.090 HD
ATOM     21  H   LIG d   1      -3.598  91.866 117.118  0.00  0.00    -0.090 HD
ENDBRANCH   5  18
BRANCH   3  22
ATOM     22  C   LIG d   1      -8.742  93.295 118.548  0.00  0.00     0.382 C 
ATOM     23  O   LIG d   1      -9.190  93.286 117.376  0.00  0.00    -0.241 OA
ATOM     24  O   LIG d   1      -9.532  93.200 119.506  0.00  0.00    -0.241 OA
ENDBRANCH   3  22
TORSDOF 7
ENDMDL
MODEL 7
REMARK VINA RESULT:      -4.3     33.763     36.408
REMARK  7 active torsions:
REMARK  status: ('A' for Active; 'I' for Inactive)
REMARK    1  A    between atoms: C_2  and  C_3 
REMARK    2  A    between atoms: C_3  and  O_6 
REMARK    3  A    between atoms: C_3  and  C_4 
REMARK    4  A    between atoms: C_7  and  O_6 
REMARK    5  A    between atoms: C_9  and  C_10 
REMARK    6  A    between atoms: N_15  and  C_14 
REMARK    7  A    between atoms: N_20  and  C_19 
REMARK       I    between atoms: C_22  and  N_20 
ROOT
ATOM      1  C   LIG d   1     -18.331  89.571 120.480  0.00  0.00     0.161 C 
ATOM      2  C   LIG d   1     -18.573  88.254 120.905  0.00  0.00     0.016 C 
ATOM      3  C   LIG d   1     -17.811  87.606 121.904  0.00  0.00     0.038 C 
ATOM      4  C   LIG d   1     -16.846  88.288 122.659  0.00  0.00     0.028 C 
ATOM      5  C   LIG d   1     -16.224  89.469 121.922  0.00  0.00    -0.047 C 
ATOM      6  C   LIG d   1     -17.354  90.368 121.370  0.00  0.00     0.091 C 
ENDROOT
BRANCH   1   7
ATOM      7  O   LIG d   1     -19.580  90.279 120.349  0.00  0.00    -0.368 OA
BRANCH   7   8
ATOM      8  C   LIG d   1     -20.240  90.641 121.586  0.00  0.00     0.119 C 
BRANCH   8   9
ATOM      9  C   LIG d   1     -21.633  89.982 121.577  0.00  0.00     0.028 C 
ATOM     10  C   LIG d   1     -21.798  88.942 122.698  0.00  0.00     0.006 C 
ENDBRANCH   8   9
BRANCH   8  11
ATOM     11  C   LIG d   1     -20.506  92.148 121.656  0.00  0.00     0.028 C 
ATOM     12  C   LIG d   1     -20.274  92.857 120.312  0.00  0.00     0.006 C 
ENDBRANCH   8  11
ENDBRANCH   7   8
ENDBRANCH   1   7
BRANCH   6  13
ATOM     13  N   LIG d   1     -16.833  91.502 120.563  0.00  0.00    -0.311 N 
ATOM     14  C   LIG d   1     -16.675  92.734 121.045  0.00  0.00     0.210 C 
ATOM     15  C   LIG d   1     -16.144  93.759 120.038  0.00  0.00     0.109 C 
ATOM     16  O   LIG d   1     -16.894  93.067 122.219  0.00  0.00    -0.276 OA
ATOM     17  H   LIG d   1     -16.601  91.313 119.607  0.00  0.00     0.149 HD
ENDBRANCH   6  13
BRANCH   5  18
ATOM     18  N   LIG d   1     -15.338  90.171 122.870  0.00  0.00     0.381 N 
ATOM     19  H   LIG d   1     -15.859  90.450 123.677  0.00  0.00    -0.090 HD
ATOM     20  H   LIG d   1     -14.977  90.997 122.427  0.00  0.00    -0.090 HD
ATOM     21  H   LIG d   1     -14.587  89.574 123.141  0.00  0.00    -0.090 HD
ENDBRANCH   5  18
BRANCH   3  22
ATOM     22  C   LIG d   1     -17.986  86.249 122.130  0.00  0.00     0.382 C 
ATOM     23  O   LIG d   1     -18.678  85.566 121.337  0.00  0.00    -0.241 OA
ATOM     24  O   LIG d   1     -17.497  85.709 123.140  0.00  0.00    -0.241 OA
ENDBRANCH   3  22
TORSDOF 7
ENDMDL
MODEL 8
REMARK VINA RESULT:      -4.2      8.848     10.718
REMARK  7 active torsions:
REMARK  status: ('A' for Active; 'I' for Inactive)
REMARK    1  A    between atoms: C_2  and  C_3 
REMARK    2  A    between atoms: C_3  and  O_6 
REMARK    3  A    between atoms: C_3  and  C_4 
REMARK    4  A    between atoms: C_7  and  O_6 
REMARK    5  A    between atoms: C_9  and  C_10 
REMARK    6  A    between atoms: N_15  and  C_14 
REMARK    7  A    between atoms: N_20  and  C_19 
REMARK       I    between atoms: C_22  and  N_20 
ROOT
ATOM      1  C   LIG d   1       5.208  65.283 121.566  0.00  0.00     0.161 C 
ATOM      2  C   LIG d   1       3.818  65.136 121.698  0.00  0.00     0.016 C 
ATOM      3  C   LIG d   1       2.890  65.622 120.747  0.00  0.00     0.038 C 
ATOM      4  C   LIG d   1       3.301  66.158 119.518  0.00  0.00     0.028 C 
ATOM      5  C   LIG d   1       4.691  66.784 119.564  0.00  0.00    -0.047 C 
ATOM      6  C   LIG d   1       5.679  65.767 120.179  0.00  0.00     0.091 C 
ENDROOT
BRANCH   1   7
ATOM      7  O   LIG d   1       5.866  64.049 121.916  0.00  0.00    -0.368 OA
BRANCH   7   8
ATOM      8  C   LIG d   1       5.203  63.235 122.915  0.00  0.00     0.119 C 
BRANCH   8   9
ATOM      9  C   LIG d   1       5.984  63.393 124.234  0.00  0.00     0.028 C 
ATOM     10  C   LIG d   1       5.266  64.314 125.234  0.00  0.00     0.006 C 
ENDBRANCH   8   9
BRANCH   8  11
ATOM     11  C   LIG d   1       5.290  61.746 122.568  0.00  0.00     0.028 C 
ATOM     12  C   LIG d   1       6.305  61.453 121.452  0.00  0.00     0.006 C 
ENDBRANCH   8  11
ENDBRANCH   7   8
ENDBRANCH   1   7
BRANCH   6  13
ATOM     13  N   LIG d   1       7.046  66.330 120.338  0.00  0.00    -0.311 N 
ATOM     14  C   LIG d   1       8.157  65.615 120.171  0.00  0.00     0.210 C 
ATOM     15  C   LIG d   1       9.461  66.384 120.403  0.00  0.00     0.109 C 
ATOM     16  O   LIG d   1       8.187  64.426 119.820  0.00  0.00    -0.276 OA
ATOM     17  H   LIG d   1       7.114  67.296 120.591  0.00  0.00     0.149 HD
ENDBRANCH   6  13
BRANCH   5  18
ATOM     18  N   LIG d   1       5.048  67.179 118.188  0.00  0.00     0.381 N 
ATOM     19  H   LIG d   1       4.353  66.847 117.550  0.00  0.00    -0.090 HD
ATOM     20  H   LIG d   1       5.927  66.755 117.947  0.00  0.00    -0.090 HD
ATOM     21  H   LIG d   1       5.121  68.170 118.126  0.00  0.00    -0.090 HD
ENDBRANCH   5  18
BRANCH   3  22
ATOM     22  C   LIG d   1       1.535  65.610 121.040  0.00  0.00     0.382 C 
ATOM     23  O   LIG d   1       0.770  66.448 120.506  0.00  0.00    -0.241 OA
ATOM     24  O   LIG d   1       1.075  64.799 121.867  0.00  0.00    -0.241 OA
ENDBRANCH   3  22
TORSDOF 7
ENDMDL
MODEL 9
REMARK VINA RESULT:      -4.2     34.372     36.932
REMARK  7 active torsions:
REMARK  status: ('A' for Active; 'I' for Inactive)
REMARK    1  A    between atoms: C_2  and  C_3 
REMARK    2  A    between atoms: C_3  and  O_6 
REMARK    3  A    between atoms: C_3  and  C_4 
REMARK    4  A    between atoms: C_7  and  O_6 
REMARK    5  A    between atoms: C_9  and  C_10 
REMARK    6  A    between atoms: N_15  and  C_14 
REMARK    7  A    between atoms: N_20  and  C_19 
REMARK       I    between atoms: C_22  and  N_20 
ROOT
ATOM      1  C   LIG d   1     -19.374  90.466 121.328  0.00  0.00     0.161 C 
ATOM      2  C   LIG d   1     -19.149  91.832 121.084  0.00  0.00     0.016 C 
ATOM      3  C   LIG d   1     -17.878  92.367 120.770  0.00  0.00     0.038 C 
ATOM      4  C   LIG d   1     -16.767  91.546 120.529  0.00  0.00     0.028 C 
ATOM      5  C   LIG d   1     -16.833  90.207 121.257  0.00  0.00    -0.047 C 
ATOM      6  C   LIG d   1     -18.195  89.541 120.960  0.00  0.00     0.091 C 
ENDROOT
BRANCH   1   7
ATOM      7  O   LIG d   1     -20.575  90.041 120.653  0.00  0.00    -0.368 OA
BRANCH   7   8
ATOM      8  C   LIG d   1     -21.659  89.594 121.504  0.00  0.00     0.119 C 
BRANCH   8   9
ATOM      9  C   LIG d   1     -22.363  88.429 120.781  0.00  0.00     0.028 C 
ATOM     10  C   LIG d   1     -21.452  87.740 119.752  0.00  0.00     0.006 C 
ENDBRANCH   8   9
BRANCH   8  11
ATOM     11  C   LIG d   1     -22.728  90.680 121.660  0.00  0.00     0.028 C 
ATOM     12  C   LIG d   1     -22.811  91.232 123.092  0.00  0.00     0.006 C 
ENDBRANCH   8  11
ENDBRANCH   7   8
ENDBRANCH   1   7
BRANCH   6  13
ATOM     13  N   LIG d   1     -18.376  88.266 121.701  0.00  0.00    -0.311 N 
ATOM     14  C   LIG d   1     -17.949  87.088 121.249  0.00  0.00     0.210 C 
ATOM     15  C   LIG d   1     -18.255  85.896 122.161  0.00  0.00     0.109 C 
ATOM     16  O   LIG d   1     -17.316  86.922 120.196  0.00  0.00    -0.276 OA
ATOM     17  H   LIG d   1     -18.852  88.313 122.581  0.00  0.00     0.149 HD
ENDBRANCH   6  13
BRANCH   5  18
ATOM     18  N   LIG d   1     -15.683  89.399 120.808  0.00  0.00     0.381 N 
ATOM     19  H   LIG d   1     -15.972  88.775 120.082  0.00  0.00    -0.090 HD
ATOM     20  H   LIG d   1     -15.350  88.850 121.582  0.00  0.00    -0.090 HD
ATOM     21  H   LIG d   1     -14.957  89.994 120.476  0.00  0.00    -0.090 HD
ENDBRANCH   5  18
BRANCH   3  22
ATOM     22  C   LIG d   1     -17.702  93.742 120.735  0.00  0.00     0.382 C 
ATOM     23  O   LIG d   1     -18.483  94.491 121.369  0.00  0.00    -0.241 OA
ATOM     24  O   LIG d   1     -16.798  94.245 120.040  0.00  0.00    -0.241 OA
ENDBRANCH   3  22
TORSDOF 7
ENDMDL
