MODEL 1
REMARK VINA RESULT:      -5.9      0.000      0.000
REMARK  7 active torsions:
REMARK  status: ('A' for Active; 'I' for Inactive)
REMARK    1  A    between atoms: C_2  and  C_3 
REMARK    2  A    between atoms: C_3  and  O_6 
REMARK    3  A    between atoms: C_3  and  C_4 
REMARK    4  A    between atoms: C_7  and  O_6 
REMARK    5  A    between atoms: C_9  and  C_10 
REMARK    6  A    between atoms: N_15  and  C_14 
REMARK    7  A    between atoms: N_20  and  C_19 
REMARK       I    between atoms: C_22  and  N_20 
ROOT
ATOM      1  C   LIG d   1      -0.534  60.439 118.614  0.00  0.00     0.161 C 
ATOM      2  C   LIG d   1      -1.870  60.030 118.760  0.00  0.00     0.016 C 
ATOM      3  C   LIG d   1      -2.326  58.730 118.443  0.00  0.00     0.038 C 
ATOM      4  C   LIG d   1      -1.440  57.698 118.098  0.00  0.00     0.028 C 
ATOM      5  C   LIG d   1      -0.152  58.196 117.451  0.00  0.00    -0.047 C 
ATOM      6  C   LIG d   1       0.466  59.295 118.344  0.00  0.00     0.091 C 
ENDROOT
BRANCH   1   7
ATOM      7  O   LIG d   1      -0.126  61.199 119.768  0.00  0.00    -0.368 OA
BRANCH   7   8
ATOM      8  C   LIG d   1       0.194  60.434 120.955  0.00  0.00     0.119 C 
BRANCH   8   9
ATOM      9  C   LIG d   1      -0.856  60.782 122.028  0.00  0.00     0.028 C 
ATOM     10  C   LIG d   1      -1.750  59.583 122.386  0.00  0.00     0.006 C 
ENDBRANCH   8   9
BRANCH   8  11
ATOM     11  C   LIG d   1       1.539  60.863 121.550  0.00  0.00     0.028 C 
ATOM     12  C   LIG d   1       1.387  61.874 122.698  0.00  0.00     0.006 C 
ENDBRANCH   8  11
ENDBRANCH   7   8
ENDBRANCH   1   7
BRANCH   6  13
ATOM     13  N   LIG d   1       1.685  59.896 117.742  0.00  0.00    -0.311 N 
ATOM     14  C   LIG d   1       2.922  59.509 118.050  0.00  0.00     0.210 C 
ATOM     15  C   LIG d   1       4.036  60.273 117.329  0.00  0.00     0.109 C 
ATOM     16  O   LIG d   1       3.200  58.584 118.828  0.00  0.00    -0.276 OA
ATOM     17  H   LIG d   1       1.550  60.632 117.078  0.00  0.00     0.149 HD
ENDBRANCH   6  13
BRANCH   5  18
ATOM     18  N   LIG d   1       0.734  57.031 117.269  0.00  0.00     0.381 N 
ATOM     19  H   LIG d   1       1.260  56.872 118.106  0.00  0.00    -0.090 HD
ATOM     20  H   LIG d   1       1.379  57.226 116.524  0.00  0.00    -0.090 HD
ATOM     21  H   LIG d   1       0.195  56.223 117.049  0.00  0.00    -0.090 HD
ENDBRANCH   5  18
BRANCH   3  22
ATOM     22  C   LIG d   1      -3.686  58.462 118.431  0.00  0.00     0.382 C 
ATOM     23  O   LIG d   1      -4.107  57.336 118.792  0.00  0.00    -0.241 OA
ATOM     24  O   LIG d   1      -4.495  59.317 118.023  0.00  0.00    -0.241 OA
ENDBRANCH   3  22
TORSDOF 7
ENDMDL
MODEL 2
REMARK VINA RESULT:      -5.2      2.489      5.705
REMARK  7 active torsions:
REMARK  status: ('A' for Active; 'I' for Inactive)
REMARK    1  A    between atoms: C_2  and  C_3 
REMARK    2  A    between atoms: C_3  and  O_6 
REMARK    3  A    between atoms: C_3  and  C_4 
REMARK    4  A    between atoms: C_7  and  O_6 
REMARK    5  A    between atoms: C_9  and  C_10 
REMARK    6  A    between atoms: N_15  and  C_14 
REMARK    7  A    between atoms: N_20  and  C_19 
REMARK       I    between atoms: C_22  and  N_20 
ROOT
ATOM      1  C   LIG d   1      -1.264  59.692 120.002  0.00  0.00     0.161 C 
ATOM      2  C   LIG d   1      -0.273  60.012 119.059  0.00  0.00     0.016 C 
ATOM      3  C   LIG d   1       1.011  59.420 119.048  0.00  0.00     0.038 C 
ATOM      4  C   LIG d   1       1.341  58.350 119.893  0.00  0.00     0.028 C 
ATOM      5  C   LIG d   1       0.545  58.337 121.194  0.00  0.00    -0.047 C 
ATOM      6  C   LIG d   1      -0.960  58.447 120.862  0.00  0.00     0.091 C 
ENDROOT
BRANCH   1   7
ATOM      7  O   LIG d   1      -2.537  59.546 119.342  0.00  0.00    -0.368 OA
BRANCH   7   8
ATOM      8  C   LIG d   1      -2.491  59.179 117.941  0.00  0.00     0.119 C 
BRANCH   8   9
ATOM      9  C   LIG d   1      -3.526  60.049 117.201  0.00  0.00     0.028 C 
ATOM     10  C   LIG d   1      -4.772  60.333 118.055  0.00  0.00     0.006 C 
ENDBRANCH   8   9
BRANCH   8  11
ATOM     11  C   LIG d   1      -2.949  57.734 117.728  0.00  0.00     0.028 C 
ATOM     12  C   LIG d   1      -1.776  56.754 117.570  0.00  0.00     0.006 C 
ENDBRANCH   8  11
ENDBRANCH   7   8
ENDBRANCH   1   7
BRANCH   6  13
ATOM     13  N   LIG d   1      -1.805  58.527 122.082  0.00  0.00    -0.311 N 
ATOM     14  C   LIG d   1      -2.959  57.875 122.219  0.00  0.00     0.210 C 
ATOM     15  C   LIG d   1      -3.682  58.112 123.549  0.00  0.00     0.109 C 
ATOM     16  O   LIG d   1      -3.436  57.098 121.378  0.00  0.00    -0.276 OA
ATOM     17  H   LIG d   1      -1.478  59.111 122.827  0.00  0.00     0.149 HD
ENDBRANCH   6  13
BRANCH   5  18
ATOM     18  N   LIG d   1       0.890  57.098 121.915  0.00  0.00     0.381 N 
ATOM     19  H   LIG d   1       1.052  56.359 121.260  0.00  0.00    -0.090 HD
ATOM     20  H   LIG d   1       0.116  56.836 122.500  0.00  0.00    -0.090 HD
ATOM     21  H   LIG d   1       1.703  57.242 122.472  0.00  0.00    -0.090 HD
ENDBRANCH   5  18
BRANCH   3  22
ATOM     22  C   LIG d   1       1.994  59.925 118.211  0.00  0.00     0.382 C 
ATOM     23  O   LIG d   1       1.672  60.572 117.185  0.00  0.00    -0.241 OA
ATOM     24  O   LIG d   1       3.197  59.705 118.444  0.00  0.00    -0.241 OA
ENDBRANCH   3  22
TORSDOF 7
ENDMDL
MODEL 3
REMARK VINA RESULT:      -5.0      0.927      1.964
REMARK  7 active torsions:
REMARK  status: ('A' for Active; 'I' for Inactive)
REMARK    1  A    between atoms: C_2  and  C_3 
REMARK    2  A    between atoms: C_3  and  O_6 
REMARK    3  A    between atoms: C_3  and  C_4 
REMARK    4  A    between atoms: C_7  and  O_6 
REMARK    5  A    between atoms: C_9  and  C_10 
REMARK    6  A    between atoms: N_15  and  C_14 
REMARK    7  A    between atoms: N_20  and  C_19 
REMARK       I    between atoms: C_22  and  N_20 
ROOT
ATOM      1  C   LIG d   1      -0.457  59.826 119.692  0.00  0.00     0.161 C 
ATOM      2  C   LIG d   1      -1.815  59.472 119.627  0.00  0.00     0.016 C 
ATOM      3  C   LIG d   1      -2.308  58.422 118.819  0.00  0.00     0.038 C 
ATOM      4  C   LIG d   1      -1.450  57.550 118.132  0.00  0.00     0.028 C 
ATOM      5  C   LIG d   1      -0.110  58.181 117.767  0.00  0.00    -0.047 C 
ATOM      6  C   LIG d   1       0.506  58.815 119.035  0.00  0.00     0.091 C 
ENDROOT
BRANCH   1   7
ATOM      7  O   LIG d   1      -0.078  60.061 121.062  0.00  0.00    -0.368 OA
BRANCH   7   8
ATOM      8  C   LIG d   1      -1.146  60.454 121.960  0.00  0.00     0.119 C 
BRANCH   8   9
ATOM      9  C   LIG d   1      -0.592  61.557 122.883  0.00  0.00     0.028 C 
ATOM     10  C   LIG d   1       0.911  61.804 122.666  0.00  0.00     0.006 C 
ENDBRANCH   8   9
BRANCH   8  11
ATOM     11  C   LIG d   1      -1.540  59.306 122.893  0.00  0.00     0.028 C 
ATOM     12  C   LIG d   1      -3.036  59.313 123.248  0.00  0.00     0.006 C 
ENDBRANCH   8  11
ENDBRANCH   7   8
ENDBRANCH   1   7
BRANCH   6  13
ATOM     13  N   LIG d   1       1.779  59.528 118.750  0.00  0.00    -0.311 N 
ATOM     14  C   LIG d   1       2.979  58.960 118.865  0.00  0.00     0.210 C 
ATOM     15  C   LIG d   1       4.162  59.878 118.542  0.00  0.00     0.109 C 
ATOM     16  O   LIG d   1       3.173  57.774 119.172  0.00  0.00    -0.276 OA
ATOM     17  H   LIG d   1       1.712  60.485 118.465  0.00  0.00     0.149 HD
ENDBRANCH   6  13
BRANCH   5  18
ATOM     18  N   LIG d   1       0.735  57.124 117.180  0.00  0.00     0.381 N 
ATOM     19  H   LIG d   1       1.573  57.023 117.717  0.00  0.00    -0.090 HD
ATOM     20  H   LIG d   1       0.989  57.393 116.246  0.00  0.00    -0.090 HD
ATOM     21  H   LIG d   1       0.237  56.261 117.161  0.00  0.00    -0.090 HD
ENDBRANCH   5  18
BRANCH   3  22
ATOM     22  C   LIG d   1      -3.676  58.260 118.661  0.00  0.00     0.382 C 
ATOM     23  O   LIG d   1      -4.358  59.170 118.131  0.00  0.00    -0.241 OA
ATOM     24  O   LIG d   1      -4.244  57.234 119.082  0.00  0.00    -0.241 OA
ENDBRANCH   3  22
TORSDOF 7
ENDMDL
MODEL 4
REMARK VINA RESULT:      -4.8      2.860      3.725
REMARK  7 active torsions:
REMARK  status: ('A' for Active; 'I' for Inactive)
REMARK    1  A    between atoms: C_2  and  C_3 
REMARK    2  A    between atoms: C_3  and  O_6 
REMARK    3  A    between atoms: C_3  and  C_4 
REMARK    4  A    between atoms: C_7  and  O_6 
REMARK    5  A    between atoms: C_9  and  C_10 
REMARK    6  A    between atoms: N_15  and  C_14 
REMARK    7  A    between atoms: N_20  and  C_19 
REMARK       I    between atoms: C_22  and  N_20 
ROOT
ATOM      1  C   LIG d   1      -0.842  58.237 120.251  0.00  0.00     0.161 C 
ATOM      2  C   LIG d   1      -1.833  59.137 119.824  0.00  0.00     0.016 C 
ATOM      3  C   LIG d   1      -2.687  58.890 118.725  0.00  0.00     0.038 C 
ATOM      4  C   LIG d   1      -2.709  57.652 118.066  0.00  0.00     0.028 C 
ATOM      5  C   LIG d   1      -1.382  56.903 118.139  0.00  0.00    -0.047 C 
ATOM      6  C   LIG d   1      -0.925  56.834 119.614  0.00  0.00     0.091 C 
ENDROOT
BRANCH   1   7
ATOM      7  O   LIG d   1      -0.859  58.137 121.689  0.00  0.00    -0.368 OA
BRANCH   7   8
ATOM      8  C   LIG d   1      -1.728  59.067 122.382  0.00  0.00     0.119 C 
BRANCH   8   9
ATOM      9  C   LIG d   1      -0.843  59.928 123.304  0.00  0.00     0.028 C 
ATOM     10  C   LIG d   1      -0.718  61.379 122.810  0.00  0.00     0.006 C 
ENDBRANCH   8   9
BRANCH   8  11
ATOM     11  C   LIG d   1      -2.695  58.335 123.316  0.00  0.00     0.028 C 
ATOM     12  C   LIG d   1      -3.510  57.248 122.598  0.00  0.00     0.006 C 
ENDBRANCH   8  11
ENDBRANCH   7   8
ENDBRANCH   1   7
BRANCH   6  13
ATOM     13  N   LIG d   1       0.406  56.192 119.766  0.00  0.00    -0.311 N 
ATOM     14  C   LIG d   1       0.570  54.890 119.995  0.00  0.00     0.210 C 
ATOM     15  C   LIG d   1       2.027  54.437 120.139  0.00  0.00     0.109 C 
ATOM     16  O   LIG d   1      -0.351  54.062 120.060  0.00  0.00    -0.276 OA
ATOM     17  H   LIG d   1       1.210  56.785 119.696  0.00  0.00     0.149 HD
ENDBRANCH   6  13
BRANCH   5  18
ATOM     18  N   LIG d   1      -1.586  55.574 117.534  0.00  0.00     0.381 N 
ATOM     19  H   LIG d   1      -1.240  55.572 116.595  0.00  0.00    -0.090 HD
ATOM     20  H   LIG d   1      -2.571  55.377 117.507  0.00  0.00    -0.090 HD
ATOM     21  H   LIG d   1      -1.115  54.879 118.071  0.00  0.00    -0.090 HD
ENDBRANCH   5  18
BRANCH   3  22
ATOM     22  C   LIG d   1      -3.504  59.904 118.248  0.00  0.00     0.382 C 
ATOM     23  O   LIG d   1      -4.699  59.660 117.955  0.00  0.00    -0.241 OA
ATOM     24  O   LIG d   1      -3.049  61.049 118.065  0.00  0.00    -0.241 OA
ENDBRANCH   3  22
TORSDOF 7
ENDMDL
MODEL 5
REMARK VINA RESULT:      -4.6     22.672     24.097
REMARK  7 active torsions:
REMARK  status: ('A' for Active; 'I' for Inactive)
REMARK    1  A    between atoms: C_2  and  C_3 
REMARK    2  A    between atoms: C_3  and  O_6 
REMARK    3  A    between atoms: C_3  and  C_4 
REMARK    4  A    between atoms: C_7  and  O_6 
REMARK    5  A    between atoms: C_9  and  C_10 
REMARK    6  A    between atoms: N_15  and  C_14 
REMARK    7  A    between atoms: N_20  and  C_19 
REMARK       I    between atoms: C_22  and  N_20 
ROOT
ATOM      1  C   LIG d   1      -7.945  81.880 119.559  0.00  0.00     0.161 C 
ATOM      2  C   LIG d   1      -7.990  80.547 119.118  0.00  0.00     0.016 C 
ATOM      3  C   LIG d   1      -9.019  80.034 118.294  0.00  0.00     0.038 C 
ATOM      4  C   LIG d   1      -9.998  80.864 117.727  0.00  0.00     0.028 C 
ATOM      5  C   LIG d   1     -10.281  82.116 118.551  0.00  0.00    -0.047 C 
ATOM      6  C   LIG d   1      -8.943  82.826 118.860  0.00  0.00     0.091 C 
ENDROOT
BRANCH   1   7
ATOM      7  O   LIG d   1      -6.602  82.389 119.437  0.00  0.00    -0.368 OA
BRANCH   7   8
ATOM      8  C   LIG d   1      -5.832  82.457 120.662  0.00  0.00     0.119 C 
BRANCH   8   9
ATOM      9  C   LIG d   1      -5.641  83.947 121.006  0.00  0.00     0.028 C 
ATOM     10  C   LIG d   1      -4.159  84.357 121.036  0.00  0.00     0.006 C 
ENDBRANCH   8   9
BRANCH   8  11
ATOM     11  C   LIG d   1      -4.419  81.902 120.463  0.00  0.00     0.028 C 
ATOM     12  C   LIG d   1      -4.406  80.392 120.179  0.00  0.00     0.006 C 
ENDBRANCH   8  11
ENDBRANCH   7   8
ENDBRANCH   1   7
BRANCH   6  13
ATOM     13  N   LIG d   1      -9.122  84.015 119.734  0.00  0.00    -0.311 N 
ATOM     14  C   LIG d   1      -9.628  83.952 120.964  0.00  0.00     0.210 C 
ATOM     15  C   LIG d   1      -9.744  85.298 121.686  0.00  0.00     0.109 C 
ATOM     16  O   LIG d   1      -9.961  82.904 121.539  0.00  0.00    -0.276 OA
ATOM     17  H   LIG d   1      -8.848  84.902 119.359  0.00  0.00     0.149 HD
ENDBRANCH   6  13
BRANCH   5  18
ATOM     18  N   LIG d   1     -11.216  82.955 117.778  0.00  0.00     0.381 N 
ATOM     19  H   LIG d   1     -11.913  83.335 118.388  0.00  0.00    -0.090 HD
ATOM     20  H   LIG d   1     -11.676  82.383 117.092  0.00  0.00    -0.090 HD
ATOM     21  H   LIG d   1     -10.720  83.693 117.328  0.00  0.00    -0.090 HD
ENDBRANCH   5  18
BRANCH   3  22
ATOM     22  C   LIG d   1      -9.097  78.670 118.062  0.00  0.00     0.382 C 
ATOM     23  O   LIG d   1      -8.088  78.043 117.656  0.00  0.00    -0.241 OA
ATOM     24  O   LIG d   1     -10.176  78.065 118.210  0.00  0.00    -0.241 OA
ENDBRANCH   3  22
TORSDOF 7
ENDMDL
MODEL 6
REMARK VINA RESULT:      -4.6     19.611     20.931
REMARK  7 active torsions:
REMARK  status: ('A' for Active; 'I' for Inactive)
REMARK    1  A    between atoms: C_2  and  C_3 
REMARK    2  A    between atoms: C_3  and  O_6 
REMARK    3  A    between atoms: C_3  and  C_4 
REMARK    4  A    between atoms: C_7  and  O_6 
REMARK    5  A    between atoms: C_9  and  C_10 
REMARK    6  A    between atoms: N_15  and  C_14 
REMARK    7  A    between atoms: N_20  and  C_19 
REMARK       I    between atoms: C_22  and  N_20 
ROOT
ATOM      1  C   LIG d   1      -7.446  78.723 117.454  0.00  0.00     0.161 C 
ATOM      2  C   LIG d   1      -7.768  80.078 117.637  0.00  0.00     0.016 C 
ATOM      3  C   LIG d   1      -8.940  80.517 118.294  0.00  0.00     0.038 C 
ATOM      4  C   LIG d   1      -9.801  79.625 118.950  0.00  0.00     0.028 C 
ATOM      5  C   LIG d   1      -9.782  78.219 118.358  0.00  0.00    -0.047 C 
ATOM      6  C   LIG d   1      -8.317  77.736 118.260  0.00  0.00     0.091 C 
ENDROOT
BRANCH   1   7
ATOM      7  O   LIG d   1      -6.050  78.509 117.742  0.00  0.00    -0.368 OA
BRANCH   7   8
ATOM      8  C   LIG d   1      -5.678  78.526 119.142  0.00  0.00     0.119 C 
BRANCH   8   9
ATOM      9  C   LIG d   1      -4.551  79.564 119.310  0.00  0.00     0.028 C 
ATOM     10  C   LIG d   1      -5.034  80.848 120.004  0.00  0.00     0.006 C 
ENDBRANCH   8   9
BRANCH   8  11
ATOM     11  C   LIG d   1      -5.066  77.190 119.573  0.00  0.00     0.028 C 
ATOM     12  C   LIG d   1      -4.640  76.318 118.381  0.00  0.00     0.006 C 
ENDBRANCH   8  11
ENDBRANCH   7   8
ENDBRANCH   1   7
BRANCH   6  13
ATOM     13  N   LIG d   1      -8.202  76.403 117.613  0.00  0.00    -0.311 N 
ATOM     14  C   LIG d   1      -8.203  75.257 118.292  0.00  0.00     0.210 C 
ATOM     15  C   LIG d   1      -8.054  73.997 117.433  0.00  0.00     0.109 C 
ATOM     16  O   LIG d   1      -8.346  75.162 119.520  0.00  0.00    -0.276 OA
ATOM     17  H   LIG d   1      -8.113  76.386 116.616  0.00  0.00     0.149 HD
ENDBRANCH   6  13
BRANCH   5  18
ATOM     18  N   LIG d   1     -10.617  77.362 119.220  0.00  0.00     0.381 N 
ATOM     19  H   LIG d   1     -10.359  77.491 120.178  0.00  0.00    -0.090 HD
ATOM     20  H   LIG d   1     -10.455  76.400 118.977  0.00  0.00    -0.090 HD
ATOM     21  H   LIG d   1     -11.579  77.586 119.095  0.00  0.00    -0.090 HD
ENDBRANCH   5  18
BRANCH   3  22
ATOM     22  C   LIG d   1      -9.282  81.861 118.264  0.00  0.00     0.382 C 
ATOM     23  O   LIG d   1      -9.252  82.491 117.180  0.00  0.00    -0.241 OA
ATOM     24  O   LIG d   1      -9.576  82.461 119.316  0.00  0.00    -0.241 OA
ENDBRANCH   3  22
TORSDOF 7
ENDMDL
MODEL 7
REMARK VINA RESULT:      -4.6      2.705      4.968
REMARK  7 active torsions:
REMARK  status: ('A' for Active; 'I' for Inactive)
REMARK    1  A    between atoms: C_2  and  C_3 
REMARK    2  A    between atoms: C_3  and  O_6 
REMARK    3  A    between atoms: C_3  and  C_4 
REMARK    4  A    between atoms: C_7  and  O_6 
REMARK    5  A    between atoms: C_9  and  C_10 
REMARK    6  A    between atoms: N_15  and  C_14 
REMARK    7  A    between atoms: N_20  and  C_19 
REMARK       I    between atoms: C_22  and  N_20 
ROOT
ATOM      1  C   LIG d   1      -1.947  57.519 120.493  0.00  0.00     0.161 C 
ATOM      2  C   LIG d   1      -2.198  58.712 121.192  0.00  0.00     0.016 C 
ATOM      3  C   LIG d   1      -1.230  59.364 121.989  0.00  0.00     0.038 C 
ATOM      4  C   LIG d   1       0.109  58.947 122.020  0.00  0.00     0.028 C 
ATOM      5  C   LIG d   1       0.286  57.460 121.732  0.00  0.00    -0.047 C 
ATOM      6  C   LIG d   1      -0.461  57.109 120.426  0.00  0.00     0.091 C 
ENDROOT
BRANCH   1   7
ATOM      7  O   LIG d   1      -2.504  57.604 119.166  0.00  0.00    -0.368 OA
BRANCH   7   8
ATOM      8  C   LIG d   1      -2.504  58.919 118.558  0.00  0.00     0.119 C 
BRANCH   8   9
ATOM      9  C   LIG d   1      -3.795  59.045 117.725  0.00  0.00     0.028 C 
ATOM     10  C   LIG d   1      -4.528  60.373 117.977  0.00  0.00     0.006 C 
ENDBRANCH   8   9
BRANCH   8  11
ATOM     11  C   LIG d   1      -1.357  59.068 117.553  0.00  0.00     0.028 C 
ATOM     12  C   LIG d   1      -0.167  59.859 118.120  0.00  0.00     0.006 C 
ENDBRANCH   8  11
ENDBRANCH   7   8
ENDBRANCH   1   7
BRANCH   6  13
ATOM     13  N   LIG d   1      -0.409  55.656 120.115  0.00  0.00    -0.311 N 
ATOM     14  C   LIG d   1      -0.030  55.172 118.934  0.00  0.00     0.210 C 
ATOM     15  C   LIG d   1      -0.068  53.645 118.818  0.00  0.00     0.109 C 
ATOM     16  O   LIG d   1       0.364  55.861 117.981  0.00  0.00    -0.276 OA
ATOM     17  H   LIG d   1      -0.683  55.024 120.842  0.00  0.00     0.149 HD
ENDBRANCH   6  13
BRANCH   5  18
ATOM     18  N   LIG d   1       1.735  57.189 121.660  0.00  0.00     0.381 N 
ATOM     19  H   LIG d   1       2.245  58.042 121.779  0.00  0.00    -0.090 HD
ATOM     20  H   LIG d   1       1.951  56.816 120.753  0.00  0.00    -0.090 HD
ATOM     21  H   LIG d   1       1.995  56.537 122.366  0.00  0.00    -0.090 HD
ENDBRANCH   5  18
BRANCH   3  22
ATOM     22  C   LIG d   1      -1.608  60.425 122.798  0.00  0.00     0.382 C 
ATOM     23  O   LIG d   1      -1.007  61.524 122.713  0.00  0.00    -0.241 OA
ATOM     24  O   LIG d   1      -2.512  60.285 123.643  0.00  0.00    -0.241 OA
ENDBRANCH   3  22
TORSDOF 7
ENDMDL
MODEL 8
REMARK VINA RESULT:      -4.5      1.992      2.727
REMARK  7 active torsions:
REMARK  status: ('A' for Active; 'I' for Inactive)
REMARK    1  A    between atoms: C_2  and  C_3 
REMARK    2  A    between atoms: C_3  and  O_6 
REMARK    3  A    between atoms: C_3  and  C_4 
REMARK    4  A    between atoms: C_7  and  O_6 
REMARK    5  A    between atoms: C_9  and  C_10 
REMARK    6  A    between atoms: N_15  and  C_14 
REMARK    7  A    between atoms: N_20  and  C_19 
REMARK       I    between atoms: C_22  and  N_20 
ROOT
ATOM      1  C   LIG d   1      -0.093  58.932 119.453  0.00  0.00     0.161 C 
ATOM      2  C   LIG d   1      -1.317  59.563 119.174  0.00  0.00     0.016 C 
ATOM      3  C   LIG d   1      -2.394  58.920 118.522  0.00  0.00     0.038 C 
ATOM      4  C   LIG d   1      -2.373  57.546 118.236  0.00  0.00     0.028 C 
ATOM      5  C   LIG d   1      -0.967  56.989 118.042  0.00  0.00    -0.047 C 
ATOM      6  C   LIG d   1      -0.093  57.403 119.248  0.00  0.00     0.091 C 
ENDROOT
BRANCH   1   7
ATOM      7  O   LIG d   1       0.332  59.259 120.791  0.00  0.00    -0.368 OA
BRANCH   7   8
ATOM      8  C   LIG d   1       1.092  60.483 120.937  0.00  0.00     0.119 C 
BRANCH   8   9
ATOM      9  C   LIG d   1       2.513  60.094 121.388  0.00  0.00     0.028 C 
ATOM     10  C   LIG d   1       3.472  59.897 120.201  0.00  0.00     0.006 C 
ENDBRANCH   8   9
BRANCH   8  11
ATOM     11  C   LIG d   1       0.533  61.355 122.065  0.00  0.00     0.028 C 
ATOM     12  C   LIG d   1       1.634  62.053 122.880  0.00  0.00     0.006 C 
ENDBRANCH   8  11
ENDBRANCH   7   8
ENDBRANCH   1   7
BRANCH   6  13
ATOM     13  N   LIG d   1       1.321  56.969 119.098  0.00  0.00    -0.311 N 
ATOM     14  C   LIG d   1       2.022  56.405 120.080  0.00  0.00     0.210 C 
ATOM     15  C   LIG d   1       3.469  56.052 119.720  0.00  0.00     0.109 C 
ATOM     16  O   LIG d   1       1.574  56.133 121.204  0.00  0.00    -0.276 OA
ATOM     17  H   LIG d   1       1.753  57.124 118.209  0.00  0.00     0.149 HD
ENDBRANCH   6  13
BRANCH   5  18
ATOM     18  N   LIG d   1      -1.085  55.527 117.888  0.00  0.00     0.381 N 
ATOM     19  H   LIG d   1      -0.234  55.086 118.176  0.00  0.00    -0.090 HD
ATOM     20  H   LIG d   1      -1.238  55.313 116.918  0.00  0.00    -0.090 HD
ATOM     21  H   LIG d   1      -1.845  55.186 118.435  0.00  0.00    -0.090 HD
ENDBRANCH   5  18
BRANCH   3  22
ATOM     22  C   LIG d   1      -3.491  59.661 118.112  0.00  0.00     0.382 C 
ATOM     23  O   LIG d   1      -3.351  60.869 117.800  0.00  0.00    -0.241 OA
ATOM     24  O   LIG d   1      -4.627  59.151 118.092  0.00  0.00    -0.241 OA
ENDBRANCH   3  22
TORSDOF 7
ENDMDL
MODEL 9
REMARK VINA RESULT:      -4.5     22.754     24.148
REMARK  7 active torsions:
REMARK  status: ('A' for Active; 'I' for Inactive)
REMARK    1  A    between atoms: C_2  and  C_3 
REMARK    2  A    between atoms: C_3  and  O_6 
REMARK    3  A    between atoms: C_3  and  C_4 
REMARK    4  A    between atoms: C_7  and  O_6 
REMARK    5  A    between atoms: C_9  and  C_10 
REMARK    6  A    between atoms: N_15  and  C_14 
REMARK    7  A    between atoms: N_20  and  C_19 
REMARK       I    between atoms: C_22  and  N_20 
ROOT
ATOM      1  C   LIG d   1      -8.800  81.660 120.632  0.00  0.00     0.161 C 
ATOM      2  C   LIG d   1      -9.069  80.304 120.381  0.00  0.00     0.016 C 
ATOM      3  C   LIG d   1      -9.776  79.848 119.245  0.00  0.00     0.038 C 
ATOM      4  C   LIG d   1     -10.134  80.712 118.198  0.00  0.00     0.028 C 
ATOM      5  C   LIG d   1     -10.328  82.157 118.645  0.00  0.00    -0.047 C 
ATOM      6  C   LIG d   1      -9.085  82.606 119.447  0.00  0.00     0.091 C 
ENDROOT
BRANCH   1   7
ATOM      7  O   LIG d   1      -7.438  81.813 121.079  0.00  0.00    -0.368 OA
BRANCH   7   8
ATOM      8  C   LIG d   1      -6.468  82.161 120.061  0.00  0.00     0.119 C 
BRANCH   8   9
ATOM      9  C   LIG d   1      -5.512  80.963 119.903  0.00  0.00     0.028 C 
ATOM     10  C   LIG d   1      -5.814  80.134 118.644  0.00  0.00     0.006 C 
ENDBRANCH   8   9
BRANCH   8  11
ATOM     11  C   LIG d   1      -5.584  83.329 120.509  0.00  0.00     0.028 C 
ATOM     12  C   LIG d   1      -6.082  83.991 121.804  0.00  0.00     0.006 C 
ENDBRANCH   8  11
ENDBRANCH   7   8
ENDBRANCH   1   7
BRANCH   6  13
ATOM     13  N   LIG d   1      -9.229  83.981 119.993  0.00  0.00    -0.311 N 
ATOM     14  C   LIG d   1     -10.006  84.278 121.033  0.00  0.00     0.210 C 
ATOM     15  C   LIG d   1     -10.026  85.760 121.422  0.00  0.00     0.109 C 
ATOM     16  O   LIG d   1     -10.655  83.451 121.691  0.00  0.00    -0.276 OA
ATOM     17  H   LIG d   1      -8.713  84.708 119.539  0.00  0.00     0.149 HD
ENDBRANCH   6  13
BRANCH   5  18
ATOM     18  N   LIG d   1     -10.561  82.969 117.436  0.00  0.00     0.381 N 
ATOM     19  H   LIG d   1      -9.695  83.350 117.112  0.00  0.00    -0.090 HD
ATOM     20  H   LIG d   1     -11.173  83.732 117.670  0.00  0.00    -0.090 HD
ATOM     21  H   LIG d   1     -10.974  82.409 116.723  0.00  0.00    -0.090 HD
ENDBRANCH   5  18
BRANCH   3  22
ATOM     22  C   LIG d   1     -10.168  78.521 119.166  0.00  0.00     0.382 C 
ATOM     23  O   LIG d   1     -10.626  77.941 120.180  0.00  0.00    -0.241 OA
ATOM     24  O   LIG d   1     -10.027  77.882 118.106  0.00  0.00    -0.241 OA
ENDBRANCH   3  22
TORSDOF 7
ENDMDL
