MODEL 1
REMARK VINA RESULT:      -5.1      0.000      0.000
REMARK  7 active torsions:
REMARK  status: ('A' for Active; 'I' for Inactive)
REMARK    1  A    between atoms: C_2  and  C_3 
REMARK    2  A    between atoms: C_3  and  O_6 
REMARK    3  A    between atoms: C_3  and  C_4 
REMARK    4  A    between atoms: C_7  and  O_6 
REMARK    5  A    between atoms: C_9  and  C_10 
REMARK    6  A    between atoms: N_15  and  C_14 
REMARK    7  A    between atoms: N_20  and  C_19 
REMARK       I    between atoms: C_22  and  N_20 
ROOT
ATOM      1  C   LIG d   1       0.825  58.915 120.886  0.00  0.00     0.161 C 
ATOM      2  C   LIG d   1       2.082  58.350 120.614  0.00  0.00     0.016 C 
ATOM      3  C   LIG d   1       2.689  58.383 119.338  0.00  0.00     0.038 C 
ATOM      4  C   LIG d   1       2.145  59.121 118.276  0.00  0.00     0.028 C 
ATOM      5  C   LIG d   1       0.631  59.284 118.365  0.00  0.00    -0.047 C 
ATOM      6  C   LIG d   1       0.266  59.820 119.768  0.00  0.00     0.091 C 
ENDROOT
BRANCH   1   7
ATOM      7  O   LIG d   1       0.872  59.633 122.135  0.00  0.00    -0.368 OA
BRANCH   7   8
ATOM      8  C   LIG d   1       1.435  60.967 122.083  0.00  0.00     0.119 C 
BRANCH   8   9
ATOM      9  C   LIG d   1       2.591  61.022 123.100  0.00  0.00     0.028 C 
ATOM     10  C   LIG d   1       2.584  59.822 124.063  0.00  0.00     0.006 C 
ENDBRANCH   8   9
BRANCH   8  11
ATOM     11  C   LIG d   1       0.426  62.017 122.558  0.00  0.00     0.028 C 
ATOM     12  C   LIG d   1      -0.781  61.398 123.280  0.00  0.00     0.006 C 
ENDBRANCH   8  11
ENDBRANCH   7   8
ENDBRANCH   1   7
BRANCH   6  13
ATOM     13  N   LIG d   1      -1.202  59.929 119.969  0.00  0.00    -0.311 N 
ATOM     14  C   LIG d   1      -1.898  61.034 119.707  0.00  0.00     0.210 C 
ATOM     15  C   LIG d   1      -3.398  60.940 120.004  0.00  0.00     0.109 C 
ATOM     16  O   LIG d   1      -1.421  62.073 119.226  0.00  0.00    -0.276 OA
ATOM     17  H   LIG d   1      -1.675  59.123 120.327  0.00  0.00     0.149 HD
ENDBRANCH   6  13
BRANCH   5  18
ATOM     18  N   LIG d   1       0.215  60.187 117.275  0.00  0.00     0.381 N 
ATOM     19  H   LIG d   1       0.073  59.661 116.436  0.00  0.00    -0.090 HD
ATOM     20  H   LIG d   1       0.947  60.855 117.109  0.00  0.00    -0.090 HD
ATOM     21  H   LIG d   1      -0.625  60.659 117.526  0.00  0.00    -0.090 HD
ENDBRANCH   5  18
BRANCH   3  22
ATOM     22  C   LIG d   1       3.836  57.639 119.103  0.00  0.00     0.382 C 
ATOM     23  O   LIG d   1       3.748  56.499 118.586  0.00  0.00    -0.241 OA
ATOM     24  O   LIG d   1       4.952  58.075 119.442  0.00  0.00    -0.241 OA
ENDBRANCH   3  22
TORSDOF 7
ENDMDL
MODEL 2
REMARK VINA RESULT:      -4.9     20.317     22.976
REMARK  7 active torsions:
REMARK  status: ('A' for Active; 'I' for Inactive)
REMARK    1  A    between atoms: C_2  and  C_3 
REMARK    2  A    between atoms: C_3  and  O_6 
REMARK    3  A    between atoms: C_3  and  C_4 
REMARK    4  A    between atoms: C_7  and  O_6 
REMARK    5  A    between atoms: C_9  and  C_10 
REMARK    6  A    between atoms: N_15  and  C_14 
REMARK    7  A    between atoms: N_20  and  C_19 
REMARK       I    between atoms: C_22  and  N_20 
ROOT
ATOM      1  C   LIG d   1     -10.326  78.715 120.135  0.00  0.00     0.161 C 
ATOM      2  C   LIG d   1     -11.248  78.084 120.986  0.00  0.00     0.016 C 
ATOM      3  C   LIG d   1     -11.929  78.754 122.029  0.00  0.00     0.038 C 
ATOM      4  C   LIG d   1     -11.847  80.145 122.195  0.00  0.00     0.028 C 
ATOM      5  C   LIG d   1     -10.541  80.740 121.679  0.00  0.00    -0.047 C 
ATOM      6  C   LIG d   1     -10.307  80.255 120.230  0.00  0.00     0.091 C 
ENDROOT
BRANCH   1   7
ATOM      7  O   LIG d   1     -10.554  78.300 118.774  0.00  0.00    -0.368 OA
BRANCH   7   8
ATOM      8  C   LIG d   1      -9.602  77.354 118.228  0.00  0.00     0.119 C 
BRANCH   8   9
ATOM      9  C   LIG d   1     -10.249  75.957 118.292  0.00  0.00     0.028 C 
ATOM     10  C   LIG d   1      -9.701  75.005 117.216  0.00  0.00     0.006 C 
ENDBRANCH   8   9
BRANCH   8  11
ATOM     11  C   LIG d   1      -8.347  77.260 119.100  0.00  0.00     0.028 C 
ATOM     12  C   LIG d   1      -7.104  77.860 118.423  0.00  0.00     0.006 C 
ENDBRANCH   8  11
ENDBRANCH   7   8
ENDBRANCH   1   7
BRANCH   6  13
ATOM     13  N   LIG d   1      -9.008  80.724 119.678  0.00  0.00    -0.311 N 
ATOM     14  C   LIG d   1      -8.891  81.343 118.505  0.00  0.00     0.210 C 
ATOM     15  C   LIG d   1      -7.459  81.725 118.116  0.00  0.00     0.109 C 
ATOM     16  O   LIG d   1      -9.840  81.642 117.765  0.00  0.00    -0.276 OA
ATOM     17  H   LIG d   1      -8.190  80.550 120.229  0.00  0.00     0.149 HD
ENDBRANCH   6  13
BRANCH   5  18
ATOM     18  N   LIG d   1     -10.647  82.207 121.787  0.00  0.00     0.381 N 
ATOM     19  H   LIG d   1     -11.561  82.503 121.507  0.00  0.00    -0.090 HD
ATOM     20  H   LIG d   1      -9.976  82.628 121.169  0.00  0.00    -0.090 HD
ATOM     21  H   LIG d   1     -10.470  82.493 122.725  0.00  0.00    -0.090 HD
ENDBRANCH   5  18
BRANCH   3  22
ATOM     22  C   LIG d   1     -12.673  78.024 122.944  0.00  0.00     0.382 C 
ATOM     23  O   LIG d   1     -13.890  77.806 122.730  0.00  0.00    -0.241 OA
ATOM     24  O   LIG d   1     -12.153  77.620 124.001  0.00  0.00    -0.241 OA
ENDBRANCH   3  22
TORSDOF 7
ENDMDL
MODEL 3
REMARK VINA RESULT:      -4.8      2.623      3.746
REMARK  7 active torsions:
REMARK  status: ('A' for Active; 'I' for Inactive)
REMARK    1  A    between atoms: C_2  and  C_3 
REMARK    2  A    between atoms: C_3  and  O_6 
REMARK    3  A    between atoms: C_3  and  C_4 
REMARK    4  A    between atoms: C_7  and  O_6 
REMARK    5  A    between atoms: C_9  and  C_10 
REMARK    6  A    between atoms: N_15  and  C_14 
REMARK    7  A    between atoms: N_20  and  C_19 
REMARK       I    between atoms: C_22  and  N_20 
ROOT
ATOM      1  C   LIG d   1       0.260  60.792 121.994  0.00  0.00     0.161 C 
ATOM      2  C   LIG d   1       0.652  60.274 120.748  0.00  0.00     0.016 C 
ATOM      3  C   LIG d   1      -0.230  60.134 119.652  0.00  0.00     0.038 C 
ATOM      4  C   LIG d   1      -1.536  60.645 119.681  0.00  0.00     0.028 C 
ATOM      5  C   LIG d   1      -2.127  60.719 121.084  0.00  0.00    -0.047 C 
ATOM      6  C   LIG d   1      -1.132  61.457 122.009  0.00  0.00     0.091 C 
ENDROOT
BRANCH   1   7
ATOM      7  O   LIG d   1       1.260  61.710 122.478  0.00  0.00    -0.368 OA
BRANCH   7   8
ATOM      8  C   LIG d   1       2.019  61.275 123.633  0.00  0.00     0.119 C 
BRANCH   8   9
ATOM      9  C   LIG d   1       3.429  60.893 123.142  0.00  0.00     0.028 C 
ATOM     10  C   LIG d   1       3.595  59.376 122.955  0.00  0.00     0.006 C 
ENDBRANCH   8   9
BRANCH   8  11
ATOM     11  C   LIG d   1       1.437  59.991 124.231  0.00  0.00     0.028 C 
ATOM     12  C   LIG d   1       0.993  60.163 125.693  0.00  0.00     0.006 C 
ENDBRANCH   8  11
ENDBRANCH   7   8
ENDBRANCH   1   7
BRANCH   6  13
ATOM     13  N   LIG d   1      -1.595  61.499 123.421  0.00  0.00    -0.311 N 
ATOM     14  C   LIG d   1      -1.494  62.580 124.193  0.00  0.00     0.210 C 
ATOM     15  C   LIG d   1      -2.014  62.403 125.623  0.00  0.00     0.109 C 
ATOM     16  O   LIG d   1      -1.053  63.677 123.820  0.00  0.00    -0.276 OA
ATOM     17  H   LIG d   1      -1.995  60.661 123.795  0.00  0.00     0.149 HD
ENDBRANCH   6  13
BRANCH   5  18
ATOM     18  N   LIG d   1      -3.434  61.396 120.983  0.00  0.00     0.381 N 
ATOM     19  H   LIG d   1      -4.165  60.715 120.936  0.00  0.00    -0.090 HD
ATOM     20  H   LIG d   1      -3.454  61.939 120.138  0.00  0.00    -0.090 HD
ATOM     21  H   LIG d   1      -3.572  61.989 121.771  0.00  0.00    -0.090 HD
ENDBRANCH   5  18
BRANCH   3  22
ATOM     22  C   LIG d   1       0.181  59.440 118.524  0.00  0.00     0.382 C 
ATOM     23  O   LIG d   1       0.251  58.187 118.550  0.00  0.00    -0.241 OA
ATOM     24  O   LIG d   1       0.525  60.052 117.496  0.00  0.00    -0.241 OA
ENDBRANCH   3  22
TORSDOF 7
ENDMDL
MODEL 4
REMARK VINA RESULT:      -4.7     20.460     22.862
REMARK  7 active torsions:
REMARK  status: ('A' for Active; 'I' for Inactive)
REMARK    1  A    between atoms: C_2  and  C_3 
REMARK    2  A    between atoms: C_3  and  O_6 
REMARK    3  A    between atoms: C_3  and  C_4 
REMARK    4  A    between atoms: C_7  and  O_6 
REMARK    5  A    between atoms: C_9  and  C_10 
REMARK    6  A    between atoms: N_15  and  C_14 
REMARK    7  A    between atoms: N_20  and  C_19 
REMARK       I    between atoms: C_22  and  N_20 
ROOT
ATOM      1  C   LIG d   1     -10.424  79.648 119.547  0.00  0.00     0.161 C 
ATOM      2  C   LIG d   1      -9.338  79.844 118.677  0.00  0.00     0.016 C 
ATOM      3  C   LIG d   1      -8.323  80.802 118.902  0.00  0.00     0.038 C 
ATOM      4  C   LIG d   1      -8.244  81.530 120.099  0.00  0.00     0.028 C 
ATOM      5  C   LIG d   1      -9.594  81.728 120.779  0.00  0.00    -0.047 C 
ATOM      6  C   LIG d   1     -10.294  80.356 120.912  0.00  0.00     0.091 C 
ENDROOT
BRANCH   1   7
ATOM      7  O   LIG d   1     -10.652  78.237 119.733  0.00  0.00    -0.368 OA
BRANCH   7   8
ATOM      8  C   LIG d   1      -9.684  77.349 119.121  0.00  0.00     0.119 C 
BRANCH   8   9
ATOM      9  C   LIG d   1     -10.469  76.272 118.348  0.00  0.00     0.028 C 
ATOM     10  C   LIG d   1      -9.548  75.333 117.552  0.00  0.00     0.006 C 
ENDBRANCH   8   9
BRANCH   8  11
ATOM     11  C   LIG d   1      -8.882  76.585 120.179  0.00  0.00     0.028 C 
ATOM     12  C   LIG d   1      -7.810  77.453 120.856  0.00  0.00     0.006 C 
ENDBRANCH   8  11
ENDBRANCH   7   8
ENDBRANCH   1   7
BRANCH   6  13
ATOM     13  N   LIG d   1     -11.658  80.469 121.491  0.00  0.00    -0.311 N 
ATOM     14  C   LIG d   1     -12.097  79.704 122.489  0.00  0.00     0.210 C 
ATOM     15  C   LIG d   1     -13.541  79.972 122.922  0.00  0.00     0.109 C 
ATOM     16  O   LIG d   1     -11.415  78.852 123.079  0.00  0.00    -0.276 OA
ATOM     17  H   LIG d   1     -12.267  81.157 121.092  0.00  0.00     0.149 HD
ENDBRANCH   6  13
BRANCH   5  18
ATOM     18  N   LIG d   1      -9.348  82.380 122.079  0.00  0.00     0.381 N 
ATOM     19  H   LIG d   1      -9.919  81.957 122.783  0.00  0.00    -0.090 HD
ATOM     20  H   LIG d   1      -9.600  83.350 122.009  0.00  0.00    -0.090 HD
ATOM     21  H   LIG d   1      -8.386  82.296 122.325  0.00  0.00    -0.090 HD
ENDBRANCH   5  18
BRANCH   3  22
ATOM     22  C   LIG d   1      -7.396  81.068 117.906  0.00  0.00     0.382 C 
ATOM     23  O   LIG d   1      -6.446  80.273 117.706  0.00  0.00    -0.241 OA
ATOM     24  O   LIG d   1      -7.471  82.115 117.236  0.00  0.00    -0.241 OA
ENDBRANCH   3  22
TORSDOF 7
ENDMDL
MODEL 5
REMARK VINA RESULT:      -4.5      1.966      5.090
REMARK  7 active torsions:
REMARK  status: ('A' for Active; 'I' for Inactive)
REMARK    1  A    between atoms: C_2  and  C_3 
REMARK    2  A    between atoms: C_3  and  O_6 
REMARK    3  A    between atoms: C_3  and  C_4 
REMARK    4  A    between atoms: C_7  and  O_6 
REMARK    5  A    between atoms: C_9  and  C_10 
REMARK    6  A    between atoms: N_15  and  C_14 
REMARK    7  A    between atoms: N_20  and  C_19 
REMARK       I    between atoms: C_22  and  N_20 
ROOT
ATOM      1  C   LIG d   1       1.919  59.957 121.021  0.00  0.00     0.161 C 
ATOM      2  C   LIG d   1       0.593  60.413 120.927  0.00  0.00     0.016 C 
ATOM      3  C   LIG d   1      -0.219  60.216 119.787  0.00  0.00     0.038 C 
ATOM      4  C   LIG d   1       0.192  59.411 118.714  0.00  0.00     0.028 C 
ATOM      5  C   LIG d   1       1.707  59.353 118.547  0.00  0.00    -0.047 C 
ATOM      6  C   LIG d   1       2.347  58.982 119.904  0.00  0.00     0.091 C 
ENDROOT
BRANCH   1   7
ATOM      7  O   LIG d   1       2.142  59.365 122.316  0.00  0.00    -0.368 OA
BRANCH   7   8
ATOM      8  C   LIG d   1       1.722  57.987 122.467  0.00  0.00     0.119 C 
BRANCH   8   9
ATOM      9  C   LIG d   1       0.657  57.947 123.580  0.00  0.00     0.028 C 
ATOM     10  C   LIG d   1       0.720  59.180 124.497  0.00  0.00     0.006 C 
ENDBRANCH   8   9
BRANCH   8  11
ATOM     11  C   LIG d   1       2.870  57.108 122.973  0.00  0.00     0.028 C 
ATOM     12  C   LIG d   1       4.118  57.919 123.355  0.00  0.00     0.006 C 
ENDBRANCH   8  11
ENDBRANCH   7   8
ENDBRANCH   1   7
BRANCH   6  13
ATOM     13  N   LIG d   1       3.832  58.985 119.850  0.00  0.00    -0.311 N 
ATOM     14  C   LIG d   1       4.560  57.894 119.619  0.00  0.00     0.210 C 
ATOM     15  C   LIG d   1       6.076  58.114 119.625  0.00  0.00     0.109 C 
ATOM     16  O   LIG d   1       4.093  56.771 119.377  0.00  0.00    -0.276 OA
ATOM     17  H   LIG d   1       4.293  59.861 120.004  0.00  0.00     0.149 HD
ENDBRANCH   6  13
BRANCH   5  18
ATOM     18  N   LIG d   1       2.000  58.374 117.483  0.00  0.00     0.381 N 
ATOM     19  H   LIG d   1       1.299  57.661 117.476  0.00  0.00    -0.090 HD
ATOM     20  H   LIG d   1       2.888  57.943 117.674  0.00  0.00    -0.090 HD
ATOM     21  H   LIG d   1       2.028  58.831 116.598  0.00  0.00    -0.090 HD
ENDBRANCH   5  18
BRANCH   3  22
ATOM     22  C   LIG d   1      -1.444  60.860 119.696  0.00  0.00     0.382 C 
ATOM     23  O   LIG d   1      -2.484  60.290 120.105  0.00  0.00    -0.241 OA
ATOM     24  O   LIG d   1      -1.528  61.985 119.169  0.00  0.00    -0.241 OA
ENDBRANCH   3  22
TORSDOF 7
ENDMDL
MODEL 6
REMARK VINA RESULT:      -4.5     18.445     21.215
REMARK  7 active torsions:
REMARK  status: ('A' for Active; 'I' for Inactive)
REMARK    1  A    between atoms: C_2  and  C_3 
REMARK    2  A    between atoms: C_3  and  O_6 
REMARK    3  A    between atoms: C_3  and  C_4 
REMARK    4  A    between atoms: C_7  and  O_6 
REMARK    5  A    between atoms: C_9  and  C_10 
REMARK    6  A    between atoms: N_15  and  C_14 
REMARK    7  A    between atoms: N_20  and  C_19 
REMARK       I    between atoms: C_22  and  N_20 
ROOT
ATOM      1  C   LIG d   1      -7.775  78.384 119.564  0.00  0.00     0.161 C 
ATOM      2  C   LIG d   1      -7.501  77.359 120.485  0.00  0.00     0.016 C 
ATOM      3  C   LIG d   1      -7.819  77.443 121.860  0.00  0.00     0.038 C 
ATOM      4  C   LIG d   1      -8.575  78.504 122.383  0.00  0.00     0.028 C 
ATOM      5  C   LIG d   1      -8.433  79.798 121.588  0.00  0.00    -0.047 C 
ATOM      6  C   LIG d   1      -8.698  79.501 120.095  0.00  0.00     0.091 C 
ENDROOT
BRANCH   1   7
ATOM      7  O   LIG d   1      -8.316  77.821 118.353  0.00  0.00    -0.368 OA
BRANCH   7   8
ATOM      8  C   LIG d   1      -8.770  76.447 118.436  0.00  0.00     0.119 C 
BRANCH   8   9
ATOM      9  C   LIG d   1      -8.131  75.677 117.263  0.00  0.00     0.028 C 
ATOM     10  C   LIG d   1      -8.299  74.154 117.400  0.00  0.00     0.006 C 
ENDBRANCH   8   9
BRANCH   8  11
ATOM     11  C   LIG d   1     -10.281  76.345 118.212  0.00  0.00     0.028 C 
ATOM     12  C   LIG d   1     -11.096  76.814 119.428  0.00  0.00     0.006 C 
ENDBRANCH   8  11
ENDBRANCH   7   8
ENDBRANCH   1   7
BRANCH   6  13
ATOM     13  N   LIG d   1      -8.498  80.696 119.235  0.00  0.00    -0.311 N 
ATOM     14  C   LIG d   1      -9.413  81.144 118.377  0.00  0.00     0.210 C 
ATOM     15  C   LIG d   1      -8.996  82.380 117.573  0.00  0.00     0.109 C 
ATOM     16  O   LIG d   1     -10.543  80.654 118.228  0.00  0.00    -0.276 OA
ATOM     17  H   LIG d   1      -7.621  81.173 119.314  0.00  0.00     0.149 HD
ENDBRANCH   6  13
BRANCH   5  18
ATOM     18  N   LIG d   1      -9.377  80.777 122.160  0.00  0.00     0.381 N 
ATOM     19  H   LIG d   1      -8.903  81.639 122.340  0.00  0.00    -0.090 HD
ATOM     20  H   LIG d   1      -9.727  80.420 123.032  0.00  0.00    -0.090 HD
ATOM     21  H   LIG d   1     -10.132  80.931 121.529  0.00  0.00    -0.090 HD
ENDBRANCH   5  18
BRANCH   3  22
ATOM     22  C   LIG d   1      -7.345  76.478 122.735  0.00  0.00     0.382 C 
ATOM     23  O   LIG d   1      -7.568  75.264 122.510  0.00  0.00    -0.241 OA
ATOM     24  O   LIG d   1      -6.736  76.808 123.770  0.00  0.00    -0.241 OA
ENDBRANCH   3  22
TORSDOF 7
ENDMDL
MODEL 7
REMARK VINA RESULT:      -4.5     19.958     21.900
REMARK  7 active torsions:
REMARK  status: ('A' for Active; 'I' for Inactive)
REMARK    1  A    between atoms: C_2  and  C_3 
REMARK    2  A    between atoms: C_3  and  O_6 
REMARK    3  A    between atoms: C_3  and  C_4 
REMARK    4  A    between atoms: C_7  and  O_6 
REMARK    5  A    between atoms: C_9  and  C_10 
REMARK    6  A    between atoms: N_15  and  C_14 
REMARK    7  A    between atoms: N_20  and  C_19 
REMARK       I    between atoms: C_22  and  N_20 
ROOT
ATOM      1  C   LIG d   1      -7.353  78.657 118.521  0.00  0.00     0.161 C 
ATOM      2  C   LIG d   1      -8.534  78.018 118.109  0.00  0.00     0.016 C 
ATOM      3  C   LIG d   1      -9.364  77.278 118.983  0.00  0.00     0.038 C 
ATOM      4  C   LIG d   1      -9.147  77.253 120.368  0.00  0.00     0.028 C 
ATOM      5  C   LIG d   1      -7.688  77.465 120.756  0.00  0.00    -0.047 C 
ATOM      6  C   LIG d   1      -7.159  78.734 120.050  0.00  0.00     0.091 C 
ENDROOT
BRANCH   1   7
ATOM      7  O   LIG d   1      -7.282  79.974 117.940  0.00  0.00    -0.368 OA
BRANCH   7   8
ATOM      8  C   LIG d   1      -7.880  81.044 118.711  0.00  0.00     0.119 C 
BRANCH   8   9
ATOM      9  C   LIG d   1      -9.002  81.661 117.855  0.00  0.00     0.028 C 
ATOM     10  C   LIG d   1     -10.402  81.369 118.423  0.00  0.00     0.006 C 
ENDBRANCH   8   9
BRANCH   8  11
ATOM     11  C   LIG d   1      -6.882  82.181 118.953  0.00  0.00     0.028 C 
ATOM     12  C   LIG d   1      -7.235  83.032 120.183  0.00  0.00     0.006 C 
ENDBRANCH   8  11
ENDBRANCH   7   8
ENDBRANCH   1   7
BRANCH   6  13
ATOM     13  N   LIG d   1      -5.714  78.967 120.309  0.00  0.00    -0.311 N 
ATOM     14  C   LIG d   1      -5.262  79.750 121.287  0.00  0.00     0.210 C 
ATOM     15  C   LIG d   1      -3.736  79.869 121.366  0.00  0.00     0.109 C 
ATOM     16  O   LIG d   1      -5.977  80.331 122.116  0.00  0.00    -0.276 OA
ATOM     17  H   LIG d   1      -5.063  78.509 119.702  0.00  0.00     0.149 HD
ENDBRANCH   6  13
BRANCH   5  18
ATOM     18  N   LIG d   1      -7.626  77.554 122.227  0.00  0.00     0.381 N 
ATOM     19  H   LIG d   1      -8.551  77.532 122.607  0.00  0.00    -0.090 HD
ATOM     20  H   LIG d   1      -7.201  78.428 122.483  0.00  0.00    -0.090 HD
ATOM     21  H   LIG d   1      -7.091  76.797 122.593  0.00  0.00    -0.090 HD
ENDBRANCH   5  18
BRANCH   3  22
ATOM     22  C   LIG d   1     -10.403  76.519 118.465  0.00  0.00     0.382 C 
ATOM     23  O   LIG d   1     -10.153  75.487 117.797  0.00  0.00    -0.241 OA
ATOM     24  O   LIG d   1     -11.586  76.878 118.621  0.00  0.00    -0.241 OA
ENDBRANCH   3  22
TORSDOF 7
ENDMDL
MODEL 8
REMARK VINA RESULT:      -4.4     21.670     24.551
REMARK  7 active torsions:
REMARK  status: ('A' for Active; 'I' for Inactive)
REMARK    1  A    between atoms: C_2  and  C_3 
REMARK    2  A    between atoms: C_3  and  O_6 
REMARK    3  A    between atoms: C_3  and  C_4 
REMARK    4  A    between atoms: C_7  and  O_6 
REMARK    5  A    between atoms: C_9  and  C_10 
REMARK    6  A    between atoms: N_15  and  C_14 
REMARK    7  A    between atoms: N_20  and  C_19 
REMARK       I    between atoms: C_22  and  N_20 
ROOT
ATOM      1  C   LIG d   1      -8.004  82.120 120.884  0.00  0.00     0.161 C 
ATOM      2  C   LIG d   1      -8.936  82.979 121.490  0.00  0.00     0.016 C 
ATOM      3  C   LIG d   1      -9.923  83.690 120.770  0.00  0.00     0.038 C 
ATOM      4  C   LIG d   1     -10.142  83.472 119.401  0.00  0.00     0.028 C 
ATOM      5  C   LIG d   1      -8.900  82.995 118.657  0.00  0.00    -0.047 C 
ATOM      6  C   LIG d   1      -8.299  81.785 119.407  0.00  0.00     0.091 C 
ENDROOT
BRANCH   1   7
ATOM      7  O   LIG d   1      -7.879  80.910 121.657  0.00  0.00    -0.368 OA
BRANCH   7   8
ATOM      8  C   LIG d   1      -8.781  79.833 121.305  0.00  0.00     0.119 C 
BRANCH   8   9
ATOM      9  C   LIG d   1      -9.904  79.806 122.360  0.00  0.00     0.028 C 
ATOM     10  C   LIG d   1     -11.291  80.060 121.746  0.00  0.00     0.006 C 
ENDBRANCH   8   9
BRANCH   8  11
ATOM     11  C   LIG d   1      -8.091  78.470 121.414  0.00  0.00     0.028 C 
ATOM     12  C   LIG d   1      -8.844  77.359 120.666  0.00  0.00     0.006 C 
ENDBRANCH   8  11
ENDBRANCH   7   8
ENDBRANCH   1   7
BRANCH   6  13
ATOM     13  N   LIG d   1      -7.033  81.308 118.792  0.00  0.00    -0.311 N 
ATOM     14  C   LIG d   1      -6.926  80.157 118.132  0.00  0.00     0.210 C 
ATOM     15  C   LIG d   1      -5.526  79.847 117.594  0.00  0.00     0.109 C 
ATOM     16  O   LIG d   1      -7.866  79.378 117.912  0.00  0.00    -0.276 OA
ATOM     17  H   LIG d   1      -6.227  81.894 118.895  0.00  0.00     0.149 HD
ENDBRANCH   6  13
BRANCH   5  18
ATOM     18  N   LIG d   1      -9.304  82.676 117.274  0.00  0.00     0.381 N 
ATOM     19  H   LIG d   1      -9.550  81.709 117.208  0.00  0.00    -0.090 HD
ATOM     20  H   LIG d   1      -8.526  82.846 116.661  0.00  0.00    -0.090 HD
ATOM     21  H   LIG d   1     -10.078  83.243 117.006  0.00  0.00    -0.090 HD
ENDBRANCH   5  18
BRANCH   3  22
ATOM     22  C   LIG d   1     -10.676  84.661 121.412  0.00  0.00     0.382 C 
ATOM     23  O   LIG d   1     -11.351  84.361 122.426  0.00  0.00    -0.241 OA
ATOM     24  O   LIG d   1     -10.726  85.821 120.963  0.00  0.00    -0.241 OA
ENDBRANCH   3  22
TORSDOF 7
ENDMDL
MODEL 9
REMARK VINA RESULT:      -4.4      2.250      5.081
REMARK  7 active torsions:
REMARK  status: ('A' for Active; 'I' for Inactive)
REMARK    1  A    between atoms: C_2  and  C_3 
REMARK    2  A    between atoms: C_3  and  O_6 
REMARK    3  A    between atoms: C_3  and  C_4 
REMARK    4  A    between atoms: C_7  and  O_6 
REMARK    5  A    between atoms: C_9  and  C_10 
REMARK    6  A    between atoms: N_15  and  C_14 
REMARK    7  A    between atoms: N_20  and  C_19 
REMARK       I    between atoms: C_22  and  N_20 
ROOT
ATOM      1  C   LIG d   1       1.517  60.349 121.522  0.00  0.00     0.161 C 
ATOM      2  C   LIG d   1       1.098  61.318 122.449  0.00  0.00     0.016 C 
ATOM      3  C   LIG d   1      -0.167  61.947 122.399  0.00  0.00     0.038 C 
ATOM      4  C   LIG d   1      -1.164  61.537 121.501  0.00  0.00     0.028 C 
ATOM      5  C   LIG d   1      -0.610  60.915 120.224  0.00  0.00    -0.047 C 
ATOM      6  C   LIG d   1       0.402  59.809 120.602  0.00  0.00     0.091 C 
ENDROOT
BRANCH   1   7
ATOM      7  O   LIG d   1       2.168  59.263 122.211  0.00  0.00    -0.368 OA
BRANCH   7   8
ATOM      8  C   LIG d   1       3.592  59.124 121.980  0.00  0.00     0.119 C 
BRANCH   8   9
ATOM      9  C   LIG d   1       4.308  59.426 123.310  0.00  0.00     0.028 C 
ATOM     10  C   LIG d   1       4.718  60.903 123.433  0.00  0.00     0.006 C 
ENDBRANCH   8   9
BRANCH   8  11
ATOM     11  C   LIG d   1       4.102  60.180 120.995  0.00  0.00     0.028 C 
ATOM     12  C   LIG d   1       4.668  59.566 119.704  0.00  0.00     0.006 C 
ENDBRANCH   8  11
ENDBRANCH   7   8
ENDBRANCH   1   7
BRANCH   6  13
ATOM     13  N   LIG d   1       1.055  59.206 119.411  0.00  0.00    -0.311 N 
ATOM     14  C   LIG d   1       1.149  57.892 119.213  0.00  0.00     0.210 C 
ATOM     15  C   LIG d   1       1.878  57.482 117.930  0.00  0.00     0.109 C 
ATOM     16  O   LIG d   1       0.670  57.028 119.963  0.00  0.00    -0.276 OA
ATOM     17  H   LIG d   1       1.443  59.835 118.736  0.00  0.00     0.149 HD
ENDBRANCH   6  13
BRANCH   5  18
ATOM     18  N   LIG d   1      -1.753  60.409 119.441  0.00  0.00     0.381 N 
ATOM     19  H   LIG d   1      -2.092  59.560 119.848  0.00  0.00    -0.090 HD
ATOM     20  H   LIG d   1      -1.445  60.210 118.506  0.00  0.00    -0.090 HD
ATOM     21  H   LIG d   1      -2.481  61.089 119.421  0.00  0.00    -0.090 HD
ENDBRANCH   5  18
BRANCH   3  22
ATOM     22  C   LIG d   1      -0.431  63.026 123.228  0.00  0.00     0.382 C 
ATOM     23  O   LIG d   1       0.296  64.047 123.180  0.00  0.00    -0.241 OA
ATOM     24  O   LIG d   1      -1.361  62.974 124.056  0.00  0.00    -0.241 OA
ENDBRANCH   3  22
TORSDOF 7
ENDMDL
