MODEL 1
REMARK VINA RESULT:      -5.1      0.000      0.000
REMARK  7 active torsions:
REMARK  status: ('A' for Active; 'I' for Inactive)
REMARK    1  A    between atoms: C_2  and  C_3 
REMARK    2  A    between atoms: C_3  and  O_6 
REMARK    3  A    between atoms: C_3  and  C_4 
REMARK    4  A    between atoms: C_7  and  O_6 
REMARK    5  A    between atoms: C_9  and  C_10 
REMARK    6  A    between atoms: N_15  and  C_14 
REMARK    7  A    between atoms: N_20  and  C_19 
REMARK       I    between atoms: C_22  and  N_20 
ROOT
ATOM      1  C   LIG d   1       0.060  59.588 120.706  0.00  0.00     0.161 C 
ATOM      2  C   LIG d   1       1.441  59.329 120.716  0.00  0.00     0.016 C 
ATOM      3  C   LIG d   1       2.125  58.712 119.644  0.00  0.00     0.038 C 
ATOM      4  C   LIG d   1       1.496  58.447 118.418  0.00  0.00     0.028 C 
ATOM      5  C   LIG d   1      -0.008  58.228 118.544  0.00  0.00    -0.047 C 
ATOM      6  C   LIG d   1      -0.622  59.406 119.334  0.00  0.00     0.091 C 
ENDROOT
BRANCH   1   7
ATOM      7  O   LIG d   1      -0.193  60.910 121.221  0.00  0.00    -0.368 OA
BRANCH   7   8
ATOM      8  C   LIG d   1       0.009  61.089 122.644  0.00  0.00     0.119 C 
BRANCH   8   9
ATOM      9  C   LIG d   1      -1.356  61.448 123.264  0.00  0.00     0.028 C 
ATOM     10  C   LIG d   1      -2.171  60.202 123.649  0.00  0.00     0.006 C 
ENDBRANCH   8   9
BRANCH   8  11
ATOM     11  C   LIG d   1       0.913  62.292 122.931  0.00  0.00     0.028 C 
ATOM     12  C   LIG d   1       2.367  61.888 123.223  0.00  0.00     0.006 C 
ENDBRANCH   8  11
ENDBRANCH   7   8
ENDBRANCH   1   7
BRANCH   6  13
ATOM     13  N   LIG d   1      -2.078  59.230 119.575  0.00  0.00    -0.311 N 
ATOM     14  C   LIG d   1      -3.019  59.734 118.780  0.00  0.00     0.210 C 
ATOM     15  C   LIG d   1      -4.458  59.452 119.222  0.00  0.00     0.109 C 
ATOM     16  O   LIG d   1      -2.799  60.362 117.733  0.00  0.00    -0.276 OA
ATOM     17  H   LIG d   1      -2.345  58.707 120.386  0.00  0.00     0.149 HD
ENDBRANCH   6  13
BRANCH   5  18
ATOM     18  N   LIG d   1      -0.555  58.099 117.180  0.00  0.00     0.381 N 
ATOM     19  H   LIG d   1      -0.066  57.380 116.685  0.00  0.00    -0.090 HD
ATOM     20  H   LIG d   1      -0.419  58.967 116.692  0.00  0.00    -0.090 HD
ATOM     21  H   LIG d   1      -1.526  57.882 117.222  0.00  0.00    -0.090 HD
ENDBRANCH   5  18
BRANCH   3  22
ATOM     22  C   LIG d   1       3.444  58.317 119.806  0.00  0.00     0.382 C 
ATOM     23  O   LIG d   1       4.090  58.688 120.816  0.00  0.00    -0.241 OA
ATOM     24  O   LIG d   1       4.010  57.632 118.934  0.00  0.00    -0.241 OA
ENDBRANCH   3  22
TORSDOF 7
ENDMDL
MODEL 2
REMARK VINA RESULT:      -4.9      1.551      4.685
REMARK  7 active torsions:
REMARK  status: ('A' for Active; 'I' for Inactive)
REMARK    1  A    between atoms: C_2  and  C_3 
REMARK    2  A    between atoms: C_3  and  O_6 
REMARK    3  A    between atoms: C_3  and  C_4 
REMARK    4  A    between atoms: C_7  and  O_6 
REMARK    5  A    between atoms: C_9  and  C_10 
REMARK    6  A    between atoms: N_15  and  C_14 
REMARK    7  A    between atoms: N_20  and  C_19 
REMARK       I    between atoms: C_22  and  N_20 
ROOT
ATOM      1  C   LIG d   1      -0.725  59.382 120.594  0.00  0.00     0.161 C 
ATOM      2  C   LIG d   1      -2.059  59.486 120.164  0.00  0.00     0.016 C 
ATOM      3  C   LIG d   1      -2.477  59.181 118.848  0.00  0.00     0.038 C 
ATOM      4  C   LIG d   1      -1.610  58.603 117.909  0.00  0.00     0.028 C 
ATOM      5  C   LIG d   1      -0.144  58.951 118.143  0.00  0.00    -0.047 C 
ATOM      6  C   LIG d   1       0.215  58.647 119.616  0.00  0.00     0.091 C 
ENDROOT
BRANCH   1   7
ATOM      7  O   LIG d   1      -0.679  58.762 121.895  0.00  0.00    -0.368 OA
BRANCH   7   8
ATOM      8  C   LIG d   1      -0.216  59.598 122.983  0.00  0.00     0.119 C 
BRANCH   8   9
ATOM      9  C   LIG d   1      -1.460  60.148 123.706  0.00  0.00     0.028 C 
ATOM     10  C   LIG d   1      -1.657  61.655 123.472  0.00  0.00     0.006 C 
ENDBRANCH   8   9
BRANCH   8  11
ATOM     11  C   LIG d   1       0.528  60.831 122.461  0.00  0.00     0.028 C 
ATOM     12  C   LIG d   1       1.978  60.911 122.966  0.00  0.00     0.006 C 
ENDBRANCH   8  11
ENDBRANCH   7   8
ENDBRANCH   1   7
BRANCH   6  13
ATOM     13  N   LIG d   1       1.609  59.038 119.952  0.00  0.00    -0.311 N 
ATOM     14  C   LIG d   1       2.644  58.205 119.868  0.00  0.00     0.210 C 
ATOM     15  C   LIG d   1       3.992  58.806 120.280  0.00  0.00     0.109 C 
ATOM     16  O   LIG d   1       2.580  57.036 119.460  0.00  0.00    -0.276 OA
ATOM     17  H   LIG d   1       1.756  59.979 120.262  0.00  0.00     0.149 HD
ENDBRANCH   6  13
BRANCH   5  18
ATOM     18  N   LIG d   1       0.658  58.174 117.180  0.00  0.00     0.381 N 
ATOM     19  H   LIG d   1       0.052  57.663 116.570  0.00  0.00    -0.090 HD
ATOM     20  H   LIG d   1       1.225  57.516 117.685  0.00  0.00    -0.090 HD
ATOM     21  H   LIG d   1       1.239  58.785 116.649  0.00  0.00    -0.090 HD
ENDBRANCH   5  18
BRANCH   3  22
ATOM     22  C   LIG d   1      -3.768  59.492 118.449  0.00  0.00     0.382 C 
ATOM     23  O   LIG d   1      -4.748  58.966 119.029  0.00  0.00    -0.241 OA
ATOM     24  O   LIG d   1      -3.964  60.257 117.486  0.00  0.00    -0.241 OA
ENDBRANCH   3  22
TORSDOF 7
ENDMDL
MODEL 3
REMARK VINA RESULT:      -4.8     18.726     20.859
REMARK  7 active torsions:
REMARK  status: ('A' for Active; 'I' for Inactive)
REMARK    1  A    between atoms: C_2  and  C_3 
REMARK    2  A    between atoms: C_3  and  O_6 
REMARK    3  A    between atoms: C_3  and  C_4 
REMARK    4  A    between atoms: C_7  and  O_6 
REMARK    5  A    between atoms: C_9  and  C_10 
REMARK    6  A    between atoms: N_15  and  C_14 
REMARK    7  A    between atoms: N_20  and  C_19 
REMARK       I    between atoms: C_22  and  N_20 
ROOT
ATOM      1  C   LIG d   1      -8.509  77.722 118.219  0.00  0.00     0.161 C 
ATOM      2  C   LIG d   1      -9.874  77.542 118.498  0.00  0.00     0.016 C 
ATOM      3  C   LIG d   1     -10.356  76.665 119.496  0.00  0.00     0.038 C 
ATOM      4  C   LIG d   1      -9.493  76.017 120.393  0.00  0.00     0.028 C 
ATOM      5  C   LIG d   1      -8.098  75.777 119.825  0.00  0.00    -0.047 C 
ATOM      6  C   LIG d   1      -7.550  77.108 119.261  0.00  0.00     0.091 C 
ENDROOT
BRANCH   1   7
ATOM      7  O   LIG d   1      -8.227  79.125 118.044  0.00  0.00    -0.368 OA
BRANCH   7   8
ATOM      8  C   LIG d   1      -9.152  80.044 118.675  0.00  0.00     0.119 C 
BRANCH   8   9
ATOM      9  C   LIG d   1      -9.386  81.210 117.694  0.00  0.00     0.028 C 
ATOM     10  C   LIG d   1     -10.689  81.973 117.990  0.00  0.00     0.006 C 
ENDBRANCH   8   9
BRANCH   8  11
ATOM     11  C   LIG d   1      -8.538  80.683 119.924  0.00  0.00     0.028 C 
ATOM     12  C   LIG d   1      -9.082  80.080 121.229  0.00  0.00     0.006 C 
ENDBRANCH   8  11
ENDBRANCH   7   8
ENDBRANCH   1   7
BRANCH   6  13
ATOM     13  N   LIG d   1      -6.224  76.945 118.610  0.00  0.00    -0.311 N 
ATOM     14  C   LIG d   1      -5.069  77.037 119.267  0.00  0.00     0.210 C 
ATOM     15  C   LIG d   1      -3.817  76.856 118.402  0.00  0.00     0.109 C 
ATOM     16  O   LIG d   1      -4.963  77.220 120.489  0.00  0.00    -0.276 OA
ATOM     17  H   LIG d   1      -6.218  76.764 117.625  0.00  0.00     0.149 HD
ENDBRANCH   6  13
BRANCH   5  18
ATOM     18  N   LIG d   1      -7.265  75.222 120.908  0.00  0.00     0.381 N 
ATOM     19  H   LIG d   1      -6.307  75.469 120.759  0.00  0.00    -0.090 HD
ATOM     20  H   LIG d   1      -7.338  74.220 120.894  0.00  0.00    -0.090 HD
ATOM     21  H   LIG d   1      -7.572  75.572 121.789  0.00  0.00    -0.090 HD
ENDBRANCH   5  18
BRANCH   3  22
ATOM     22  C   LIG d   1     -11.714  76.397 119.580  0.00  0.00     0.382 C 
ATOM     23  O   LIG d   1     -12.407  76.345 118.536  0.00  0.00    -0.241 OA
ATOM     24  O   LIG d   1     -12.262  76.252 120.689  0.00  0.00    -0.241 OA
ENDBRANCH   3  22
TORSDOF 7
ENDMDL
MODEL 4
REMARK VINA RESULT:      -4.7      2.207      5.128
REMARK  7 active torsions:
REMARK  status: ('A' for Active; 'I' for Inactive)
REMARK    1  A    between atoms: C_2  and  C_3 
REMARK    2  A    between atoms: C_3  and  O_6 
REMARK    3  A    between atoms: C_3  and  C_4 
REMARK    4  A    between atoms: C_7  and  O_6 
REMARK    5  A    between atoms: C_9  and  C_10 
REMARK    6  A    between atoms: N_15  and  C_14 
REMARK    7  A    between atoms: N_20  and  C_19 
REMARK       I    between atoms: C_22  and  N_20 
ROOT
ATOM      1  C   LIG d   1      -0.645  59.613 120.426  0.00  0.00     0.161 C 
ATOM      2  C   LIG d   1      -1.974  59.721 119.983  0.00  0.00     0.016 C 
ATOM      3  C   LIG d   1      -2.409  59.281 118.712  0.00  0.00     0.038 C 
ATOM      4  C   LIG d   1      -1.570  58.561 117.850  0.00  0.00     0.028 C 
ATOM      5  C   LIG d   1      -0.090  58.872 118.044  0.00  0.00    -0.047 C 
ATOM      6  C   LIG d   1       0.261  58.729 119.543  0.00  0.00     0.091 C 
ENDROOT
BRANCH   1   7
ATOM      7  O   LIG d   1      -0.621  59.149 121.790  0.00  0.00    -0.368 OA
BRANCH   7   8
ATOM      8  C   LIG d   1      -1.688  58.249 122.177  0.00  0.00     0.119 C 
BRANCH   8   9
ATOM      9  C   LIG d   1      -2.194  58.699 123.561  0.00  0.00     0.028 C 
ATOM     10  C   LIG d   1      -3.702  59.001 123.565  0.00  0.00     0.006 C 
ENDBRANCH   8   9
BRANCH   8  11
ATOM     11  C   LIG d   1      -1.169  56.823 122.379  0.00  0.00     0.028 C 
ATOM     12  C   LIG d   1      -0.703  56.556 123.819  0.00  0.00     0.006 C 
ENDBRANCH   8  11
ENDBRANCH   7   8
ENDBRANCH   1   7
BRANCH   6  13
ATOM     13  N   LIG d   1       1.671  59.098 119.833  0.00  0.00    -0.311 N 
ATOM     14  C   LIG d   1       2.665  58.213 119.881  0.00  0.00     0.210 C 
ATOM     15  C   LIG d   1       4.039  58.803 120.216  0.00  0.00     0.109 C 
ATOM     16  O   LIG d   1       2.546  57.002 119.646  0.00  0.00    -0.276 OA
ATOM     17  H   LIG d   1       1.862  60.066 120.006  0.00  0.00     0.149 HD
ENDBRANCH   6  13
BRANCH   5  18
ATOM     18  N   LIG d   1       0.676  57.954 117.181  0.00  0.00     0.381 N 
ATOM     19  H   LIG d   1       1.515  58.402 116.870  0.00  0.00    -0.090 HD
ATOM     20  H   LIG d   1       0.122  57.728 116.374  0.00  0.00    -0.090 HD
ATOM     21  H   LIG d   1       0.901  57.122 117.682  0.00  0.00    -0.090 HD
ENDBRANCH   5  18
BRANCH   3  22
ATOM     22  C   LIG d   1      -3.687  59.597 118.276  0.00  0.00     0.382 C 
ATOM     23  O   LIG d   1      -3.843  60.277 117.233  0.00  0.00    -0.241 OA
ATOM     24  O   LIG d   1      -4.684  59.248 118.936  0.00  0.00    -0.241 OA
ENDBRANCH   3  22
TORSDOF 7
ENDMDL
MODEL 5
REMARK VINA RESULT:      -4.6     20.960     23.621
REMARK  7 active torsions:
REMARK  status: ('A' for Active; 'I' for Inactive)
REMARK    1  A    between atoms: C_2  and  C_3 
REMARK    2  A    between atoms: C_3  and  O_6 
REMARK    3  A    between atoms: C_3  and  C_4 
REMARK    4  A    between atoms: C_7  and  O_6 
REMARK    5  A    between atoms: C_9  and  C_10 
REMARK    6  A    between atoms: N_15  and  C_14 
REMARK    7  A    between atoms: N_20  and  C_19 
REMARK       I    between atoms: C_22  and  N_20 
ROOT
ATOM      1  C   LIG d   1     -16.994  75.162 120.855  0.00  0.00     0.161 C 
ATOM      2  C   LIG d   1     -17.086  73.762 120.802  0.00  0.00     0.016 C 
ATOM      3  C   LIG d   1     -18.289  73.071 120.529  0.00  0.00     0.038 C 
ATOM      4  C   LIG d   1     -19.458  73.743 120.141  0.00  0.00     0.028 C 
ATOM      5  C   LIG d   1     -19.542  75.169 120.673  0.00  0.00    -0.047 C 
ATOM      6  C   LIG d   1     -18.233  75.913 120.325  0.00  0.00     0.091 C 
ENDROOT
BRANCH   1   7
ATOM      7  O   LIG d   1     -15.808  75.601 120.163  0.00  0.00    -0.368 OA
BRANCH   7   8
ATOM      8  C   LIG d   1     -14.828  74.576 119.866  0.00  0.00     0.119 C 
BRANCH   8   9
ATOM      9  C   LIG d   1     -13.483  75.034 120.464  0.00  0.00     0.028 C 
ATOM     10  C   LIG d   1     -13.139  74.296 121.768  0.00  0.00     0.006 C 
ENDBRANCH   8   9
BRANCH   8  11
ATOM     11  C   LIG d   1     -14.583  74.460 118.359  0.00  0.00     0.028 C 
ATOM     12  C   LIG d   1     -15.283  73.242 117.734  0.00  0.00     0.006 C 
ENDBRANCH   8  11
ENDBRANCH   7   8
ENDBRANCH   1   7
BRANCH   6  13
ATOM     13  N   LIG d   1     -18.198  77.290 120.883  0.00  0.00    -0.311 N 
ATOM     14  C   LIG d   1     -18.548  78.371 120.188  0.00  0.00     0.210 C 
ATOM     15  C   LIG d   1     -18.419  79.696 120.946  0.00  0.00     0.109 C 
ATOM     16  O   LIG d   1     -18.985  78.356 119.028  0.00  0.00    -0.276 OA
ATOM     17  H   LIG d   1     -17.886  77.391 121.828  0.00  0.00     0.149 HD
ENDBRANCH   6  13
BRANCH   5  18
ATOM     18  N   LIG d   1     -20.739  75.796 120.080  0.00  0.00     0.381 N 
ATOM     19  H   LIG d   1     -21.319  75.094 119.667  0.00  0.00    -0.090 HD
ATOM     20  H   LIG d   1     -20.449  76.431 119.358  0.00  0.00    -0.090 HD
ATOM     21  H   LIG d   1     -21.248  76.288 120.781  0.00  0.00    -0.090 HD
ENDBRANCH   5  18
BRANCH   3  22
ATOM     22  C   LIG d   1     -18.341  71.694 120.684  0.00  0.00     0.382 C 
ATOM     23  O   LIG d   1     -19.275  71.039 120.160  0.00  0.00    -0.241 OA
ATOM     24  O   LIG d   1     -17.492  71.104 121.377  0.00  0.00    -0.241 OA
ENDBRANCH   3  22
TORSDOF 7
ENDMDL
MODEL 6
REMARK VINA RESULT:      -4.6     11.631     14.384
REMARK  7 active torsions:
REMARK  status: ('A' for Active; 'I' for Inactive)
REMARK    1  A    between atoms: C_2  and  C_3 
REMARK    2  A    between atoms: C_3  and  O_6 
REMARK    3  A    between atoms: C_3  and  C_4 
REMARK    4  A    between atoms: C_7  and  O_6 
REMARK    5  A    between atoms: C_9  and  C_10 
REMARK    6  A    between atoms: N_15  and  C_14 
REMARK    7  A    between atoms: N_20  and  C_19 
REMARK       I    between atoms: C_22  and  N_20 
ROOT
ATOM      1  C   LIG d   1     -12.437  66.110 121.995  0.00  0.00     0.161 C 
ATOM      2  C   LIG d   1     -11.223  65.664 122.545  0.00  0.00     0.016 C 
ATOM      3  C   LIG d   1     -10.706  64.365 122.337  0.00  0.00     0.038 C 
ATOM      4  C   LIG d   1     -11.297  63.467 121.436  0.00  0.00     0.028 C 
ATOM      5  C   LIG d   1     -12.794  63.692 121.251  0.00  0.00    -0.047 C 
ATOM      6  C   LIG d   1     -13.040  65.182 120.920  0.00  0.00     0.091 C 
ENDROOT
BRANCH   1   7
ATOM      7  O   LIG d   1     -12.275  67.444 121.473  0.00  0.00    -0.368 OA
BRANCH   7   8
ATOM      8  C   LIG d   1     -12.774  68.520 122.306  0.00  0.00     0.119 C 
BRANCH   8   9
ATOM      9  C   LIG d   1     -13.974  69.152 121.576  0.00  0.00     0.028 C 
ATOM     10  C   LIG d   1     -15.310  68.855 122.277  0.00  0.00     0.006 C 
ENDBRANCH   8   9
BRANCH   8  11
ATOM     11  C   LIG d   1     -11.742  69.644 122.440  0.00  0.00     0.028 C 
ATOM     12  C   LIG d   1     -11.683  70.232 123.859  0.00  0.00     0.006 C 
ENDBRANCH   8  11
ENDBRANCH   7   8
ENDBRANCH   1   7
BRANCH   6  13
ATOM     13  N   LIG d   1     -14.485  65.507 120.805  0.00  0.00    -0.311 N 
ATOM     14  C   LIG d   1     -15.042  65.991 119.697  0.00  0.00     0.210 C 
ATOM     15  C   LIG d   1     -16.544  66.275 119.799  0.00  0.00     0.109 C 
ATOM     16  O   LIG d   1     -14.442  66.182 118.629  0.00  0.00    -0.276 OA
ATOM     17  H   LIG d   1     -15.053  65.352 121.616  0.00  0.00     0.149 HD
ENDBRANCH   6  13
BRANCH   5  18
ATOM     18  N   LIG d   1     -13.253  62.781 120.186  0.00  0.00     0.381 N 
ATOM     19  H   LIG d   1     -14.229  62.591 120.300  0.00  0.00    -0.090 HD
ATOM     20  H   LIG d   1     -12.753  61.913 120.263  0.00  0.00    -0.090 HD
ATOM     21  H   LIG d   1     -13.089  63.189 119.292  0.00  0.00    -0.090 HD
ENDBRANCH   5  18
BRANCH   3  22
ATOM     22  C   LIG d   1      -9.606  63.938 123.066  0.00  0.00     0.382 C 
ATOM     23  O   LIG d   1      -9.121  64.676 123.957  0.00  0.00    -0.241 OA
ATOM     24  O   LIG d   1      -9.067  62.844 122.814  0.00  0.00    -0.241 OA
ENDBRANCH   3  22
TORSDOF 7
ENDMDL
MODEL 7
REMARK VINA RESULT:      -4.5     19.972     21.755
REMARK  7 active torsions:
REMARK  status: ('A' for Active; 'I' for Inactive)
REMARK    1  A    between atoms: C_2  and  C_3 
REMARK    2  A    between atoms: C_3  and  O_6 
REMARK    3  A    between atoms: C_3  and  C_4 
REMARK    4  A    between atoms: C_7  and  O_6 
REMARK    5  A    between atoms: C_9  and  C_10 
REMARK    6  A    between atoms: N_15  and  C_14 
REMARK    7  A    between atoms: N_20  and  C_19 
REMARK       I    between atoms: C_22  and  N_20 
ROOT
ATOM      1  C   LIG d   1      -8.581  79.462 121.094  0.00  0.00     0.161 C 
ATOM      2  C   LIG d   1      -7.344  80.124 121.175  0.00  0.00     0.016 C 
ATOM      3  C   LIG d   1      -6.121  79.540 120.776  0.00  0.00     0.038 C 
ATOM      4  C   LIG d   1      -6.070  78.299 120.123  0.00  0.00     0.028 C 
ATOM      5  C   LIG d   1      -7.234  77.380 120.477  0.00  0.00    -0.047 C 
ATOM      6  C   LIG d   1      -8.559  78.150 120.281  0.00  0.00     0.091 C 
ENDROOT
BRANCH   1   7
ATOM      7  O   LIG d   1      -9.582  80.358 120.573  0.00  0.00    -0.368 OA
BRANCH   7   8
ATOM      8  C   LIG d   1      -9.181  81.176 119.446  0.00  0.00     0.119 C 
BRANCH   8   9
ATOM      9  C   LIG d   1      -9.631  82.620 119.739  0.00  0.00     0.028 C 
ATOM     10  C   LIG d   1      -8.447  83.554 120.044  0.00  0.00     0.006 C 
ENDBRANCH   8   9
BRANCH   8  11
ATOM     11  C   LIG d   1      -9.924  80.771 118.170  0.00  0.00     0.028 C 
ATOM     12  C   LIG d   1     -10.707  81.934 117.542  0.00  0.00     0.006 C 
ENDBRANCH   8  11
ENDBRANCH   7   8
ENDBRANCH   1   7
BRANCH   6  13
ATOM     13  N   LIG d   1      -9.745  77.351 120.686  0.00  0.00    -0.311 N 
ATOM     14  C   LIG d   1     -10.749  77.058 119.861  0.00  0.00     0.210 C 
ATOM     15  C   LIG d   1     -11.882  76.240 120.487  0.00  0.00     0.109 C 
ATOM     16  O   LIG d   1     -10.792  77.371 118.662  0.00  0.00    -0.276 OA
ATOM     17  H   LIG d   1      -9.776  77.029 121.634  0.00  0.00     0.149 HD
ENDBRANCH   6  13
BRANCH   5  18
ATOM     18  N   LIG d   1      -7.130  76.181 119.624  0.00  0.00     0.381 N 
ATOM     19  H   LIG d   1      -6.177  75.880 119.577  0.00  0.00    -0.090 HD
ATOM     20  H   LIG d   1      -7.433  76.415 118.695  0.00  0.00    -0.090 HD
ATOM     21  H   LIG d   1      -7.699  75.450 119.992  0.00  0.00    -0.090 HD
ENDBRANCH   5  18
BRANCH   3  22
ATOM     22  C   LIG d   1      -4.926  80.181 121.066  0.00  0.00     0.382 C 
ATOM     23  O   LIG d   1      -4.887  81.061 121.959  0.00  0.00    -0.241 OA
ATOM     24  O   LIG d   1      -3.896  79.922 120.415  0.00  0.00    -0.241 OA
ENDBRANCH   3  22
TORSDOF 7
ENDMDL
MODEL 8
REMARK VINA RESULT:      -4.5     19.508     21.717
REMARK  7 active torsions:
REMARK  status: ('A' for Active; 'I' for Inactive)
REMARK    1  A    between atoms: C_2  and  C_3 
REMARK    2  A    between atoms: C_3  and  O_6 
REMARK    3  A    between atoms: C_3  and  C_4 
REMARK    4  A    between atoms: C_7  and  O_6 
REMARK    5  A    between atoms: C_9  and  C_10 
REMARK    6  A    between atoms: N_15  and  C_14 
REMARK    7  A    between atoms: N_20  and  C_19 
REMARK       I    between atoms: C_22  and  N_20 
ROOT
ATOM      1  C   LIG d   1      -8.446  78.942 119.900  0.00  0.00     0.161 C 
ATOM      2  C   LIG d   1      -8.958  80.177 119.466  0.00  0.00     0.016 C 
ATOM      3  C   LIG d   1      -8.584  81.417 120.033  0.00  0.00     0.038 C 
ATOM      4  C   LIG d   1      -7.552  81.519 120.978  0.00  0.00     0.028 C 
ATOM      5  C   LIG d   1      -7.363  80.253 121.807  0.00  0.00    -0.047 C 
ATOM      6  C   LIG d   1      -7.237  79.043 120.853  0.00  0.00     0.091 C 
ENDROOT
BRANCH   1   7
ATOM      7  O   LIG d   1      -8.119  78.122 118.761  0.00  0.00    -0.368 OA
BRANCH   7   8
ATOM      8  C   LIG d   1      -9.172  77.251 118.279  0.00  0.00     0.119 C 
BRANCH   8   9
ATOM      9  C   LIG d   1      -9.816  76.579 119.507  0.00  0.00     0.028 C 
ATOM     10  C   LIG d   1     -11.346  76.735 119.526  0.00  0.00     0.006 C 
ENDBRANCH   8   9
BRANCH   8  11
ATOM     11  C   LIG d   1      -8.605  76.103 117.439  0.00  0.00     0.028 C 
ATOM     12  C   LIG d   1      -7.683  75.174 118.245  0.00  0.00     0.006 C 
ENDBRANCH   8  11
ENDBRANCH   7   8
ENDBRANCH   1   7
BRANCH   6  13
ATOM     13  N   LIG d   1      -7.133  77.753 121.585  0.00  0.00    -0.311 N 
ATOM     14  C   LIG d   1      -6.178  76.854 121.354  0.00  0.00     0.210 C 
ATOM     15  C   LIG d   1      -6.266  75.584 122.205  0.00  0.00     0.109 C 
ATOM     16  O   LIG d   1      -5.247  77.003 120.549  0.00  0.00    -0.276 OA
ATOM     17  H   LIG d   1      -7.830  77.565 122.279  0.00  0.00     0.149 HD
ENDBRANCH   6  13
BRANCH   5  18
ATOM     18  N   LIG d   1      -6.170  80.448 122.653  0.00  0.00     0.381 N 
ATOM     19  H   LIG d   1      -5.849  79.565 122.995  0.00  0.00    -0.090 HD
ATOM     20  H   LIG d   1      -6.421  81.019 123.441  0.00  0.00    -0.090 HD
ATOM     21  H   LIG d   1      -5.449  80.892 122.128  0.00  0.00    -0.090 HD
ENDBRANCH   5  18
BRANCH   3  22
ATOM     22  C   LIG d   1      -9.274  82.568 119.684  0.00  0.00     0.382 C 
ATOM     23  O   LIG d   1      -8.662  83.659 119.585  0.00  0.00    -0.241 OA
ATOM     24  O   LIG d   1     -10.506  82.537 119.509  0.00  0.00    -0.241 OA
ENDBRANCH   3  22
TORSDOF 7
ENDMDL
MODEL 9
REMARK VINA RESULT:      -4.4     15.612     17.941
REMARK  7 active torsions:
REMARK  status: ('A' for Active; 'I' for Inactive)
REMARK    1  A    between atoms: C_2  and  C_3 
REMARK    2  A    between atoms: C_3  and  O_6 
REMARK    3  A    between atoms: C_3  and  C_4 
REMARK    4  A    between atoms: C_7  and  O_6 
REMARK    5  A    between atoms: C_9  and  C_10 
REMARK    6  A    between atoms: N_15  and  C_14 
REMARK    7  A    between atoms: N_20  and  C_19 
REMARK       I    between atoms: C_22  and  N_20 
ROOT
ATOM      1  C   LIG d   1     -14.723  69.356 120.749  0.00  0.00     0.161 C 
ATOM      2  C   LIG d   1     -13.979  70.197 121.594  0.00  0.00     0.016 C 
ATOM      3  C   LIG d   1     -12.812  69.780 122.275  0.00  0.00     0.038 C 
ATOM      4  C   LIG d   1     -12.220  68.531 122.036  0.00  0.00     0.028 C 
ATOM      5  C   LIG d   1     -13.213  67.468 121.578  0.00  0.00    -0.047 C 
ATOM      6  C   LIG d   1     -14.031  68.024 120.390  0.00  0.00     0.091 C 
ENDROOT
BRANCH   1   7
ATOM      7  O   LIG d   1     -15.090  70.069 119.552  0.00  0.00    -0.368 OA
BRANCH   7   8
ATOM      8  C   LIG d   1     -15.850  71.287 119.743  0.00  0.00     0.119 C 
BRANCH   8   9
ATOM      9  C   LIG d   1     -17.335  70.893 119.864  0.00  0.00     0.028 C 
ATOM     10  C   LIG d   1     -18.264  72.117 119.934  0.00  0.00     0.006 C 
ENDBRANCH   8   9
BRANCH   8  11
ATOM     11  C   LIG d   1     -15.770  72.194 118.511  0.00  0.00     0.028 C 
ATOM     12  C   LIG d   1     -14.929  73.457 118.755  0.00  0.00     0.006 C 
ENDBRANCH   8  11
ENDBRANCH   7   8
ENDBRANCH   1   7
BRANCH   6  13
ATOM     13  N   LIG d   1     -15.084  67.080 119.934  0.00  0.00    -0.311 N 
ATOM     14  C   LIG d   1     -15.178  66.635 118.682  0.00  0.00     0.210 C 
ATOM     15  C   LIG d   1     -16.349  65.683 118.420  0.00  0.00     0.109 C 
ATOM     16  O   LIG d   1     -14.384  66.914 117.771  0.00  0.00    -0.276 OA
ATOM     17  H   LIG d   1     -15.751  66.777 120.616  0.00  0.00     0.149 HD
ENDBRANCH   6  13
BRANCH   5  18
ATOM     18  N   LIG d   1     -12.444  66.258 121.233  0.00  0.00     0.381 N 
ATOM     19  H   LIG d   1     -12.528  65.582 121.967  0.00  0.00    -0.090 HD
ATOM     20  H   LIG d   1     -11.474  66.504 121.142  0.00  0.00    -0.090 HD
ATOM     21  H   LIG d   1     -12.778  65.873 120.377  0.00  0.00    -0.090 HD
ENDBRANCH   5  18
BRANCH   3  22
ATOM     22  C   LIG d   1     -12.246  70.603 123.236  0.00  0.00     0.382 C 
ATOM     23  O   LIG d   1     -11.316  70.174 123.961  0.00  0.00    -0.241 OA
ATOM     24  O   LIG d   1     -12.683  71.755 123.418  0.00  0.00    -0.241 OA
ENDBRANCH   3  22
TORSDOF 7
ENDMDL
