MODEL 1
REMARK VINA RESULT:      -4.7      0.000      0.000
REMARK  7 active torsions:
REMARK  status: ('A' for Active; 'I' for Inactive)
REMARK    1  A    between atoms: C_2  and  C_3 
REMARK    2  A    between atoms: C_3  and  O_6 
REMARK    3  A    between atoms: C_3  and  C_4 
REMARK    4  A    between atoms: C_7  and  O_6 
REMARK    5  A    between atoms: C_9  and  C_10 
REMARK    6  A    between atoms: N_15  and  C_14 
REMARK    7  A    between atoms: N_20  and  C_19 
REMARK       I    between atoms: C_22  and  N_20 
ROOT
ATOM      1  C   LIG d   1      -1.152  59.928 121.232  0.00  0.00     0.161 C 
ATOM      2  C   LIG d   1      -1.296  59.862 119.837  0.00  0.00     0.016 C 
ATOM      3  C   LIG d   1      -2.512  59.534 119.194  0.00  0.00     0.038 C 
ATOM      4  C   LIG d   1      -3.713  59.397 119.906  0.00  0.00     0.028 C 
ATOM      5  C   LIG d   1      -3.513  58.959 121.353  0.00  0.00    -0.047 C 
ATOM      6  C   LIG d   1      -2.477  59.891 122.021  0.00  0.00     0.091 C 
ENDROOT
BRANCH   1   7
ATOM      7  O   LIG d   1      -0.388  61.097 121.590  0.00  0.00    -0.368 OA
BRANCH   7   8
ATOM      8  C   LIG d   1       0.944  60.855 122.104  0.00  0.00     0.119 C 
BRANCH   8   9
ATOM      9  C   LIG d   1       1.145  59.329 122.172  0.00  0.00     0.028 C 
ATOM     10  C   LIG d   1       2.428  58.873 121.458  0.00  0.00     0.006 C 
ENDBRANCH   8   9
BRANCH   8  11
ATOM     11  C   LIG d   1       1.082  61.347 123.548  0.00  0.00     0.028 C 
ATOM     12  C   LIG d   1       0.009  62.378 123.932  0.00  0.00     0.006 C 
ENDBRANCH   8  11
ENDBRANCH   7   8
ENDBRANCH   1   7
BRANCH   6  13
ATOM     13  N   LIG d   1      -2.160  59.480 123.414  0.00  0.00    -0.311 N 
ATOM     14  C   LIG d   1      -2.751  60.006 124.486  0.00  0.00     0.210 C 
ATOM     15  C   LIG d   1      -2.262  59.454 125.829  0.00  0.00     0.109 C 
ATOM     16  O   LIG d   1      -3.655  60.854 124.451  0.00  0.00    -0.276 OA
ATOM     17  H   LIG d   1      -1.460  58.775 123.533  0.00  0.00     0.149 HD
ENDBRANCH   6  13
BRANCH   5  18
ATOM     18  N   LIG d   1      -4.831  58.990 122.014  0.00  0.00     0.381 N 
ATOM     19  H   LIG d   1      -5.483  59.494 121.446  0.00  0.00    -0.090 HD
ATOM     20  H   LIG d   1      -4.743  59.468 122.893  0.00  0.00    -0.090 HD
ATOM     21  H   LIG d   1      -5.159  58.061 122.164  0.00  0.00    -0.090 HD
ENDBRANCH   5  18
BRANCH   3  22
ATOM     22  C   LIG d   1      -2.526  59.301 117.827  0.00  0.00     0.382 C 
ATOM     23  O   LIG d   1      -3.613  59.090 117.239  0.00  0.00    -0.241 OA
ATOM     24  O   LIG d   1      -1.461  59.254 117.184  0.00  0.00    -0.241 OA
ENDBRANCH   3  22
TORSDOF 7
ENDMDL
MODEL 2
REMARK VINA RESULT:      -4.5     11.962     13.776
REMARK  7 active torsions:
REMARK  status: ('A' for Active; 'I' for Inactive)
REMARK    1  A    between atoms: C_2  and  C_3 
REMARK    2  A    between atoms: C_3  and  O_6 
REMARK    3  A    between atoms: C_3  and  C_4 
REMARK    4  A    between atoms: C_7  and  O_6 
REMARK    5  A    between atoms: C_9  and  C_10 
REMARK    6  A    between atoms: N_15  and  C_14 
REMARK    7  A    between atoms: N_20  and  C_19 
REMARK       I    between atoms: C_22  and  N_20 
ROOT
ATOM      1  C   LIG d   1     -12.251  67.274 122.482  0.00  0.00     0.161 C 
ATOM      2  C   LIG d   1     -11.192  66.570 123.078  0.00  0.00     0.016 C 
ATOM      3  C   LIG d   1     -10.827  65.254 122.710  0.00  0.00     0.038 C 
ATOM      4  C   LIG d   1     -11.406  64.605 121.609  0.00  0.00     0.028 C 
ATOM      5  C   LIG d   1     -12.821  65.081 121.300  0.00  0.00    -0.047 C 
ATOM      6  C   LIG d   1     -12.822  66.624 121.204  0.00  0.00     0.091 C 
ENDROOT
BRANCH   1   7
ATOM      7  O   LIG d   1     -11.847  68.632 122.216  0.00  0.00    -0.368 OA
BRANCH   7   8
ATOM      8  C   LIG d   1     -11.913  69.547 123.337  0.00  0.00     0.119 C 
BRANCH   8   9
ATOM      9  C   LIG d   1     -13.402  69.763 123.672  0.00  0.00     0.028 C 
ATOM     10  C   LIG d   1     -14.153  70.507 122.554  0.00  0.00     0.006 C 
ENDBRANCH   8   9
BRANCH   8  11
ATOM     11  C   LIG d   1     -11.378  70.932 122.958  0.00  0.00     0.028 C 
ATOM     12  C   LIG d   1     -10.561  71.584 124.085  0.00  0.00     0.006 C 
ENDBRANCH   8  11
ENDBRANCH   7   8
ENDBRANCH   1   7
BRANCH   6  13
ATOM     13  N   LIG d   1     -14.184  67.178 120.988  0.00  0.00    -0.311 N 
ATOM     14  C   LIG d   1     -14.672  67.476 119.785  0.00  0.00     0.210 C 
ATOM     15  C   LIG d   1     -16.090  68.055 119.787  0.00  0.00     0.109 C 
ATOM     16  O   LIG d   1     -14.077  67.286 118.713  0.00  0.00    -0.276 OA
ATOM     17  H   LIG d   1     -14.747  67.335 121.800  0.00  0.00     0.149 HD
ENDBRANCH   6  13
BRANCH   5  18
ATOM     18  N   LIG d   1     -13.250  64.424 120.051  0.00  0.00     0.381 N 
ATOM     19  H   LIG d   1     -12.745  64.807 119.277  0.00  0.00    -0.090 HD
ATOM     20  H   LIG d   1     -14.229  64.603 119.909  0.00  0.00    -0.090 HD
ATOM     21  H   LIG d   1     -13.089  63.443 120.110  0.00  0.00    -0.090 HD
ENDBRANCH   5  18
BRANCH   3  22
ATOM     22  C   LIG d   1      -9.901  64.559 123.472  0.00  0.00     0.382 C 
ATOM     23  O   LIG d   1      -9.078  65.185 124.183  0.00  0.00    -0.241 OA
ATOM     24  O   LIG d   1      -9.849  63.315 123.423  0.00  0.00    -0.241 OA
ENDBRANCH   3  22
TORSDOF 7
ENDMDL
MODEL 3
REMARK VINA RESULT:      -4.4     21.623     22.900
REMARK  7 active torsions:
REMARK  status: ('A' for Active; 'I' for Inactive)
REMARK    1  A    between atoms: C_2  and  C_3 
REMARK    2  A    between atoms: C_3  and  O_6 
REMARK    3  A    between atoms: C_3  and  C_4 
REMARK    4  A    between atoms: C_7  and  O_6 
REMARK    5  A    between atoms: C_9  and  C_10 
REMARK    6  A    between atoms: N_15  and  C_14 
REMARK    7  A    between atoms: N_20  and  C_19 
REMARK       I    between atoms: C_22  and  N_20 
ROOT
ATOM      1  C   LIG d   1     -10.193  80.544 120.214  0.00  0.00     0.161 C 
ATOM      2  C   LIG d   1      -9.535  79.576 119.436  0.00  0.00     0.016 C 
ATOM      3  C   LIG d   1      -8.423  79.864 118.612  0.00  0.00     0.038 C 
ATOM      4  C   LIG d   1      -7.795  81.118 118.626  0.00  0.00     0.028 C 
ATOM      5  C   LIG d   1      -8.730  82.260 119.011  0.00  0.00    -0.047 C 
ATOM      6  C   LIG d   1      -9.453  81.894 120.327  0.00  0.00     0.091 C 
ENDROOT
BRANCH   1   7
ATOM      7  O   LIG d   1     -10.469  80.013 121.525  0.00  0.00    -0.368 OA
BRANCH   7   8
ATOM      8  C   LIG d   1     -11.717  79.291 121.669  0.00  0.00     0.119 C 
BRANCH   8   9
ATOM      9  C   LIG d   1     -12.643  80.141 122.561  0.00  0.00     0.028 C 
ATOM     10  C   LIG d   1     -11.859  81.093 123.480  0.00  0.00     0.006 C 
ENDBRANCH   8   9
BRANCH   8  11
ATOM     11  C   LIG d   1     -11.516  77.977 122.430  0.00  0.00     0.028 C 
ATOM     12  C   LIG d   1     -10.977  76.848 121.537  0.00  0.00     0.006 C 
ENDBRANCH   8  11
ENDBRANCH   7   8
ENDBRANCH   1   7
BRANCH   6  13
ATOM     13  N   LIG d   1     -10.449  82.920 120.731  0.00  0.00    -0.311 N 
ATOM     14  C   LIG d   1     -10.161  83.946 121.531  0.00  0.00     0.210 C 
ATOM     15  C   LIG d   1     -11.339  84.876 121.837  0.00  0.00     0.109 C 
ATOM     16  O   LIG d   1      -9.036  84.192 121.989  0.00  0.00    -0.276 OA
ATOM     17  H   LIG d   1     -11.380  82.815 120.380  0.00  0.00     0.149 HD
ENDBRANCH   6  13
BRANCH   5  18
ATOM     18  N   LIG d   1      -7.915  83.485 119.120  0.00  0.00     0.381 N 
ATOM     19  H   LIG d   1      -7.731  83.852 118.208  0.00  0.00    -0.090 HD
ATOM     20  H   LIG d   1      -7.037  83.254 119.550  0.00  0.00    -0.090 HD
ATOM     21  H   LIG d   1      -8.394  84.165 119.669  0.00  0.00    -0.090 HD
ENDBRANCH   5  18
BRANCH   3  22
ATOM     22  C   LIG d   1      -7.953  78.901 117.731  0.00  0.00     0.382 C 
ATOM     23  O   LIG d   1      -8.626  77.864 117.519  0.00  0.00    -0.241 OA
ATOM     24  O   LIG d   1      -6.844  79.036 117.181  0.00  0.00    -0.241 OA
ENDBRANCH   3  22
TORSDOF 7
ENDMDL
MODEL 4
REMARK VINA RESULT:      -4.4     21.928     23.207
REMARK  7 active torsions:
REMARK  status: ('A' for Active; 'I' for Inactive)
REMARK    1  A    between atoms: C_2  and  C_3 
REMARK    2  A    between atoms: C_3  and  O_6 
REMARK    3  A    between atoms: C_3  and  C_4 
REMARK    4  A    between atoms: C_7  and  O_6 
REMARK    5  A    between atoms: C_9  and  C_10 
REMARK    6  A    between atoms: N_15  and  C_14 
REMARK    7  A    between atoms: N_20  and  C_19 
REMARK       I    between atoms: C_22  and  N_20 
ROOT
ATOM      1  C   LIG d   1      -7.253  82.191 120.077  0.00  0.00     0.161 C 
ATOM      2  C   LIG d   1      -6.961  80.888 119.641  0.00  0.00     0.016 C 
ATOM      3  C   LIG d   1      -7.828  80.129 118.821  0.00  0.00     0.038 C 
ATOM      4  C   LIG d   1      -8.986  80.681 118.255  0.00  0.00     0.028 C 
ATOM      5  C   LIG d   1      -9.575  81.824 119.075  0.00  0.00    -0.047 C 
ATOM      6  C   LIG d   1      -8.460  82.851 119.378  0.00  0.00     0.091 C 
ENDROOT
BRANCH   1   7
ATOM      7  O   LIG d   1      -6.083  83.023 119.949  0.00  0.00    -0.368 OA
BRANCH   7   8
ATOM      8  C   LIG d   1      -5.316  83.234 121.159  0.00  0.00     0.119 C 
BRANCH   8   9
ATOM      9  C   LIG d   1      -5.549  84.689 121.608  0.00  0.00     0.028 C 
ATOM     10  C   LIG d   1      -6.152  84.778 123.021  0.00  0.00     0.006 C 
ENDBRANCH   8   9
BRANCH   8  11
ATOM     11  C   LIG d   1      -3.811  83.129 120.890  0.00  0.00     0.028 C 
ATOM     12  C   LIG d   1      -3.360  81.692 120.584  0.00  0.00     0.006 C 
ENDBRANCH   8  11
ENDBRANCH   7   8
ENDBRANCH   1   7
BRANCH   6  13
ATOM     13  N   LIG d   1      -8.932  83.960 120.248  0.00  0.00    -0.311 N 
ATOM     14  C   LIG d   1      -9.398  83.776 121.482  0.00  0.00     0.210 C 
ATOM     15  C   LIG d   1      -9.851  85.052 122.199  0.00  0.00     0.109 C 
ATOM     16  O   LIG d   1      -9.448  82.682 122.063  0.00  0.00    -0.276 OA
ATOM     17  H   LIG d   1      -8.897  84.885 119.867  0.00  0.00     0.149 HD
ENDBRANCH   6  13
BRANCH   5  18
ATOM     18  N   LIG d   1     -10.694  82.396 118.302  0.00  0.00     0.381 N 
ATOM     19  H   LIG d   1     -11.061  83.196 118.779  0.00  0.00    -0.090 HD
ATOM     20  H   LIG d   1     -11.424  81.710 118.229  0.00  0.00    -0.090 HD
ATOM     21  H   LIG d   1     -10.382  82.658 117.393  0.00  0.00    -0.090 HD
ENDBRANCH   5  18
BRANCH   3  22
ATOM     22  C   LIG d   1      -7.559  78.787 118.594  0.00  0.00     0.382 C 
ATOM     23  O   LIG d   1      -6.624  78.222 119.211  0.00  0.00    -0.241 OA
ATOM     24  O   LIG d   1      -8.210  78.147 117.748  0.00  0.00    -0.241 OA
ENDBRANCH   3  22
TORSDOF 7
ENDMDL
MODEL 5
REMARK VINA RESULT:      -4.3     21.929     23.372
REMARK  7 active torsions:
REMARK  status: ('A' for Active; 'I' for Inactive)
REMARK    1  A    between atoms: C_2  and  C_3 
REMARK    2  A    between atoms: C_3  and  O_6 
REMARK    3  A    between atoms: C_3  and  C_4 
REMARK    4  A    between atoms: C_7  and  O_6 
REMARK    5  A    between atoms: C_9  and  C_10 
REMARK    6  A    between atoms: N_15  and  C_14 
REMARK    7  A    between atoms: N_20  and  C_19 
REMARK       I    between atoms: C_22  and  N_20 
ROOT
ATOM      1  C   LIG d   1     -10.114  81.818 119.289  0.00  0.00     0.161 C 
ATOM      2  C   LIG d   1     -10.108  83.117 119.824  0.00  0.00     0.016 C 
ATOM      3  C   LIG d   1     -10.260  83.391 121.203  0.00  0.00     0.038 C 
ATOM      4  C   LIG d   1     -10.279  82.370 122.164  0.00  0.00     0.028 C 
ATOM      5  C   LIG d   1     -10.796  81.040 121.626  0.00  0.00    -0.047 C 
ATOM      6  C   LIG d   1     -10.022  80.687 120.335  0.00  0.00     0.091 C 
ENDROOT
BRANCH   1   7
ATOM      7  O   LIG d   1      -9.061  81.686 118.314  0.00  0.00    -0.368 OA
BRANCH   7   8
ATOM      8  C   LIG d   1      -7.809  81.142 118.798  0.00  0.00     0.119 C 
BRANCH   8   9
ATOM      9  C   LIG d   1      -6.754  82.262 118.713  0.00  0.00     0.028 C 
ATOM     10  C   LIG d   1      -6.441  82.880 120.087  0.00  0.00     0.006 C 
ENDBRANCH   8   9
BRANCH   8  11
ATOM     11  C   LIG d   1      -7.293  80.029 117.882  0.00  0.00     0.028 C 
ATOM     12  C   LIG d   1      -5.782  80.127 117.617  0.00  0.00     0.006 C 
ENDBRANCH   8  11
ENDBRANCH   7   8
ENDBRANCH   1   7
BRANCH   6  13
ATOM     13  N   LIG d   1     -10.523  79.442 119.696  0.00  0.00    -0.311 N 
ATOM     14  C   LIG d   1      -9.971  78.246 119.889  0.00  0.00     0.210 C 
ATOM     15  C   LIG d   1     -10.630  77.097 119.120  0.00  0.00     0.109 C 
ATOM     16  O   LIG d   1      -9.017  78.022 120.649  0.00  0.00    -0.276 OA
ATOM     17  H   LIG d   1     -11.314  79.528 119.088  0.00  0.00     0.149 HD
ENDBRANCH   6  13
BRANCH   5  18
ATOM     18  N   LIG d   1     -10.632  80.034 122.692  0.00  0.00     0.381 N 
ATOM     19  H   LIG d   1     -10.792  80.457 123.584  0.00  0.00    -0.090 HD
ATOM     20  H   LIG d   1      -9.688  79.689 122.671  0.00  0.00    -0.090 HD
ATOM     21  H   LIG d   1     -11.271  79.283 122.552  0.00  0.00    -0.090 HD
ENDBRANCH   5  18
BRANCH   3  22
ATOM     22  C   LIG d   1     -10.436  84.699 121.628  0.00  0.00     0.382 C 
ATOM     23  O   LIG d   1      -9.448  85.466 121.722  0.00  0.00    -0.241 OA
ATOM     24  O   LIG d   1     -11.564  85.109 121.960  0.00  0.00    -0.241 OA
ENDBRANCH   3  22
TORSDOF 7
ENDMDL
MODEL 6
REMARK VINA RESULT:      -4.3     21.611     22.781
REMARK  7 active torsions:
REMARK  status: ('A' for Active; 'I' for Inactive)
REMARK    1  A    between atoms: C_2  and  C_3 
REMARK    2  A    between atoms: C_3  and  O_6 
REMARK    3  A    between atoms: C_3  and  C_4 
REMARK    4  A    between atoms: C_7  and  O_6 
REMARK    5  A    between atoms: C_9  and  C_10 
REMARK    6  A    between atoms: N_15  and  C_14 
REMARK    7  A    between atoms: N_20  and  C_19 
REMARK       I    between atoms: C_22  and  N_20 
ROOT
ATOM      1  C   LIG d   1      -8.022  80.841 120.732  0.00  0.00     0.161 C 
ATOM      2  C   LIG d   1      -7.405  80.006 119.786  0.00  0.00     0.016 C 
ATOM      3  C   LIG d   1      -7.849  79.881 118.450  0.00  0.00     0.038 C 
ATOM      4  C   LIG d   1      -8.856  80.703 117.924  0.00  0.00     0.028 C 
ATOM      5  C   LIG d   1      -9.842  81.201 118.975  0.00  0.00    -0.047 C 
ATOM      6  C   LIG d   1      -9.053  81.829 120.146  0.00  0.00     0.091 C 
ENDROOT
BRANCH   1   7
ATOM      7  O   LIG d   1      -7.020  81.552 121.485  0.00  0.00    -0.368 OA
BRANCH   7   8
ATOM      8  C   LIG d   1      -6.003  82.232 120.709  0.00  0.00     0.119 C 
BRANCH   8   9
ATOM      9  C   LIG d   1      -4.633  81.708 121.182  0.00  0.00     0.028 C 
ATOM     10  C   LIG d   1      -3.487  82.681 120.853  0.00  0.00     0.006 C 
ENDBRANCH   8   9
BRANCH   8  11
ATOM     11  C   LIG d   1      -5.987  83.734 121.007  0.00  0.00     0.028 C 
ATOM     12  C   LIG d   1      -6.551  84.073 122.396  0.00  0.00     0.006 C 
ENDBRANCH   8  11
ENDBRANCH   7   8
ENDBRANCH   1   7
BRANCH   6  13
ATOM     13  N   LIG d   1      -9.938  82.267 121.256  0.00  0.00    -0.311 N 
ATOM     14  C   LIG d   1     -10.152  83.545 121.564  0.00  0.00     0.210 C 
ATOM     15  C   LIG d   1     -11.084  83.776 122.758  0.00  0.00     0.109 C 
ATOM     16  O   LIG d   1      -9.683  84.510 120.942  0.00  0.00    -0.276 OA
ATOM     17  H   LIG d   1     -10.384  81.549 121.794  0.00  0.00     0.149 HD
ENDBRANCH   6  13
BRANCH   5  18
ATOM     18  N   LIG d   1     -10.754  82.155 118.314  0.00  0.00     0.381 N 
ATOM     19  H   LIG d   1     -10.226  82.797 117.756  0.00  0.00    -0.090 HD
ATOM     20  H   LIG d   1     -11.243  82.678 119.019  0.00  0.00    -0.090 HD
ATOM     21  H   LIG d   1     -11.405  81.664 117.742  0.00  0.00    -0.090 HD
ENDBRANCH   5  18
BRANCH   3  22
ATOM     22  C   LIG d   1      -7.311  78.896 117.636  0.00  0.00     0.382 C 
ATOM     23  O   LIG d   1      -6.149  79.025 117.180  0.00  0.00    -0.241 OA
ATOM     24  O   LIG d   1      -7.988  77.901 117.315  0.00  0.00    -0.241 OA
ENDBRANCH   3  22
TORSDOF 7
ENDMDL
MODEL 7
REMARK VINA RESULT:      -4.3     21.594     23.176
REMARK  7 active torsions:
REMARK  status: ('A' for Active; 'I' for Inactive)
REMARK    1  A    between atoms: C_2  and  C_3 
REMARK    2  A    between atoms: C_3  and  O_6 
REMARK    3  A    between atoms: C_3  and  C_4 
REMARK    4  A    between atoms: C_7  and  O_6 
REMARK    5  A    between atoms: C_9  and  C_10 
REMARK    6  A    between atoms: N_15  and  C_14 
REMARK    7  A    between atoms: N_20  and  C_19 
REMARK       I    between atoms: C_22  and  N_20 
ROOT
ATOM      1  C   LIG d   1      -9.579  80.707 120.795  0.00  0.00     0.161 C 
ATOM      2  C   LIG d   1     -10.338  81.600 121.570  0.00  0.00     0.016 C 
ATOM      3  C   LIG d   1     -10.158  83.002 121.543  0.00  0.00     0.038 C 
ATOM      4  C   LIG d   1      -9.303  83.621 120.618  0.00  0.00     0.028 C 
ATOM      5  C   LIG d   1      -8.151  82.731 120.168  0.00  0.00    -0.047 C 
ATOM      6  C   LIG d   1      -8.719  81.372 119.699  0.00  0.00     0.091 C 
ENDROOT
BRANCH   1   7
ATOM      7  O   LIG d   1     -10.442  79.707 120.217  0.00  0.00    -0.368 OA
BRANCH   7   8
ATOM      8  C   LIG d   1     -10.297  78.363 120.738  0.00  0.00     0.119 C 
BRANCH   8   9
ATOM      9  C   LIG d   1     -10.517  77.387 119.566  0.00  0.00     0.028 C 
ATOM     10  C   LIG d   1      -9.836  77.861 118.271  0.00  0.00     0.006 C 
ENDBRANCH   8   9
BRANCH   8  11
ATOM     11  C   LIG d   1     -11.399  78.036 121.750  0.00  0.00     0.028 C 
ATOM     12  C   LIG d   1     -12.312  76.890 121.288  0.00  0.00     0.006 C 
ENDBRANCH   8  11
ENDBRANCH   7   8
ENDBRANCH   1   7
BRANCH   6  13
ATOM     13  N   LIG d   1      -7.651  80.411 119.321  0.00  0.00    -0.311 N 
ATOM     14  C   LIG d   1      -7.100  80.367 118.109  0.00  0.00     0.210 C 
ATOM     15  C   LIG d   1      -6.030  79.287 117.924  0.00  0.00     0.109 C 
ATOM     16  O   LIG d   1      -7.372  81.143 117.180  0.00  0.00    -0.276 OA
ATOM     17  H   LIG d   1      -7.348  79.765 120.024  0.00  0.00     0.149 HD
ENDBRANCH   6  13
BRANCH   5  18
ATOM     18  N   LIG d   1      -7.421  83.449 119.106  0.00  0.00     0.381 N 
ATOM     19  H   LIG d   1      -6.723  82.852 118.710  0.00  0.00    -0.090 HD
ATOM     20  H   LIG d   1      -6.962  84.247 119.509  0.00  0.00    -0.090 HD
ATOM     21  H   LIG d   1      -8.055  83.745 118.397  0.00  0.00    -0.090 HD
ENDBRANCH   5  18
BRANCH   3  22
ATOM     22  C   LIG d   1     -10.808  83.797 122.474  0.00  0.00     0.382 C 
ATOM     23  O   LIG d   1     -11.931  84.287 122.205  0.00  0.00    -0.241 OA
ATOM     24  O   LIG d   1     -10.266  84.066 123.563  0.00  0.00    -0.241 OA
ENDBRANCH   3  22
TORSDOF 7
ENDMDL
MODEL 8
REMARK VINA RESULT:      -4.3     22.552     23.810
REMARK  7 active torsions:
REMARK  status: ('A' for Active; 'I' for Inactive)
REMARK    1  A    between atoms: C_2  and  C_3 
REMARK    2  A    between atoms: C_3  and  O_6 
REMARK    3  A    between atoms: C_3  and  C_4 
REMARK    4  A    between atoms: C_7  and  O_6 
REMARK    5  A    between atoms: C_9  and  C_10 
REMARK    6  A    between atoms: N_15  and  C_14 
REMARK    7  A    between atoms: N_20  and  C_19 
REMARK       I    between atoms: C_22  and  N_20 
ROOT
ATOM      1  C   LIG d   1      -7.239  82.378 120.720  0.00  0.00     0.161 C 
ATOM      2  C   LIG d   1      -7.547  81.545 119.632  0.00  0.00     0.016 C 
ATOM      3  C   LIG d   1      -8.829  81.481 119.039  0.00  0.00     0.038 C 
ATOM      4  C   LIG d   1      -9.857  82.364 119.400  0.00  0.00     0.028 C 
ATOM      5  C   LIG d   1      -9.743  82.873 120.833  0.00  0.00    -0.047 C 
ATOM      6  C   LIG d   1      -8.318  83.429 121.056  0.00  0.00     0.091 C 
ENDROOT
BRANCH   1   7
ATOM      7  O   LIG d   1      -5.967  83.019 120.500  0.00  0.00    -0.368 OA
BRANCH   7   8
ATOM      8  C   LIG d   1      -4.858  82.521 121.289  0.00  0.00     0.119 C 
BRANCH   8   9
ATOM      9  C   LIG d   1      -3.967  83.727 121.647  0.00  0.00     0.028 C 
ATOM     10  C   LIG d   1      -4.764  85.039 121.737  0.00  0.00     0.006 C 
ENDBRANCH   8   9
BRANCH   8  11
ATOM     11  C   LIG d   1      -3.964  81.587 120.468  0.00  0.00     0.028 C 
ATOM     12  C   LIG d   1      -2.492  82.028 120.455  0.00  0.00     0.006 C 
ENDBRANCH   8  11
ENDBRANCH   7   8
ENDBRANCH   1   7
BRANCH   6  13
ATOM     13  N   LIG d   1      -8.094  83.871 122.457  0.00  0.00    -0.311 N 
ATOM     14  C   LIG d   1      -8.337  85.109 122.883  0.00  0.00     0.210 C 
ATOM     15  C   LIG d   1      -8.019  85.359 124.360  0.00  0.00     0.109 C 
ATOM     16  O   LIG d   1      -8.815  86.016 122.185  0.00  0.00    -0.276 OA
ATOM     17  H   LIG d   1      -7.737  83.190 123.099  0.00  0.00     0.149 HD
ENDBRANCH   6  13
BRANCH   5  18
ATOM     18  N   LIG d   1     -10.796  83.887 121.031  0.00  0.00     0.381 N 
ATOM     19  H   LIG d   1     -11.532  83.506 121.592  0.00  0.00    -0.090 HD
ATOM     20  H   LIG d   1     -11.179  84.137 120.136  0.00  0.00    -0.090 HD
ATOM     21  H   LIG d   1     -10.414  84.693 121.474  0.00  0.00    -0.090 HD
ENDBRANCH   5  18
BRANCH   3  22
ATOM     22  C   LIG d   1      -9.103  80.499 118.100  0.00  0.00     0.382 C 
ATOM     23  O   LIG d   1     -10.286  80.125 117.911  0.00  0.00    -0.241 OA
ATOM     24  O   LIG d   1      -8.179  79.950 117.471  0.00  0.00    -0.241 OA
ENDBRANCH   3  22
TORSDOF 7
ENDMDL
MODEL 9
REMARK VINA RESULT:      -4.2     21.881     23.113
REMARK  7 active torsions:
REMARK  status: ('A' for Active; 'I' for Inactive)
REMARK    1  A    between atoms: C_2  and  C_3 
REMARK    2  A    between atoms: C_3  and  O_6 
REMARK    3  A    between atoms: C_3  and  C_4 
REMARK    4  A    between atoms: C_7  and  O_6 
REMARK    5  A    between atoms: C_9  and  C_10 
REMARK    6  A    between atoms: N_15  and  C_14 
REMARK    7  A    between atoms: N_20  and  C_19 
REMARK       I    between atoms: C_22  and  N_20 
ROOT
ATOM      1  C   LIG d   1      -9.153  81.344 120.192  0.00  0.00     0.161 C 
ATOM      2  C   LIG d   1      -9.495  80.020 119.868  0.00  0.00     0.016 C 
ATOM      3  C   LIG d   1     -10.587  79.334 120.449  0.00  0.00     0.038 C 
ATOM      4  C   LIG d   1     -11.507  79.980 121.288  0.00  0.00     0.028 C 
ATOM      5  C   LIG d   1     -10.913  81.169 122.036  0.00  0.00    -0.047 C 
ATOM      6  C   LIG d   1     -10.211  82.101 121.022  0.00  0.00     0.091 C 
ENDROOT
BRANCH   1   7
ATOM      7  O   LIG d   1      -8.840  82.076 118.991  0.00  0.00    -0.368 OA
BRANCH   7   8
ATOM      8  C   LIG d   1      -7.444  82.408 118.792  0.00  0.00     0.119 C 
BRANCH   8   9
ATOM      9  C   LIG d   1      -6.898  81.474 117.695  0.00  0.00     0.028 C 
ATOM     10  C   LIG d   1      -6.025  80.344 118.268  0.00  0.00     0.006 C 
ENDBRANCH   8   9
BRANCH   8  11
ATOM     11  C   LIG d   1      -6.614  82.097 120.040  0.00  0.00     0.028 C 
ATOM     12  C   LIG d   1      -5.986  83.353 120.666  0.00  0.00     0.006 C 
ENDBRANCH   8  11
ENDBRANCH   7   8
ENDBRANCH   1   7
BRANCH   6  13
ATOM     13  N   LIG d   1      -9.531  83.246 121.681  0.00  0.00    -0.311 N 
ATOM     14  C   LIG d   1     -10.105  84.434 121.863  0.00  0.00     0.210 C 
ATOM     15  C   LIG d   1      -9.221  85.482 122.546  0.00  0.00     0.109 C 
ATOM     16  O   LIG d   1     -11.274  84.709 121.553  0.00  0.00    -0.276 OA
ATOM     17  H   LIG d   1      -8.590  83.100 121.992  0.00  0.00     0.149 HD
ENDBRANCH   6  13
BRANCH   5  18
ATOM     18  N   LIG d   1     -12.012  81.831 122.764  0.00  0.00     0.381 N 
ATOM     19  H   LIG d   1     -12.866  81.730 122.253  0.00  0.00    -0.090 HD
ATOM     20  H   LIG d   1     -11.806  82.811 122.843  0.00  0.00    -0.090 HD
ATOM     21  H   LIG d   1     -12.110  81.431 123.671  0.00  0.00    -0.090 HD
ENDBRANCH   5  18
BRANCH   3  22
ATOM     22  C   LIG d   1     -10.743  77.975 120.223  0.00  0.00     0.382 C 
ATOM     23  O   LIG d   1     -10.348  77.148 121.080  0.00  0.00    -0.241 OA
ATOM     24  O   LIG d   1     -11.233  77.565 119.154  0.00  0.00    -0.241 OA
ENDBRANCH   3  22
TORSDOF 7
ENDMDL
