MODEL 1
REMARK VINA RESULT:      -5.0      0.000      0.000
REMARK  7 active torsions:
REMARK  status: ('A' for Active; 'I' for Inactive)
REMARK    1  A    between atoms: C_2  and  C_3 
REMARK    2  A    between atoms: C_3  and  O_6 
REMARK    3  A    between atoms: C_3  and  C_4 
REMARK    4  A    between atoms: C_7  and  O_6 
REMARK    5  A    between atoms: C_9  and  C_10 
REMARK    6  A    between atoms: N_15  and  C_14 
REMARK    7  A    between atoms: N_20  and  C_19 
REMARK       I    between atoms: C_22  and  N_20 
ROOT
ATOM      1  C   LIG d   1      -0.735  60.753 119.222  0.00  0.00     0.161 C 
ATOM      2  C   LIG d   1      -2.006  60.220 118.948  0.00  0.00     0.016 C 
ATOM      3  C   LIG d   1      -2.230  58.855 118.652  0.00  0.00     0.038 C 
ATOM      4  C   LIG d   1      -1.211  57.897 118.759  0.00  0.00     0.028 C 
ATOM      5  C   LIG d   1       0.185  58.469 118.539  0.00  0.00    -0.047 C 
ATOM      6  C   LIG d   1       0.371  59.702 119.452  0.00  0.00     0.091 C 
ENDROOT
BRANCH   1   7
ATOM      7  O   LIG d   1      -0.815  61.652 120.346  0.00  0.00    -0.368 OA
BRANCH   7   8
ATOM      8  C   LIG d   1      -0.556  61.069 121.647  0.00  0.00     0.119 C 
BRANCH   8   9
ATOM      9  C   LIG d   1      -1.916  60.864 122.342  0.00  0.00     0.028 C 
ATOM     10  C   LIG d   1      -2.218  59.381 122.614  0.00  0.00     0.006 C 
ENDBRANCH   8   9
BRANCH   8  11
ATOM     11  C   LIG d   1       0.217  62.038 122.548  0.00  0.00     0.028 C 
ATOM     12  C   LIG d   1       1.538  61.446 123.064  0.00  0.00     0.006 C 
ENDBRANCH   8  11
ENDBRANCH   7   8
ENDBRANCH   1   7
BRANCH   6  13
ATOM     13  N   LIG d   1       1.680  60.373 119.239  0.00  0.00    -0.311 N 
ATOM     14  C   LIG d   1       2.784  60.057 119.913  0.00  0.00     0.210 C 
ATOM     15  C   LIG d   1       4.021  60.886 119.552  0.00  0.00     0.109 C 
ATOM     16  O   LIG d   1       2.865  59.148 120.752  0.00  0.00    -0.276 OA
ATOM     17  H   LIG d   1       1.712  61.102 118.553  0.00  0.00     0.149 HD
ENDBRANCH   6  13
BRANCH   5  18
ATOM     18  N   LIG d   1       1.156  57.393 118.815  0.00  0.00     0.381 N 
ATOM     19  H   LIG d   1       0.671  56.540 119.008  0.00  0.00    -0.090 HD
ATOM     20  H   LIG d   1       1.693  57.641 119.627  0.00  0.00    -0.090 HD
ATOM     21  H   LIG d   1       1.760  57.271 118.033  0.00  0.00    -0.090 HD
ENDBRANCH   5  18
BRANCH   3  22
ATOM     22  C   LIG d   1      -3.477  58.445 118.205  0.00  0.00     0.382 C 
ATOM     23  O   LIG d   1      -4.253  59.271 117.668  0.00  0.00    -0.241 OA
ATOM     24  O   LIG d   1      -3.852  57.269 118.373  0.00  0.00    -0.241 OA
ENDBRANCH   3  22
TORSDOF 7
ENDMDL
MODEL 2
REMARK VINA RESULT:      -4.7      1.847      5.301
REMARK  7 active torsions:
REMARK  status: ('A' for Active; 'I' for Inactive)
REMARK    1  A    between atoms: C_2  and  C_3 
REMARK    2  A    between atoms: C_3  and  O_6 
REMARK    3  A    between atoms: C_3  and  C_4 
REMARK    4  A    between atoms: C_7  and  O_6 
REMARK    5  A    between atoms: C_9  and  C_10 
REMARK    6  A    between atoms: N_15  and  C_14 
REMARK    7  A    between atoms: N_20  and  C_19 
REMARK       I    between atoms: C_22  and  N_20 
ROOT
ATOM      1  C   LIG d   1       1.008  59.133 120.850  0.00  0.00     0.161 C 
ATOM      2  C   LIG d   1       2.261  59.502 121.365  0.00  0.00     0.016 C 
ATOM      3  C   LIG d   1       3.308  60.021 120.569  0.00  0.00     0.038 C 
ATOM      4  C   LIG d   1       3.119  60.351 119.219  0.00  0.00     0.028 C 
ATOM      5  C   LIG d   1       2.030  59.527 118.541  0.00  0.00    -0.047 C 
ATOM      6  C   LIG d   1       0.745  59.590 119.399  0.00  0.00     0.091 C 
ENDROOT
BRANCH   1   7
ATOM      7  O   LIG d   1      -0.038  59.608 121.721  0.00  0.00    -0.368 OA
BRANCH   7   8
ATOM      8  C   LIG d   1      -0.404  61.002 121.576  0.00  0.00     0.119 C 
BRANCH   8   9
ATOM      9  C   LIG d   1      -0.300  61.654 122.969  0.00  0.00     0.028 C 
ATOM     10  C   LIG d   1       1.007  62.443 123.151  0.00  0.00     0.006 C 
ENDBRANCH   8   9
BRANCH   8  11
ATOM     11  C   LIG d   1      -1.872  61.153 121.166  0.00  0.00     0.028 C 
ATOM     12  C   LIG d   1      -2.711  59.905 121.483  0.00  0.00     0.006 C 
ENDBRANCH   8  11
ENDBRANCH   7   8
ENDBRANCH   1   7
BRANCH   6  13
ATOM     13  N   LIG d   1      -0.345  58.741 118.851  0.00  0.00    -0.311 N 
ATOM     14  C   LIG d   1      -1.286  59.199 118.027  0.00  0.00     0.210 C 
ATOM     15  C   LIG d   1      -2.328  58.162 117.596  0.00  0.00     0.109 C 
ATOM     16  O   LIG d   1      -1.339  60.357 117.588  0.00  0.00    -0.276 OA
ATOM     17  H   LIG d   1      -0.360  57.780 119.131  0.00  0.00     0.149 HD
ENDBRANCH   6  13
BRANCH   5  18
ATOM     18  N   LIG d   1       1.843  60.067 117.181  0.00  0.00     0.381 N 
ATOM     19  H   LIG d   1       1.057  59.627 116.747  0.00  0.00    -0.090 HD
ATOM     20  H   LIG d   1       2.661  59.862 116.635  0.00  0.00    -0.090 HD
ATOM     21  H   LIG d   1       1.701  61.052 117.222  0.00  0.00    -0.090 HD
ENDBRANCH   5  18
BRANCH   3  22
ATOM     22  C   LIG d   1       4.573  60.179 121.115  0.00  0.00     0.382 C 
ATOM     23  O   LIG d   1       4.959  59.415 122.032  0.00  0.00    -0.241 OA
ATOM     24  O   LIG d   1       5.315  61.103 120.732  0.00  0.00    -0.241 OA
ENDBRANCH   3  22
TORSDOF 7
ENDMDL
MODEL 3
REMARK VINA RESULT:      -4.5      2.065      3.852
REMARK  7 active torsions:
REMARK  status: ('A' for Active; 'I' for Inactive)
REMARK    1  A    between atoms: C_2  and  C_3 
REMARK    2  A    between atoms: C_3  and  O_6 
REMARK    3  A    between atoms: C_3  and  C_4 
REMARK    4  A    between atoms: C_7  and  O_6 
REMARK    5  A    between atoms: C_9  and  C_10 
REMARK    6  A    between atoms: N_15  and  C_14 
REMARK    7  A    between atoms: N_20  and  C_19 
REMARK       I    between atoms: C_22  and  N_20 
ROOT
ATOM      1  C   LIG d   1      -0.163  58.434 120.377  0.00  0.00     0.161 C 
ATOM      2  C   LIG d   1      -0.961  58.209 119.242  0.00  0.00     0.016 C 
ATOM      3  C   LIG d   1      -2.217  58.826 119.040  0.00  0.00     0.038 C 
ATOM      4  C   LIG d   1      -2.695  59.832 119.893  0.00  0.00     0.028 C 
ATOM      5  C   LIG d   1      -2.158  59.725 121.316  0.00  0.00    -0.047 C 
ATOM      6  C   LIG d   1      -0.617  59.612 121.264  0.00  0.00     0.091 C 
ENDROOT
BRANCH   1   7
ATOM      7  O   LIG d   1       1.212  58.606 119.981  0.00  0.00    -0.368 OA
BRANCH   7   8
ATOM      8  C   LIG d   1       1.611  59.954 119.633  0.00  0.00     0.119 C 
BRANCH   8   9
ATOM      9  C   LIG d   1       2.120  59.926 118.179  0.00  0.00     0.028 C 
ATOM     10  C   LIG d   1       1.078  60.461 117.182  0.00  0.00     0.006 C 
ENDBRANCH   8   9
BRANCH   8  11
ATOM     11  C   LIG d   1       2.807  60.415 120.472  0.00  0.00     0.028 C 
ATOM     12  C   LIG d   1       3.972  60.934 119.614  0.00  0.00     0.006 C 
ENDBRANCH   8  11
ENDBRANCH   7   8
ENDBRANCH   1   7
BRANCH   6  13
ATOM     13  N   LIG d   1      -0.017  59.419 122.610  0.00  0.00    -0.311 N 
ATOM     14  C   LIG d   1       0.441  60.420 123.359  0.00  0.00     0.210 C 
ATOM     15  C   LIG d   1       1.038  60.000 124.705  0.00  0.00     0.109 C 
ATOM     16  O   LIG d   1       0.380  61.620 123.050  0.00  0.00    -0.276 OA
ATOM     17  H   LIG d   1       0.043  58.480 122.952  0.00  0.00     0.149 HD
ENDBRANCH   6  13
BRANCH   5  18
ATOM     18  N   LIG d   1      -2.626  60.910 122.059  0.00  0.00     0.381 N 
ATOM     19  H   LIG d   1      -3.557  60.756 122.392  0.00  0.00    -0.090 HD
ATOM     20  H   LIG d   1      -2.641  61.699 121.437  0.00  0.00    -0.090 HD
ATOM     21  H   LIG d   1      -2.017  61.094 122.826  0.00  0.00    -0.090 HD
ENDBRANCH   5  18
BRANCH   3  22
ATOM     22  C   LIG d   1      -3.027  58.408 117.995  0.00  0.00     0.382 C 
ATOM     23  O   LIG d   1      -4.156  58.930 117.830  0.00  0.00    -0.241 OA
ATOM     24  O   LIG d   1      -2.662  57.486 117.242  0.00  0.00    -0.241 OA
ENDBRANCH   3  22
TORSDOF 7
ENDMDL
MODEL 4
REMARK VINA RESULT:      -4.4     32.796     34.726
REMARK  7 active torsions:
REMARK  status: ('A' for Active; 'I' for Inactive)
REMARK    1  A    between atoms: C_2  and  C_3 
REMARK    2  A    between atoms: C_3  and  O_6 
REMARK    3  A    between atoms: C_3  and  C_4 
REMARK    4  A    between atoms: C_7  and  O_6 
REMARK    5  A    between atoms: C_9  and  C_10 
REMARK    6  A    between atoms: N_15  and  C_14 
REMARK    7  A    between atoms: N_20  and  C_19 
REMARK       I    between atoms: C_22  and  N_20 
ROOT
ATOM      1  C   LIG d   1      -5.292  93.577 120.648  0.00  0.00     0.161 C 
ATOM      2  C   LIG d   1      -6.604  93.334 120.209  0.00  0.00     0.016 C 
ATOM      3  C   LIG d   1      -7.565  94.354 120.025  0.00  0.00     0.038 C 
ATOM      4  C   LIG d   1      -7.232  95.713 120.123  0.00  0.00     0.028 C 
ATOM      5  C   LIG d   1      -6.054  95.982 121.055  0.00  0.00    -0.047 C 
ATOM      6  C   LIG d   1      -4.878  95.064 120.654  0.00  0.00     0.091 C 
ENDROOT
BRANCH   1   7
ATOM      7  O   LIG d   1      -4.363  92.801 119.867  0.00  0.00    -0.368 OA
BRANCH   7   8
ATOM      8  C   LIG d   1      -4.647  91.384 119.761  0.00  0.00     0.119 C 
BRANCH   8   9
ATOM      9  C   LIG d   1      -3.505  90.629 120.468  0.00  0.00     0.028 C 
ATOM     10  C   LIG d   1      -3.031  89.402 119.670  0.00  0.00     0.006 C 
ENDBRANCH   8   9
BRANCH   8  11
ATOM     11  C   LIG d   1      -4.603  90.915 118.304  0.00  0.00     0.028 C 
ATOM     12  C   LIG d   1      -6.002  90.675 117.712  0.00  0.00     0.006 C 
ENDBRANCH   8  11
ENDBRANCH   7   8
ENDBRANCH   1   7
BRANCH   6  13
ATOM     13  N   LIG d   1      -3.714  95.202 121.568  0.00  0.00    -0.311 N 
ATOM     14  C   LIG d   1      -2.737  96.088 121.381  0.00  0.00     0.210 C 
ATOM     15  C   LIG d   1      -1.621  96.051 122.431  0.00  0.00     0.109 C 
ATOM     16  O   LIG d   1      -2.704  96.923 120.465  0.00  0.00    -0.276 OA
ATOM     17  H   LIG d   1      -3.676  94.585 122.355  0.00  0.00     0.149 HD
ENDBRANCH   6  13
BRANCH   5  18
ATOM     18  N   LIG d   1      -5.727  97.417 120.957  0.00  0.00     0.381 N 
ATOM     19  H   LIG d   1      -5.372  97.744 121.833  0.00  0.00    -0.090 HD
ATOM     20  H   LIG d   1      -6.566  97.928 120.746  0.00  0.00    -0.090 HD
ATOM     21  H   LIG d   1      -5.051  97.565 120.240  0.00  0.00    -0.090 HD
ENDBRANCH   5  18
BRANCH   3  22
ATOM     22  C   LIG d   1      -8.887  94.017 119.777  0.00  0.00     0.382 C 
ATOM     23  O   LIG d   1      -9.452  93.142 120.476  0.00  0.00    -0.241 OA
ATOM     24  O   LIG d   1      -9.508  94.545 118.835  0.00  0.00    -0.241 OA
ENDBRANCH   3  22
TORSDOF 7
ENDMDL
MODEL 5
REMARK VINA RESULT:      -4.3     21.301     22.970
REMARK  7 active torsions:
REMARK  status: ('A' for Active; 'I' for Inactive)
REMARK    1  A    between atoms: C_2  and  C_3 
REMARK    2  A    between atoms: C_3  and  O_6 
REMARK    3  A    between atoms: C_3  and  C_4 
REMARK    4  A    between atoms: C_7  and  O_6 
REMARK    5  A    between atoms: C_9  and  C_10 
REMARK    6  A    between atoms: N_15  and  C_14 
REMARK    7  A    between atoms: N_20  and  C_19 
REMARK       I    between atoms: C_22  and  N_20 
ROOT
ATOM      1  C   LIG d   1      -7.480  81.140 119.894  0.00  0.00     0.161 C 
ATOM      2  C   LIG d   1      -7.406  79.800 119.476  0.00  0.00     0.016 C 
ATOM      3  C   LIG d   1      -8.295  79.228 118.537  0.00  0.00     0.038 C 
ATOM      4  C   LIG d   1      -9.230  80.003 117.833  0.00  0.00     0.028 C 
ATOM      5  C   LIG d   1      -9.674  81.250 118.590  0.00  0.00    -0.047 C 
ATOM      6  C   LIG d   1      -8.422  82.028 119.055  0.00  0.00     0.091 C 
ENDROOT
BRANCH   1   7
ATOM      7  O   LIG d   1      -6.157  81.712 119.935  0.00  0.00    -0.368 OA
BRANCH   7   8
ATOM      8  C   LIG d   1      -5.387  81.451 121.134  0.00  0.00     0.119 C 
BRANCH   8   9
ATOM      9  C   LIG d   1      -5.968  82.332 122.258  0.00  0.00     0.028 C 
ATOM     10  C   LIG d   1      -5.843  83.833 121.949  0.00  0.00     0.006 C 
ENDBRANCH   8   9
BRANCH   8  11
ATOM     11  C   LIG d   1      -3.934  81.905 120.973  0.00  0.00     0.028 C 
ATOM     12  C   LIG d   1      -3.423  81.766 119.530  0.00  0.00     0.006 C 
ENDBRANCH   8  11
ENDBRANCH   7   8
ENDBRANCH   1   7
BRANCH   6  13
ATOM     13  N   LIG d   1      -8.767  83.218 119.875  0.00  0.00    -0.311 N 
ATOM     14  C   LIG d   1      -9.411  83.146 121.038  0.00  0.00     0.210 C 
ATOM     15  C   LIG d   1      -9.685  84.494 121.712  0.00  0.00     0.109 C 
ATOM     16  O   LIG d   1      -9.755  82.090 121.592  0.00  0.00    -0.276 OA
ATOM     17  H   LIG d   1      -8.498  84.113 119.516  0.00  0.00     0.149 HD
ENDBRANCH   6  13
BRANCH   5  18
ATOM     18  N   LIG d   1     -10.540  82.034 117.688  0.00  0.00     0.381 N 
ATOM     19  H   LIG d   1      -9.998  82.394 116.928  0.00  0.00    -0.090 HD
ATOM     20  H   LIG d   1     -10.923  82.809 118.198  0.00  0.00    -0.090 HD
ATOM     21  H   LIG d   1     -11.275  81.460 117.338  0.00  0.00    -0.090 HD
ENDBRANCH   5  18
BRANCH   3  22
ATOM     22  C   LIG d   1      -8.280  77.859 118.322  0.00  0.00     0.382 C 
ATOM     23  O   LIG d   1      -7.280  77.182 118.661  0.00  0.00    -0.241 OA
ATOM     24  O   LIG d   1      -9.236  77.298 117.754  0.00  0.00    -0.241 OA
ENDBRANCH   3  22
TORSDOF 7
ENDMDL
MODEL 6
REMARK VINA RESULT:      -4.3     23.796     25.668
REMARK  7 active torsions:
REMARK  status: ('A' for Active; 'I' for Inactive)
REMARK    1  A    between atoms: C_2  and  C_3 
REMARK    2  A    between atoms: C_3  and  O_6 
REMARK    3  A    between atoms: C_3  and  C_4 
REMARK    4  A    between atoms: C_7  and  O_6 
REMARK    5  A    between atoms: C_9  and  C_10 
REMARK    6  A    between atoms: N_15  and  C_14 
REMARK    7  A    between atoms: N_20  and  C_19 
REMARK       I    between atoms: C_22  and  N_20 
ROOT
ATOM      1  C   LIG d   1     -18.759  77.189 119.415  0.00  0.00     0.161 C 
ATOM      2  C   LIG d   1     -18.087  78.346 119.842  0.00  0.00     0.016 C 
ATOM      3  C   LIG d   1     -18.472  79.095 120.978  0.00  0.00     0.038 C 
ATOM      4  C   LIG d   1     -19.471  78.649 121.856  0.00  0.00     0.028 C 
ATOM      5  C   LIG d   1     -20.509  77.754 121.188  0.00  0.00    -0.047 C 
ATOM      6  C   LIG d   1     -19.781  76.625 120.423  0.00  0.00     0.091 C 
ENDROOT
BRANCH   1   7
ATOM      7  O   LIG d   1     -17.801  76.175 119.051  0.00  0.00    -0.368 OA
BRANCH   7   8
ATOM      8  C   LIG d   1     -17.459  75.221 120.087  0.00  0.00     0.119 C 
BRANCH   8   9
ATOM      9  C   LIG d   1     -15.995  75.483 120.492  0.00  0.00     0.028 C 
ATOM     10  C   LIG d   1     -15.876  76.115 121.889  0.00  0.00     0.006 C 
ENDBRANCH   8   9
BRANCH   8  11
ATOM     11  C   LIG d   1     -17.481  73.786 119.553  0.00  0.00     0.028 C 
ATOM     12  C   LIG d   1     -17.794  72.750 120.644  0.00  0.00     0.006 C 
ENDBRANCH   8  11
ENDBRANCH   7   8
ENDBRANCH   1   7
BRANCH   6  13
ATOM     13  N   LIG d   1     -20.720  75.753 119.671  0.00  0.00    -0.311 N 
ATOM     14  C   LIG d   1     -21.213  74.615 120.157  0.00  0.00     0.210 C 
ATOM     15  C   LIG d   1     -22.149  73.858 119.209  0.00  0.00     0.109 C 
ATOM     16  O   LIG d   1     -20.990  74.177 121.296  0.00  0.00    -0.276 OA
ATOM     17  H   LIG d   1     -20.979  76.048 118.750  0.00  0.00     0.149 HD
ENDBRANCH   6  13
BRANCH   5  18
ATOM     18  N   LIG d   1     -21.409  77.250 122.243  0.00  0.00     0.381 N 
ATOM     19  H   LIG d   1     -20.897  77.123 123.093  0.00  0.00    -0.090 HD
ATOM     20  H   LIG d   1     -21.776  76.359 121.959  0.00  0.00    -0.090 HD
ATOM     21  H   LIG d   1     -22.156  77.893 122.390  0.00  0.00    -0.090 HD
ENDBRANCH   5  18
BRANCH   3  22
ATOM     22  C   LIG d   1     -17.882  80.326 121.223  0.00  0.00     0.382 C 
ATOM     23  O   LIG d   1     -16.882  80.685 120.556  0.00  0.00    -0.241 OA
ATOM     24  O   LIG d   1     -18.311  81.062 122.131  0.00  0.00    -0.241 OA
ENDBRANCH   3  22
TORSDOF 7
ENDMDL
MODEL 7
REMARK VINA RESULT:      -4.2     30.169     31.001
REMARK  7 active torsions:
REMARK  status: ('A' for Active; 'I' for Inactive)
REMARK    1  A    between atoms: C_2  and  C_3 
REMARK    2  A    between atoms: C_3  and  O_6 
REMARK    3  A    between atoms: C_3  and  C_4 
REMARK    4  A    between atoms: C_7  and  O_6 
REMARK    5  A    between atoms: C_9  and  C_10 
REMARK    6  A    between atoms: N_15  and  C_14 
REMARK    7  A    between atoms: N_20  and  C_19 
REMARK       I    between atoms: C_22  and  N_20 
ROOT
ATOM      1  C   LIG d   1      -3.084  91.712 119.782  0.00  0.00     0.161 C 
ATOM      2  C   LIG d   1      -4.423  91.542 119.391  0.00  0.00     0.016 C 
ATOM      3  C   LIG d   1      -4.826  90.675 118.350  0.00  0.00     0.038 C 
ATOM      4  C   LIG d   1      -3.926  89.799 117.725  0.00  0.00     0.028 C 
ATOM      5  C   LIG d   1      -2.485  90.298 117.739  0.00  0.00    -0.047 C 
ATOM      6  C   LIG d   1      -2.101  90.681 119.187  0.00  0.00     0.091 C 
ENDROOT
BRANCH   1   7
ATOM      7  O   LIG d   1      -2.992  91.719 121.220  0.00  0.00    -0.368 OA
BRANCH   7   8
ATOM      8  C   LIG d   1      -3.395  90.499 121.891  0.00  0.00     0.119 C 
BRANCH   8   9
ATOM      9  C   LIG d   1      -4.420  90.884 122.975  0.00  0.00     0.028 C 
ATOM     10  C   LIG d   1      -4.560  89.804 124.061  0.00  0.00     0.006 C 
ENDBRANCH   8   9
BRANCH   8  11
ATOM     11  C   LIG d   1      -2.223  89.866 122.647  0.00  0.00     0.028 C 
ATOM     12  C   LIG d   1      -1.162  90.894 123.070  0.00  0.00     0.006 C 
ENDBRANCH   8  11
ENDBRANCH   7   8
ENDBRANCH   1   7
BRANCH   6  13
ATOM     13  N   LIG d   1      -0.735  91.259 119.277  0.00  0.00    -0.311 N 
ATOM     14  C   LIG d   1       0.314  90.591 119.754  0.00  0.00     0.210 C 
ATOM     15  C   LIG d   1       1.627  91.379 119.777  0.00  0.00     0.109 C 
ATOM     16  O   LIG d   1       0.288  89.410 120.131  0.00  0.00    -0.276 OA
ATOM     17  H   LIG d   1      -0.617  92.203 118.964  0.00  0.00     0.149 HD
ENDBRANCH   6  13
BRANCH   5  18
ATOM     18  N   LIG d   1      -1.637  89.228 117.180  0.00  0.00     0.381 N 
ATOM     19  H   LIG d   1      -0.849  89.630 116.712  0.00  0.00    -0.090 HD
ATOM     20  H   LIG d   1      -2.172  88.708 116.507  0.00  0.00    -0.090 HD
ATOM     21  H   LIG d   1      -1.327  88.624 117.908  0.00  0.00    -0.090 HD
ENDBRANCH   5  18
BRANCH   3  22
ATOM     22  C   LIG d   1      -6.135  90.708 117.896  0.00  0.00     0.382 C 
ATOM     23  O   LIG d   1      -6.575  89.776 117.180  0.00  0.00    -0.241 OA
ATOM     24  O   LIG d   1      -6.870  91.679 118.158  0.00  0.00    -0.241 OA
ENDBRANCH   3  22
TORSDOF 7
ENDMDL
MODEL 8
REMARK VINA RESULT:      -4.2     20.933     22.819
REMARK  7 active torsions:
REMARK  status: ('A' for Active; 'I' for Inactive)
REMARK    1  A    between atoms: C_2  and  C_3 
REMARK    2  A    between atoms: C_3  and  O_6 
REMARK    3  A    between atoms: C_3  and  C_4 
REMARK    4  A    between atoms: C_7  and  O_6 
REMARK    5  A    between atoms: C_9  and  C_10 
REMARK    6  A    between atoms: N_15  and  C_14 
REMARK    7  A    between atoms: N_20  and  C_19 
REMARK       I    between atoms: C_22  and  N_20 
ROOT
ATOM      1  C   LIG d   1      -6.539  81.686 117.841  0.00  0.00     0.161 C 
ATOM      2  C   LIG d   1      -5.289  81.297 117.330  0.00  0.00     0.016 C 
ATOM      3  C   LIG d   1      -4.122  81.197 118.121  0.00  0.00     0.038 C 
ATOM      4  C   LIG d   1      -4.158  81.335 119.517  0.00  0.00     0.028 C 
ATOM      5  C   LIG d   1      -5.297  82.222 120.009  0.00  0.00    -0.047 C 
ATOM      6  C   LIG d   1      -6.621  81.732 119.381  0.00  0.00     0.091 C 
ENDROOT
BRANCH   1   7
ATOM      7  O   LIG d   1      -7.571  80.832 117.309  0.00  0.00    -0.368 OA
BRANCH   7   8
ATOM      8  C   LIG d   1      -7.934  79.688 118.121  0.00  0.00     0.119 C 
BRANCH   8   9
ATOM      9  C   LIG d   1      -7.506  78.422 117.354  0.00  0.00     0.028 C 
ATOM     10  C   LIG d   1      -8.546  77.294 117.458  0.00  0.00     0.006 C 
ENDBRANCH   8   9
BRANCH   8  11
ATOM     11  C   LIG d   1      -9.453  79.574 118.277  0.00  0.00     0.028 C 
ATOM     12  C   LIG d   1     -10.193  80.851 117.847  0.00  0.00     0.006 C 
ENDBRANCH   8  11
ENDBRANCH   7   8
ENDBRANCH   1   7
BRANCH   6  13
ATOM     13  N   LIG d   1      -7.774  82.596 119.744  0.00  0.00    -0.311 N 
ATOM     14  C   LIG d   1      -8.585  82.344 120.770  0.00  0.00     0.210 C 
ATOM     15  C   LIG d   1      -9.724  83.352 120.957  0.00  0.00     0.109 C 
ATOM     16  O   LIG d   1      -8.451  81.400 121.563  0.00  0.00    -0.276 OA
ATOM     17  H   LIG d   1      -7.938  83.402 119.172  0.00  0.00     0.149 HD
ENDBRANCH   6  13
BRANCH   5  18
ATOM     18  N   LIG d   1      -5.300  82.166 121.483  0.00  0.00     0.381 N 
ATOM     19  H   LIG d   1      -4.362  82.077 121.820  0.00  0.00    -0.090 HD
ATOM     20  H   LIG d   1      -5.819  81.358 121.777  0.00  0.00    -0.090 HD
ATOM     21  H   LIG d   1      -5.717  82.991 121.854  0.00  0.00    -0.090 HD
ENDBRANCH   5  18
BRANCH   3  22
ATOM     22  C   LIG d   1      -2.893  80.997 117.510  0.00  0.00     0.382 C 
ATOM     23  O   LIG d   1      -2.467  79.831 117.327  0.00  0.00    -0.241 OA
ATOM     24  O   LIG d   1      -2.186  81.967 117.181  0.00  0.00    -0.241 OA
ENDBRANCH   3  22
TORSDOF 7
ENDMDL
MODEL 9
REMARK VINA RESULT:      -4.1      2.265      6.007
REMARK  7 active torsions:
REMARK  status: ('A' for Active; 'I' for Inactive)
REMARK    1  A    between atoms: C_2  and  C_3 
REMARK    2  A    between atoms: C_3  and  O_6 
REMARK    3  A    between atoms: C_3  and  C_4 
REMARK    4  A    between atoms: C_7  and  O_6 
REMARK    5  A    between atoms: C_9  and  C_10 
REMARK    6  A    between atoms: N_15  and  C_14 
REMARK    7  A    between atoms: N_20  and  C_19 
REMARK       I    between atoms: C_22  and  N_20 
ROOT
ATOM      1  C   LIG d   1       0.863  59.066 118.576  0.00  0.00     0.161 C 
ATOM      2  C   LIG d   1       2.153  59.388 119.029  0.00  0.00     0.016 C 
ATOM      3  C   LIG d   1       2.401  60.249 120.123  0.00  0.00     0.038 C 
ATOM      4  C   LIG d   1       1.366  60.729 120.938  0.00  0.00     0.028 C 
ATOM      5  C   LIG d   1       0.027  60.838 120.216  0.00  0.00    -0.047 C 
ATOM      6  C   LIG d   1      -0.279  59.491 119.522  0.00  0.00     0.091 C 
ENDROOT
BRANCH   1   7
ATOM      7  O   LIG d   1       0.783  57.654 118.297  0.00  0.00    -0.368 OA
BRANCH   7   8
ATOM      8  C   LIG d   1       0.481  56.797 119.425  0.00  0.00     0.119 C 
BRANCH   8   9
ATOM      9  C   LIG d   1       1.745  55.968 119.727  0.00  0.00     0.028 C 
ATOM     10  C   LIG d   1       2.394  56.354 121.067  0.00  0.00     0.006 C 
ENDBRANCH   8   9
BRANCH   8  11
ATOM     11  C   LIG d   1      -0.602  55.773 119.074  0.00  0.00     0.028 C 
ATOM     12  C   LIG d   1      -1.104  55.910 117.628  0.00  0.00     0.006 C 
ENDBRANCH   8  11
ENDBRANCH   7   8
ENDBRANCH   1   7
BRANCH   6  13
ATOM     13  N   LIG d   1      -1.531  59.538 118.722  0.00  0.00    -0.311 N 
ATOM     14  C   LIG d   1      -2.659  58.933 119.091  0.00  0.00     0.210 C 
ATOM     15  C   LIG d   1      -3.827  59.090 118.111  0.00  0.00     0.109 C 
ATOM     16  O   LIG d   1      -2.813  58.309 120.151  0.00  0.00    -0.276 OA
ATOM     17  H   LIG d   1      -1.504  60.049 117.862  0.00  0.00     0.149 HD
ENDBRANCH   6  13
BRANCH   5  18
ATOM     18  N   LIG d   1      -0.989  61.218 121.215  0.00  0.00     0.381 N 
ATOM     19  H   LIG d   1      -1.576  61.938 120.845  0.00  0.00    -0.090 HD
ATOM     20  H   LIG d   1      -0.525  61.578 122.031  0.00  0.00    -0.090 HD
ATOM     21  H   LIG d   1      -1.540  60.424 121.461  0.00  0.00    -0.090 HD
ENDBRANCH   5  18
BRANCH   3  22
ATOM     22  C   LIG d   1       3.696  60.670 120.387  0.00  0.00     0.382 C 
ATOM     23  O   LIG d   1       4.125  60.678 121.566  0.00  0.00    -0.241 OA
ATOM     24  O   LIG d   1       4.425  61.084 119.466  0.00  0.00    -0.241 OA
ENDBRANCH   3  22
TORSDOF 7
ENDMDL
