MODEL 1
REMARK VINA RESULT:      -4.9      0.000      0.000
REMARK  7 active torsions:
REMARK  status: ('A' for Active; 'I' for Inactive)
REMARK    1  A    between atoms: C_2  and  C_3 
REMARK    2  A    between atoms: C_3  and  O_6 
REMARK    3  A    between atoms: C_3  and  C_4 
REMARK    4  A    between atoms: C_7  and  O_6 
REMARK    5  A    between atoms: C_9  and  C_10 
REMARK    6  A    between atoms: N_15  and  C_14 
REMARK    7  A    between atoms: N_20  and  C_19 
REMARK       I    between atoms: C_22  and  N_20 
ROOT
ATOM      1  C   LIG d   1      -1.206  60.470 120.093  0.00  0.00     0.161 C 
ATOM      2  C   LIG d   1      -2.412  59.901 119.652  0.00  0.00     0.016 C 
ATOM      3  C   LIG d   1      -2.494  58.630 119.037  0.00  0.00     0.038 C 
ATOM      4  C   LIG d   1      -1.388  57.772 118.958  0.00  0.00     0.028 C 
ATOM      5  C   LIG d   1      -0.052  58.506 118.934  0.00  0.00    -0.047 C 
ATOM      6  C   LIG d   1      -0.005  59.501 120.116  0.00  0.00     0.091 C 
ENDROOT
BRANCH   1   7
ATOM      7  O   LIG d   1      -1.393  61.066 121.391  0.00  0.00    -0.368 OA
BRANCH   7   8
ATOM      8  C   LIG d   1      -1.203  60.190 122.529  0.00  0.00     0.119 C 
BRANCH   8   9
ATOM      9  C   LIG d   1      -2.546  60.109 123.281  0.00  0.00     0.028 C 
ATOM     10  C   LIG d   1      -3.279  58.780 123.031  0.00  0.00     0.006 C 
ENDBRANCH   8   9
BRANCH   8  11
ATOM     11  C   LIG d   1      -0.212  60.786 123.533  0.00  0.00     0.028 C 
ATOM     12  C   LIG d   1       0.253  62.199 123.144  0.00  0.00     0.006 C 
ENDBRANCH   8  11
ENDBRANCH   7   8
ENDBRANCH   1   7
BRANCH   6  13
ATOM     13  N   LIG d   1       1.235  60.322 120.117  0.00  0.00    -0.311 N 
ATOM     14  C   LIG d   1       2.314  60.018 120.836  0.00  0.00     0.210 C 
ATOM     15  C   LIG d   1       3.476  61.008 120.708  0.00  0.00     0.109 C 
ATOM     16  O   LIG d   1       2.432  59.005 121.542  0.00  0.00    -0.276 OA
ATOM     17  H   LIG d   1       1.237  61.145 119.548  0.00  0.00     0.149 HD
ENDBRANCH   6  13
BRANCH   5  18
ATOM     18  N   LIG d   1       1.017  57.491 118.990  0.00  0.00     0.381 N 
ATOM     19  H   LIG d   1       1.251  57.298 119.943  0.00  0.00    -0.090 HD
ATOM     20  H   LIG d   1       1.834  57.853 118.530  0.00  0.00    -0.090 HD
ATOM     21  H   LIG d   1       0.716  56.655 118.539  0.00  0.00    -0.090 HD
ENDBRANCH   5  18
BRANCH   3  22
ATOM     22  C   LIG d   1      -3.686  58.223 118.457  0.00  0.00     0.382 C 
ATOM     23  O   LIG d   1      -4.305  58.997 117.687  0.00  0.00    -0.241 OA
ATOM     24  O   LIG d   1      -4.174  57.110 118.729  0.00  0.00    -0.241 OA
ENDBRANCH   3  22
TORSDOF 7
ENDMDL
MODEL 2
REMARK VINA RESULT:      -4.7      2.258      3.641
REMARK  7 active torsions:
REMARK  status: ('A' for Active; 'I' for Inactive)
REMARK    1  A    between atoms: C_2  and  C_3 
REMARK    2  A    between atoms: C_3  and  O_6 
REMARK    3  A    between atoms: C_3  and  C_4 
REMARK    4  A    between atoms: C_7  and  O_6 
REMARK    5  A    between atoms: C_9  and  C_10 
REMARK    6  A    between atoms: N_15  and  C_14 
REMARK    7  A    between atoms: N_20  and  C_19 
REMARK       I    between atoms: C_22  and  N_20 
ROOT
ATOM      1  C   LIG d   1      -0.838  58.143 120.388  0.00  0.00     0.161 C 
ATOM      2  C   LIG d   1      -1.931  57.711 119.620  0.00  0.00     0.016 C 
ATOM      3  C   LIG d   1      -2.416  58.412 118.492  0.00  0.00     0.038 C 
ATOM      4  C   LIG d   1      -1.741  59.522 117.963  0.00  0.00     0.028 C 
ATOM      5  C   LIG d   1      -0.927  60.287 119.000  0.00  0.00    -0.047 C 
ATOM      6  C   LIG d   1      -0.020  59.292 119.760  0.00  0.00     0.091 C 
ENDROOT
BRANCH   1   7
ATOM      7  O   LIG d   1       0.020  57.025 120.690  0.00  0.00    -0.368 OA
BRANCH   7   8
ATOM      8  C   LIG d   1       0.964  56.648 119.657  0.00  0.00     0.119 C 
BRANCH   8   9
ATOM      9  C   LIG d   1       0.663  55.188 119.266  0.00  0.00     0.028 C 
ATOM     10  C   LIG d   1       0.131  55.064 117.829  0.00  0.00     0.006 C 
ENDBRANCH   8   9
BRANCH   8  11
ATOM     11  C   LIG d   1       2.399  56.637 120.191  0.00  0.00     0.028 C 
ATOM     12  C   LIG d   1       2.470  56.826 121.715  0.00  0.00     0.006 C 
ENDBRANCH   8  11
ENDBRANCH   7   8
ENDBRANCH   1   7
BRANCH   6  13
ATOM     13  N   LIG d   1       0.749  59.945 120.851  0.00  0.00    -0.311 N 
ATOM     14  C   LIG d   1       1.991  60.401 120.701  0.00  0.00     0.210 C 
ATOM     15  C   LIG d   1       2.609  61.021 121.958  0.00  0.00     0.109 C 
ATOM     16  O   LIG d   1       2.628  60.380 119.637  0.00  0.00    -0.276 OA
ATOM     17  H   LIG d   1       0.296  60.031 121.740  0.00  0.00     0.149 HD
ENDBRANCH   6  13
BRANCH   5  18
ATOM     18  N   LIG d   1      -0.168  61.333 118.289  0.00  0.00     0.381 N 
ATOM     19  H   LIG d   1       0.709  60.964 117.980  0.00  0.00    -0.090 HD
ATOM     20  H   LIG d   1       0.015  62.091 118.923  0.00  0.00    -0.090 HD
ATOM     21  H   LIG d   1      -0.691  61.662 117.508  0.00  0.00    -0.090 HD
ENDBRANCH   5  18
BRANCH   3  22
ATOM     22  C   LIG d   1      -3.612  58.027 117.905  0.00  0.00     0.382 C 
ATOM     23  O   LIG d   1      -4.486  58.888 117.639  0.00  0.00    -0.241 OA
ATOM     24  O   LIG d   1      -3.847  56.825 117.679  0.00  0.00    -0.241 OA
ENDBRANCH   3  22
TORSDOF 7
ENDMDL
MODEL 3
REMARK VINA RESULT:      -4.5      1.751      2.482
REMARK  7 active torsions:
REMARK  status: ('A' for Active; 'I' for Inactive)
REMARK    1  A    between atoms: C_2  and  C_3 
REMARK    2  A    between atoms: C_3  and  O_6 
REMARK    3  A    between atoms: C_3  and  C_4 
REMARK    4  A    between atoms: C_7  and  O_6 
REMARK    5  A    between atoms: C_9  and  C_10 
REMARK    6  A    between atoms: N_15  and  C_14 
REMARK    7  A    between atoms: N_20  and  C_19 
REMARK       I    between atoms: C_22  and  N_20 
ROOT
ATOM      1  C   LIG d   1      -1.156  60.056 120.616  0.00  0.00     0.161 C 
ATOM      2  C   LIG d   1      -2.318  59.814 119.864  0.00  0.00     0.016 C 
ATOM      3  C   LIG d   1      -2.323  59.702 118.455  0.00  0.00     0.038 C 
ATOM      4  C   LIG d   1      -1.136  59.672 117.709  0.00  0.00     0.028 C 
ATOM      5  C   LIG d   1       0.017  60.417 118.375  0.00  0.00    -0.047 C 
ATOM      6  C   LIG d   1       0.164  59.916 119.829  0.00  0.00     0.091 C 
ENDROOT
BRANCH   1   7
ATOM      7  O   LIG d   1      -1.139  59.202 121.778  0.00  0.00    -0.368 OA
BRANCH   7   8
ATOM      8  C   LIG d   1      -1.830  57.936 121.648  0.00  0.00     0.119 C 
BRANCH   8   9
ATOM      9  C   LIG d   1      -2.606  57.695 122.958  0.00  0.00     0.028 C 
ATOM     10  C   LIG d   1      -3.700  58.749 123.194  0.00  0.00     0.006 C 
ENDBRANCH   8   9
BRANCH   8  11
ATOM     11  C   LIG d   1      -0.843  56.770 121.541  0.00  0.00     0.028 C 
ATOM     12  C   LIG d   1      -0.620  56.308 120.092  0.00  0.00     0.006 C 
ENDBRANCH   8  11
ENDBRANCH   7   8
ENDBRANCH   1   7
BRANCH   6  13
ATOM     13  N   LIG d   1       1.215  60.653 120.579  0.00  0.00    -0.311 N 
ATOM     14  C   LIG d   1       2.463  60.210 120.718  0.00  0.00     0.210 C 
ATOM     15  C   LIG d   1       3.382  61.115 121.546  0.00  0.00     0.109 C 
ATOM     16  O   LIG d   1       2.906  59.170 120.207  0.00  0.00    -0.276 OA
ATOM     17  H   LIG d   1       0.950  61.522 120.999  0.00  0.00     0.149 HD
ENDBRANCH   6  13
BRANCH   5  18
ATOM     18  N   LIG d   1       1.225  60.190 117.559  0.00  0.00     0.381 N 
ATOM     19  H   LIG d   1       1.235  60.824 116.785  0.00  0.00    -0.090 HD
ATOM     20  H   LIG d   1       1.202  59.253 117.199  0.00  0.00    -0.090 HD
ATOM     21  H   LIG d   1       2.041  60.321 118.115  0.00  0.00    -0.090 HD
ENDBRANCH   5  18
BRANCH   3  22
ATOM     22  C   LIG d   1      -3.530  59.657 117.774  0.00  0.00     0.382 C 
ATOM     23  O   LIG d   1      -4.177  58.583 117.714  0.00  0.00    -0.241 OA
ATOM     24  O   LIG d   1      -3.959  60.665 117.181  0.00  0.00    -0.241 OA
ENDBRANCH   3  22
TORSDOF 7
ENDMDL
MODEL 4
REMARK VINA RESULT:      -4.4     32.865     34.632
REMARK  7 active torsions:
REMARK  status: ('A' for Active; 'I' for Inactive)
REMARK    1  A    between atoms: C_2  and  C_3 
REMARK    2  A    between atoms: C_3  and  O_6 
REMARK    3  A    between atoms: C_3  and  C_4 
REMARK    4  A    between atoms: C_7  and  O_6 
REMARK    5  A    between atoms: C_9  and  C_10 
REMARK    6  A    between atoms: N_15  and  C_14 
REMARK    7  A    between atoms: N_20  and  C_19 
REMARK       I    between atoms: C_22  and  N_20 
ROOT
ATOM      1  C   LIG d   1     -16.592  90.161 122.337  0.00  0.00     0.161 C 
ATOM      2  C   LIG d   1     -15.194  90.137 122.473  0.00  0.00     0.016 C 
ATOM      3  C   LIG d   1     -14.374  89.130 121.912  0.00  0.00     0.038 C 
ATOM      4  C   LIG d   1     -14.887  88.155 121.044  0.00  0.00     0.028 C 
ATOM      5  C   LIG d   1     -16.360  87.843 121.286  0.00  0.00    -0.047 C 
ATOM      6  C   LIG d   1     -17.158  89.167 121.301  0.00  0.00     0.091 C 
ENDROOT
BRANCH   1   7
ATOM      7  O   LIG d   1     -17.031  91.500 122.038  0.00  0.00    -0.368 OA
BRANCH   7   8
ATOM      8  C   LIG d   1     -17.080  91.857 120.635  0.00  0.00     0.119 C 
BRANCH   8   9
ATOM      9  C   LIG d   1     -15.760  92.575 120.293  0.00  0.00     0.028 C 
ATOM     10  C   LIG d   1     -15.960  94.077 120.031  0.00  0.00     0.006 C 
ENDBRANCH   8   9
BRANCH   8  11
ATOM     11  C   LIG d   1     -18.183  92.883 120.359  0.00  0.00     0.028 C 
ATOM     12  C   LIG d   1     -19.594  92.282 120.455  0.00  0.00     0.006 C 
ENDBRANCH   8  11
ENDBRANCH   7   8
ENDBRANCH   1   7
BRANCH   6  13
ATOM     13  N   LIG d   1     -18.595  88.959 121.615  0.00  0.00    -0.311 N 
ATOM     14  C   LIG d   1     -19.504  88.622 120.702  0.00  0.00     0.210 C 
ATOM     15  C   LIG d   1     -20.933  88.477 121.235  0.00  0.00     0.109 C 
ATOM     16  O   LIG d   1     -19.257  88.397 119.508  0.00  0.00    -0.276 OA
ATOM     17  H   LIG d   1     -18.877  89.090 122.567  0.00  0.00     0.149 HD
ENDBRANCH   6  13
BRANCH   5  18
ATOM     18  N   LIG d   1     -16.799  86.915 120.226  0.00  0.00     0.381 N 
ATOM     19  H   LIG d   1     -16.684  87.346 119.330  0.00  0.00    -0.090 HD
ATOM     20  H   LIG d   1     -17.774  86.712 120.356  0.00  0.00    -0.090 HD
ATOM     21  H   LIG d   1     -16.268  86.074 120.268  0.00  0.00    -0.090 HD
ENDBRANCH   5  18
BRANCH   3  22
ATOM     22  C   LIG d   1     -13.031  89.070 122.251  0.00  0.00     0.382 C 
ATOM     23  O   LIG d   1     -12.420  90.115 122.582  0.00  0.00    -0.241 OA
ATOM     24  O   LIG d   1     -12.411  87.991 122.187  0.00  0.00    -0.241 OA
ENDBRANCH   3  22
TORSDOF 7
ENDMDL
MODEL 5
REMARK VINA RESULT:      -4.4     21.905     23.892
REMARK  7 active torsions:
REMARK  status: ('A' for Active; 'I' for Inactive)
REMARK    1  A    between atoms: C_2  and  C_3 
REMARK    2  A    between atoms: C_3  and  O_6 
REMARK    3  A    between atoms: C_3  and  C_4 
REMARK    4  A    between atoms: C_7  and  O_6 
REMARK    5  A    between atoms: C_9  and  C_10 
REMARK    6  A    between atoms: N_15  and  C_14 
REMARK    7  A    between atoms: N_20  and  C_19 
REMARK       I    between atoms: C_22  and  N_20 
ROOT
ATOM      1  C   LIG d   1      -8.312  81.745 120.832  0.00  0.00     0.161 C 
ATOM      2  C   LIG d   1      -8.993  82.971 120.910  0.00  0.00     0.016 C 
ATOM      3  C   LIG d   1      -8.629  84.008 121.800  0.00  0.00     0.038 C 
ATOM      4  C   LIG d   1      -7.459  83.946 122.572  0.00  0.00     0.028 C 
ATOM      5  C   LIG d   1      -7.023  82.521 122.897  0.00  0.00    -0.047 C 
ATOM      6  C   LIG d   1      -6.967  81.702 121.587  0.00  0.00     0.091 C 
ENDROOT
BRANCH   1   7
ATOM      7  O   LIG d   1      -8.123  81.378 119.451  0.00  0.00    -0.368 OA
BRANCH   7   8
ATOM      8  C   LIG d   1      -8.623  80.074 119.064  0.00  0.00     0.119 C 
BRANCH   8   9
ATOM      9  C   LIG d   1      -7.522  79.384 118.235  0.00  0.00     0.028 C 
ATOM     10  C   LIG d   1      -6.289  80.281 118.035  0.00  0.00     0.006 C 
ENDBRANCH   8   9
BRANCH   8  11
ATOM     11  C   LIG d   1      -9.824  80.195 118.122  0.00  0.00     0.028 C 
ATOM     12  C   LIG d   1      -9.937  81.584 117.476  0.00  0.00     0.006 C 
ENDBRANCH   8  11
ENDBRANCH   7   8
ENDBRANCH   1   7
BRANCH   6  13
ATOM     13  N   LIG d   1      -6.629  80.275 121.825  0.00  0.00    -0.311 N 
ATOM     14  C   LIG d   1      -5.396  79.784 121.713  0.00  0.00     0.210 C 
ATOM     15  C   LIG d   1      -5.271  78.281 121.982  0.00  0.00     0.109 C 
ATOM     16  O   LIG d   1      -4.389  80.457 121.448  0.00  0.00    -0.276 OA
ATOM     17  H   LIG d   1      -7.382  79.664 122.075  0.00  0.00     0.149 HD
ENDBRANCH   6  13
BRANCH   5  18
ATOM     18  N   LIG d   1      -5.720  82.600 123.586  0.00  0.00     0.381 N 
ATOM     19  H   LIG d   1      -5.225  83.414 123.281  0.00  0.00    -0.090 HD
ATOM     20  H   LIG d   1      -5.176  81.791 123.344  0.00  0.00    -0.090 HD
ATOM     21  H   LIG d   1      -5.858  82.635 124.572  0.00  0.00    -0.090 HD
ENDBRANCH   5  18
BRANCH   3  22
ATOM     22  C   LIG d   1      -9.462  85.105 121.954  0.00  0.00     0.382 C 
ATOM     23  O   LIG d   1      -9.015  86.263 121.768  0.00  0.00    -0.241 OA
ATOM     24  O   LIG d   1     -10.644  84.955 122.319  0.00  0.00    -0.241 OA
ENDBRANCH   3  22
TORSDOF 7
ENDMDL
MODEL 6
REMARK VINA RESULT:      -4.4     22.164     23.618
REMARK  7 active torsions:
REMARK  status: ('A' for Active; 'I' for Inactive)
REMARK    1  A    between atoms: C_2  and  C_3 
REMARK    2  A    between atoms: C_3  and  O_6 
REMARK    3  A    between atoms: C_3  and  C_4 
REMARK    4  A    between atoms: C_7  and  O_6 
REMARK    5  A    between atoms: C_9  and  C_10 
REMARK    6  A    between atoms: N_15  and  C_14 
REMARK    7  A    between atoms: N_20  and  C_19 
REMARK       I    between atoms: C_22  and  N_20 
ROOT
ATOM      1  C   LIG d   1     -17.364  75.769 120.564  0.00  0.00     0.161 C 
ATOM      2  C   LIG d   1     -18.376  76.565 120.003  0.00  0.00     0.016 C 
ATOM      3  C   LIG d   1     -18.557  77.932 120.318  0.00  0.00     0.038 C 
ATOM      4  C   LIG d   1     -17.637  78.638 121.108  0.00  0.00     0.028 C 
ATOM      5  C   LIG d   1     -16.886  77.755 122.099  0.00  0.00    -0.047 C 
ATOM      6  C   LIG d   1     -16.284  76.550 121.342  0.00  0.00     0.091 C 
ENDROOT
BRANCH   1   7
ATOM      7  O   LIG d   1     -16.756  74.958 119.540  0.00  0.00    -0.368 OA
BRANCH   7   8
ATOM      8  C   LIG d   1     -17.628  74.011 118.875  0.00  0.00     0.119 C 
BRANCH   8   9
ATOM      9  C   LIG d   1     -18.185  73.059 119.951  0.00  0.00     0.028 C 
ATOM     10  C   LIG d   1     -19.721  72.987 119.934  0.00  0.00     0.006 C 
ENDBRANCH   8   9
BRANCH   8  11
ATOM     11  C   LIG d   1     -16.847  73.117 117.908  0.00  0.00     0.028 C 
ATOM     12  C   LIG d   1     -16.780  71.653 118.371  0.00  0.00     0.006 C 
ENDBRANCH   8  11
ENDBRANCH   7   8
ENDBRANCH   1   7
BRANCH   6  13
ATOM     13  N   LIG d   1     -15.604  75.591 122.251  0.00  0.00    -0.311 N 
ATOM     14  C   LIG d   1     -14.300  75.635 122.520  0.00  0.00     0.210 C 
ATOM     15  C   LIG d   1     -13.798  74.541 123.468  0.00  0.00     0.109 C 
ATOM     16  O   LIG d   1     -13.517  76.495 122.089  0.00  0.00    -0.276 OA
ATOM     17  H   LIG d   1     -16.170  74.879 122.670  0.00  0.00     0.149 HD
ENDBRANCH   6  13
BRANCH   5  18
ATOM     18  N   LIG d   1     -15.866  78.593 122.758  0.00  0.00     0.381 N 
ATOM     19  H   LIG d   1     -16.210  79.526 122.863  0.00  0.00    -0.090 HD
ATOM     20  H   LIG d   1     -15.046  78.622 122.178  0.00  0.00    -0.090 HD
ATOM     21  H   LIG d   1     -15.637  78.213 123.650  0.00  0.00    -0.090 HD
ENDBRANCH   5  18
BRANCH   3  22
ATOM     22  C   LIG d   1     -19.690  78.596 119.874  0.00  0.00     0.382 C 
ATOM     23  O   LIG d   1     -19.622  79.808 119.558  0.00  0.00    -0.241 OA
ATOM     24  O   LIG d   1     -20.788  78.010 119.826  0.00  0.00    -0.241 OA
ENDBRANCH   3  22
TORSDOF 7
ENDMDL
MODEL 7
REMARK VINA RESULT:      -4.3     22.150     23.538
REMARK  7 active torsions:
REMARK  status: ('A' for Active; 'I' for Inactive)
REMARK    1  A    between atoms: C_2  and  C_3 
REMARK    2  A    between atoms: C_3  and  O_6 
REMARK    3  A    between atoms: C_3  and  C_4 
REMARK    4  A    between atoms: C_7  and  O_6 
REMARK    5  A    between atoms: C_9  and  C_10 
REMARK    6  A    between atoms: N_15  and  C_14 
REMARK    7  A    between atoms: N_20  and  C_19 
REMARK       I    between atoms: C_22  and  N_20 
ROOT
ATOM      1  C   LIG d   1     -16.477  76.373 121.642  0.00  0.00     0.161 C 
ATOM      2  C   LIG d   1     -16.628  75.147 120.972  0.00  0.00     0.016 C 
ATOM      3  C   LIG d   1     -17.472  74.972 119.851  0.00  0.00     0.038 C 
ATOM      4  C   LIG d   1     -18.110  76.055 119.227  0.00  0.00     0.028 C 
ATOM      5  C   LIG d   1     -18.386  77.221 120.170  0.00  0.00    -0.047 C 
ATOM      6  C   LIG d   1     -17.078  77.590 120.908  0.00  0.00     0.091 C 
ENDROOT
BRANCH   1   7
ATOM      7  O   LIG d   1     -15.083  76.602 121.932  0.00  0.00    -0.368 OA
BRANCH   7   8
ATOM      8  C   LIG d   1     -14.626  76.173 123.238  0.00  0.00     0.119 C 
BRANCH   8   9
ATOM      9  C   LIG d   1     -13.828  77.338 123.855  0.00  0.00     0.028 C 
ATOM     10  C   LIG d   1     -14.741  78.439 124.420  0.00  0.00     0.006 C 
ENDBRANCH   8   9
BRANCH   8  11
ATOM     11  C   LIG d   1     -13.630  75.014 123.127  0.00  0.00     0.028 C 
ATOM     12  C   LIG d   1     -14.199  73.687 123.654  0.00  0.00     0.006 C 
ENDBRANCH   8  11
ENDBRANCH   7   8
ENDBRANCH   1   7
BRANCH   6  13
ATOM     13  N   LIG d   1     -17.278  78.667 121.912  0.00  0.00    -0.311 N 
ATOM     14  C   LIG d   1     -17.043  79.954 121.663  0.00  0.00     0.210 C 
ATOM     15  C   LIG d   1     -17.295  80.897 122.844  0.00  0.00     0.109 C 
ATOM     16  O   LIG d   1     -16.680  80.408 120.568  0.00  0.00    -0.276 OA
ATOM     17  H   LIG d   1     -17.601  78.391 122.819  0.00  0.00     0.149 HD
ENDBRANCH   6  13
BRANCH   5  18
ATOM     18  N   LIG d   1     -18.926  78.330 119.361  0.00  0.00     0.381 N 
ATOM     19  H   LIG d   1     -18.189  78.961 119.116  0.00  0.00    -0.090 HD
ATOM     20  H   LIG d   1     -19.602  78.833 119.909  0.00  0.00    -0.090 HD
ATOM     21  H   LIG d   1     -19.355  77.973 118.537  0.00  0.00    -0.090 HD
ENDBRANCH   5  18
BRANCH   3  22
ATOM     22  C   LIG d   1     -17.716  73.696 119.368  0.00  0.00     0.382 C 
ATOM     23  O   LIG d   1     -17.003  73.227 118.448  0.00  0.00    -0.241 OA
ATOM     24  O   LIG d   1     -18.668  73.025 119.809  0.00  0.00    -0.241 OA
ENDBRANCH   3  22
TORSDOF 7
ENDMDL
MODEL 8
REMARK VINA RESULT:      -4.1     20.556     22.445
REMARK  7 active torsions:
REMARK  status: ('A' for Active; 'I' for Inactive)
REMARK    1  A    between atoms: C_2  and  C_3 
REMARK    2  A    between atoms: C_3  and  O_6 
REMARK    3  A    between atoms: C_3  and  C_4 
REMARK    4  A    between atoms: C_7  and  O_6 
REMARK    5  A    between atoms: C_9  and  C_10 
REMARK    6  A    between atoms: N_15  and  C_14 
REMARK    7  A    between atoms: N_20  and  C_19 
REMARK       I    between atoms: C_22  and  N_20 
ROOT
ATOM      1  C   LIG d   1      -8.044  80.386 120.911  0.00  0.00     0.161 C 
ATOM      2  C   LIG d   1      -8.516  81.553 121.534  0.00  0.00     0.016 C 
ATOM      3  C   LIG d   1      -9.083  82.637 120.826  0.00  0.00     0.038 C 
ATOM      4  C   LIG d   1      -9.356  82.564 119.452  0.00  0.00     0.028 C 
ATOM      5  C   LIG d   1      -8.436  81.607 118.701  0.00  0.00    -0.047 C 
ATOM      6  C   LIG d   1      -8.435  80.241 119.425  0.00  0.00     0.091 C 
ENDROOT
BRANCH   1   7
ATOM      7  O   LIG d   1      -8.470  79.228 121.656  0.00  0.00    -0.368 OA
BRANCH   7   8
ATOM      8  C   LIG d   1      -7.563  78.763 122.686  0.00  0.00     0.119 C 
BRANCH   8   9
ATOM      9  C   LIG d   1      -6.626  77.722 122.042  0.00  0.00     0.028 C 
ATOM     10  C   LIG d   1      -5.195  78.255 121.860  0.00  0.00     0.006 C 
ENDBRANCH   8   9
BRANCH   8  11
ATOM     11  C   LIG d   1      -8.312  78.007 123.788  0.00  0.00     0.028 C 
ATOM     12  C   LIG d   1      -7.906  76.527 123.876  0.00  0.00     0.006 C 
ENDBRANCH   8  11
ENDBRANCH   7   8
ENDBRANCH   1   7
BRANCH   6  13
ATOM     13  N   LIG d   1      -7.494  79.272 118.805  0.00  0.00    -0.311 N 
ATOM     14  C   LIG d   1      -7.889  78.160 118.188  0.00  0.00     0.210 C 
ATOM     15  C   LIG d   1      -6.756  77.289 117.636  0.00  0.00     0.109 C 
ATOM     16  O   LIG d   1      -9.072  77.827 118.018  0.00  0.00    -0.276 OA
ATOM     17  H   LIG d   1      -6.517  79.480 118.869  0.00  0.00     0.149 HD
ENDBRANCH   6  13
BRANCH   5  18
ATOM     18  N   LIG d   1      -8.919  81.524 117.310  0.00  0.00     0.381 N 
ATOM     19  H   LIG d   1      -9.887  81.273 117.302  0.00  0.00    -0.090 HD
ATOM     20  H   LIG d   1      -8.403  80.807 116.830  0.00  0.00    -0.090 HD
ATOM     21  H   LIG d   1      -8.791  82.399 116.852  0.00  0.00    -0.090 HD
ENDBRANCH   5  18
BRANCH   3  22
ATOM     22  C   LIG d   1      -9.347  83.827 121.487  0.00  0.00     0.382 C 
ATOM     23  O   LIG d   1     -10.522  84.263 121.549  0.00  0.00    -0.241 OA
ATOM     24  O   LIG d   1      -8.419  84.493 121.984  0.00  0.00    -0.241 OA
ENDBRANCH   3  22
TORSDOF 7
ENDMDL
MODEL 9
REMARK VINA RESULT:      -4.0     24.482     25.935
REMARK  7 active torsions:
REMARK  status: ('A' for Active; 'I' for Inactive)
REMARK    1  A    between atoms: C_2  and  C_3 
REMARK    2  A    between atoms: C_3  and  O_6 
REMARK    3  A    between atoms: C_3  and  C_4 
REMARK    4  A    between atoms: C_7  and  O_6 
REMARK    5  A    between atoms: C_9  and  C_10 
REMARK    6  A    between atoms: N_15  and  C_14 
REMARK    7  A    between atoms: N_20  and  C_19 
REMARK       I    between atoms: C_22  and  N_20 
ROOT
ATOM      1  C   LIG d   1     -18.726  78.638 122.161  0.00  0.00     0.161 C 
ATOM      2  C   LIG d   1     -19.287  79.620 121.328  0.00  0.00     0.016 C 
ATOM      3  C   LIG d   1     -18.620  80.817 120.977  0.00  0.00     0.038 C 
ATOM      4  C   LIG d   1     -17.278  81.044 121.316  0.00  0.00     0.028 C 
ATOM      5  C   LIG d   1     -16.839  80.310 122.578  0.00  0.00    -0.047 C 
ATOM      6  C   LIG d   1     -17.221  78.818 122.449  0.00  0.00     0.091 C 
ENDROOT
BRANCH   1   7
ATOM      7  O   LIG d   1     -18.978  77.330 121.611  0.00  0.00    -0.368 OA
BRANCH   7   8
ATOM      8  C   LIG d   1     -18.075  76.892 120.567  0.00  0.00     0.119 C 
BRANCH   8   9
ATOM      9  C   LIG d   1     -18.924  76.589 119.317  0.00  0.00     0.028 C 
ATOM     10  C   LIG d   1     -20.406  76.356 119.657  0.00  0.00     0.006 C 
ENDBRANCH   8   9
BRANCH   8  11
ATOM     11  C   LIG d   1     -17.403  75.565 120.931  0.00  0.00     0.028 C 
ATOM     12  C   LIG d   1     -17.098  74.694 119.702  0.00  0.00     0.006 C 
ENDBRANCH   8  11
ENDBRANCH   7   8
ENDBRANCH   1   7
BRANCH   6  13
ATOM     13  N   LIG d   1     -16.903  78.043 123.677  0.00  0.00    -0.311 N 
ATOM     14  C   LIG d   1     -15.772  77.358 123.839  0.00  0.00     0.210 C 
ATOM     15  C   LIG d   1     -15.653  76.613 125.172  0.00  0.00     0.109 C 
ATOM     16  O   LIG d   1     -14.842  77.324 123.019  0.00  0.00    -0.276 OA
ATOM     17  H   LIG d   1     -17.589  78.042 124.406  0.00  0.00     0.149 HD
ENDBRANCH   6  13
BRANCH   5  18
ATOM     18  N   LIG d   1     -15.388  80.524 122.737  0.00  0.00     0.381 N 
ATOM     19  H   LIG d   1     -15.027  79.899 123.429  0.00  0.00    -0.090 HD
ATOM     20  H   LIG d   1     -15.231  81.466 123.050  0.00  0.00    -0.090 HD
ATOM     21  H   LIG d   1     -14.924  80.373 121.868  0.00  0.00    -0.090 HD
ENDBRANCH   5  18
BRANCH   3  22
ATOM     22  C   LIG d   1     -19.311  81.819 120.313  0.00  0.00     0.382 C 
ATOM     23  O   LIG d   1     -18.734  82.499 119.430  0.00  0.00    -0.241 OA
ATOM     24  O   LIG d   1     -20.490  82.082 120.616  0.00  0.00    -0.241 OA
ENDBRANCH   3  22
TORSDOF 7
ENDMDL
