MODEL 1
REMARK VINA RESULT:      -4.6      0.000      0.000
REMARK  7 active torsions:
REMARK  status: ('A' for Active; 'I' for Inactive)
REMARK    1  A    between atoms: C_2  and  C_3 
REMARK    2  A    between atoms: C_3  and  O_6 
REMARK    3  A    between atoms: C_3  and  C_4 
REMARK    4  A    between atoms: C_7  and  O_6 
REMARK    5  A    between atoms: C_9  and  C_10 
REMARK    6  A    between atoms: N_15  and  C_14 
REMARK    7  A    between atoms: N_20  and  C_19 
REMARK       I    between atoms: C_22  and  N_20 
ROOT
ATOM      1  C   LIG d   1     -14.173  68.635 121.860  0.00  0.00     0.161 C 
ATOM      2  C   LIG d   1     -13.037  68.626 122.686  0.00  0.00     0.016 C 
ATOM      3  C   LIG d   1     -12.022  67.645 122.602  0.00  0.00     0.038 C 
ATOM      4  C   LIG d   1     -12.001  66.686 121.579  0.00  0.00     0.028 C 
ATOM      5  C   LIG d   1     -13.385  66.348 121.036  0.00  0.00    -0.047 C 
ATOM      6  C   LIG d   1     -14.112  67.661 120.665  0.00  0.00     0.091 C 
ENDROOT
BRANCH   1   7
ATOM      7  O   LIG d   1     -14.433  69.976 121.401  0.00  0.00    -0.368 OA
BRANCH   7   8
ATOM      8  C   LIG d   1     -15.520  70.675 122.056  0.00  0.00     0.119 C 
BRANCH   8   9
ATOM      9  C   LIG d   1     -16.737  70.627 121.111  0.00  0.00     0.028 C 
ATOM     10  C   LIG d   1     -16.359  70.933 119.652  0.00  0.00     0.006 C 
ENDBRANCH   8   9
BRANCH   8  11
ATOM     11  C   LIG d   1     -15.201  72.162 122.231  0.00  0.00     0.028 C 
ATOM     12  C   LIG d   1     -13.917  72.405 123.039  0.00  0.00     0.006 C 
ENDBRANCH   8  11
ENDBRANCH   7   8
ENDBRANCH   1   7
BRANCH   6  13
ATOM     13  N   LIG d   1     -15.505  67.427 120.204  0.00  0.00    -0.311 N 
ATOM     14  C   LIG d   1     -15.840  67.291 118.922  0.00  0.00     0.210 C 
ATOM     15  C   LIG d   1     -17.335  67.076 118.663  0.00  0.00     0.109 C 
ATOM     16  O   LIG d   1     -15.037  67.295 117.977  0.00  0.00    -0.276 OA
ATOM     17  H   LIG d   1     -16.216  67.378 120.907  0.00  0.00     0.149 HD
ENDBRANCH   6  13
BRANCH   5  18
ATOM     18  N   LIG d   1     -13.204  65.443 119.886  0.00  0.00     0.381 N 
ATOM     19  H   LIG d   1     -13.898  65.634 119.192  0.00  0.00    -0.090 HD
ATOM     20  H   LIG d   1     -13.322  64.495 120.197  0.00  0.00    -0.090 HD
ATOM     21  H   LIG d   1     -12.294  65.562 119.498  0.00  0.00    -0.090 HD
ENDBRANCH   5  18
BRANCH   3  22
ATOM     22  C   LIG d   1     -11.035  67.593 123.575  0.00  0.00     0.382 C 
ATOM     23  O   LIG d   1     -10.142  66.714 123.515  0.00  0.00    -0.241 OA
ATOM     24  O   LIG d   1     -11.051  68.387 124.534  0.00  0.00    -0.241 OA
ENDBRANCH   3  22
TORSDOF 7
ENDMDL
MODEL 2
REMARK VINA RESULT:      -4.6     26.142     28.568
REMARK  7 active torsions:
REMARK  status: ('A' for Active; 'I' for Inactive)
REMARK    1  A    between atoms: C_2  and  C_3 
REMARK    2  A    between atoms: C_3  and  O_6 
REMARK    3  A    between atoms: C_3  and  C_4 
REMARK    4  A    between atoms: C_7  and  O_6 
REMARK    5  A    between atoms: C_9  and  C_10 
REMARK    6  A    between atoms: N_15  and  C_14 
REMARK    7  A    between atoms: N_20  and  C_19 
REMARK       I    between atoms: C_22  and  N_20 
ROOT
ATOM      1  C   LIG d   1      -5.142  94.641 120.483  0.00  0.00     0.161 C 
ATOM      2  C   LIG d   1      -6.404  94.034 120.373  0.00  0.00     0.016 C 
ATOM      3  C   LIG d   1      -7.493  94.620 119.687  0.00  0.00     0.038 C 
ATOM      4  C   LIG d   1      -7.348  95.793 118.931  0.00  0.00     0.028 C 
ATOM      5  C   LIG d   1      -6.229  96.700 119.429  0.00  0.00    -0.047 C 
ATOM      6  C   LIG d   1      -4.934  95.868 119.570  0.00  0.00     0.091 C 
ENDROOT
BRANCH   1   7
ATOM      7  O   LIG d   1      -4.108  93.664 120.252  0.00  0.00    -0.368 OA
BRANCH   7   8
ATOM      8  C   LIG d   1      -3.745  93.434 118.869  0.00  0.00     0.119 C 
BRANCH   8   9
ATOM      9  C   LIG d   1      -4.253  92.032 118.483  0.00  0.00     0.028 C 
ATOM     10  C   LIG d   1      -5.290  92.075 117.348  0.00  0.00     0.006 C 
ENDBRANCH   8   9
BRANCH   8  11
ATOM     11  C   LIG d   1      -2.224  93.376 118.694  0.00  0.00     0.028 C 
ATOM     12  C   LIG d   1      -1.718  94.298 117.574  0.00  0.00     0.006 C 
ENDBRANCH   8  11
ENDBRANCH   7   8
ENDBRANCH   1   7
BRANCH   6  13
ATOM     13  N   LIG d   1      -3.809  96.661 120.133  0.00  0.00    -0.311 N 
ATOM     14  C   LIG d   1      -2.967  97.371 119.385  0.00  0.00     0.210 C 
ATOM     15  C   LIG d   1      -1.866  98.098 120.164  0.00  0.00     0.109 C 
ATOM     16  O   LIG d   1      -3.046  97.494 118.153  0.00  0.00    -0.276 OA
ATOM     17  H   LIG d   1      -3.691  96.642 121.127  0.00  0.00     0.149 HD
ENDBRANCH   6  13
BRANCH   5  18
ATOM     18  N   LIG d   1      -6.099  97.814 118.471  0.00  0.00     0.381 N 
ATOM     19  H   LIG d   1      -6.315  97.495 117.548  0.00  0.00    -0.090 HD
ATOM     20  H   LIG d   1      -5.148  98.139 118.478  0.00  0.00    -0.090 HD
ATOM     21  H   LIG d   1      -6.712  98.557 118.726  0.00  0.00    -0.090 HD
ENDBRANCH   5  18
BRANCH   3  22
ATOM     22  C   LIG d   1      -8.754  94.052 119.787  0.00  0.00     0.382 C 
ATOM     23  O   LIG d   1      -8.885  92.895 120.253  0.00  0.00    -0.241 OA
ATOM     24  O   LIG d   1      -9.757  94.665 119.376  0.00  0.00    -0.241 OA
ENDBRANCH   3  22
TORSDOF 7
ENDMDL
MODEL 3
REMARK VINA RESULT:      -4.6     12.878     14.444
REMARK  7 active torsions:
REMARK  status: ('A' for Active; 'I' for Inactive)
REMARK    1  A    between atoms: C_2  and  C_3 
REMARK    2  A    between atoms: C_3  and  O_6 
REMARK    3  A    between atoms: C_3  and  C_4 
REMARK    4  A    between atoms: C_7  and  O_6 
REMARK    5  A    between atoms: C_9  and  C_10 
REMARK    6  A    between atoms: N_15  and  C_14 
REMARK    7  A    between atoms: N_20  and  C_19 
REMARK       I    between atoms: C_22  and  N_20 
ROOT
ATOM      1  C   LIG d   1      -3.953  58.246 121.351  0.00  0.00     0.161 C 
ATOM      2  C   LIG d   1      -5.176  58.043 122.011  0.00  0.00     0.016 C 
ATOM      3  C   LIG d   1      -5.629  58.856 123.076  0.00  0.00     0.038 C 
ATOM      4  C   LIG d   1      -4.955  60.026 123.454  0.00  0.00     0.028 C 
ATOM      5  C   LIG d   1      -3.460  59.989 123.153  0.00  0.00    -0.047 C 
ATOM      6  C   LIG d   1      -3.256  59.584 121.675  0.00  0.00     0.091 C 
ENDROOT
BRANCH   1   7
ATOM      7  O   LIG d   1      -4.138  58.110 119.928  0.00  0.00    -0.368 OA
BRANCH   7   8
ATOM      8  C   LIG d   1      -5.510  58.093 119.462  0.00  0.00     0.119 C 
BRANCH   8   9
ATOM      9  C   LIG d   1      -5.699  56.813 118.626  0.00  0.00     0.028 C 
ATOM     10  C   LIG d   1      -5.679  55.540 119.489  0.00  0.00     0.006 C 
ENDBRANCH   8   9
BRANCH   8  11
ATOM     11  C   LIG d   1      -5.785  59.252 118.499  0.00  0.00     0.028 C 
ATOM     12  C   LIG d   1      -4.845  60.447 118.719  0.00  0.00     0.006 C 
ENDBRANCH   8  11
ENDBRANCH   7   8
ENDBRANCH   1   7
BRANCH   6  13
ATOM     13  N   LIG d   1      -1.820  59.442 121.320  0.00  0.00    -0.311 N 
ATOM     14  C   LIG d   1      -1.119  60.393 120.706  0.00  0.00     0.210 C 
ATOM     15  C   LIG d   1       0.341  60.034 120.414  0.00  0.00     0.109 C 
ATOM     16  O   LIG d   1      -1.559  61.513 120.405  0.00  0.00    -0.276 OA
ATOM     17  H   LIG d   1      -1.375  58.576 121.556  0.00  0.00     0.149 HD
ENDBRANCH   6  13
BRANCH   5  18
ATOM     18  N   LIG d   1      -2.908  61.320 123.470  0.00  0.00     0.381 N 
ATOM     19  H   LIG d   1      -2.086  61.220 124.031  0.00  0.00    -0.090 HD
ATOM     20  H   LIG d   1      -3.590  61.837 123.997  0.00  0.00    -0.090 HD
ATOM     21  H   LIG d   1      -2.689  61.806 122.629  0.00  0.00    -0.090 HD
ENDBRANCH   5  18
BRANCH   3  22
ATOM     22  C   LIG d   1      -6.749  58.477 123.801  0.00  0.00     0.382 C 
ATOM     23  O   LIG d   1      -6.924  58.921 124.961  0.00  0.00    -0.241 OA
ATOM     24  O   LIG d   1      -7.563  57.662 123.326  0.00  0.00    -0.241 OA
ENDBRANCH   3  22
TORSDOF 7
ENDMDL
MODEL 4
REMARK VINA RESULT:      -4.6      6.248      9.838
REMARK  7 active torsions:
REMARK  status: ('A' for Active; 'I' for Inactive)
REMARK    1  A    between atoms: C_2  and  C_3 
REMARK    2  A    between atoms: C_3  and  O_6 
REMARK    3  A    between atoms: C_3  and  C_4 
REMARK    4  A    between atoms: C_7  and  O_6 
REMARK    5  A    between atoms: C_9  and  C_10 
REMARK    6  A    between atoms: N_15  and  C_14 
REMARK    7  A    between atoms: N_20  and  C_19 
REMARK       I    between atoms: C_22  and  N_20 
ROOT
ATOM      1  C   LIG d   1     -16.706  75.730 120.712  0.00  0.00     0.161 C 
ATOM      2  C   LIG d   1     -17.825  76.428 120.229  0.00  0.00     0.016 C 
ATOM      3  C   LIG d   1     -18.119  77.766 120.581  0.00  0.00     0.038 C 
ATOM      4  C   LIG d   1     -17.225  78.550 121.324  0.00  0.00     0.028 C 
ATOM      5  C   LIG d   1     -16.329  77.734 122.251  0.00  0.00    -0.047 C 
ATOM      6  C   LIG d   1     -15.661  76.604 121.435  0.00  0.00     0.091 C 
ENDROOT
BRANCH   1   7
ATOM      7  O   LIG d   1     -16.087  74.996 119.636  0.00  0.00    -0.368 OA
BRANCH   7   8
ATOM      8  C   LIG d   1     -16.194  73.552 119.706  0.00  0.00     0.119 C 
BRANCH   8   9
ATOM      9  C   LIG d   1     -17.148  73.104 118.582  0.00  0.00     0.028 C 
ATOM     10  C   LIG d   1     -16.421  72.897 117.243  0.00  0.00     0.006 C 
ENDBRANCH   8   9
BRANCH   8  11
ATOM     11  C   LIG d   1     -16.863  73.105 121.009  0.00  0.00     0.028 C 
ATOM     12  C   LIG d   1     -15.944  72.236 121.883  0.00  0.00     0.006 C 
ENDBRANCH   8  11
ENDBRANCH   7   8
ENDBRANCH   1   7
BRANCH   6  13
ATOM     13  N   LIG d   1     -14.833  75.707 122.283  0.00  0.00    -0.311 N 
ATOM     14  C   LIG d   1     -13.549  75.447 122.040  0.00  0.00     0.210 C 
ATOM     15  C   LIG d   1     -12.888  74.480 123.026  0.00  0.00     0.109 C 
ATOM     16  O   LIG d   1     -12.887  75.952 121.121  0.00  0.00    -0.276 OA
ATOM     17  H   LIG d   1     -15.282  75.279 123.069  0.00  0.00     0.149 HD
ENDBRANCH   6  13
BRANCH   5  18
ATOM     18  N   LIG d   1     -15.357  78.661 122.860  0.00  0.00     0.381 N 
ATOM     19  H   LIG d   1     -14.705  78.971 122.168  0.00  0.00    -0.090 HD
ATOM     20  H   LIG d   1     -14.848  78.173 123.577  0.00  0.00    -0.090 HD
ATOM     21  H   LIG d   1     -15.832  79.443 123.254  0.00  0.00    -0.090 HD
ENDBRANCH   5  18
BRANCH   3  22
ATOM     22  C   LIG d   1     -19.338  78.319 120.220  0.00  0.00     0.382 C 
ATOM     23  O   LIG d   1     -19.395  79.513 119.837  0.00  0.00    -0.241 OA
ATOM     24  O   LIG d   1     -20.387  77.654 120.315  0.00  0.00    -0.241 OA
ENDBRANCH   3  22
TORSDOF 7
ENDMDL
MODEL 5
REMARK VINA RESULT:      -4.4      6.464      9.624
REMARK  7 active torsions:
REMARK  status: ('A' for Active; 'I' for Inactive)
REMARK    1  A    between atoms: C_2  and  C_3 
REMARK    2  A    between atoms: C_3  and  O_6 
REMARK    3  A    between atoms: C_3  and  C_4 
REMARK    4  A    between atoms: C_7  and  O_6 
REMARK    5  A    between atoms: C_9  and  C_10 
REMARK    6  A    between atoms: N_15  and  C_14 
REMARK    7  A    between atoms: N_20  and  C_19 
REMARK       I    between atoms: C_22  and  N_20 
ROOT
ATOM      1  C   LIG d   1     -16.488  76.682 120.836  0.00  0.00     0.161 C 
ATOM      2  C   LIG d   1     -16.943  77.920 121.321  0.00  0.00     0.016 C 
ATOM      3  C   LIG d   1     -18.266  78.386 121.143  0.00  0.00     0.038 C 
ATOM      4  C   LIG d   1     -19.271  77.575 120.595  0.00  0.00     0.028 C 
ATOM      5  C   LIG d   1     -18.738  76.515 119.637  0.00  0.00    -0.047 C 
ATOM      6  C   LIG d   1     -17.599  75.736 120.334  0.00  0.00     0.091 C 
ENDROOT
BRANCH   1   7
ATOM      7  O   LIG d   1     -15.689  76.027 121.842  0.00  0.00    -0.368 OA
BRANCH   7   8
ATOM      8  C   LIG d   1     -14.490  75.364 121.371  0.00  0.00     0.119 C 
BRANCH   8   9
ATOM      9  C   LIG d   1     -14.288  74.104 122.234  0.00  0.00     0.028 C 
ATOM     10  C   LIG d   1     -15.620  73.446 122.632  0.00  0.00     0.006 C 
ENDBRANCH   8   9
BRANCH   8  11
ATOM     11  C   LIG d   1     -13.246  76.225 121.612  0.00  0.00     0.028 C 
ATOM     12  C   LIG d   1     -12.277  75.600 122.628  0.00  0.00     0.006 C 
ENDBRANCH   8  11
ENDBRANCH   7   8
ENDBRANCH   1   7
BRANCH   6  13
ATOM     13  N   LIG d   1     -16.965  74.735 119.436  0.00  0.00    -0.311 N 
ATOM     14  C   LIG d   1     -17.370  73.469 119.349  0.00  0.00     0.210 C 
ATOM     15  C   LIG d   1     -16.567  72.599 118.377  0.00  0.00     0.109 C 
ATOM     16  O   LIG d   1     -18.339  72.993 119.959  0.00  0.00    -0.276 OA
ATOM     17  H   LIG d   1     -16.192  75.045 118.881  0.00  0.00     0.149 HD
ENDBRANCH   6  13
BRANCH   5  18
ATOM     18  N   LIG d   1     -19.873  75.656 119.249  0.00  0.00     0.381 N 
ATOM     19  H   LIG d   1     -19.865  74.818 119.796  0.00  0.00    -0.090 HD
ATOM     20  H   LIG d   1     -19.772  75.402 118.282  0.00  0.00    -0.090 HD
ATOM     21  H   LIG d   1     -20.731  76.142 119.385  0.00  0.00    -0.090 HD
ENDBRANCH   5  18
BRANCH   3  22
ATOM     22  C   LIG d   1     -18.584  79.694 121.479  0.00  0.00     0.382 C 
ATOM     23  O   LIG d   1     -18.799  79.998 122.677  0.00  0.00    -0.241 OA
ATOM     24  O   LIG d   1     -18.703  80.562 120.594  0.00  0.00    -0.241 OA
ENDBRANCH   3  22
TORSDOF 7
ENDMDL
MODEL 6
REMARK VINA RESULT:      -4.2     13.434     15.882
REMARK  7 active torsions:
REMARK  status: ('A' for Active; 'I' for Inactive)
REMARK    1  A    between atoms: C_2  and  C_3 
REMARK    2  A    between atoms: C_3  and  O_6 
REMARK    3  A    between atoms: C_3  and  C_4 
REMARK    4  A    between atoms: C_7  and  O_6 
REMARK    5  A    between atoms: C_9  and  C_10 
REMARK    6  A    between atoms: N_15  and  C_14 
REMARK    7  A    between atoms: N_20  and  C_19 
REMARK       I    between atoms: C_22  and  N_20 
ROOT
ATOM      1  C   LIG d   1      -6.605  82.301 118.886  0.00  0.00     0.161 C 
ATOM      2  C   LIG d   1      -7.951  81.957 118.681  0.00  0.00     0.016 C 
ATOM      3  C   LIG d   1      -8.367  80.694 118.200  0.00  0.00     0.038 C 
ATOM      4  C   LIG d   1      -7.467  79.631 118.035  0.00  0.00     0.028 C 
ATOM      5  C   LIG d   1      -6.040  80.084 117.748  0.00  0.00    -0.047 C 
ATOM      6  C   LIG d   1      -5.617  81.117 118.818  0.00  0.00     0.091 C 
ENDROOT
BRANCH   1   7
ATOM      7  O   LIG d   1      -6.464  82.998 120.140  0.00  0.00    -0.368 OA
BRANCH   7   8
ATOM      8  C   LIG d   1      -6.856  82.263 121.325  0.00  0.00     0.119 C 
BRANCH   8   9
ATOM      9  C   LIG d   1      -7.771  83.181 122.158  0.00  0.00     0.028 C 
ATOM     10  C   LIG d   1      -7.994  84.549 121.492  0.00  0.00     0.006 C 
ENDBRANCH   8   9
BRANCH   8  11
ATOM     11  C   LIG d   1      -5.650  81.970 122.223  0.00  0.00     0.028 C 
ATOM     12  C   LIG d   1      -4.539  83.023 122.091  0.00  0.00     0.006 C 
ENDBRANCH   8  11
ENDBRANCH   7   8
ENDBRANCH   1   7
BRANCH   6  13
ATOM     13  N   LIG d   1      -4.263  81.675 118.563  0.00  0.00    -0.311 N 
ATOM     14  C   LIG d   1      -3.152  81.180 119.106  0.00  0.00     0.210 C 
ATOM     15  C   LIG d   1      -1.864  81.917 118.727  0.00  0.00     0.109 C 
ATOM     16  O   LIG d   1      -3.108  80.181 119.839  0.00  0.00    -0.276 OA
ATOM     17  H   LIG d   1      -4.204  82.468 117.955  0.00  0.00     0.149 HD
ENDBRANCH   6  13
BRANCH   5  18
ATOM     18  N   LIG d   1      -5.185  78.882 117.736  0.00  0.00     0.381 N 
ATOM     19  H   LIG d   1      -4.346  79.068 117.223  0.00  0.00    -0.090 HD
ATOM     20  H   LIG d   1      -5.677  78.137 117.276  0.00  0.00    -0.090 HD
ATOM     21  H   LIG d   1      -4.959  78.614 118.669  0.00  0.00    -0.090 HD
ENDBRANCH   5  18
BRANCH   3  22
ATOM     22  C   LIG d   1      -9.692  80.498 117.841  0.00  0.00     0.382 C 
ATOM     23  O   LIG d   1     -10.309  81.390 117.210  0.00  0.00    -0.241 OA
ATOM     24  O   LIG d   1     -10.291  79.459 118.179  0.00  0.00    -0.241 OA
ENDBRANCH   3  22
TORSDOF 7
ENDMDL
MODEL 7
REMARK VINA RESULT:      -4.1     25.662     28.364
REMARK  7 active torsions:
REMARK  status: ('A' for Active; 'I' for Inactive)
REMARK    1  A    between atoms: C_2  and  C_3 
REMARK    2  A    between atoms: C_3  and  O_6 
REMARK    3  A    between atoms: C_3  and  C_4 
REMARK    4  A    between atoms: C_7  and  O_6 
REMARK    5  A    between atoms: C_9  and  C_10 
REMARK    6  A    between atoms: N_15  and  C_14 
REMARK    7  A    between atoms: N_20  and  C_19 
REMARK       I    between atoms: C_22  and  N_20 
ROOT
ATOM      1  C   LIG d   1      -5.408  95.302 119.384  0.00  0.00     0.161 C 
ATOM      2  C   LIG d   1      -6.730  95.140 119.831  0.00  0.00     0.016 C 
ATOM      3  C   LIG d   1      -7.344  93.878 120.005  0.00  0.00     0.038 C 
ATOM      4  C   LIG d   1      -6.623  92.680 119.887  0.00  0.00     0.028 C 
ATOM      5  C   LIG d   1      -5.425  92.784 118.949  0.00  0.00    -0.047 C 
ATOM      6  C   LIG d   1      -4.571  94.006 119.358  0.00  0.00     0.091 C 
ENDROOT
BRANCH   1   7
ATOM      7  O   LIG d   1      -4.746  96.310 120.174  0.00  0.00    -0.368 OA
BRANCH   7   8
ATOM      8  C   LIG d   1      -5.114  97.683 119.892  0.00  0.00     0.119 C 
BRANCH   8   9
ATOM      9  C   LIG d   1      -4.427  98.085 118.573  0.00  0.00     0.028 C 
ATOM     10  C   LIG d   1      -5.401  98.742 117.581  0.00  0.00     0.006 C 
ENDBRANCH   8   9
BRANCH   8  11
ATOM     11  C   LIG d   1      -4.551  98.638 120.949  0.00  0.00     0.028 C 
ATOM     12  C   LIG d   1      -3.104  98.303 121.345  0.00  0.00     0.006 C 
ENDBRANCH   8  11
ENDBRANCH   7   8
ENDBRANCH   1   7
BRANCH   6  13
ATOM     13  N   LIG d   1      -3.425  94.230 118.439  0.00  0.00    -0.311 N 
ATOM     14  C   LIG d   1      -2.153  94.076 118.803  0.00  0.00     0.210 C 
ATOM     15  C   LIG d   1      -1.126  94.377 117.707  0.00  0.00     0.109 C 
ATOM     16  O   LIG d   1      -1.778  93.688 119.920  0.00  0.00    -0.276 OA
ATOM     17  H   LIG d   1      -3.639  94.516 117.504  0.00  0.00     0.149 HD
ENDBRANCH   6  13
BRANCH   5  18
ATOM     18  N   LIG d   1      -4.686  91.510 119.027  0.00  0.00     0.381 N 
ATOM     19  H   LIG d   1      -5.116  90.909 119.701  0.00  0.00    -0.090 HD
ATOM     20  H   LIG d   1      -3.745  91.697 119.326  0.00  0.00    -0.090 HD
ATOM     21  H   LIG d   1      -4.676  91.066 118.135  0.00  0.00    -0.090 HD
ENDBRANCH   5  18
BRANCH   3  22
ATOM     22  C   LIG d   1      -8.705  93.805 120.261  0.00  0.00     0.382 C 
ATOM     23  O   LIG d   1      -9.124  93.140 121.239  0.00  0.00    -0.241 OA
ATOM     24  O   LIG d   1      -9.521  94.358 119.500  0.00  0.00    -0.241 OA
ENDBRANCH   3  22
TORSDOF 7
ENDMDL
MODEL 8
REMARK VINA RESULT:      -4.1     12.830     14.779
REMARK  7 active torsions:
REMARK  status: ('A' for Active; 'I' for Inactive)
REMARK    1  A    between atoms: C_2  and  C_3 
REMARK    2  A    between atoms: C_3  and  O_6 
REMARK    3  A    between atoms: C_3  and  C_4 
REMARK    4  A    between atoms: C_7  and  O_6 
REMARK    5  A    between atoms: C_9  and  C_10 
REMARK    6  A    between atoms: N_15  and  C_14 
REMARK    7  A    between atoms: N_20  and  C_19 
REMARK       I    between atoms: C_22  and  N_20 
ROOT
ATOM      1  C   LIG d   1      -4.481  57.830 121.502  0.00  0.00     0.161 C 
ATOM      2  C   LIG d   1      -3.781  57.260 120.424  0.00  0.00     0.016 C 
ATOM      3  C   LIG d   1      -4.171  56.057 119.792  0.00  0.00     0.038 C 
ATOM      4  C   LIG d   1      -5.381  55.417 120.099  0.00  0.00     0.028 C 
ATOM      5  C   LIG d   1      -5.862  55.680 121.522  0.00  0.00    -0.047 C 
ATOM      6  C   LIG d   1      -5.864  57.204 121.777  0.00  0.00     0.091 C 
ENDROOT
BRANCH   1   7
ATOM      7  O   LIG d   1      -4.603  59.252 121.307  0.00  0.00    -0.368 OA
BRANCH   7   8
ATOM      8  C   LIG d   1      -3.957  59.793 120.128  0.00  0.00     0.119 C 
BRANCH   8   9
ATOM      9  C   LIG d   1      -2.961  60.870 120.600  0.00  0.00     0.028 C 
ATOM     10  C   LIG d   1      -1.530  60.324 120.741  0.00  0.00     0.006 C 
ENDBRANCH   8   9
BRANCH   8  11
ATOM     11  C   LIG d   1      -4.957  60.529 119.233  0.00  0.00     0.028 C 
ATOM     12  C   LIG d   1      -5.770  59.579 118.339  0.00  0.00     0.006 C 
ENDBRANCH   8  11
ENDBRANCH   7   8
ENDBRANCH   1   7
BRANCH   6  13
ATOM     13  N   LIG d   1      -6.242  57.545 123.174  0.00  0.00    -0.311 N 
ATOM     14  C   LIG d   1      -7.503  57.628 123.593  0.00  0.00     0.210 C 
ATOM     15  C   LIG d   1      -7.671  58.012 125.066  0.00  0.00     0.109 C 
ATOM     16  O   LIG d   1      -8.498  57.388 122.893  0.00  0.00    -0.276 OA
ATOM     17  H   LIG d   1      -5.495  57.724 123.817  0.00  0.00     0.149 HD
ENDBRANCH   6  13
BRANCH   5  18
ATOM     18  N   LIG d   1      -7.197  55.068 121.662  0.00  0.00     0.381 N 
ATOM     19  H   LIG d   1      -7.186  54.397 122.404  0.00  0.00    -0.090 HD
ATOM     20  H   LIG d   1      -7.427  54.591 120.808  0.00  0.00    -0.090 HD
ATOM     21  H   LIG d   1      -7.876  55.772 121.851  0.00  0.00    -0.090 HD
ENDBRANCH   5  18
BRANCH   3  22
ATOM     22  C   LIG d   1      -3.326  55.461 118.869  0.00  0.00     0.382 C 
ATOM     23  O   LIG d   1      -3.757  54.550 118.121  0.00  0.00    -0.241 OA
ATOM     24  O   LIG d   1      -2.127  55.791 118.805  0.00  0.00    -0.241 OA
ENDBRANCH   3  22
TORSDOF 7
ENDMDL
MODEL 9
REMARK VINA RESULT:      -4.1     12.856     14.796
REMARK  7 active torsions:
REMARK  status: ('A' for Active; 'I' for Inactive)
REMARK    1  A    between atoms: C_2  and  C_3 
REMARK    2  A    between atoms: C_3  and  O_6 
REMARK    3  A    between atoms: C_3  and  C_4 
REMARK    4  A    between atoms: C_7  and  O_6 
REMARK    5  A    between atoms: C_9  and  C_10 
REMARK    6  A    between atoms: N_15  and  C_14 
REMARK    7  A    between atoms: N_20  and  C_19 
REMARK       I    between atoms: C_22  and  N_20 
ROOT
ATOM      1  C   LIG d   1      -2.888  59.040 120.913  0.00  0.00     0.161 C 
ATOM      2  C   LIG d   1      -3.796  58.811 121.959  0.00  0.00     0.016 C 
ATOM      3  C   LIG d   1      -3.814  59.567 123.154  0.00  0.00     0.038 C 
ATOM      4  C   LIG d   1      -3.017  60.709 123.320  0.00  0.00     0.028 C 
ATOM      5  C   LIG d   1      -1.732  60.676 122.499  0.00  0.00    -0.047 C 
ATOM      6  C   LIG d   1      -2.085  60.352 121.029  0.00  0.00     0.091 C 
ENDROOT
BRANCH   1   7
ATOM      7  O   LIG d   1      -3.577  58.984 119.648  0.00  0.00    -0.368 OA
BRANCH   7   8
ATOM      8  C   LIG d   1      -4.971  59.377 119.663  0.00  0.00     0.119 C 
BRANCH   8   9
ATOM      9  C   LIG d   1      -5.733  58.419 118.727  0.00  0.00     0.028 C 
ATOM     10  C   LIG d   1      -5.755  56.975 119.257  0.00  0.00     0.006 C 
ENDBRANCH   8   9
BRANCH   8  11
ATOM     11  C   LIG d   1      -5.164  60.772 119.060  0.00  0.00     0.028 C 
ATOM     12  C   LIG d   1      -4.924  60.803 117.542  0.00  0.00     0.006 C 
ENDBRANCH   8  11
ENDBRANCH   7   8
ENDBRANCH   1   7
BRANCH   6  13
ATOM     13  N   LIG d   1      -0.878  60.218 120.173  0.00  0.00    -0.311 N 
ATOM     14  C   LIG d   1       0.092  59.335 120.406  0.00  0.00     0.210 C 
ATOM     15  C   LIG d   1       1.257  59.376 119.412  0.00  0.00     0.109 C 
ATOM     16  O   LIG d   1       0.082  58.499 121.322  0.00  0.00    -0.276 OA
ATOM     17  H   LIG d   1      -0.804  60.836 119.388  0.00  0.00     0.149 HD
ENDBRANCH   6  13
BRANCH   5  18
ATOM     18  N   LIG d   1      -1.067  61.983 122.659  0.00  0.00     0.381 N 
ATOM     19  H   LIG d   1      -1.100  62.488 121.796  0.00  0.00    -0.090 HD
ATOM     20  H   LIG d   1      -0.103  61.829 122.898  0.00  0.00    -0.090 HD
ATOM     21  H   LIG d   1      -1.515  62.508 123.377  0.00  0.00    -0.090 HD
ENDBRANCH   5  18
BRANCH   3  22
ATOM     22  C   LIG d   1      -4.608  59.158 124.215  0.00  0.00     0.382 C 
ATOM     23  O   LIG d   1      -4.960  57.957 124.308  0.00  0.00    -0.241 OA
ATOM     24  O   LIG d   1      -5.013  59.983 125.056  0.00  0.00    -0.241 OA
ENDBRANCH   3  22
TORSDOF 7
ENDMDL
