MODEL 1
REMARK VINA RESULT:      -5.0      0.000      0.000
REMARK  7 active torsions:
REMARK  status: ('A' for Active; 'I' for Inactive)
REMARK    1  A    between atoms: C_2  and  C_3 
REMARK    2  A    between atoms: C_3  and  O_6 
REMARK    3  A    between atoms: C_3  and  C_4 
REMARK    4  A    between atoms: C_7  and  O_6 
REMARK    5  A    between atoms: C_9  and  C_10 
REMARK    6  A    between atoms: N_15  and  C_14 
REMARK    7  A    between atoms: N_20  and  C_19 
REMARK       I    between atoms: C_22  and  N_20 
ROOT
ATOM      1  C   LIG d   1      -0.908  60.510 119.371  0.00  0.00     0.161 C 
ATOM      2  C   LIG d   1      -2.312  60.498 119.406  0.00  0.00     0.016 C 
ATOM      3  C   LIG d   1      -3.089  59.360 119.088  0.00  0.00     0.038 C 
ATOM      4  C   LIG d   1      -2.506  58.105 118.857  0.00  0.00     0.028 C 
ATOM      5  C   LIG d   1      -1.083  58.189 118.316  0.00  0.00    -0.047 C 
ATOM      6  C   LIG d   1      -0.253  59.120 119.230  0.00  0.00     0.091 C 
ENDROOT
BRANCH   1   7
ATOM      7  O   LIG d   1      -0.396  61.189 120.534  0.00  0.00    -0.368 OA
BRANCH   7   8
ATOM      8  C   LIG d   1      -0.060  60.350 121.666  0.00  0.00     0.119 C 
BRANCH   8   9
ATOM      9  C   LIG d   1      -1.112  60.608 122.762  0.00  0.00     0.028 C 
ATOM     10  C   LIG d   1      -2.046  59.404 122.974  0.00  0.00     0.006 C 
ENDBRANCH   8   9
BRANCH   8  11
ATOM     11  C   LIG d   1       1.280  60.759 122.286  0.00  0.00     0.028 C 
ATOM     12  C   LIG d   1       1.172  62.021 123.156  0.00  0.00     0.006 C 
ENDBRANCH   8  11
ENDBRANCH   7   8
ENDBRANCH   1   7
BRANCH   6  13
ATOM     13  N   LIG d   1       1.130  59.324 118.724  0.00  0.00    -0.311 N 
ATOM     14  C   LIG d   1       2.181  58.637 119.168  0.00  0.00     0.210 C 
ATOM     15  C   LIG d   1       3.520  59.018 118.528  0.00  0.00     0.109 C 
ATOM     16  O   LIG d   1       2.128  57.726 120.009  0.00  0.00    -0.276 OA
ATOM     17  H   LIG d   1       1.260  60.022 118.019  0.00  0.00     0.149 HD
ENDBRANCH   6  13
BRANCH   5  18
ATOM     18  N   LIG d   1      -0.549  56.815 118.253  0.00  0.00     0.381 N 
ATOM     19  H   LIG d   1       0.337  56.817 117.788  0.00  0.00    -0.090 HD
ATOM     20  H   LIG d   1      -1.183  56.244 117.722  0.00  0.00    -0.090 HD
ATOM     21  H   LIG d   1      -0.448  56.446 119.173  0.00  0.00    -0.090 HD
ENDBRANCH   5  18
BRANCH   3  22
ATOM     22  C   LIG d   1      -4.464  59.482 118.959  0.00  0.00     0.382 C 
ATOM     23  O   LIG d   1      -5.225  58.757 119.644  0.00  0.00    -0.241 OA
ATOM     24  O   LIG d   1      -4.954  60.276 118.133  0.00  0.00    -0.241 OA
ENDBRANCH   3  22
TORSDOF 7
ENDMDL
MODEL 2
REMARK VINA RESULT:      -4.9      0.739      1.728
REMARK  7 active torsions:
REMARK  status: ('A' for Active; 'I' for Inactive)
REMARK    1  A    between atoms: C_2  and  C_3 
REMARK    2  A    between atoms: C_3  and  O_6 
REMARK    3  A    between atoms: C_3  and  C_4 
REMARK    4  A    between atoms: C_7  and  O_6 
REMARK    5  A    between atoms: C_9  and  C_10 
REMARK    6  A    between atoms: N_15  and  C_14 
REMARK    7  A    between atoms: N_20  and  C_19 
REMARK       I    between atoms: C_22  and  N_20 
ROOT
ATOM      1  C   LIG d   1      -0.595  60.296 119.194  0.00  0.00     0.161 C 
ATOM      2  C   LIG d   1      -1.989  60.461 119.214  0.00  0.00     0.016 C 
ATOM      3  C   LIG d   1      -2.890  59.552 118.612  0.00  0.00     0.038 C 
ATOM      4  C   LIG d   1      -2.460  58.329 118.076  0.00  0.00     0.028 C 
ATOM      5  C   LIG d   1      -1.017  58.356 117.585  0.00  0.00    -0.047 C 
ATOM      6  C   LIG d   1      -0.114  58.911 118.711  0.00  0.00     0.091 C 
ENDROOT
BRANCH   1   7
ATOM      7  O   LIG d   1      -0.049  60.589 120.496  0.00  0.00    -0.368 OA
BRANCH   7   8
ATOM      8  C   LIG d   1      -1.012  60.803 121.557  0.00  0.00     0.119 C 
BRANCH   8   9
ATOM      9  C   LIG d   1      -0.444  61.896 122.483  0.00  0.00     0.028 C 
ATOM     10  C   LIG d   1       1.005  61.609 122.910  0.00  0.00     0.006 C 
ENDBRANCH   8   9
BRANCH   8  11
ATOM     11  C   LIG d   1      -1.156  59.559 122.439  0.00  0.00     0.028 C 
ATOM     12  C   LIG d   1      -2.500  59.509 123.183  0.00  0.00     0.006 C 
ENDBRANCH   8  11
ENDBRANCH   7   8
ENDBRANCH   1   7
BRANCH   6  13
ATOM     13  N   LIG d   1       1.303  59.050 118.285  0.00  0.00    -0.311 N 
ATOM     14  C   LIG d   1       2.330  58.590 118.996  0.00  0.00     0.210 C 
ATOM     15  C   LIG d   1       3.710  58.856 118.386  0.00  0.00     0.109 C 
ATOM     16  O   LIG d   1       2.229  57.958 120.059  0.00  0.00    -0.276 OA
ATOM     17  H   LIG d   1       1.474  59.522 117.419  0.00  0.00     0.149 HD
ENDBRANCH   6  13
BRANCH   5  18
ATOM     18  N   LIG d   1      -0.658  56.984 117.180  0.00  0.00     0.381 N 
ATOM     19  H   LIG d   1      -1.366  56.345 117.483  0.00  0.00    -0.090 HD
ATOM     20  H   LIG d   1       0.207  56.730 117.624  0.00  0.00    -0.090 HD
ATOM     21  H   LIG d   1      -0.559  56.936 116.190  0.00  0.00    -0.090 HD
ENDBRANCH   5  18
BRANCH   3  22
ATOM     22  C   LIG d   1      -4.232  59.883 118.507  0.00  0.00     0.382 C 
ATOM     23  O   LIG d   1      -4.627  60.606 117.561  0.00  0.00    -0.241 OA
ATOM     24  O   LIG d   1      -5.046  59.504 119.370  0.00  0.00    -0.241 OA
ENDBRANCH   3  22
TORSDOF 7
ENDMDL
MODEL 3
REMARK VINA RESULT:      -4.9      2.322      6.136
REMARK  7 active torsions:
REMARK  status: ('A' for Active; 'I' for Inactive)
REMARK    1  A    between atoms: C_2  and  C_3 
REMARK    2  A    between atoms: C_3  and  O_6 
REMARK    3  A    between atoms: C_3  and  C_4 
REMARK    4  A    between atoms: C_7  and  O_6 
REMARK    5  A    between atoms: C_9  and  C_10 
REMARK    6  A    between atoms: N_15  and  C_14 
REMARK    7  A    between atoms: N_20  and  C_19 
REMARK       I    between atoms: C_22  and  N_20 
ROOT
ATOM      1  C   LIG d   1      -1.263  58.899 117.945  0.00  0.00     0.161 C 
ATOM      2  C   LIG d   1       0.058  58.578 118.300  0.00  0.00     0.016 C 
ATOM      3  C   LIG d   1       0.686  59.052 119.474  0.00  0.00     0.038 C 
ATOM      4  C   LIG d   1      -0.020  59.762 120.457  0.00  0.00     0.028 C 
ATOM      5  C   LIG d   1      -1.212  60.537 119.906  0.00  0.00    -0.047 C 
ATOM      6  C   LIG d   1      -2.084  59.581 119.060  0.00  0.00     0.091 C 
ENDROOT
BRANCH   1   7
ATOM      7  O   LIG d   1      -1.943  57.719 117.473  0.00  0.00    -0.368 OA
BRANCH   7   8
ATOM      8  C   LIG d   1      -2.314  56.750 118.484  0.00  0.00     0.119 C 
BRANCH   8   9
ATOM      9  C   LIG d   1      -1.597  55.429 118.143  0.00  0.00     0.028 C 
ATOM     10  C   LIG d   1      -0.486  55.087 119.150  0.00  0.00     0.006 C 
ENDBRANCH   8   9
BRANCH   8  11
ATOM     11  C   LIG d   1      -3.810  56.427 118.425  0.00  0.00     0.028 C 
ATOM     12  C   LIG d   1      -4.093  54.916 118.414  0.00  0.00     0.006 C 
ENDBRANCH   8  11
ENDBRANCH   7   8
ENDBRANCH   1   7
BRANCH   6  13
ATOM     13  N   LIG d   1      -3.227  60.279 118.414  0.00  0.00    -0.311 N 
ATOM     14  C   LIG d   1      -4.499  60.063 118.745  0.00  0.00     0.210 C 
ATOM     15  C   LIG d   1      -5.522  60.872 117.942  0.00  0.00     0.109 C 
ATOM     16  O   LIG d   1      -4.875  59.303 119.650  0.00  0.00    -0.276 OA
ATOM     17  H   LIG d   1      -3.010  60.936 117.691  0.00  0.00     0.149 HD
ENDBRANCH   6  13
BRANCH   5  18
ATOM     18  N   LIG d   1      -1.936  61.117 121.053  0.00  0.00     0.381 N 
ATOM     19  H   LIG d   1      -1.574  62.027 121.257  0.00  0.00    -0.090 HD
ATOM     20  H   LIG d   1      -1.790  60.533 121.858  0.00  0.00    -0.090 HD
ATOM     21  H   LIG d   1      -2.909  61.176 120.848  0.00  0.00    -0.090 HD
ENDBRANCH   5  18
BRANCH   3  22
ATOM     22  C   LIG d   1       2.045  58.850 119.656  0.00  0.00     0.382 C 
ATOM     23  O   LIG d   1       2.678  58.102 118.873  0.00  0.00    -0.241 OA
ATOM     24  O   LIG d   1       2.638  59.373 120.619  0.00  0.00    -0.241 OA
ENDBRANCH   3  22
TORSDOF 7
ENDMDL
MODEL 4
REMARK VINA RESULT:      -4.6      2.001      4.976
REMARK  7 active torsions:
REMARK  status: ('A' for Active; 'I' for Inactive)
REMARK    1  A    between atoms: C_2  and  C_3 
REMARK    2  A    between atoms: C_3  and  O_6 
REMARK    3  A    between atoms: C_3  and  C_4 
REMARK    4  A    between atoms: C_7  and  O_6 
REMARK    5  A    between atoms: C_9  and  C_10 
REMARK    6  A    between atoms: N_15  and  C_14 
REMARK    7  A    between atoms: N_20  and  C_19 
REMARK       I    between atoms: C_22  and  N_20 
ROOT
ATOM      1  C   LIG d   1      -1.148  59.648 120.652  0.00  0.00     0.161 C 
ATOM      2  C   LIG d   1      -1.188  60.522 121.752  0.00  0.00     0.016 C 
ATOM      3  C   LIG d   1      -0.031  60.992 122.414  0.00  0.00     0.038 C 
ATOM      4  C   LIG d   1       1.258  60.738 121.924  0.00  0.00     0.028 C 
ATOM      5  C   LIG d   1       1.356  59.449 121.117  0.00  0.00    -0.047 C 
ATOM      6  C   LIG d   1       0.252  59.449 120.035  0.00  0.00     0.091 C 
ENDROOT
BRANCH   1   7
ATOM      7  O   LIG d   1      -2.082  60.086 119.646  0.00  0.00    -0.368 OA
BRANCH   7   8
ATOM      8  C   LIG d   1      -3.320  59.340 119.556  0.00  0.00     0.119 C 
BRANCH   8   9
ATOM      9  C   LIG d   1      -3.294  58.555 118.230  0.00  0.00     0.028 C 
ATOM     10  C   LIG d   1      -3.503  57.046 118.437  0.00  0.00     0.006 C 
ENDBRANCH   8   9
BRANCH   8  11
ATOM     11  C   LIG d   1      -4.529  60.275 119.450  0.00  0.00     0.028 C 
ATOM     12  C   LIG d   1      -4.956  60.534 117.997  0.00  0.00     0.006 C 
ENDBRANCH   8  11
ENDBRANCH   7   8
ENDBRANCH   1   7
BRANCH   6  13
ATOM     13  N   LIG d   1       0.223  58.185 119.254  0.00  0.00    -0.311 N 
ATOM     14  C   LIG d   1       0.352  58.139 117.929  0.00  0.00     0.210 C 
ATOM     15  C   LIG d   1       0.274  56.735 117.320  0.00  0.00     0.109 C 
ATOM     16  O   LIG d   1       0.556  59.124 117.204  0.00  0.00    -0.276 OA
ATOM     17  H   LIG d   1       0.093  57.335 119.767  0.00  0.00     0.149 HD
ENDBRANCH   6  13
BRANCH   5  18
ATOM     18  N   LIG d   1       2.718  59.379 120.553  0.00  0.00     0.381 N 
ATOM     19  H   LIG d   1       2.683  59.528 119.564  0.00  0.00    -0.090 HD
ATOM     20  H   LIG d   1       3.092  58.461 120.720  0.00  0.00    -0.090 HD
ATOM     21  H   LIG d   1       3.299  60.066 120.979  0.00  0.00    -0.090 HD
ENDBRANCH   5  18
BRANCH   3  22
ATOM     22  C   LIG d   1      -0.158  61.693 123.604  0.00  0.00     0.382 C 
ATOM     23  O   LIG d   1      -0.515  62.896 123.588  0.00  0.00    -0.241 OA
ATOM     24  O   LIG d   1       0.123  61.151 124.690  0.00  0.00    -0.241 OA
ENDBRANCH   3  22
TORSDOF 7
ENDMDL
MODEL 5
REMARK VINA RESULT:      -4.5     17.797     20.160
REMARK  7 active torsions:
REMARK  status: ('A' for Active; 'I' for Inactive)
REMARK    1  A    between atoms: C_2  and  C_3 
REMARK    2  A    between atoms: C_3  and  O_6 
REMARK    3  A    between atoms: C_3  and  C_4 
REMARK    4  A    between atoms: C_7  and  O_6 
REMARK    5  A    between atoms: C_9  and  C_10 
REMARK    6  A    between atoms: N_15  and  C_14 
REMARK    7  A    between atoms: N_20  and  C_19 
REMARK       I    between atoms: C_22  and  N_20 
ROOT
ATOM      1  C   LIG d   1     -14.640  72.670 120.451  0.00  0.00     0.161 C 
ATOM      2  C   LIG d   1     -13.629  73.635 120.309  0.00  0.00     0.016 C 
ATOM      3  C   LIG d   1     -13.872  74.957 119.870  0.00  0.00     0.038 C 
ATOM      4  C   LIG d   1     -15.172  75.450 119.685  0.00  0.00     0.028 C 
ATOM      5  C   LIG d   1     -16.186  74.368 119.330  0.00  0.00    -0.047 C 
ATOM      6  C   LIG d   1     -16.078  73.221 120.362  0.00  0.00     0.091 C 
ENDROOT
BRANCH   1   7
ATOM      7  O   LIG d   1     -14.456  71.948 121.685  0.00  0.00    -0.368 OA
BRANCH   7   8
ATOM      8  C   LIG d   1     -14.416  70.503 121.578  0.00  0.00     0.119 C 
BRANCH   8   9
ATOM      9  C   LIG d   1     -14.847  69.927 122.941  0.00  0.00     0.028 C 
ATOM     10  C   LIG d   1     -15.915  70.791 123.632  0.00  0.00     0.006 C 
ENDBRANCH   8   9
BRANCH   8  11
ATOM     11  C   LIG d   1     -12.986  70.000 121.359  0.00  0.00     0.028 C 
ATOM     12  C   LIG d   1     -12.653  68.763 122.208  0.00  0.00     0.006 C 
ENDBRANCH   8  11
ENDBRANCH   7   8
ENDBRANCH   1   7
BRANCH   6  13
ATOM     13  N   LIG d   1     -16.977  72.083 120.039  0.00  0.00    -0.311 N 
ATOM     14  C   LIG d   1     -18.055  71.774 120.758  0.00  0.00     0.210 C 
ATOM     15  C   LIG d   1     -18.832  70.549 120.264  0.00  0.00     0.109 C 
ATOM     16  O   LIG d   1     -18.459  72.416 121.739  0.00  0.00    -0.276 OA
ATOM     17  H   LIG d   1     -16.741  71.527 119.241  0.00  0.00     0.149 HD
ENDBRANCH   6  13
BRANCH   5  18
ATOM     18  N   LIG d   1     -17.519  74.998 119.303  0.00  0.00     0.381 N 
ATOM     19  H   LIG d   1     -18.115  74.558 119.976  0.00  0.00    -0.090 HD
ATOM     20  H   LIG d   1     -17.922  74.867 118.392  0.00  0.00    -0.090 HD
ATOM     21  H   LIG d   1     -17.441  75.970 119.503  0.00  0.00    -0.090 HD
ENDBRANCH   5  18
BRANCH   3  22
ATOM     22  C   LIG d   1     -12.803  75.789 119.571  0.00  0.00     0.382 C 
ATOM     23  O   LIG d   1     -12.701  76.292 118.426  0.00  0.00    -0.241 OA
ATOM     24  O   LIG d   1     -11.917  76.007 120.418  0.00  0.00    -0.241 OA
ENDBRANCH   3  22
TORSDOF 7
ENDMDL
MODEL 6
REMARK VINA RESULT:      -4.5     13.917     16.503
REMARK  7 active torsions:
REMARK  status: ('A' for Active; 'I' for Inactive)
REMARK    1  A    between atoms: C_2  and  C_3 
REMARK    2  A    between atoms: C_3  and  O_6 
REMARK    3  A    between atoms: C_3  and  C_4 
REMARK    4  A    between atoms: C_7  and  O_6 
REMARK    5  A    between atoms: C_9  and  C_10 
REMARK    6  A    between atoms: N_15  and  C_14 
REMARK    7  A    between atoms: N_20  and  C_19 
REMARK       I    between atoms: C_22  and  N_20 
ROOT
ATOM      1  C   LIG d   1     -13.827  68.599 121.589  0.00  0.00     0.161 C 
ATOM      2  C   LIG d   1     -12.858  68.708 122.600  0.00  0.00     0.016 C 
ATOM      3  C   LIG d   1     -12.038  67.632 123.011  0.00  0.00     0.038 C 
ATOM      4  C   LIG d   1     -12.028  66.406 122.330  0.00  0.00     0.028 C 
ATOM      5  C   LIG d   1     -13.346  66.090 121.631  0.00  0.00    -0.047 C 
ATOM      6  C   LIG d   1     -13.754  67.300 120.760  0.00  0.00     0.091 C 
ENDROOT
BRANCH   1   7
ATOM      7  O   LIG d   1     -13.763  69.751 120.724  0.00  0.00    -0.368 OA
BRANCH   7   8
ATOM      8  C   LIG d   1     -14.687  70.826 121.024  0.00  0.00     0.119 C 
BRANCH   8   9
ATOM      9  C   LIG d   1     -15.732  70.866 119.893  0.00  0.00     0.028 C 
ATOM     10  C   LIG d   1     -17.102  70.327 120.339  0.00  0.00     0.006 C 
ENDBRANCH   8   9
BRANCH   8  11
ATOM     11  C   LIG d   1     -13.989  72.188 120.980  0.00  0.00     0.028 C 
ATOM     12  C   LIG d   1     -14.555  73.113 119.891  0.00  0.00     0.006 C 
ENDBRANCH   8  11
ENDBRANCH   7   8
ENDBRANCH   1   7
BRANCH   6  13
ATOM     13  N   LIG d   1     -15.075  67.109 120.107  0.00  0.00    -0.311 N 
ATOM     14  C   LIG d   1     -15.297  67.352 118.816  0.00  0.00     0.210 C 
ATOM     15  C   LIG d   1     -16.736  67.108 118.350  0.00  0.00     0.109 C 
ATOM     16  O   LIG d   1     -14.431  67.716 118.006  0.00  0.00    -0.276 OA
ATOM     17  H   LIG d   1     -15.827  66.786 120.684  0.00  0.00     0.149 HD
ENDBRANCH   6  13
BRANCH   5  18
ATOM     18  N   LIG d   1     -13.151  64.855 120.849  0.00  0.00     0.381 N 
ATOM     19  H   LIG d   1     -13.922  64.724 120.224  0.00  0.00    -0.090 HD
ATOM     20  H   LIG d   1     -13.121  64.073 121.479  0.00  0.00    -0.090 HD
ATOM     21  H   LIG d   1     -12.301  64.908 120.333  0.00  0.00    -0.090 HD
ENDBRANCH   5  18
BRANCH   3  22
ATOM     22  C   LIG d   1     -11.244  67.765 124.140  0.00  0.00     0.382 C 
ATOM     23  O   LIG d   1     -10.212  67.063 124.267  0.00  0.00    -0.241 OA
ATOM     24  O   LIG d   1     -11.571  68.546 125.053  0.00  0.00    -0.241 OA
ENDBRANCH   3  22
TORSDOF 7
ENDMDL
MODEL 7
REMARK VINA RESULT:      -4.4     22.290     23.765
REMARK  7 active torsions:
REMARK  status: ('A' for Active; 'I' for Inactive)
REMARK    1  A    between atoms: C_2  and  C_3 
REMARK    2  A    between atoms: C_3  and  O_6 
REMARK    3  A    between atoms: C_3  and  C_4 
REMARK    4  A    between atoms: C_7  and  O_6 
REMARK    5  A    between atoms: C_9  and  C_10 
REMARK    6  A    between atoms: N_15  and  C_14 
REMARK    7  A    between atoms: N_20  and  C_19 
REMARK       I    between atoms: C_22  and  N_20 
ROOT
ATOM      1  C   LIG d   1      -7.534  81.800 119.380  0.00  0.00     0.161 C 
ATOM      2  C   LIG d   1      -7.699  80.461 118.991  0.00  0.00     0.016 C 
ATOM      3  C   LIG d   1      -8.855  79.978 118.335  0.00  0.00     0.038 C 
ATOM      4  C   LIG d   1      -9.867  80.840 117.886  0.00  0.00     0.028 C 
ATOM      5  C   LIG d   1      -9.976  82.123 118.702  0.00  0.00    -0.047 C 
ATOM      6  C   LIG d   1      -8.579  82.776 118.800  0.00  0.00     0.091 C 
ENDROOT
BRANCH   1   7
ATOM      7  O   LIG d   1      -6.201  82.243 119.056  0.00  0.00    -0.368 OA
BRANCH   7   8
ATOM      8  C   LIG d   1      -5.212  82.109 120.106  0.00  0.00     0.119 C 
BRANCH   8   9
ATOM      9  C   LIG d   1      -5.048  83.491 120.767  0.00  0.00     0.028 C 
ATOM     10  C   LIG d   1      -5.528  83.504 122.228  0.00  0.00     0.006 C 
ENDBRANCH   8   9
BRANCH   8  11
ATOM     11  C   LIG d   1      -3.833  81.768 119.533  0.00  0.00     0.028 C 
ATOM     12  C   LIG d   1      -2.782  82.850 119.825  0.00  0.00     0.006 C 
ENDBRANCH   8  11
ENDBRANCH   7   8
ENDBRANCH   1   7
BRANCH   6  13
ATOM     13  N   LIG d   1      -8.580  83.993 119.653  0.00  0.00    -0.311 N 
ATOM     14  C   LIG d   1      -8.950  83.991 120.933  0.00  0.00     0.210 C 
ATOM     15  C   LIG d   1      -8.896  85.357 121.624  0.00  0.00     0.109 C 
ATOM     16  O   LIG d   1      -9.286  82.982 121.570  0.00  0.00    -0.276 OA
ATOM     17  H   LIG d   1      -8.291  84.851 119.225  0.00  0.00     0.149 HD
ENDBRANCH   6  13
BRANCH   5  18
ATOM     18  N   LIG d   1     -10.973  82.987 118.043  0.00  0.00     0.381 N 
ATOM     19  H   LIG d   1     -10.819  83.941 118.301  0.00  0.00    -0.090 HD
ATOM     20  H   LIG d   1     -11.891  82.721 118.354  0.00  0.00    -0.090 HD
ATOM     21  H   LIG d   1     -10.909  82.889 117.054  0.00  0.00    -0.090 HD
ENDBRANCH   5  18
BRANCH   3  22
ATOM     22  C   LIG d   1      -9.025  78.614 118.157  0.00  0.00     0.382 C 
ATOM     23  O   LIG d   1      -8.053  77.901 117.809  0.00  0.00    -0.241 OA
ATOM     24  O   LIG d   1     -10.148  78.093 118.298  0.00  0.00    -0.241 OA
ENDBRANCH   3  22
TORSDOF 7
ENDMDL
MODEL 8
REMARK VINA RESULT:      -4.4      2.117      5.259
REMARK  7 active torsions:
REMARK  status: ('A' for Active; 'I' for Inactive)
REMARK    1  A    between atoms: C_2  and  C_3 
REMARK    2  A    between atoms: C_3  and  O_6 
REMARK    3  A    between atoms: C_3  and  C_4 
REMARK    4  A    between atoms: C_7  and  O_6 
REMARK    5  A    between atoms: C_9  and  C_10 
REMARK    6  A    between atoms: N_15  and  C_14 
REMARK    7  A    between atoms: N_20  and  C_19 
REMARK       I    between atoms: C_22  and  N_20 
ROOT
ATOM      1  C   LIG d   1       0.815  58.629 120.857  0.00  0.00     0.161 C 
ATOM      2  C   LIG d   1       2.124  58.194 120.593  0.00  0.00     0.016 C 
ATOM      3  C   LIG d   1       2.725  58.265 119.315  0.00  0.00     0.038 C 
ATOM      4  C   LIG d   1       2.105  58.919 118.240  0.00  0.00     0.028 C 
ATOM      5  C   LIG d   1       0.583  58.924 118.329  0.00  0.00    -0.047 C 
ATOM      6  C   LIG d   1       0.164  59.447 119.722  0.00  0.00     0.091 C 
ENDROOT
BRANCH   1   7
ATOM      7  O   LIG d   1       0.786  59.373 122.091  0.00  0.00    -0.368 OA
BRANCH   7   8
ATOM      8  C   LIG d   1       1.207  60.757 122.010  0.00  0.00     0.119 C 
BRANCH   8   9
ATOM      9  C   LIG d   1       2.323  60.964 123.052  0.00  0.00     0.028 C 
ATOM     10  C   LIG d   1       3.723  60.706 122.472  0.00  0.00     0.006 C 
ENDBRANCH   8   9
BRANCH   8  11
ATOM     11  C   LIG d   1       0.080  61.707 122.429  0.00  0.00     0.028 C 
ATOM     12  C   LIG d   1       0.581  62.891 123.270  0.00  0.00     0.006 C 
ENDBRANCH   8  11
ENDBRANCH   7   8
ENDBRANCH   1   7
BRANCH   6  13
ATOM     13  N   LIG d   1      -1.308  59.405 119.924  0.00  0.00    -0.311 N 
ATOM     14  C   LIG d   1      -2.125  60.395 119.568  0.00  0.00     0.210 C 
ATOM     15  C   LIG d   1      -3.605  60.157 119.885  0.00  0.00     0.109 C 
ATOM     16  O   LIG d   1      -1.769  61.434 118.992  0.00  0.00    -0.276 OA
ATOM     17  H   LIG d   1      -1.686  58.585 120.357  0.00  0.00     0.149 HD
ENDBRANCH   6  13
BRANCH   5  18
ATOM     18  N   LIG d   1       0.074  59.755 117.222  0.00  0.00     0.381 N 
ATOM     19  H   LIG d   1      -0.914  59.878 117.317  0.00  0.00    -0.090 HD
ATOM     20  H   LIG d   1       0.251  59.283 116.353  0.00  0.00    -0.090 HD
ATOM     21  H   LIG d   1       0.528  60.642 117.225  0.00  0.00    -0.090 HD
ENDBRANCH   5  18
BRANCH   3  22
ATOM     22  C   LIG d   1       3.943  57.641 119.092  0.00  0.00     0.382 C 
ATOM     23  O   LIG d   1       5.012  58.281 119.244  0.00  0.00    -0.241 OA
ATOM     24  O   LIG d   1       3.985  56.460 118.700  0.00  0.00    -0.241 OA
ENDBRANCH   3  22
TORSDOF 7
ENDMDL
MODEL 9
REMARK VINA RESULT:      -4.4     18.099     20.336
REMARK  7 active torsions:
REMARK  status: ('A' for Active; 'I' for Inactive)
REMARK    1  A    between atoms: C_2  and  C_3 
REMARK    2  A    between atoms: C_3  and  O_6 
REMARK    3  A    between atoms: C_3  and  C_4 
REMARK    4  A    between atoms: C_7  and  O_6 
REMARK    5  A    between atoms: C_9  and  C_10 
REMARK    6  A    between atoms: N_15  and  C_14 
REMARK    7  A    between atoms: N_20  and  C_19 
REMARK       I    between atoms: C_22  and  N_20 
ROOT
ATOM      1  C   LIG d   1     -15.005  73.131 121.109  0.00  0.00     0.161 C 
ATOM      2  C   LIG d   1     -14.124  72.037 121.114  0.00  0.00     0.016 C 
ATOM      3  C   LIG d   1     -14.529  70.711 120.837  0.00  0.00     0.038 C 
ATOM      4  C   LIG d   1     -15.822  70.410 120.385  0.00  0.00     0.028 C 
ATOM      5  C   LIG d   1     -16.875  71.409 120.852  0.00  0.00    -0.047 C 
ATOM      6  C   LIG d   1     -16.397  72.839 120.510  0.00  0.00     0.091 C 
ENDROOT
BRANCH   1   7
ATOM      7  O   LIG d   1     -14.394  74.248 120.434  0.00  0.00    -0.368 OA
BRANCH   7   8
ATOM      8  C   LIG d   1     -13.213  74.805 121.063  0.00  0.00     0.119 C 
BRANCH   8   9
ATOM      9  C   LIG d   1     -13.678  75.596 122.301  0.00  0.00     0.028 C 
ATOM     10  C   LIG d   1     -14.784  76.611 121.968  0.00  0.00     0.006 C 
ENDBRANCH   8   9
BRANCH   8  11
ATOM     11  C   LIG d   1     -12.532  75.834 120.157  0.00  0.00     0.028 C 
ATOM     12  C   LIG d   1     -13.042  75.784 118.708  0.00  0.00     0.006 C 
ENDBRANCH   8  11
ENDBRANCH   7   8
ENDBRANCH   1   7
BRANCH   6  13
ATOM     13  N   LIG d   1     -17.329  73.883 121.008  0.00  0.00    -0.311 N 
ATOM     14  C   LIG d   1     -17.724  74.924 120.276  0.00  0.00     0.210 C 
ATOM     15  C   LIG d   1     -18.672  75.893 120.988  0.00  0.00     0.109 C 
ATOM     16  O   LIG d   1     -17.403  75.118 119.094  0.00  0.00    -0.276 OA
ATOM     17  H   LIG d   1     -17.663  73.786 121.947  0.00  0.00     0.149 HD
ENDBRANCH   6  13
BRANCH   5  18
ATOM     18  N   LIG d   1     -18.148  71.054 120.198  0.00  0.00     0.381 N 
ATOM     19  H   LIG d   1     -18.876  71.661 120.519  0.00  0.00    -0.090 HD
ATOM     20  H   LIG d   1     -18.391  70.111 120.448  0.00  0.00    -0.090 HD
ATOM     21  H   LIG d   1     -18.056  71.129 119.208  0.00  0.00    -0.090 HD
ENDBRANCH   5  18
BRANCH   3  22
ATOM     22  C   LIG d   1     -13.645  69.664 121.050  0.00  0.00     0.382 C 
ATOM     23  O   LIG d   1     -13.254  68.968 120.083  0.00  0.00    -0.241 OA
ATOM     24  O   LIG d   1     -13.269  69.380 122.203  0.00  0.00    -0.241 OA
ENDBRANCH   3  22
TORSDOF 7
ENDMDL
