MODEL 1
REMARK VINA RESULT:      -4.7      0.000      0.000
REMARK  7 active torsions:
REMARK  status: ('A' for Active; 'I' for Inactive)
REMARK    1  A    between atoms: C_2  and  C_3 
REMARK    2  A    between atoms: C_3  and  O_6 
REMARK    3  A    between atoms: C_3  and  C_4 
REMARK    4  A    between atoms: C_7  and  O_6 
REMARK    5  A    between atoms: C_9  and  C_10 
REMARK    6  A    between atoms: N_15  and  C_14 
REMARK    7  A    between atoms: N_20  and  C_19 
REMARK       I    between atoms: C_22  and  N_20 
ROOT
ATOM      1  C   LIG d   1      -0.618  60.246 119.007  0.00  0.00     0.161 C 
ATOM      2  C   LIG d   1      -2.000  60.080 118.819  0.00  0.00     0.016 C 
ATOM      3  C   LIG d   1      -2.567  58.972 118.148  0.00  0.00     0.038 C 
ATOM      4  C   LIG d   1      -1.792  57.872 117.749  0.00  0.00     0.028 C 
ATOM      5  C   LIG d   1      -0.336  58.226 117.467  0.00  0.00    -0.047 C 
ATOM      6  C   LIG d   1       0.234  59.003 118.676  0.00  0.00     0.091 C 
ENDROOT
BRANCH   1   7
ATOM      7  O   LIG d   1      -0.358  60.688 120.354  0.00  0.00    -0.368 OA
BRANCH   7   8
ATOM      8  C   LIG d   1      -0.698  59.755 121.408  0.00  0.00     0.119 C 
BRANCH   8   9
ATOM      9  C   LIG d   1      -1.733  60.443 122.319  0.00  0.00     0.028 C 
ATOM     10  C   LIG d   1      -3.071  59.685 122.364  0.00  0.00     0.006 C 
ENDBRANCH   8   9
BRANCH   8  11
ATOM     11  C   LIG d   1       0.507  59.467 122.308  0.00  0.00     0.028 C 
ATOM     12  C   LIG d   1       1.489  60.647 122.384  0.00  0.00     0.006 C 
ENDBRANCH   8  11
ENDBRANCH   7   8
ENDBRANCH   1   7
BRANCH   6  13
ATOM     13  N   LIG d   1       1.629  59.461 118.449  0.00  0.00    -0.311 N 
ATOM     14  C   LIG d   1       2.677  58.979 119.115  0.00  0.00     0.210 C 
ATOM     15  C   LIG d   1       4.025  59.604 118.740  0.00  0.00     0.109 C 
ATOM     16  O   LIG d   1       2.622  58.071 119.958  0.00  0.00    -0.276 OA
ATOM     17  H   LIG d   1       1.768  60.174 117.760  0.00  0.00     0.149 HD
ENDBRANCH   6  13
BRANCH   5  18
ATOM     18  N   LIG d   1       0.384  56.968 117.197  0.00  0.00     0.381 N 
ATOM     19  H   LIG d   1       0.454  56.823 116.209  0.00  0.00    -0.090 HD
ATOM     20  H   LIG d   1      -0.135  56.204 117.591  0.00  0.00    -0.090 HD
ATOM     21  H   LIG d   1       1.295  57.003 117.600  0.00  0.00    -0.090 HD
ENDBRANCH   5  18
BRANCH   3  22
ATOM     22  C   LIG d   1      -3.917  58.975 117.834  0.00  0.00     0.382 C 
ATOM     23  O   LIG d   1      -4.640  58.005 118.166  0.00  0.00    -0.241 OA
ATOM     24  O   LIG d   1      -4.413  59.915 117.185  0.00  0.00    -0.241 OA
ENDBRANCH   3  22
TORSDOF 7
ENDMDL
MODEL 2
REMARK VINA RESULT:      -4.5     13.080     15.523
REMARK  7 active torsions:
REMARK  status: ('A' for Active; 'I' for Inactive)
REMARK    1  A    between atoms: C_2  and  C_3 
REMARK    2  A    between atoms: C_3  and  O_6 
REMARK    3  A    between atoms: C_3  and  C_4 
REMARK    4  A    between atoms: C_7  and  O_6 
REMARK    5  A    between atoms: C_9  and  C_10 
REMARK    6  A    between atoms: N_15  and  C_14 
REMARK    7  A    between atoms: N_20  and  C_19 
REMARK       I    between atoms: C_22  and  N_20 
ROOT
ATOM      1  C   LIG d   1     -13.763  66.382 121.126  0.00  0.00     0.161 C 
ATOM      2  C   LIG d   1     -12.618  66.101 121.890  0.00  0.00     0.016 C 
ATOM      3  C   LIG d   1     -11.838  64.933 121.722  0.00  0.00     0.038 C 
ATOM      4  C   LIG d   1     -12.066  64.035 120.669  0.00  0.00     0.028 C 
ATOM      5  C   LIG d   1     -13.514  64.018 120.190  0.00  0.00    -0.047 C 
ATOM      6  C   LIG d   1     -13.963  65.468 119.899  0.00  0.00     0.091 C 
ENDROOT
BRANCH   1   7
ATOM      7  O   LIG d   1     -13.755  67.766 120.724  0.00  0.00    -0.368 OA
BRANCH   7   8
ATOM      8  C   LIG d   1     -13.848  68.741 121.792  0.00  0.00     0.119 C 
BRANCH   8   9
ATOM      9  C   LIG d   1     -15.133  69.560 121.559  0.00  0.00     0.028 C 
ATOM     10  C   LIG d   1     -15.800  69.236 120.212  0.00  0.00     0.006 C 
ENDBRANCH   8   9
BRANCH   8  11
ATOM     11  C   LIG d   1     -12.703  69.755 121.723  0.00  0.00     0.028 C 
ATOM     12  C   LIG d   1     -12.753  70.789 122.858  0.00  0.00     0.006 C 
ENDBRANCH   8  11
ENDBRANCH   7   8
ENDBRANCH   1   7
BRANCH   6  13
ATOM     13  N   LIG d   1     -15.394  65.550 119.506  0.00  0.00    -0.311 N 
ATOM     14  C   LIG d   1     -15.810  65.509 118.241  0.00  0.00     0.210 C 
ATOM     15  C   LIG d   1     -17.325  65.629 118.054  0.00  0.00     0.109 C 
ATOM     16  O   LIG d   1     -15.070  65.352 117.258  0.00  0.00    -0.276 OA
ATOM     17  H   LIG d   1     -16.065  65.647 120.242  0.00  0.00     0.149 HD
ENDBRANCH   6  13
BRANCH   5  18
ATOM     18  N   LIG d   1     -13.580  63.143 119.004  0.00  0.00     0.381 N 
ATOM     19  H   LIG d   1     -14.409  63.344 118.481  0.00  0.00    -0.090 HD
ATOM     20  H   LIG d   1     -13.623  62.186 119.307  0.00  0.00    -0.090 HD
ATOM     21  H   LIG d   1     -12.776  63.283 118.432  0.00  0.00    -0.090 HD
ENDBRANCH   5  18
BRANCH   3  22
ATOM     22  C   LIG d   1     -10.841  64.635 122.638  0.00  0.00     0.382 C 
ATOM     23  O   LIG d   1     -10.258  63.526 122.591  0.00  0.00    -0.241 OA
ATOM     24  O   LIG d   1     -10.549  65.444 123.539  0.00  0.00    -0.241 OA
ENDBRANCH   3  22
TORSDOF 7
ENDMDL
MODEL 3
REMARK VINA RESULT:      -4.4     13.326     15.899
REMARK  7 active torsions:
REMARK  status: ('A' for Active; 'I' for Inactive)
REMARK    1  A    between atoms: C_2  and  C_3 
REMARK    2  A    between atoms: C_3  and  O_6 
REMARK    3  A    between atoms: C_3  and  C_4 
REMARK    4  A    between atoms: C_7  and  O_6 
REMARK    5  A    between atoms: C_9  and  C_10 
REMARK    6  A    between atoms: N_15  and  C_14 
REMARK    7  A    between atoms: N_20  and  C_19 
REMARK       I    between atoms: C_22  and  N_20 
ROOT
ATOM      1  C   LIG d   1     -14.263  65.927 121.978  0.00  0.00     0.161 C 
ATOM      2  C   LIG d   1     -12.967  65.724 122.481  0.00  0.00     0.016 C 
ATOM      3  C   LIG d   1     -12.024  64.861 121.876  0.00  0.00     0.038 C 
ATOM      4  C   LIG d   1     -12.265  64.253 120.635  0.00  0.00     0.028 C 
ATOM      5  C   LIG d   1     -13.745  64.031 120.346  0.00  0.00    -0.047 C 
ATOM      6  C   LIG d   1     -14.505  65.359 120.564  0.00  0.00     0.091 C 
ENDROOT
BRANCH   1   7
ATOM      7  O   LIG d   1     -14.587  67.331 122.017  0.00  0.00    -0.368 OA
BRANCH   7   8
ATOM      8  C   LIG d   1     -14.198  68.107 120.857  0.00  0.00     0.119 C 
BRANCH   8   9
ATOM      9  C   LIG d   1     -13.115  69.105 121.311  0.00  0.00     0.028 C 
ATOM     10  C   LIG d   1     -13.270  69.508 122.787  0.00  0.00     0.006 C 
ENDBRANCH   8   9
BRANCH   8  11
ATOM     11  C   LIG d   1     -15.356  68.970 120.349  0.00  0.00     0.028 C 
ATOM     12  C   LIG d   1     -16.656  68.747 121.138  0.00  0.00     0.006 C 
ENDBRANCH   8  11
ENDBRANCH   7   8
ENDBRANCH   1   7
BRANCH   6  13
ATOM     13  N   LIG d   1     -15.972  65.210 120.384  0.00  0.00    -0.311 N 
ATOM     14  C   LIG d   1     -16.604  65.495 119.247  0.00  0.00     0.210 C 
ATOM     15  C   LIG d   1     -18.122  65.289 119.282  0.00  0.00     0.109 C 
ATOM     16  O   LIG d   1     -16.048  65.868 118.203  0.00  0.00    -0.276 OA
ATOM     17  H   LIG d   1     -16.497  64.883 121.172  0.00  0.00     0.149 HD
ENDBRANCH   6  13
BRANCH   5  18
ATOM     18  N   LIG d   1     -13.858  63.520 118.967  0.00  0.00     0.381 N 
ATOM     19  H   LIG d   1     -12.978  63.609 118.499  0.00  0.00    -0.090 HD
ATOM     20  H   LIG d   1     -14.537  64.071 118.471  0.00  0.00    -0.090 HD
ATOM     21  H   LIG d   1     -14.141  62.564 118.979  0.00  0.00    -0.090 HD
ENDBRANCH   5  18
BRANCH   3  22
ATOM     22  C   LIG d   1     -10.841  64.566 122.536  0.00  0.00     0.382 C 
ATOM     23  O   LIG d   1     -10.469  65.273 123.503  0.00  0.00    -0.241 OA
ATOM     24  O   LIG d   1     -10.118  63.629 122.147  0.00  0.00    -0.241 OA
ENDBRANCH   3  22
TORSDOF 7
ENDMDL
MODEL 4
REMARK VINA RESULT:      -4.4     13.675     16.253
REMARK  7 active torsions:
REMARK  status: ('A' for Active; 'I' for Inactive)
REMARK    1  A    between atoms: C_2  and  C_3 
REMARK    2  A    between atoms: C_3  and  O_6 
REMARK    3  A    between atoms: C_3  and  C_4 
REMARK    4  A    between atoms: C_7  and  O_6 
REMARK    5  A    between atoms: C_9  and  C_10 
REMARK    6  A    between atoms: N_15  and  C_14 
REMARK    7  A    between atoms: N_20  and  C_19 
REMARK       I    between atoms: C_22  and  N_20 
ROOT
ATOM      1  C   LIG d   1     -14.170  66.826 120.774  0.00  0.00     0.161 C 
ATOM      2  C   LIG d   1     -13.085  66.835 121.666  0.00  0.00     0.016 C 
ATOM      3  C   LIG d   1     -12.227  65.728 121.859  0.00  0.00     0.038 C 
ATOM      4  C   LIG d   1     -12.305  64.581 121.056  0.00  0.00     0.028 C 
ATOM      5  C   LIG d   1     -13.699  64.330 120.491  0.00  0.00    -0.047 C 
ATOM      6  C   LIG d   1     -14.204  65.622 119.809  0.00  0.00     0.091 C 
ENDROOT
BRANCH   1   7
ATOM      7  O   LIG d   1     -14.205  68.062 120.034  0.00  0.00    -0.368 OA
BRANCH   7   8
ATOM      8  C   LIG d   1     -15.269  68.982 120.381  0.00  0.00     0.119 C 
BRANCH   8   9
ATOM      9  C   LIG d   1     -16.111  68.320 121.489  0.00  0.00     0.028 C 
ATOM     10  C   LIG d   1     -16.184  69.179 122.763  0.00  0.00     0.006 C 
ENDBRANCH   8   9
BRANCH   8  11
ATOM     11  C   LIG d   1     -16.232  69.188 119.208  0.00  0.00     0.028 C 
ATOM     12  C   LIG d   1     -17.574  68.465 119.405  0.00  0.00     0.006 C 
ENDBRANCH   8  11
ENDBRANCH   7   8
ENDBRANCH   1   7
BRANCH   6  13
ATOM     13  N   LIG d   1     -15.595  65.490 119.302  0.00  0.00    -0.311 N 
ATOM     14  C   LIG d   1     -15.890  65.149 118.049  0.00  0.00     0.210 C 
ATOM     15  C   LIG d   1     -17.387  65.089 117.730  0.00  0.00     0.109 C 
ATOM     16  O   LIG d   1     -15.054  64.858 117.180  0.00  0.00    -0.276 OA
ATOM     17  H   LIG d   1     -16.335  65.677 119.950  0.00  0.00     0.149 HD
ENDBRANCH   6  13
BRANCH   5  18
ATOM     18  N   LIG d   1     -13.606  63.186 119.565  0.00  0.00     0.381 N 
ATOM     19  H   LIG d   1     -14.482  62.704 119.533  0.00  0.00    -0.090 HD
ATOM     20  H   LIG d   1     -12.908  62.548 119.905  0.00  0.00    -0.090 HD
ATOM     21  H   LIG d   1     -13.360  63.504 118.654  0.00  0.00    -0.090 HD
ENDBRANCH   5  18
BRANCH   3  22
ATOM     22  C   LIG d   1     -11.302  65.747 122.892  0.00  0.00     0.382 C 
ATOM     23  O   LIG d   1     -11.203  66.761 123.625  0.00  0.00    -0.241 OA
ATOM     24  O   LIG d   1     -10.536  64.782 123.072  0.00  0.00    -0.241 OA
ENDBRANCH   3  22
TORSDOF 7
ENDMDL
MODEL 5
REMARK VINA RESULT:      -4.3      1.610      5.008
REMARK  7 active torsions:
REMARK  status: ('A' for Active; 'I' for Inactive)
REMARK    1  A    between atoms: C_2  and  C_3 
REMARK    2  A    between atoms: C_3  and  O_6 
REMARK    3  A    between atoms: C_3  and  C_4 
REMARK    4  A    between atoms: C_7  and  O_6 
REMARK    5  A    between atoms: C_9  and  C_10 
REMARK    6  A    between atoms: N_15  and  C_14 
REMARK    7  A    between atoms: N_20  and  C_19 
REMARK       I    between atoms: C_22  and  N_20 
ROOT
ATOM      1  C   LIG d   1      -0.266  59.721 120.589  0.00  0.00     0.161 C 
ATOM      2  C   LIG d   1       1.074  59.908 120.970  0.00  0.00     0.016 C 
ATOM      3  C   LIG d   1       2.172  59.512 120.172  0.00  0.00     0.038 C 
ATOM      4  C   LIG d   1       2.004  59.035 118.864  0.00  0.00     0.028 C 
ATOM      5  C   LIG d   1       0.657  58.359 118.633  0.00  0.00    -0.047 C 
ATOM      6  C   LIG d   1      -0.467  59.303 119.117  0.00  0.00     0.091 C 
ENDROOT
BRANCH   1   7
ATOM      7  O   LIG d   1      -1.028  60.908 120.882  0.00  0.00    -0.368 OA
BRANCH   7   8
ATOM      8  C   LIG d   1      -1.986  60.800 121.963  0.00  0.00     0.119 C 
BRANCH   8   9
ATOM      9  C   LIG d   1      -1.422  61.586 123.162  0.00  0.00     0.028 C 
ATOM     10  C   LIG d   1      -2.468  62.518 123.797  0.00  0.00     0.006 C 
ENDBRANCH   8   9
BRANCH   8  11
ATOM     11  C   LIG d   1      -2.115  59.354 122.450  0.00  0.00     0.028 C 
ATOM     12  C   LIG d   1      -3.562  58.836 122.402  0.00  0.00     0.006 C 
ENDBRANCH   8  11
ENDBRANCH   7   8
ENDBRANCH   1   7
BRANCH   6  13
ATOM     13  N   LIG d   1      -1.814  58.685 119.006  0.00  0.00    -0.311 N 
ATOM     14  C   LIG d   1      -2.862  59.304 118.465  0.00  0.00     0.210 C 
ATOM     15  C   LIG d   1      -4.163  58.494 118.468  0.00  0.00     0.109 C 
ATOM     16  O   LIG d   1      -2.831  60.434 117.955  0.00  0.00    -0.276 OA
ATOM     17  H   LIG d   1      -1.921  57.757 119.366  0.00  0.00     0.149 HD
ENDBRANCH   6  13
BRANCH   5  18
ATOM     18  N   LIG d   1       0.561  58.034 117.198  0.00  0.00     0.381 N 
ATOM     19  H   LIG d   1      -0.270  57.505 117.025  0.00  0.00    -0.090 HD
ATOM     20  H   LIG d   1       1.352  57.472 116.938  0.00  0.00    -0.090 HD
ATOM     21  H   LIG d   1       0.549  58.872 116.658  0.00  0.00    -0.090 HD
ENDBRANCH   5  18
BRANCH   3  22
ATOM     22  C   LIG d   1       3.454  59.555 120.699  0.00  0.00     0.382 C 
ATOM     23  O   LIG d   1       3.664  59.159 121.871  0.00  0.00    -0.241 OA
ATOM     24  O   LIG d   1       4.396  60.024 120.032  0.00  0.00    -0.241 OA
ENDBRANCH   3  22
TORSDOF 7
ENDMDL
MODEL 6
REMARK VINA RESULT:      -4.3     13.315     15.788
REMARK  7 active torsions:
REMARK  status: ('A' for Active; 'I' for Inactive)
REMARK    1  A    between atoms: C_2  and  C_3 
REMARK    2  A    between atoms: C_3  and  O_6 
REMARK    3  A    between atoms: C_3  and  C_4 
REMARK    4  A    between atoms: C_7  and  O_6 
REMARK    5  A    between atoms: C_9  and  C_10 
REMARK    6  A    between atoms: N_15  and  C_14 
REMARK    7  A    between atoms: N_20  and  C_19 
REMARK       I    between atoms: C_22  and  N_20 
ROOT
ATOM      1  C   LIG d   1     -13.567  66.806 121.157  0.00  0.00     0.161 C 
ATOM      2  C   LIG d   1     -12.440  66.374 121.876  0.00  0.00     0.016 C 
ATOM      3  C   LIG d   1     -11.857  65.096 121.716  0.00  0.00     0.038 C 
ATOM      4  C   LIG d   1     -12.274  64.212 120.709  0.00  0.00     0.028 C 
ATOM      5  C   LIG d   1     -13.730  64.404 120.300  0.00  0.00    -0.047 C 
ATOM      6  C   LIG d   1     -13.968  65.897 119.976  0.00  0.00     0.091 C 
ENDROOT
BRANCH   1   7
ATOM      7  O   LIG d   1     -13.368  68.159 120.703  0.00  0.00    -0.368 OA
BRANCH   7   8
ATOM      8  C   LIG d   1     -14.130  69.181 121.392  0.00  0.00     0.119 C 
BRANCH   8   9
ATOM      9  C   LIG d   1     -13.165  69.917 122.341  0.00  0.00     0.028 C 
ATOM     10  C   LIG d   1     -13.336  69.481 123.806  0.00  0.00     0.006 C 
ENDBRANCH   8   9
BRANCH   8  11
ATOM     11  C   LIG d   1     -15.198  68.563 122.298  0.00  0.00     0.028 C 
ATOM     12  C   LIG d   1     -16.629  68.884 121.837  0.00  0.00     0.006 C 
ENDBRANCH   8  11
ENDBRANCH   7   8
ENDBRANCH   1   7
BRANCH   6  13
ATOM     13  N   LIG d   1     -15.388  66.187 119.647  0.00  0.00    -0.311 N 
ATOM     14  C   LIG d   1     -15.766  66.872 118.569  0.00  0.00     0.210 C 
ATOM     15  C   LIG d   1     -17.278  67.075 118.430  0.00  0.00     0.109 C 
ATOM     16  O   LIG d   1     -14.995  67.302 117.699  0.00  0.00    -0.276 OA
ATOM     17  H   LIG d   1     -16.082  65.847 120.284  0.00  0.00     0.149 HD
ENDBRANCH   6  13
BRANCH   5  18
ATOM     18  N   LIG d   1     -13.991  63.515 119.152  0.00  0.00     0.381 N 
ATOM     19  H   LIG d   1     -14.752  62.901 119.365  0.00  0.00    -0.090 HD
ATOM     20  H   LIG d   1     -13.174  62.957 118.981  0.00  0.00    -0.090 HD
ATOM     21  H   LIG d   1     -14.208  64.056 118.344  0.00  0.00    -0.090 HD
ENDBRANCH   5  18
BRANCH   3  22
ATOM     22  C   LIG d   1     -10.870  64.676 122.595  0.00  0.00     0.382 C 
ATOM     23  O   LIG d   1     -10.339  63.549 122.448  0.00  0.00    -0.241 OA
ATOM     24  O   LIG d   1     -10.537  65.390 123.558  0.00  0.00    -0.241 OA
ENDBRANCH   3  22
TORSDOF 7
ENDMDL
MODEL 7
REMARK VINA RESULT:      -4.3     22.982     24.456
REMARK  7 active torsions:
REMARK  status: ('A' for Active; 'I' for Inactive)
REMARK    1  A    between atoms: C_2  and  C_3 
REMARK    2  A    between atoms: C_3  and  O_6 
REMARK    3  A    between atoms: C_3  and  C_4 
REMARK    4  A    between atoms: C_7  and  O_6 
REMARK    5  A    between atoms: C_9  and  C_10 
REMARK    6  A    between atoms: N_15  and  C_14 
REMARK    7  A    between atoms: N_20  and  C_19 
REMARK       I    between atoms: C_22  and  N_20 
ROOT
ATOM      1  C   LIG d   1      -7.475  82.408 120.330  0.00  0.00     0.161 C 
ATOM      2  C   LIG d   1      -7.170  83.581 121.040  0.00  0.00     0.016 C 
ATOM      3  C   LIG d   1      -8.088  84.233 121.896  0.00  0.00     0.038 C 
ATOM      4  C   LIG d   1      -9.331  83.669 122.219  0.00  0.00     0.028 C 
ATOM      5  C   LIG d   1      -9.876  82.746 121.134  0.00  0.00    -0.047 C 
ATOM      6  C   LIG d   1      -8.787  81.717 120.755  0.00  0.00     0.091 C 
ENDROOT
BRANCH   1   7
ATOM      7  O   LIG d   1      -6.371  81.485 120.416  0.00  0.00    -0.368 OA
BRANCH   7   8
ATOM      8  C   LIG d   1      -5.358  81.606 119.387  0.00  0.00     0.119 C 
BRANCH   8   9
ATOM      9  C   LIG d   1      -6.009  81.215 118.047  0.00  0.00     0.028 C 
ATOM     10  C   LIG d   1      -5.994  79.696 117.807  0.00  0.00     0.006 C 
ENDBRANCH   8   9
BRANCH   8  11
ATOM     11  C   LIG d   1      -4.227  80.595 119.598  0.00  0.00     0.028 C 
ATOM     12  C   LIG d   1      -3.311  80.962 120.777  0.00  0.00     0.006 C 
ENDBRANCH   8  11
ENDBRANCH   7   8
ENDBRANCH   1   7
BRANCH   6  13
ATOM     13  N   LIG d   1      -9.209  80.829 119.641  0.00  0.00    -0.311 N 
ATOM     14  C   LIG d   1      -9.171  79.499 119.709  0.00  0.00     0.210 C 
ATOM     15  C   LIG d   1      -9.632  78.773 118.441  0.00  0.00     0.109 C 
ATOM     16  O   LIG d   1      -8.829  78.851 120.710  0.00  0.00    -0.276 OA
ATOM     17  H   LIG d   1      -9.530  81.270 118.802  0.00  0.00     0.149 HD
ENDBRANCH   6  13
BRANCH   5  18
ATOM     18  N   LIG d   1     -11.105  82.121 121.658  0.00  0.00     0.381 N 
ATOM     19  H   LIG d   1     -11.672  81.799 120.899  0.00  0.00    -0.090 HD
ATOM     20  H   LIG d   1     -11.627  82.809 122.171  0.00  0.00    -0.090 HD
ATOM     21  H   LIG d   1     -10.872  81.358 122.254  0.00  0.00    -0.090 HD
ENDBRANCH   5  18
BRANCH   3  22
ATOM     22  C   LIG d   1      -7.780  85.485 122.408  0.00  0.00     0.382 C 
ATOM     23  O   LIG d   1      -8.411  86.495 122.014  0.00  0.00    -0.241 OA
ATOM     24  O   LIG d   1      -6.850  85.622 123.225  0.00  0.00    -0.241 OA
ENDBRANCH   3  22
TORSDOF 7
ENDMDL
MODEL 8
REMARK VINA RESULT:      -4.2     32.266     33.374
REMARK  7 active torsions:
REMARK  status: ('A' for Active; 'I' for Inactive)
REMARK    1  A    between atoms: C_2  and  C_3 
REMARK    2  A    between atoms: C_3  and  O_6 
REMARK    3  A    between atoms: C_3  and  C_4 
REMARK    4  A    between atoms: C_7  and  O_6 
REMARK    5  A    between atoms: C_9  and  C_10 
REMARK    6  A    between atoms: N_15  and  C_14 
REMARK    7  A    between atoms: N_20  and  C_19 
REMARK       I    between atoms: C_22  and  N_20 
ROOT
ATOM      1  C   LIG d   1      -3.853  91.824 118.129  0.00  0.00     0.161 C 
ATOM      2  C   LIG d   1      -4.844  92.809 117.987  0.00  0.00     0.016 C 
ATOM      3  C   LIG d   1      -5.655  93.257 119.055  0.00  0.00     0.038 C 
ATOM      4  C   LIG d   1      -5.426  92.854 120.379  0.00  0.00     0.028 C 
ATOM      5  C   LIG d   1      -4.768  91.483 120.490  0.00  0.00    -0.047 C 
ATOM      6  C   LIG d   1      -3.513  91.454 119.588  0.00  0.00     0.091 C 
ENDROOT
BRANCH   1   7
ATOM      7  O   LIG d   1      -2.661  92.223 117.423  0.00  0.00    -0.368 OA
BRANCH   7   8
ATOM      8  C   LIG d   1      -1.747  93.080 118.150  0.00  0.00     0.119 C 
BRANCH   8   9
ATOM      9  C   LIG d   1      -1.587  94.381 117.339  0.00  0.00     0.028 C 
ATOM     10  C   LIG d   1      -1.660  95.637 118.223  0.00  0.00     0.006 C 
ENDBRANCH   8   9
BRANCH   8  11
ATOM     11  C   LIG d   1      -0.345  92.469 118.218  0.00  0.00     0.028 C 
ATOM     12  C   LIG d   1      -0.184  91.244 117.304  0.00  0.00     0.006 C 
ENDBRANCH   8  11
ENDBRANCH   7   8
ENDBRANCH   1   7
BRANCH   6  13
ATOM     13  N   LIG d   1      -2.857  90.121 119.573  0.00  0.00    -0.311 N 
ATOM     14  C   LIG d   1      -1.837  89.797 120.366  0.00  0.00     0.210 C 
ATOM     15  C   LIG d   1      -1.295  88.376 120.175  0.00  0.00     0.109 C 
ATOM     16  O   LIG d   1      -1.350  90.539 121.232  0.00  0.00    -0.276 OA
ATOM     17  H   LIG d   1      -3.209  89.446 118.922  0.00  0.00     0.149 HD
ENDBRANCH   6  13
BRANCH   5  18
ATOM     18  N   LIG d   1      -4.462  91.250 121.914  0.00  0.00     0.381 N 
ATOM     19  H   LIG d   1      -4.620  92.089 122.436  0.00  0.00    -0.090 HD
ATOM     20  H   LIG d   1      -3.492  91.002 122.002  0.00  0.00    -0.090 HD
ATOM     21  H   LIG d   1      -5.034  90.516 122.270  0.00  0.00    -0.090 HD
ENDBRANCH   5  18
BRANCH   3  22
ATOM     22  C   LIG d   1      -6.735  94.086 118.796  0.00  0.00     0.382 C 
ATOM     23  O   LIG d   1      -7.754  93.629 118.224  0.00  0.00    -0.241 OA
ATOM     24  O   LIG d   1      -6.686  95.297 119.087  0.00  0.00    -0.241 OA
ENDBRANCH   3  22
TORSDOF 7
ENDMDL
MODEL 9
REMARK VINA RESULT:      -4.2     21.396     22.421
REMARK  7 active torsions:
REMARK  status: ('A' for Active; 'I' for Inactive)
REMARK    1  A    between atoms: C_2  and  C_3 
REMARK    2  A    between atoms: C_3  and  O_6 
REMARK    3  A    between atoms: C_3  and  C_4 
REMARK    4  A    between atoms: C_7  and  O_6 
REMARK    5  A    between atoms: C_9  and  C_10 
REMARK    6  A    between atoms: N_15  and  C_14 
REMARK    7  A    between atoms: N_20  and  C_19 
REMARK       I    between atoms: C_22  and  N_20 
ROOT
ATOM      1  C   LIG d   1      -6.323  81.555 118.297  0.00  0.00     0.161 C 
ATOM      2  C   LIG d   1      -7.701  81.319 118.435  0.00  0.00     0.016 C 
ATOM      3  C   LIG d   1      -8.289  80.040 118.297  0.00  0.00     0.038 C 
ATOM      4  C   LIG d   1      -7.515  78.879 118.160  0.00  0.00     0.028 C 
ATOM      5  C   LIG d   1      -6.157  79.129 117.511  0.00  0.00    -0.047 C 
ATOM      6  C   LIG d   1      -5.450  80.283 118.258  0.00  0.00     0.091 C 
ENDROOT
BRANCH   1   7
ATOM      7  O   LIG d   1      -5.872  82.440 119.341  0.00  0.00    -0.368 OA
BRANCH   7   8
ATOM      8  C   LIG d   1      -6.681  82.472 120.543  0.00  0.00     0.119 C 
BRANCH   8   9
ATOM      9  C   LIG d   1      -6.682  83.924 121.061  0.00  0.00     0.028 C 
ATOM     10  C   LIG d   1      -8.099  84.431 121.382  0.00  0.00     0.006 C 
ENDBRANCH   8   9
BRANCH   8  11
ATOM     11  C   LIG d   1      -6.047  81.643 121.663  0.00  0.00     0.028 C 
ATOM     12  C   LIG d   1      -6.693  80.257 121.817  0.00  0.00     0.006 C 
ENDBRANCH   8  11
ENDBRANCH   7   8
ENDBRANCH   1   7
BRANCH   6  13
ATOM     13  N   LIG d   1      -4.151  80.649 117.635  0.00  0.00    -0.311 N 
ATOM     14  C   LIG d   1      -3.024  80.805 118.328  0.00  0.00     0.210 C 
ATOM     15  C   LIG d   1      -1.802  81.202 117.493  0.00  0.00     0.109 C 
ATOM     16  O   LIG d   1      -2.913  80.620 119.549  0.00  0.00    -0.276 OA
ATOM     17  H   LIG d   1      -4.143  80.787 116.643  0.00  0.00     0.149 HD
ENDBRANCH   6  13
BRANCH   5  18
ATOM     18  N   LIG d   1      -5.402  77.863 117.556  0.00  0.00     0.381 N 
ATOM     19  H   LIG d   1      -4.483  78.003 117.185  0.00  0.00    -0.090 HD
ATOM     20  H   LIG d   1      -5.873  77.183 116.985  0.00  0.00    -0.090 HD
ATOM     21  H   LIG d   1      -5.342  77.534 118.495  0.00  0.00    -0.090 HD
ENDBRANCH   5  18
BRANCH   3  22
ATOM     22  C   LIG d   1      -9.670  79.920 118.255  0.00  0.00     0.382 C 
ATOM     23  O   LIG d   1     -10.208  78.802 118.440  0.00  0.00    -0.241 OA
ATOM     24  O   LIG d   1     -10.382  80.907 117.991  0.00  0.00    -0.241 OA
ENDBRANCH   3  22
TORSDOF 7
ENDMDL
