MODEL 1
REMARK VINA RESULT:      -5.6      0.000      0.000
REMARK  7 active torsions:
REMARK  status: ('A' for Active; 'I' for Inactive)
REMARK    1  A    between atoms: C_2  and  C_3 
REMARK    2  A    between atoms: C_3  and  O_6 
REMARK    3  A    between atoms: C_3  and  C_4 
REMARK    4  A    between atoms: C_7  and  O_6 
REMARK    5  A    between atoms: C_9  and  C_10 
REMARK    6  A    between atoms: N_15  and  C_14 
REMARK    7  A    between atoms: N_20  and  C_19 
REMARK       I    between atoms: C_22  and  N_20 
ROOT
ATOM      1  C   LIG d   1       0.372  58.305 119.111  0.00  0.00     0.161 C 
ATOM      2  C   LIG d   1      -0.575  59.290 118.788  0.00  0.00     0.016 C 
ATOM      3  C   LIG d   1      -1.718  59.040 117.994  0.00  0.00     0.038 C 
ATOM      4  C   LIG d   1      -2.073  57.743 117.593  0.00  0.00     0.028 C 
ATOM      5  C   LIG d   1      -0.881  56.800 117.469  0.00  0.00    -0.047 C 
ATOM      6  C   LIG d   1      -0.056  56.861 118.775  0.00  0.00     0.091 C 
ENDROOT
BRANCH   1   7
ATOM      7  O   LIG d   1       0.731  58.410 120.503  0.00  0.00    -0.368 OA
BRANCH   7   8
ATOM      8  C   LIG d   1      -0.325  58.827 121.403  0.00  0.00     0.119 C 
BRANCH   8   9
ATOM      9  C   LIG d   1       0.171  60.082 122.149  0.00  0.00     0.028 C 
ATOM     10  C   LIG d   1      -0.834  61.244 122.073  0.00  0.00     0.006 C 
ENDBRANCH   8   9
BRANCH   8  11
ATOM     11  C   LIG d   1      -0.574  57.780 122.493  0.00  0.00     0.028 C 
ATOM     12  C   LIG d   1       0.190  58.079 123.793  0.00  0.00     0.006 C 
ENDBRANCH   8  11
ENDBRANCH   7   8
ENDBRANCH   1   7
BRANCH   6  13
ATOM     13  N   LIG d   1       1.176  56.031 118.707  0.00  0.00    -0.311 N 
ATOM     14  C   LIG d   1       1.236  54.772 119.137  0.00  0.00     0.210 C 
ATOM     15  C   LIG d   1       2.607  54.104 118.992  0.00  0.00     0.109 C 
ATOM     16  O   LIG d   1       0.275  54.134 119.594  0.00  0.00    -0.276 OA
ATOM     17  H   LIG d   1       1.994  56.460 118.321  0.00  0.00     0.149 HD
ENDBRANCH   6  13
BRANCH   5  18
ATOM     18  N   LIG d   1      -1.406  55.453 117.180  0.00  0.00     0.381 N 
ATOM     19  H   LIG d   1      -2.248  55.525 116.645  0.00  0.00    -0.090 HD
ATOM     20  H   LIG d   1      -1.623  54.995 118.048  0.00  0.00    -0.090 HD
ATOM     21  H   LIG d   1      -0.729  54.923 116.677  0.00  0.00    -0.090 HD
ENDBRANCH   5  18
BRANCH   3  22
ATOM     22  C   LIG d   1      -2.499  60.100 117.560  0.00  0.00     0.382 C 
ATOM     23  O   LIG d   1      -3.687  59.901 117.207  0.00  0.00    -0.241 OA
ATOM     24  O   LIG d   1      -2.018  61.246 117.475  0.00  0.00    -0.241 OA
ENDBRANCH   3  22
TORSDOF 7
ENDMDL
MODEL 2
REMARK VINA RESULT:      -5.4      2.596      5.030
REMARK  7 active torsions:
REMARK  status: ('A' for Active; 'I' for Inactive)
REMARK    1  A    between atoms: C_2  and  C_3 
REMARK    2  A    between atoms: C_3  and  O_6 
REMARK    3  A    between atoms: C_3  and  C_4 
REMARK    4  A    between atoms: C_7  and  O_6 
REMARK    5  A    between atoms: C_9  and  C_10 
REMARK    6  A    between atoms: N_15  and  C_14 
REMARK    7  A    between atoms: N_20  and  C_19 
REMARK       I    between atoms: C_22  and  N_20 
ROOT
ATOM      1  C   LIG d   1      -0.406  59.635 120.763  0.00  0.00     0.161 C 
ATOM      2  C   LIG d   1       0.859  59.475 121.351  0.00  0.00     0.016 C 
ATOM      3  C   LIG d   1       1.989  58.995 120.649  0.00  0.00     0.038 C 
ATOM      4  C   LIG d   1       1.965  58.786 119.262  0.00  0.00     0.028 C 
ATOM      5  C   LIG d   1       0.578  58.453 118.723  0.00  0.00    -0.047 C 
ATOM      6  C   LIG d   1      -0.424  59.517 119.224  0.00  0.00     0.091 C 
ENDROOT
BRANCH   1   7
ATOM      7  O   LIG d   1      -0.981  60.891 121.175  0.00  0.00    -0.368 OA
BRANCH   7   8
ATOM      8  C   LIG d   1      -2.027  60.815 122.175  0.00  0.00     0.119 C 
BRANCH   8   9
ATOM      9  C   LIG d   1      -1.384  61.114 123.543  0.00  0.00     0.028 C 
ATOM     10  C   LIG d   1      -0.419  62.311 123.488  0.00  0.00     0.006 C 
ENDBRANCH   8   9
BRANCH   8  11
ATOM     11  C   LIG d   1      -2.585  59.393 122.292  0.00  0.00     0.028 C 
ATOM     12  C   LIG d   1      -3.326  59.150 123.616  0.00  0.00     0.006 C 
ENDBRANCH   8  11
ENDBRANCH   7   8
ENDBRANCH   1   7
BRANCH   6  13
ATOM     13  N   LIG d   1      -1.820  59.220 118.812  0.00  0.00    -0.311 N 
ATOM     14  C   LIG d   1      -2.518  59.989 117.978  0.00  0.00     0.210 C 
ATOM     15  C   LIG d   1      -3.947  59.512 117.700  0.00  0.00     0.109 C 
ATOM     16  O   LIG d   1      -2.079  61.004 117.417  0.00  0.00    -0.276 OA
ATOM     17  H   LIG d   1      -2.244  58.398 119.195  0.00  0.00     0.149 HD
ENDBRANCH   6  13
BRANCH   5  18
ATOM     18  N   LIG d   1       0.674  58.396 117.252  0.00  0.00     0.381 N 
ATOM     19  H   LIG d   1      -0.207  58.642 116.846  0.00  0.00    -0.090 HD
ATOM     20  H   LIG d   1       0.896  57.455 116.977  0.00  0.00    -0.090 HD
ATOM     21  H   LIG d   1       1.382  59.019 116.932  0.00  0.00    -0.090 HD
ENDBRANCH   5  18
BRANCH   3  22
ATOM     22  C   LIG d   1       3.148  58.683 121.343  0.00  0.00     0.382 C 
ATOM     23  O   LIG d   1       3.476  59.356 122.349  0.00  0.00    -0.241 OA
ATOM     24  O   LIG d   1       3.891  57.764 120.949  0.00  0.00    -0.241 OA
ENDBRANCH   3  22
TORSDOF 7
ENDMDL
MODEL 3
REMARK VINA RESULT:      -5.2      1.434      1.914
REMARK  7 active torsions:
REMARK  status: ('A' for Active; 'I' for Inactive)
REMARK    1  A    between atoms: C_2  and  C_3 
REMARK    2  A    between atoms: C_3  and  O_6 
REMARK    3  A    between atoms: C_3  and  C_4 
REMARK    4  A    between atoms: C_7  and  O_6 
REMARK    5  A    between atoms: C_9  and  C_10 
REMARK    6  A    between atoms: N_15  and  C_14 
REMARK    7  A    between atoms: N_20  and  C_19 
REMARK       I    between atoms: C_22  and  N_20 
ROOT
ATOM      1  C   LIG d   1       0.372  58.131 119.340  0.00  0.00     0.161 C 
ATOM      2  C   LIG d   1      -0.655  59.063 119.114  0.00  0.00     0.016 C 
ATOM      3  C   LIG d   1      -1.788  58.794 118.312  0.00  0.00     0.038 C 
ATOM      4  C   LIG d   1      -2.047  57.513 117.801  0.00  0.00     0.028 C 
ATOM      5  C   LIG d   1      -0.787  56.681 117.584  0.00  0.00    -0.047 C 
ATOM      6  C   LIG d   1       0.052  56.693 118.882  0.00  0.00     0.091 C 
ENDROOT
BRANCH   1   7
ATOM      7  O   LIG d   1       0.744  58.143 120.732  0.00  0.00    -0.368 OA
BRANCH   7   8
ATOM      8  C   LIG d   1       1.753  59.110 121.114  0.00  0.00     0.119 C 
BRANCH   8   9
ATOM      9  C   LIG d   1       3.126  58.420 120.994  0.00  0.00     0.028 C 
ATOM     10  C   LIG d   1       4.154  59.284 120.246  0.00  0.00     0.006 C 
ENDBRANCH   8   9
BRANCH   8  11
ATOM     11  C   LIG d   1       1.622  59.499 122.590  0.00  0.00     0.028 C 
ATOM     12  C   LIG d   1       0.175  59.415 123.101  0.00  0.00     0.006 C 
ENDBRANCH   8  11
ENDBRANCH   7   8
ENDBRANCH   1   7
BRANCH   6  13
ATOM     13  N   LIG d   1       1.343  55.972 118.729  0.00  0.00    -0.311 N 
ATOM     14  C   LIG d   1       1.768  55.042 119.582  0.00  0.00     0.210 C 
ATOM     15  C   LIG d   1       3.136  54.437 119.249  0.00  0.00     0.109 C 
ATOM     16  O   LIG d   1       1.129  54.637 120.564  0.00  0.00    -0.276 OA
ATOM     17  H   LIG d   1       1.911  56.216 117.941  0.00  0.00     0.149 HD
ENDBRANCH   6  13
BRANCH   5  18
ATOM     18  N   LIG d   1      -1.212  55.327 117.182  0.00  0.00     0.381 N 
ATOM     19  H   LIG d   1      -2.201  55.233 117.300  0.00  0.00    -0.090 HD
ATOM     20  H   LIG d   1      -0.758  54.655 117.774  0.00  0.00    -0.090 HD
ATOM     21  H   LIG d   1      -0.966  55.161 116.230  0.00  0.00    -0.090 HD
ENDBRANCH   5  18
BRANCH   3  22
ATOM     22  C   LIG d   1      -2.656  59.823 117.981  0.00  0.00     0.382 C 
ATOM     23  O   LIG d   1      -2.202  60.946 117.656  0.00  0.00    -0.241 OA
ATOM     24  O   LIG d   1      -3.889  59.655 118.046  0.00  0.00    -0.241 OA
ENDBRANCH   3  22
TORSDOF 7
ENDMDL
MODEL 4
REMARK VINA RESULT:      -5.2      2.341      3.024
REMARK  7 active torsions:
REMARK  status: ('A' for Active; 'I' for Inactive)
REMARK    1  A    between atoms: C_2  and  C_3 
REMARK    2  A    between atoms: C_3  and  O_6 
REMARK    3  A    between atoms: C_3  and  C_4 
REMARK    4  A    between atoms: C_7  and  O_6 
REMARK    5  A    between atoms: C_9  and  C_10 
REMARK    6  A    between atoms: N_15  and  C_14 
REMARK    7  A    between atoms: N_20  and  C_19 
REMARK       I    between atoms: C_22  and  N_20 
ROOT
ATOM      1  C   LIG d   1      -0.053  59.818 120.414  0.00  0.00     0.161 C 
ATOM      2  C   LIG d   1      -1.381  59.631 119.996  0.00  0.00     0.016 C 
ATOM      3  C   LIG d   1      -1.783  58.594 119.122  0.00  0.00     0.038 C 
ATOM      4  C   LIG d   1      -0.902  57.577 118.725  0.00  0.00     0.028 C 
ATOM      5  C   LIG d   1       0.560  58.011 118.716  0.00  0.00    -0.047 C 
ATOM      6  C   LIG d   1       0.901  58.653 120.080  0.00  0.00     0.091 C 
ENDROOT
BRANCH   1   7
ATOM      7  O   LIG d   1      -0.021  60.102 121.827  0.00  0.00    -0.368 OA
BRANCH   7   8
ATOM      8  C   LIG d   1      -1.141  60.857 122.351  0.00  0.00     0.119 C 
BRANCH   8   9
ATOM      9  C   LIG d   1      -0.591  62.196 122.879  0.00  0.00     0.028 C 
ATOM     10  C   LIG d   1       0.263  62.021 124.146  0.00  0.00     0.006 C 
ENDBRANCH   8   9
BRANCH   8  11
ATOM     11  C   LIG d   1      -1.759  60.165 123.570  0.00  0.00     0.028 C 
ATOM     12  C   LIG d   1      -3.280  59.985 123.445  0.00  0.00     0.006 C 
ENDBRANCH   8  11
ENDBRANCH   7   8
ENDBRANCH   1   7
BRANCH   6  13
ATOM     13  N   LIG d   1       2.289  59.182 120.126  0.00  0.00    -0.311 N 
ATOM     14  C   LIG d   1       3.327  58.478 120.577  0.00  0.00     0.210 C 
ATOM     15  C   LIG d   1       4.668  59.219 120.556  0.00  0.00     0.109 C 
ATOM     16  O   LIG d   1       3.269  57.301 120.962  0.00  0.00    -0.276 OA
ATOM     17  H   LIG d   1       2.432  60.118 119.803  0.00  0.00     0.149 HD
ENDBRANCH   6  13
BRANCH   5  18
ATOM     18  N   LIG d   1       1.376  56.819 118.417  0.00  0.00     0.381 N 
ATOM     19  H   LIG d   1       0.793  56.091 118.057  0.00  0.00    -0.090 HD
ATOM     20  H   LIG d   1       1.799  56.493 119.268  0.00  0.00    -0.090 HD
ATOM     21  H   LIG d   1       2.083  57.048 117.753  0.00  0.00    -0.090 HD
ENDBRANCH   5  18
BRANCH   3  22
ATOM     22  C   LIG d   1      -3.069  58.591 118.605  0.00  0.00     0.382 C 
ATOM     23  O   LIG d   1      -3.746  57.535 118.615  0.00  0.00    -0.241 OA
ATOM     24  O   LIG d   1      -3.545  59.620 118.089  0.00  0.00    -0.241 OA
ENDBRANCH   3  22
TORSDOF 7
ENDMDL
MODEL 5
REMARK VINA RESULT:      -5.1      3.070      5.763
REMARK  7 active torsions:
REMARK  status: ('A' for Active; 'I' for Inactive)
REMARK    1  A    between atoms: C_2  and  C_3 
REMARK    2  A    between atoms: C_3  and  O_6 
REMARK    3  A    between atoms: C_3  and  C_4 
REMARK    4  A    between atoms: C_7  and  O_6 
REMARK    5  A    between atoms: C_9  and  C_10 
REMARK    6  A    between atoms: N_15  and  C_14 
REMARK    7  A    between atoms: N_20  and  C_19 
REMARK       I    between atoms: C_22  and  N_20 
ROOT
ATOM      1  C   LIG d   1      -1.123  58.394 120.488  0.00  0.00     0.161 C 
ATOM      2  C   LIG d   1       0.109  58.604 119.848  0.00  0.00     0.016 C 
ATOM      3  C   LIG d   1       1.358  58.428 120.487  0.00  0.00     0.038 C 
ATOM      4  C   LIG d   1       1.461  57.880 121.775  0.00  0.00     0.028 C 
ATOM      5  C   LIG d   1       0.230  58.129 122.639  0.00  0.00    -0.047 C 
ATOM      6  C   LIG d   1      -1.029  57.690 121.858  0.00  0.00     0.091 C 
ENDROOT
BRANCH   1   7
ATOM      7  O   LIG d   1      -2.011  57.671 119.613  0.00  0.00    -0.368 OA
BRANCH   7   8
ATOM      8  C   LIG d   1      -3.178  58.394 119.149  0.00  0.00     0.119 C 
BRANCH   8   9
ATOM      9  C   LIG d   1      -3.407  58.006 117.675  0.00  0.00     0.028 C 
ATOM     10  C   LIG d   1      -2.431  56.918 117.196  0.00  0.00     0.006 C 
ENDBRANCH   8   9
BRANCH   8  11
ATOM     11  C   LIG d   1      -2.927  59.905 119.136  0.00  0.00     0.028 C 
ATOM     12  C   LIG d   1      -2.438  60.416 117.771  0.00  0.00     0.006 C 
ENDBRANCH   8  11
ENDBRANCH   7   8
ENDBRANCH   1   7
BRANCH   6  13
ATOM     13  N   LIG d   1      -2.285  57.977 122.599  0.00  0.00    -0.311 N 
ATOM     14  C   LIG d   1      -2.614  59.189 123.042  0.00  0.00     0.210 C 
ATOM     15  C   LIG d   1      -3.943  59.262 123.799  0.00  0.00     0.109 C 
ATOM     16  O   LIG d   1      -1.946  60.217 122.852  0.00  0.00    -0.276 OA
ATOM     17  H   LIG d   1      -2.901  57.206 122.769  0.00  0.00     0.149 HD
ENDBRANCH   6  13
BRANCH   5  18
ATOM     18  N   LIG d   1       0.415  57.389 123.902  0.00  0.00     0.381 N 
ATOM     19  H   LIG d   1       0.121  56.440 123.784  0.00  0.00    -0.090 HD
ATOM     20  H   LIG d   1      -0.157  57.810 124.612  0.00  0.00    -0.090 HD
ATOM     21  H   LIG d   1       1.372  57.417 124.176  0.00  0.00    -0.090 HD
ENDBRANCH   5  18
BRANCH   3  22
ATOM     22  C   LIG d   1       2.520  58.839 119.851  0.00  0.00     0.382 C 
ATOM     23  O   LIG d   1       2.562  58.896 118.599  0.00  0.00    -0.241 OA
ATOM     24  O   LIG d   1       3.540  59.111 120.513  0.00  0.00    -0.241 OA
ENDBRANCH   3  22
TORSDOF 7
ENDMDL
MODEL 6
REMARK VINA RESULT:      -4.9      2.804      4.446
REMARK  7 active torsions:
REMARK  status: ('A' for Active; 'I' for Inactive)
REMARK    1  A    between atoms: C_2  and  C_3 
REMARK    2  A    between atoms: C_3  and  O_6 
REMARK    3  A    between atoms: C_3  and  C_4 
REMARK    4  A    between atoms: C_7  and  O_6 
REMARK    5  A    between atoms: C_9  and  C_10 
REMARK    6  A    between atoms: N_15  and  C_14 
REMARK    7  A    between atoms: N_20  and  C_19 
REMARK       I    between atoms: C_22  and  N_20 
ROOT
ATOM      1  C   LIG d   1       0.005  58.775 119.885  0.00  0.00     0.161 C 
ATOM      2  C   LIG d   1      -1.056  58.489 119.010  0.00  0.00     0.016 C 
ATOM      3  C   LIG d   1      -2.344  59.059 119.136  0.00  0.00     0.038 C 
ATOM      4  C   LIG d   1      -2.617  60.076 120.061  0.00  0.00     0.028 C 
ATOM      5  C   LIG d   1      -1.718  60.033 121.292  0.00  0.00    -0.047 C 
ATOM      6  C   LIG d   1      -0.243  59.967 120.834  0.00  0.00     0.091 C 
ENDROOT
BRANCH   1   7
ATOM      7  O   LIG d   1       1.217  58.977 119.133  0.00  0.00    -0.368 OA
BRANCH   7   8
ATOM      8  C   LIG d   1       2.254  57.982 119.316  0.00  0.00     0.119 C 
BRANCH   8   9
ATOM      9  C   LIG d   1       1.627  56.794 120.071  0.00  0.00     0.028 C 
ATOM     10  C   LIG d   1       2.554  56.239 121.166  0.00  0.00     0.006 C 
ENDBRANCH   8   9
BRANCH   8  11
ATOM     11  C   LIG d   1       3.369  58.500 120.230  0.00  0.00     0.028 C 
ATOM     12  C   LIG d   1       4.337  59.451 119.508  0.00  0.00     0.006 C 
ENDBRANCH   8  11
ENDBRANCH   7   8
ENDBRANCH   1   7
BRANCH   6  13
ATOM     13  N   LIG d   1       0.700  59.837 121.975  0.00  0.00    -0.311 N 
ATOM     14  C   LIG d   1       0.604  58.884 122.900  0.00  0.00     0.210 C 
ATOM     15  C   LIG d   1       1.667  58.943 124.002  0.00  0.00     0.109 C 
ATOM     16  O   LIG d   1      -0.241  57.976 122.896  0.00  0.00    -0.276 OA
ATOM     17  H   LIG d   1       1.435  60.513 122.038  0.00  0.00     0.149 HD
ENDBRANCH   6  13
BRANCH   5  18
ATOM     18  N   LIG d   1      -2.017  61.227 122.105  0.00  0.00     0.381 N 
ATOM     19  H   LIG d   1      -2.733  61.012 122.771  0.00  0.00    -0.090 HD
ATOM     20  H   LIG d   1      -2.356  61.955 121.501  0.00  0.00    -0.090 HD
ATOM     21  H   LIG d   1      -1.195  61.533 122.577  0.00  0.00    -0.090 HD
ENDBRANCH   5  18
BRANCH   3  22
ATOM     22  C   LIG d   1      -3.386  58.581 118.355  0.00  0.00     0.382 C 
ATOM     23  O   LIG d   1      -4.128  59.385 117.740  0.00  0.00    -0.241 OA
ATOM     24  O   LIG d   1      -3.620  57.360 118.292  0.00  0.00    -0.241 OA
ENDBRANCH   3  22
TORSDOF 7
ENDMDL
MODEL 7
REMARK VINA RESULT:      -4.7      3.076      5.759
REMARK  7 active torsions:
REMARK  status: ('A' for Active; 'I' for Inactive)
REMARK    1  A    between atoms: C_2  and  C_3 
REMARK    2  A    between atoms: C_3  and  O_6 
REMARK    3  A    between atoms: C_3  and  C_4 
REMARK    4  A    between atoms: C_7  and  O_6 
REMARK    5  A    between atoms: C_9  and  C_10 
REMARK    6  A    between atoms: N_15  and  C_14 
REMARK    7  A    between atoms: N_20  and  C_19 
REMARK       I    between atoms: C_22  and  N_20 
ROOT
ATOM      1  C   LIG d   1      -0.309  60.140 121.138  0.00  0.00     0.161 C 
ATOM      2  C   LIG d   1       0.378  60.270 122.356  0.00  0.00     0.016 C 
ATOM      3  C   LIG d   1      -0.199  59.968 123.611  0.00  0.00     0.038 C 
ATOM      4  C   LIG d   1      -1.461  59.367 123.722  0.00  0.00     0.028 C 
ATOM      5  C   LIG d   1      -2.388  59.686 122.553  0.00  0.00    -0.047 C 
ATOM      6  C   LIG d   1      -1.650  59.381 121.230  0.00  0.00     0.091 C 
ENDROOT
BRANCH   1   7
ATOM      7  O   LIG d   1       0.548  59.525 120.156  0.00  0.00    -0.368 OA
BRANCH   7   8
ATOM      8  C   LIG d   1       0.669  58.083 120.229  0.00  0.00     0.119 C 
BRANCH   8   9
ATOM      9  C   LIG d   1       2.133  57.759 120.585  0.00  0.00     0.028 C 
ATOM     10  C   LIG d   1       3.106  58.856 120.123  0.00  0.00     0.006 C 
ENDBRANCH   8   9
BRANCH   8  11
ATOM     11  C   LIG d   1       0.432  57.434 118.862  0.00  0.00     0.028 C 
ATOM     12  C   LIG d   1       0.167  58.463 117.752  0.00  0.00     0.006 C 
ENDBRANCH   8  11
ENDBRANCH   7   8
ENDBRANCH   1   7
BRANCH   6  13
ATOM     13  N   LIG d   1      -2.455  59.744 120.035  0.00  0.00    -0.311 N 
ATOM     14  C   LIG d   1      -3.062  58.847 119.259  0.00  0.00     0.210 C 
ATOM     15  C   LIG d   1      -3.824  59.434 118.066  0.00  0.00     0.109 C 
ATOM     16  O   LIG d   1      -3.067  57.624 119.463  0.00  0.00    -0.276 OA
ATOM     17  H   LIG d   1      -2.529  60.718 119.813  0.00  0.00     0.149 HD
ENDBRANCH   6  13
BRANCH   5  18
ATOM     18  N   LIG d   1      -3.616  58.887 122.728  0.00  0.00     0.381 N 
ATOM     19  H   LIG d   1      -3.796  58.357 121.898  0.00  0.00    -0.090 HD
ATOM     20  H   LIG d   1      -4.390  59.510 122.878  0.00  0.00    -0.090 HD
ATOM     21  H   LIG d   1      -3.517  58.275 123.507  0.00  0.00    -0.090 HD
ENDBRANCH   5  18
BRANCH   3  22
ATOM     22  C   LIG d   1       0.475  60.304 124.776  0.00  0.00     0.382 C 
ATOM     23  O   LIG d   1      -0.133  60.889 125.705  0.00  0.00    -0.241 OA
ATOM     24  O   LIG d   1       1.693  60.070 124.891  0.00  0.00    -0.241 OA
ENDBRANCH   3  22
TORSDOF 7
ENDMDL
MODEL 8
REMARK VINA RESULT:      -4.6     23.753     26.388
REMARK  7 active torsions:
REMARK  status: ('A' for Active; 'I' for Inactive)
REMARK    1  A    between atoms: C_2  and  C_3 
REMARK    2  A    between atoms: C_3  and  O_6 
REMARK    3  A    between atoms: C_3  and  C_4 
REMARK    4  A    between atoms: C_7  and  O_6 
REMARK    5  A    between atoms: C_9  and  C_10 
REMARK    6  A    between atoms: N_15  and  C_14 
REMARK    7  A    between atoms: N_20  and  C_19 
REMARK       I    between atoms: C_22  and  N_20 
ROOT
ATOM      1  C   LIG d   1     -18.762  76.974 119.471  0.00  0.00     0.161 C 
ATOM      2  C   LIG d   1     -18.124  78.135 119.937  0.00  0.00     0.016 C 
ATOM      3  C   LIG d   1     -18.483  78.793 121.136  0.00  0.00     0.038 C 
ATOM      4  C   LIG d   1     -19.412  78.244 122.033  0.00  0.00     0.028 C 
ATOM      5  C   LIG d   1     -20.441  77.341 121.362  0.00  0.00    -0.047 C 
ATOM      6  C   LIG d   1     -19.703  76.299 120.491  0.00  0.00     0.091 C 
ENDROOT
BRANCH   1   7
ATOM      7  O   LIG d   1     -17.779  76.033 118.996  0.00  0.00    -0.368 OA
BRANCH   7   8
ATOM      8  C   LIG d   1     -17.252  75.111 119.981  0.00  0.00     0.119 C 
BRANCH   8   9
ATOM      9  C   LIG d   1     -15.739  75.376 120.101  0.00  0.00     0.028 C 
ATOM     10  C   LIG d   1     -15.322  75.764 121.529  0.00  0.00     0.006 C 
ENDBRANCH   8   9
BRANCH   8  11
ATOM     11  C   LIG d   1     -17.374  73.660 119.507  0.00  0.00     0.028 C 
ATOM     12  C   LIG d   1     -16.231  73.242 118.568  0.00  0.00     0.006 C 
ENDBRANCH   8  11
ENDBRANCH   7   8
ENDBRANCH   1   7
BRANCH   6  13
ATOM     13  N   LIG d   1     -20.638  75.429 119.733  0.00  0.00    -0.311 N 
ATOM     14  C   LIG d   1     -21.045  74.237 120.166  0.00  0.00     0.210 C 
ATOM     15  C   LIG d   1     -21.995  73.494 119.221  0.00  0.00     0.109 C 
ATOM     16  O   LIG d   1     -20.736  73.738 121.259  0.00  0.00    -0.276 OA
ATOM     17  H   LIG d   1     -20.964  75.769 118.849  0.00  0.00     0.149 HD
ENDBRANCH   6  13
BRANCH   5  18
ATOM     18  N   LIG d   1     -21.259  76.730 122.426  0.00  0.00     0.381 N 
ATOM     19  H   LIG d   1     -20.864  75.850 122.694  0.00  0.00    -0.090 HD
ATOM     20  H   LIG d   1     -22.185  76.565 122.071  0.00  0.00    -0.090 HD
ATOM     21  H   LIG d   1     -21.302  77.337 123.215  0.00  0.00    -0.090 HD
ENDBRANCH   5  18
BRANCH   3  22
ATOM     22  C   LIG d   1     -17.939  80.034 121.429  0.00  0.00     0.382 C 
ATOM     23  O   LIG d   1     -18.490  80.775 122.279  0.00  0.00    -0.241 OA
ATOM     24  O   LIG d   1     -16.931  80.441 120.821  0.00  0.00    -0.241 OA
ENDBRANCH   3  22
TORSDOF 7
ENDMDL
MODEL 9
REMARK VINA RESULT:      -4.6      2.546      5.534
REMARK  7 active torsions:
REMARK  status: ('A' for Active; 'I' for Inactive)
REMARK    1  A    between atoms: C_2  and  C_3 
REMARK    2  A    between atoms: C_3  and  O_6 
REMARK    3  A    between atoms: C_3  and  C_4 
REMARK    4  A    between atoms: C_7  and  O_6 
REMARK    5  A    between atoms: C_9  and  C_10 
REMARK    6  A    between atoms: N_15  and  C_14 
REMARK    7  A    between atoms: N_20  and  C_19 
REMARK       I    between atoms: C_22  and  N_20 
ROOT
ATOM      1  C   LIG d   1       0.957  57.916 119.014  0.00  0.00     0.161 C 
ATOM      2  C   LIG d   1       2.094  58.103 119.817  0.00  0.00     0.016 C 
ATOM      3  C   LIG d   1       2.100  58.903 120.983  0.00  0.00     0.038 C 
ATOM      4  C   LIG d   1       0.922  59.452 121.512  0.00  0.00     0.028 C 
ATOM      5  C   LIG d   1      -0.153  59.706 120.460  0.00  0.00    -0.047 C 
ATOM      6  C   LIG d   1      -0.364  58.416 119.636  0.00  0.00     0.091 C 
ENDROOT
BRANCH   1   7
ATOM      7  O   LIG d   1       0.843  56.527 118.645  0.00  0.00    -0.368 OA
BRANCH   7   8
ATOM      8  C   LIG d   1       1.553  55.584 119.485  0.00  0.00     0.119 C 
BRANCH   8   9
ATOM      9  C   LIG d   1       2.135  54.493 118.567  0.00  0.00     0.028 C 
ATOM     10  C   LIG d   1       1.058  53.825 117.694  0.00  0.00     0.006 C 
ENDBRANCH   8   9
BRANCH   8  11
ATOM     11  C   LIG d   1       0.597  54.851 120.432  0.00  0.00     0.028 C 
ATOM     12  C   LIG d   1       0.847  55.189 121.910  0.00  0.00     0.006 C 
ENDBRANCH   8  11
ENDBRANCH   7   8
ENDBRANCH   1   7
BRANCH   6  13
ATOM     13  N   LIG d   1      -1.339  58.603 118.530  0.00  0.00    -0.311 N 
ATOM     14  C   LIG d   1      -2.618  58.239 118.611  0.00  0.00     0.210 C 
ATOM     15  C   LIG d   1      -3.446  58.503 117.350  0.00  0.00     0.109 C 
ATOM     16  O   LIG d   1      -3.152  57.751 119.619  0.00  0.00    -0.276 OA
ATOM     17  H   LIG d   1      -0.998  59.020 117.686  0.00  0.00     0.149 HD
ENDBRANCH   6  13
BRANCH   5  18
ATOM     18  N   LIG d   1      -1.371  60.148 121.166  0.00  0.00     0.381 N 
ATOM     19  H   LIG d   1      -1.288  59.948 122.143  0.00  0.00    -0.090 HD
ATOM     20  H   LIG d   1      -2.158  59.638 120.805  0.00  0.00    -0.090 HD
ATOM     21  H   LIG d   1      -1.509  61.125 121.030  0.00  0.00    -0.090 HD
ENDBRANCH   5  18
BRANCH   3  22
ATOM     22  C   LIG d   1       3.301  59.194 121.611  0.00  0.00     0.382 C 
ATOM     23  O   LIG d   1       4.273  59.618 120.940  0.00  0.00    -0.241 OA
ATOM     24  O   LIG d   1       3.440  58.996 122.833  0.00  0.00    -0.241 OA
ENDBRANCH   3  22
TORSDOF 7
ENDMDL
