MODEL 1
REMARK VINA RESULT:      -4.7      0.000      0.000
REMARK  7 active torsions:
REMARK  status: ('A' for Active; 'I' for Inactive)
REMARK    1  A    between atoms: C_2  and  C_3 
REMARK    2  A    between atoms: C_3  and  O_6 
REMARK    3  A    between atoms: C_3  and  C_4 
REMARK    4  A    between atoms: C_7  and  O_6 
REMARK    5  A    between atoms: C_9  and  C_10 
REMARK    6  A    between atoms: N_15  and  C_14 
REMARK    7  A    between atoms: N_20  and  C_19 
REMARK       I    between atoms: C_22  and  N_20 
ROOT
ATOM      1  C   LIG d   1      -0.549  59.915 120.009  0.00  0.00     0.161 C 
ATOM      2  C   LIG d   1       0.425  59.552 119.064  0.00  0.00     0.016 C 
ATOM      3  C   LIG d   1       1.783  59.333 119.391  0.00  0.00     0.038 C 
ATOM      4  C   LIG d   1       2.232  59.316 120.719  0.00  0.00     0.028 C 
ATOM      5  C   LIG d   1       1.388  60.174 121.656  0.00  0.00    -0.047 C 
ATOM      6  C   LIG d   1      -0.100  59.793 121.480  0.00  0.00     0.091 C 
ENDROOT
BRANCH   1   7
ATOM      7  O   LIG d   1      -1.753  59.154 119.788  0.00  0.00    -0.368 OA
BRANCH   7   8
ATOM      8  C   LIG d   1      -1.618  57.974 118.959  0.00  0.00     0.119 C 
BRANCH   8   9
ATOM      9  C   LIG d   1      -2.764  57.998 117.930  0.00  0.00     0.028 C 
ATOM     10  C   LIG d   1      -3.172  56.587 117.473  0.00  0.00     0.006 C 
ENDBRANCH   8   9
BRANCH   8  11
ATOM     11  C   LIG d   1      -1.829  56.694 119.773  0.00  0.00     0.028 C 
ATOM     12  C   LIG d   1      -0.511  56.078 120.267  0.00  0.00     0.006 C 
ENDBRANCH   8  11
ENDBRANCH   7   8
ENDBRANCH   1   7
BRANCH   6  13
ATOM     13  N   LIG d   1      -1.003  60.643 122.299  0.00  0.00    -0.311 N 
ATOM     14  C   LIG d   1      -1.362  60.343 123.546  0.00  0.00     0.210 C 
ATOM     15  C   LIG d   1      -2.316  61.345 124.203  0.00  0.00     0.109 C 
ATOM     16  O   LIG d   1      -0.955  59.359 124.182  0.00  0.00    -0.276 OA
ATOM     17  H   LIG d   1      -1.355  61.477 121.872  0.00  0.00     0.149 HD
ENDBRANCH   6  13
BRANCH   5  18
ATOM     18  N   LIG d   1       1.883  59.956 123.028  0.00  0.00     0.381 N 
ATOM     19  H   LIG d   1       1.240  60.347 123.686  0.00  0.00    -0.090 HD
ATOM     20  H   LIG d   1       2.766  60.424 123.133  0.00  0.00    -0.090 HD
ATOM     21  H   LIG d   1       1.994  58.981 123.200  0.00  0.00    -0.090 HD
ENDBRANCH   5  18
BRANCH   3  22
ATOM     22  C   LIG d   1       2.715  59.168 118.378  0.00  0.00     0.382 C 
ATOM     23  O   LIG d   1       2.333  58.926 117.207  0.00  0.00    -0.241 OA
ATOM     24  O   LIG d   1       3.934  59.214 118.628  0.00  0.00    -0.241 OA
ENDBRANCH   3  22
TORSDOF 7
ENDMDL
MODEL 2
REMARK VINA RESULT:      -4.6     12.502     15.076
REMARK  7 active torsions:
REMARK  status: ('A' for Active; 'I' for Inactive)
REMARK    1  A    between atoms: C_2  and  C_3 
REMARK    2  A    between atoms: C_3  and  O_6 
REMARK    3  A    between atoms: C_3  and  C_4 
REMARK    4  A    between atoms: C_7  and  O_6 
REMARK    5  A    between atoms: C_9  and  C_10 
REMARK    6  A    between atoms: N_15  and  C_14 
REMARK    7  A    between atoms: N_20  and  C_19 
REMARK       I    between atoms: C_22  and  N_20 
ROOT
ATOM      1  C   LIG d   1     -13.711  64.445 121.302  0.00  0.00     0.161 C 
ATOM      2  C   LIG d   1     -12.539  64.345 122.072  0.00  0.00     0.016 C 
ATOM      3  C   LIG d   1     -11.459  63.498 121.737  0.00  0.00     0.038 C 
ATOM      4  C   LIG d   1     -11.412  62.800 120.521  0.00  0.00     0.028 C 
ATOM      5  C   LIG d   1     -12.791  62.479 119.954  0.00  0.00    -0.047 C 
ATOM      6  C   LIG d   1     -13.632  63.775 119.915  0.00  0.00     0.091 C 
ENDROOT
BRANCH   1   7
ATOM      7  O   LIG d   1     -14.092  65.829 121.170  0.00  0.00    -0.368 OA
BRANCH   7   8
ATOM      8  C   LIG d   1     -13.538  66.537 120.034  0.00  0.00     0.119 C 
BRANCH   8   9
ATOM      9  C   LIG d   1     -12.746  67.740 120.580  0.00  0.00     0.028 C 
ATOM     10  C   LIG d   1     -13.105  68.066 122.040  0.00  0.00     0.006 C 
ENDBRANCH   8   9
BRANCH   8  11
ATOM     11  C   LIG d   1     -14.642  67.140 119.161  0.00  0.00     0.028 C 
ATOM     12  C   LIG d   1     -16.024  67.097 119.834  0.00  0.00     0.006 C 
ENDBRANCH   8  11
ENDBRANCH   7   8
ENDBRANCH   1   7
BRANCH   6  13
ATOM     13  N   LIG d   1     -15.023  63.535 119.451  0.00  0.00    -0.311 N 
ATOM     14  C   LIG d   1     -15.412  63.688 118.187  0.00  0.00     0.210 C 
ATOM     15  C   LIG d   1     -16.895  63.408 117.927  0.00  0.00     0.109 C 
ATOM     16  O   LIG d   1     -14.661  63.999 117.249  0.00  0.00    -0.276 OA
ATOM     17  H   LIG d   1     -15.691  63.250 120.141  0.00  0.00     0.149 HD
ENDBRANCH   6  13
BRANCH   5  18
ATOM     18  N   LIG d   1     -12.596  61.875 118.623  0.00  0.00     0.381 N 
ATOM     19  H   LIG d   1     -12.939  62.495 117.916  0.00  0.00    -0.090 HD
ATOM     20  H   LIG d   1     -13.121  61.020 118.573  0.00  0.00    -0.090 HD
ATOM     21  H   LIG d   1     -11.629  61.689 118.471  0.00  0.00    -0.090 HD
ENDBRANCH   5  18
BRANCH   3  22
ATOM     22  C   LIG d   1     -10.426  63.310 122.644  0.00  0.00     0.382 C 
ATOM     23  O   LIG d   1      -9.555  62.433 122.430  0.00  0.00    -0.241 OA
ATOM     24  O   LIG d   1     -10.379  63.978 123.695  0.00  0.00    -0.241 OA
ENDBRANCH   3  22
TORSDOF 7
ENDMDL
MODEL 3
REMARK VINA RESULT:      -4.6      2.416      4.707
REMARK  7 active torsions:
REMARK  status: ('A' for Active; 'I' for Inactive)
REMARK    1  A    between atoms: C_2  and  C_3 
REMARK    2  A    between atoms: C_3  and  O_6 
REMARK    3  A    between atoms: C_3  and  C_4 
REMARK    4  A    between atoms: C_7  and  O_6 
REMARK    5  A    between atoms: C_9  and  C_10 
REMARK    6  A    between atoms: N_15  and  C_14 
REMARK    7  A    between atoms: N_20  and  C_19 
REMARK       I    between atoms: C_22  and  N_20 
ROOT
ATOM      1  C   LIG d   1       1.027  59.586 120.806  0.00  0.00     0.161 C 
ATOM      2  C   LIG d   1       2.372  59.641 121.211  0.00  0.00     0.016 C 
ATOM      3  C   LIG d   1       3.455  59.328 120.357  0.00  0.00     0.038 C 
ATOM      4  C   LIG d   1       3.273  59.084 118.988  0.00  0.00     0.028 C 
ATOM      5  C   LIG d   1       1.895  58.524 118.650  0.00  0.00    -0.047 C 
ATOM      6  C   LIG d   1       0.816  59.430 119.285  0.00  0.00     0.091 C 
ENDROOT
BRANCH   1   7
ATOM      7  O   LIG d   1       0.323  60.745 121.293  0.00  0.00    -0.368 OA
BRANCH   7   8
ATOM      8  C   LIG d   1      -0.852  60.485 122.100  0.00  0.00     0.119 C 
BRANCH   8   9
ATOM      9  C   LIG d   1      -0.781  61.407 123.332  0.00  0.00     0.028 C 
ATOM     10  C   LIG d   1      -0.253  62.809 122.986  0.00  0.00     0.006 C 
ENDBRANCH   8   9
BRANCH   8  11
ATOM     11  C   LIG d   1      -0.839  59.059 122.659  0.00  0.00     0.028 C 
ATOM     12  C   LIG d   1      -0.385  58.999 124.127  0.00  0.00     0.006 C 
ENDBRANCH   8  11
ENDBRANCH   7   8
ENDBRANCH   1   7
BRANCH   6  13
ATOM     13  N   LIG d   1      -0.559  58.907 119.074  0.00  0.00    -0.311 N 
ATOM     14  C   LIG d   1      -1.345  59.295 118.072  0.00  0.00     0.210 C 
ATOM     15  C   LIG d   1      -2.733  58.646 118.049  0.00  0.00     0.109 C 
ATOM     16  O   LIG d   1      -1.014  60.091 117.181  0.00  0.00    -0.276 OA
ATOM     17  H   LIG d   1      -0.897  58.233 119.733  0.00  0.00     0.149 HD
ENDBRANCH   6  13
BRANCH   5  18
ATOM     18  N   LIG d   1       1.794  58.447 117.180  0.00  0.00     0.381 N 
ATOM     19  H   LIG d   1       2.191  57.588 116.858  0.00  0.00    -0.090 HD
ATOM     20  H   LIG d   1       2.315  59.207 116.778  0.00  0.00    -0.090 HD
ATOM     21  H   LIG d   1       0.839  58.506 116.901  0.00  0.00    -0.090 HD
ENDBRANCH   5  18
BRANCH   3  22
ATOM     22  C   LIG d   1       4.733  59.218 120.882  0.00  0.00     0.382 C 
ATOM     23  O   LIG d   1       5.675  58.815 120.158  0.00  0.00    -0.241 OA
ATOM     24  O   LIG d   1       4.948  59.476 122.081  0.00  0.00    -0.241 OA
ENDBRANCH   3  22
TORSDOF 7
ENDMDL
MODEL 4
REMARK VINA RESULT:      -4.4     21.940     24.119
REMARK  7 active torsions:
REMARK  status: ('A' for Active; 'I' for Inactive)
REMARK    1  A    between atoms: C_2  and  C_3 
REMARK    2  A    between atoms: C_3  and  O_6 
REMARK    3  A    between atoms: C_3  and  C_4 
REMARK    4  A    between atoms: C_7  and  O_6 
REMARK    5  A    between atoms: C_9  and  C_10 
REMARK    6  A    between atoms: N_15  and  C_14 
REMARK    7  A    between atoms: N_20  and  C_19 
REMARK       I    between atoms: C_22  and  N_20 
ROOT
ATOM      1  C   LIG d   1      -9.383  81.303 118.229  0.00  0.00     0.161 C 
ATOM      2  C   LIG d   1      -9.379  82.615 118.731  0.00  0.00     0.016 C 
ATOM      3  C   LIG d   1      -9.719  82.940 120.064  0.00  0.00     0.038 C 
ATOM      4  C   LIG d   1      -9.943  81.951 121.034  0.00  0.00     0.028 C 
ATOM      5  C   LIG d   1     -10.452  80.636 120.452  0.00  0.00    -0.047 C 
ATOM      6  C   LIG d   1      -9.516  80.201 119.301  0.00  0.00     0.091 C 
ENDROOT
BRANCH   1   7
ATOM      7  O   LIG d   1      -8.206  81.083 117.427  0.00  0.00    -0.368 OA
BRANCH   7   8
ATOM      8  C   LIG d   1      -7.013  80.681 118.144  0.00  0.00     0.119 C 
BRANCH   8   9
ATOM      9  C   LIG d   1      -5.932  81.747 117.879  0.00  0.00     0.028 C 
ATOM     10  C   LIG d   1      -5.705  82.666 119.092  0.00  0.00     0.006 C 
ENDBRANCH   8   9
BRANCH   8  11
ATOM     11  C   LIG d   1      -6.440  79.375 117.585  0.00  0.00     0.028 C 
ATOM     12  C   LIG d   1      -4.934  79.463 117.291  0.00  0.00     0.006 C 
ENDBRANCH   8  11
ENDBRANCH   7   8
ENDBRANCH   1   7
BRANCH   6  13
ATOM     13  N   LIG d   1      -9.990  78.967 118.621  0.00  0.00    -0.311 N 
ATOM     14  C   LIG d   1      -9.542  77.749 118.918  0.00  0.00     0.210 C 
ATOM     15  C   LIG d   1     -10.148  76.616 118.083  0.00  0.00     0.109 C 
ATOM     16  O   LIG d   1      -8.724  77.495 119.815  0.00  0.00    -0.276 OA
ATOM     17  H   LIG d   1     -10.677  79.078 117.901  0.00  0.00     0.149 HD
ENDBRANCH   6  13
BRANCH   5  18
ATOM     18  N   LIG d   1     -10.510  79.655 121.552  0.00  0.00     0.381 N 
ATOM     19  H   LIG d   1     -10.306  78.740 121.201  0.00  0.00    -0.090 HD
ATOM     20  H   LIG d   1     -11.440  79.647 121.931  0.00  0.00    -0.090 HD
ATOM     21  H   LIG d   1      -9.855  79.900 122.262  0.00  0.00    -0.090 HD
ENDBRANCH   5  18
BRANCH   3  22
ATOM     22  C   LIG d   1      -9.878  84.268 120.429  0.00  0.00     0.382 C 
ATOM     23  O   LIG d   1      -8.874  84.965 120.711  0.00  0.00    -0.241 OA
ATOM     24  O   LIG d   1     -11.016  84.765 120.523  0.00  0.00    -0.241 OA
ENDBRANCH   3  22
TORSDOF 7
ENDMDL
MODEL 5
REMARK VINA RESULT:      -4.3     22.823     25.016
REMARK  7 active torsions:
REMARK  status: ('A' for Active; 'I' for Inactive)
REMARK    1  A    between atoms: C_2  and  C_3 
REMARK    2  A    between atoms: C_3  and  O_6 
REMARK    3  A    between atoms: C_3  and  C_4 
REMARK    4  A    between atoms: C_7  and  O_6 
REMARK    5  A    between atoms: C_9  and  C_10 
REMARK    6  A    between atoms: N_15  and  C_14 
REMARK    7  A    between atoms: N_20  and  C_19 
REMARK       I    between atoms: C_22  and  N_20 
ROOT
ATOM      1  C   LIG d   1      -7.659  82.304 119.568  0.00  0.00     0.161 C 
ATOM      2  C   LIG d   1      -7.847  80.943 119.274  0.00  0.00     0.016 C 
ATOM      3  C   LIG d   1      -9.046  80.421 118.735  0.00  0.00     0.038 C 
ATOM      4  C   LIG d   1     -10.091  81.254 118.309  0.00  0.00     0.028 C 
ATOM      5  C   LIG d   1     -10.146  82.586 119.051  0.00  0.00    -0.047 C 
ATOM      6  C   LIG d   1      -8.747  83.243 119.006  0.00  0.00     0.091 C 
ENDROOT
BRANCH   1   7
ATOM      7  O   LIG d   1      -6.355  82.724 119.121  0.00  0.00    -0.368 OA
BRANCH   7   8
ATOM      8  C   LIG d   1      -5.279  82.596 120.083  0.00  0.00     0.119 C 
BRANCH   8   9
ATOM      9  C   LIG d   1      -5.354  83.812 121.026  0.00  0.00     0.028 C 
ATOM     10  C   LIG d   1      -5.679  83.412 122.475  0.00  0.00     0.006 C 
ENDBRANCH   8   9
BRANCH   8  11
ATOM     11  C   LIG d   1      -3.910  82.693 119.404  0.00  0.00     0.028 C 
ATOM     12  C   LIG d   1      -3.917  82.145 117.968  0.00  0.00     0.006 C 
ENDBRANCH   8  11
ENDBRANCH   7   8
ENDBRANCH   1   7
BRANCH   6  13
ATOM     13  N   LIG d   1      -8.691  84.510 119.781  0.00  0.00    -0.311 N 
ATOM     14  C   LIG d   1      -8.977  84.588 121.080  0.00  0.00     0.210 C 
ATOM     15  C   LIG d   1      -8.877  85.994 121.680  0.00  0.00     0.109 C 
ATOM     16  O   LIG d   1      -9.274  83.622 121.798  0.00  0.00    -0.276 OA
ATOM     17  H   LIG d   1      -8.430  85.338 119.283  0.00  0.00     0.149 HD
ENDBRANCH   6  13
BRANCH   5  18
ATOM     18  N   LIG d   1     -11.192  83.408 118.414  0.00  0.00     0.381 N 
ATOM     19  H   LIG d   1     -11.087  84.364 118.692  0.00  0.00    -0.090 HD
ATOM     20  H   LIG d   1     -12.092  83.087 118.725  0.00  0.00    -0.090 HD
ATOM     21  H   LIG d   1     -11.128  83.333 117.423  0.00  0.00    -0.090 HD
ENDBRANCH   5  18
BRANCH   3  22
ATOM     22  C   LIG d   1      -9.223  79.049 118.654  0.00  0.00     0.382 C 
ATOM     23  O   LIG d   1      -8.229  78.284 118.697  0.00  0.00    -0.241 OA
ATOM     24  O   LIG d   1     -10.361  78.567 118.494  0.00  0.00    -0.241 OA
ENDBRANCH   3  22
TORSDOF 7
ENDMDL
MODEL 6
REMARK VINA RESULT:      -4.2     25.876     28.200
REMARK  7 active torsions:
REMARK  status: ('A' for Active; 'I' for Inactive)
REMARK    1  A    between atoms: C_2  and  C_3 
REMARK    2  A    between atoms: C_3  and  O_6 
REMARK    3  A    between atoms: C_3  and  C_4 
REMARK    4  A    between atoms: C_7  and  O_6 
REMARK    5  A    between atoms: C_9  and  C_10 
REMARK    6  A    between atoms: N_15  and  C_14 
REMARK    7  A    between atoms: N_20  and  C_19 
REMARK       I    between atoms: C_22  and  N_20 
ROOT
ATOM      1  C   LIG d   1      -9.497  84.874 121.336  0.00  0.00     0.161 C 
ATOM      2  C   LIG d   1     -10.860  85.188 121.198  0.00  0.00     0.016 C 
ATOM      3  C   LIG d   1     -11.469  86.300 121.822  0.00  0.00     0.038 C 
ATOM      4  C   LIG d   1     -10.720  87.267 122.510  0.00  0.00     0.028 C 
ATOM      5  C   LIG d   1      -9.424  86.722 123.099  0.00  0.00    -0.047 C 
ATOM      6  C   LIG d   1      -8.642  85.979 121.992  0.00  0.00     0.091 C 
ENDROOT
BRANCH   1   7
ATOM      7  O   LIG d   1      -8.947  84.509 120.055  0.00  0.00    -0.368 OA
BRANCH   7   8
ATOM      8  C   LIG d   1      -9.022  83.105 119.706  0.00  0.00     0.119 C 
BRANCH   8   9
ATOM      9  C   LIG d   1      -7.624  82.497 119.934  0.00  0.00     0.028 C 
ATOM     10  C   LIG d   1      -6.493  83.485 119.606  0.00  0.00     0.006 C 
ENDBRANCH   8   9
BRANCH   8  11
ATOM     11  C   LIG d   1      -9.307  82.916 118.213  0.00  0.00     0.028 C 
ATOM     12  C   LIG d   1     -10.607  82.142 117.948  0.00  0.00     0.006 C 
ENDBRANCH   8  11
ENDBRANCH   7   8
ENDBRANCH   1   7
BRANCH   6  13
ATOM     13  N   LIG d   1      -7.401  85.343 122.503  0.00  0.00    -0.311 N 
ATOM     14  C   LIG d   1      -6.220  85.959 122.534  0.00  0.00     0.210 C 
ATOM     15  C   LIG d   1      -5.065  85.115 123.082  0.00  0.00     0.109 C 
ATOM     16  O   LIG d   1      -6.027  87.135 122.190  0.00  0.00    -0.276 OA
ATOM     17  H   LIG d   1      -7.473  84.399 122.831  0.00  0.00     0.149 HD
ENDBRANCH   6  13
BRANCH   5  18
ATOM     18  N   LIG d   1      -8.679  87.862 123.667  0.00  0.00     0.381 N 
ATOM     19  H   LIG d   1      -8.074  88.251 122.972  0.00  0.00    -0.090 HD
ATOM     20  H   LIG d   1      -8.112  87.533 124.429  0.00  0.00    -0.090 HD
ATOM     21  H   LIG d   1      -9.314  88.557 123.992  0.00  0.00    -0.090 HD
ENDBRANCH   5  18
BRANCH   3  22
ATOM     22  C   LIG d   1     -12.849  86.432 121.796  0.00  0.00     0.382 C 
ATOM     23  O   LIG d   1     -13.452  86.918 122.783  0.00  0.00    -0.241 OA
ATOM     24  O   LIG d   1     -13.503  86.032 120.814  0.00  0.00    -0.241 OA
ENDBRANCH   3  22
TORSDOF 7
ENDMDL
MODEL 7
REMARK VINA RESULT:      -4.1     24.548     27.043
REMARK  7 active torsions:
REMARK  status: ('A' for Active; 'I' for Inactive)
REMARK    1  A    between atoms: C_2  and  C_3 
REMARK    2  A    between atoms: C_3  and  O_6 
REMARK    3  A    between atoms: C_3  and  C_4 
REMARK    4  A    between atoms: C_7  and  O_6 
REMARK    5  A    between atoms: C_9  and  C_10 
REMARK    6  A    between atoms: N_15  and  C_14 
REMARK    7  A    between atoms: N_20  and  C_19 
REMARK       I    between atoms: C_22  and  N_20 
ROOT
ATOM      1  C   LIG d   1      -8.326  84.428 120.603  0.00  0.00     0.161 C 
ATOM      2  C   LIG d   1      -9.271  85.191 121.309  0.00  0.00     0.016 C 
ATOM      3  C   LIG d   1     -10.663  85.117 121.076  0.00  0.00     0.038 C 
ATOM      4  C   LIG d   1     -11.221  84.156 120.219  0.00  0.00     0.028 C 
ATOM      5  C   LIG d   1     -10.273  83.709 119.112  0.00  0.00    -0.047 C 
ATOM      6  C   LIG d   1      -8.924  83.294 119.743  0.00  0.00     0.091 C 
ENDROOT
BRANCH   1   7
ATOM      7  O   LIG d   1      -7.344  83.899 121.516  0.00  0.00    -0.368 OA
BRANCH   7   8
ATOM      8  C   LIG d   1      -6.006  84.440 121.395  0.00  0.00     0.119 C 
BRANCH   8   9
ATOM      9  C   LIG d   1      -5.020  83.258 121.472  0.00  0.00     0.028 C 
ATOM     10  C   LIG d   1      -4.124  83.159 120.226  0.00  0.00     0.006 C 
ENDBRANCH   8   9
BRANCH   8  11
ATOM     11  C   LIG d   1      -5.657  85.336 122.587  0.00  0.00     0.028 C 
ATOM     12  C   LIG d   1      -6.080  86.799 122.377  0.00  0.00     0.006 C 
ENDBRANCH   8  11
ENDBRANCH   7   8
ENDBRANCH   1   7
BRANCH   6  13
ATOM     13  N   LIG d   1      -7.910  82.923 118.722  0.00  0.00    -0.311 N 
ATOM     14  C   LIG d   1      -7.263  81.759 118.720  0.00  0.00     0.210 C 
ATOM     15  C   LIG d   1      -6.245  81.586 117.589  0.00  0.00     0.109 C 
ATOM     16  O   LIG d   1      -7.460  80.840 119.530  0.00  0.00    -0.276 OA
ATOM     17  H   LIG d   1      -7.712  83.598 118.009  0.00  0.00     0.149 HD
ENDBRANCH   6  13
BRANCH   5  18
ATOM     18  N   LIG d   1     -10.930  82.610 118.379  0.00  0.00     0.381 N 
ATOM     19  H   LIG d   1     -11.919  82.652 118.521  0.00  0.00    -0.090 HD
ATOM     20  H   LIG d   1     -10.597  81.733 118.741  0.00  0.00    -0.090 HD
ATOM     21  H   LIG d   1     -10.723  82.676 117.407  0.00  0.00    -0.090 HD
ENDBRANCH   5  18
BRANCH   3  22
ATOM     22  C   LIG d   1     -11.511  86.037 121.674  0.00  0.00     0.382 C 
ATOM     23  O   LIG d   1     -11.039  87.072 122.203  0.00  0.00    -0.241 OA
ATOM     24  O   LIG d   1     -12.737  85.824 121.729  0.00  0.00    -0.241 OA
ENDBRANCH   3  22
TORSDOF 7
ENDMDL
MODEL 8
REMARK VINA RESULT:      -4.1     35.730     37.780
REMARK  7 active torsions:
REMARK  status: ('A' for Active; 'I' for Inactive)
REMARK    1  A    between atoms: C_2  and  C_3 
REMARK    2  A    between atoms: C_3  and  O_6 
REMARK    3  A    between atoms: C_3  and  C_4 
REMARK    4  A    between atoms: C_7  and  O_6 
REMARK    5  A    between atoms: C_9  and  C_10 
REMARK    6  A    between atoms: N_15  and  C_14 
REMARK    7  A    between atoms: N_20  and  C_19 
REMARK       I    between atoms: C_22  and  N_20 
ROOT
ATOM      1  C   LIG d   1      -5.941  96.079 120.451  0.00  0.00     0.161 C 
ATOM      2  C   LIG d   1      -7.036  95.222 120.651  0.00  0.00     0.016 C 
ATOM      3  C   LIG d   1      -8.356  95.541 120.256  0.00  0.00     0.038 C 
ATOM      4  C   LIG d   1      -8.646  96.682 119.493  0.00  0.00     0.028 C 
ATOM      5  C   LIG d   1      -7.654  97.821 119.705  0.00  0.00    -0.047 C 
ATOM      6  C   LIG d   1      -6.219  97.278 119.521  0.00  0.00     0.091 C 
ENDROOT
BRANCH   1   7
ATOM      7  O   LIG d   1      -4.812  95.323 119.969  0.00  0.00    -0.368 OA
BRANCH   7   8
ATOM      8  C   LIG d   1      -4.777  93.923 120.339  0.00  0.00     0.119 C 
BRANCH   8   9
ATOM      9  C   LIG d   1      -3.755  93.770 121.482  0.00  0.00     0.028 C 
ATOM     10  C   LIG d   1      -4.429  93.547 122.847  0.00  0.00     0.006 C 
ENDBRANCH   8   9
BRANCH   8  11
ATOM     11  C   LIG d   1      -4.239  93.057 119.196  0.00  0.00     0.028 C 
ATOM     12  C   LIG d   1      -2.851  92.470 119.496  0.00  0.00     0.006 C 
ENDBRANCH   8  11
ENDBRANCH   7   8
ENDBRANCH   1   7
BRANCH   6  13
ATOM     13  N   LIG d   1      -5.184  98.308 119.793  0.00  0.00    -0.311 N 
ATOM     14  C   LIG d   1      -4.625  99.056 118.843  0.00  0.00     0.210 C 
ATOM     15  C   LIG d   1      -3.564 100.044 119.338  0.00  0.00     0.109 C 
ATOM     16  O   LIG d   1      -4.930  99.017 117.642  0.00  0.00    -0.276 OA
ATOM     17  H   LIG d   1      -4.899  98.428 120.746  0.00  0.00     0.149 HD
ENDBRANCH   6  13
BRANCH   5  18
ATOM     18  N   LIG d   1      -7.995  98.892 118.750  0.00  0.00     0.381 N 
ATOM     19  H   LIG d   1      -8.728  99.460 119.124  0.00  0.00    -0.090 HD
ATOM     20  H   LIG d   1      -8.324  98.474 117.897  0.00  0.00    -0.090 HD
ATOM     21  H   LIG d   1      -7.192  99.453 118.565  0.00  0.00    -0.090 HD
ENDBRANCH   5  18
BRANCH   3  22
ATOM     22  C   LIG d   1      -9.408  94.734 120.660  0.00  0.00     0.382 C 
ATOM     23  O   LIG d   1     -10.193  94.253 119.807  0.00  0.00    -0.241 OA
ATOM     24  O   LIG d   1      -9.609  94.516 121.870  0.00  0.00    -0.241 OA
ENDBRANCH   3  22
TORSDOF 7
ENDMDL
MODEL 9
REMARK VINA RESULT:      -4.1     22.424     24.590
REMARK  7 active torsions:
REMARK  status: ('A' for Active; 'I' for Inactive)
REMARK    1  A    between atoms: C_2  and  C_3 
REMARK    2  A    between atoms: C_3  and  O_6 
REMARK    3  A    between atoms: C_3  and  C_4 
REMARK    4  A    between atoms: C_7  and  O_6 
REMARK    5  A    between atoms: C_9  and  C_10 
REMARK    6  A    between atoms: N_15  and  C_14 
REMARK    7  A    between atoms: N_20  and  C_19 
REMARK       I    between atoms: C_22  and  N_20 
ROOT
ATOM      1  C   LIG d   1     -10.165  81.130 119.950  0.00  0.00     0.161 C 
ATOM      2  C   LIG d   1      -9.334  80.201 119.300  0.00  0.00     0.016 C 
ATOM      3  C   LIG d   1      -8.128  80.556 118.653  0.00  0.00     0.038 C 
ATOM      4  C   LIG d   1      -7.591  81.849 118.742  0.00  0.00     0.028 C 
ATOM      5  C   LIG d   1      -8.646  82.929 118.958  0.00  0.00    -0.047 C 
ATOM      6  C   LIG d   1      -9.540  82.526 120.153  0.00  0.00     0.091 C 
ENDROOT
BRANCH   1   7
ATOM      7  O   LIG d   1     -10.608  80.590 121.211  0.00  0.00    -0.368 OA
BRANCH   7   8
ATOM      8  C   LIG d   1      -9.700  80.755 122.328  0.00  0.00     0.119 C 
BRANCH   8   9
ATOM      9  C   LIG d   1      -9.273  79.348 122.789  0.00  0.00     0.028 C 
ATOM     10  C   LIG d   1     -10.288  78.265 122.385  0.00  0.00     0.006 C 
ENDBRANCH   8   9
BRANCH   8  11
ATOM     11  C   LIG d   1     -10.408  81.379 123.534  0.00  0.00     0.028 C 
ATOM     12  C   LIG d   1     -11.894  81.667 123.269  0.00  0.00     0.006 C 
ENDBRANCH   8  11
ENDBRANCH   7   8
ENDBRANCH   1   7
BRANCH   6  13
ATOM     13  N   LIG d   1     -10.650  83.487 120.380  0.00  0.00    -0.311 N 
ATOM     14  C   LIG d   1     -10.580  84.498 121.245  0.00  0.00     0.210 C 
ATOM     15  C   LIG d   1     -11.844  85.357 121.339  0.00  0.00     0.109 C 
ATOM     16  O   LIG d   1      -9.579  84.783 121.919  0.00  0.00    -0.276 OA
ATOM     17  H   LIG d   1     -11.489  83.348 119.851  0.00  0.00     0.149 HD
ENDBRANCH   6  13
BRANCH   5  18
ATOM     18  N   LIG d   1      -7.938  84.206 119.171  0.00  0.00     0.381 N 
ATOM     19  H   LIG d   1      -7.366  84.412 118.377  0.00  0.00    -0.090 HD
ATOM     20  H   LIG d   1      -7.342  84.117 119.975  0.00  0.00    -0.090 HD
ATOM     21  H   LIG d   1      -8.596  84.940 119.315  0.00  0.00    -0.090 HD
ENDBRANCH   5  18
BRANCH   3  22
ATOM     22  C   LIG d   1      -7.466  79.620 117.873  0.00  0.00     0.382 C 
ATOM     23  O   LIG d   1      -6.478  79.966 117.182  0.00  0.00    -0.241 OA
ATOM     24  O   LIG d   1      -7.872  78.444 117.817  0.00  0.00    -0.241 OA
ENDBRANCH   3  22
TORSDOF 7
ENDMDL
