MODEL 1
REMARK VINA RESULT:      -4.6      0.000      0.000
REMARK  7 active torsions:
REMARK  status: ('A' for Active; 'I' for Inactive)
REMARK    1  A    between atoms: C_2  and  C_3 
REMARK    2  A    between atoms: C_3  and  O_6 
REMARK    3  A    between atoms: C_3  and  C_4 
REMARK    4  A    between atoms: C_7  and  O_6 
REMARK    5  A    between atoms: C_9  and  C_10 
REMARK    6  A    between atoms: N_15  and  C_14 
REMARK    7  A    between atoms: N_20  and  C_19 
REMARK       I    between atoms: C_22  and  N_20 
ROOT
ATOM      1  C   LIG d   1       2.545  61.183 121.671  0.00  0.00     0.161 C 
ATOM      2  C   LIG d   1       3.935  61.352 121.566  0.00  0.00     0.016 C 
ATOM      3  C   LIG d   1       4.670  61.048 120.397  0.00  0.00     0.038 C 
ATOM      4  C   LIG d   1       4.039  60.694 119.195  0.00  0.00     0.028 C 
ATOM      5  C   LIG d   1       2.684  60.024 119.398  0.00  0.00    -0.047 C 
ATOM      6  C   LIG d   1       1.825  60.903 120.336  0.00  0.00     0.091 C 
ENDROOT
BRANCH   1   7
ATOM      7  O   LIG d   1       1.961  62.327 122.325  0.00  0.00    -0.368 OA
BRANCH   7   8
ATOM      8  C   LIG d   1       1.689  62.182 123.741  0.00  0.00     0.119 C 
BRANCH   8   9
ATOM      9  C   LIG d   1       0.161  62.246 123.927  0.00  0.00     0.028 C 
ATOM     10  C   LIG d   1      -0.477  63.409 123.149  0.00  0.00     0.006 C 
ENDBRANCH   8   9
BRANCH   8  11
ATOM     11  C   LIG d   1       2.245  63.365 124.539  0.00  0.00     0.028 C 
ATOM     12  C   LIG d   1       3.746  63.226 124.842  0.00  0.00     0.006 C 
ENDBRANCH   8  11
ENDBRANCH   7   8
ENDBRANCH   1   7
BRANCH   6  13
ATOM     13  N   LIG d   1       0.514  60.279 120.654  0.00  0.00    -0.311 N 
ATOM     14  C   LIG d   1      -0.656  60.867 120.412  0.00  0.00     0.210 C 
ATOM     15  C   LIG d   1      -1.887  60.059 120.835  0.00  0.00     0.109 C 
ATOM     16  O   LIG d   1      -0.793  61.968 119.857  0.00  0.00    -0.276 OA
ATOM     17  H   LIG d   1       0.531  59.372 121.078  0.00  0.00     0.149 HD
ENDBRANCH   6  13
BRANCH   5  18
ATOM     18  N   LIG d   1       2.077  59.834 118.067  0.00  0.00     0.381 N 
ATOM     19  H   LIG d   1       2.788  59.610 117.400  0.00  0.00    -0.090 HD
ATOM     20  H   LIG d   1       1.639  60.693 117.784  0.00  0.00    -0.090 HD
ATOM     21  H   LIG d   1       1.401  59.103 118.102  0.00  0.00    -0.090 HD
ENDBRANCH   5  18
BRANCH   3  22
ATOM     22  C   LIG d   1       6.056  61.059 120.434  0.00  0.00     0.382 C 
ATOM     23  O   LIG d   1       6.658  61.912 121.130  0.00  0.00    -0.241 OA
ATOM     24  O   LIG d   1       6.713  60.255 119.746  0.00  0.00    -0.241 OA
ENDBRANCH   3  22
TORSDOF 7
ENDMDL
MODEL 2
REMARK VINA RESULT:      -4.5     20.978     23.583
REMARK  7 active torsions:
REMARK  status: ('A' for Active; 'I' for Inactive)
REMARK    1  A    between atoms: C_2  and  C_3 
REMARK    2  A    between atoms: C_3  and  O_6 
REMARK    3  A    between atoms: C_3  and  C_4 
REMARK    4  A    between atoms: C_7  and  O_6 
REMARK    5  A    between atoms: C_9  and  C_10 
REMARK    6  A    between atoms: N_15  and  C_14 
REMARK    7  A    between atoms: N_20  and  C_19 
REMARK       I    between atoms: C_22  and  N_20 
ROOT
ATOM      1  C   LIG d   1      -8.592  81.339 120.896  0.00  0.00     0.161 C 
ATOM      2  C   LIG d   1      -8.935  82.538 121.542  0.00  0.00     0.016 C 
ATOM      3  C   LIG d   1      -9.650  83.583 120.913  0.00  0.00     0.038 C 
ATOM      4  C   LIG d   1     -10.205  83.437 119.633  0.00  0.00     0.028 C 
ATOM      5  C   LIG d   1      -9.452  82.441 118.757  0.00  0.00    -0.047 C 
ATOM      6  C   LIG d   1      -9.284  81.116 119.535  0.00  0.00     0.091 C 
ENDROOT
BRANCH   1   7
ATOM      7  O   LIG d   1      -8.840  80.222 121.773  0.00  0.00    -0.368 OA
BRANCH   7   8
ATOM      8  C   LIG d   1     -10.199  79.720 121.797  0.00  0.00     0.119 C 
BRANCH   8   9
ATOM      9  C   LIG d   1     -10.818  80.125 123.148  0.00  0.00     0.028 C 
ATOM     10  C   LIG d   1     -12.069  81.004 122.980  0.00  0.00     0.006 C 
ENDBRANCH   8   9
BRANCH   8  11
ATOM     11  C   LIG d   1     -10.227  78.189 121.780  0.00  0.00     0.028 C 
ATOM     12  C   LIG d   1      -8.824  77.568 121.696  0.00  0.00     0.006 C 
ENDBRANCH   8  11
ENDBRANCH   7   8
ENDBRANCH   1   7
BRANCH   6  13
ATOM     13  N   LIG d   1      -8.485  80.114 118.782  0.00  0.00    -0.311 N 
ATOM     14  C   LIG d   1      -9.005  79.006 118.257  0.00  0.00     0.210 C 
ATOM     15  C   LIG d   1      -8.002  78.099 117.538  0.00  0.00     0.109 C 
ATOM     16  O   LIG d   1     -10.207  78.704 118.291  0.00  0.00    -0.276 OA
ATOM     17  H   LIG d   1      -7.506  80.296 118.680  0.00  0.00     0.149 HD
ENDBRANCH   6  13
BRANCH   5  18
ATOM     18  N   LIG d   1     -10.216  82.284 117.505  0.00  0.00     0.381 N 
ATOM     19  H   LIG d   1     -10.541  81.341 117.423  0.00  0.00    -0.090 HD
ATOM     20  H   LIG d   1      -9.609  82.476 116.728  0.00  0.00    -0.090 HD
ATOM     21  H   LIG d   1     -10.989  82.912 117.495  0.00  0.00    -0.090 HD
ENDBRANCH   5  18
BRANCH   3  22
ATOM     22  C   LIG d   1      -9.782  84.807 121.552  0.00  0.00     0.382 C 
ATOM     23  O   LIG d   1      -8.772  85.372 122.039  0.00  0.00    -0.241 OA
ATOM     24  O   LIG d   1     -10.903  85.332 121.687  0.00  0.00    -0.241 OA
ENDBRANCH   3  22
TORSDOF 7
ENDMDL
MODEL 3
REMARK VINA RESULT:      -4.5     21.104     23.001
REMARK  7 active torsions:
REMARK  status: ('A' for Active; 'I' for Inactive)
REMARK    1  A    between atoms: C_2  and  C_3 
REMARK    2  A    between atoms: C_3  and  O_6 
REMARK    3  A    between atoms: C_3  and  C_4 
REMARK    4  A    between atoms: C_7  and  O_6 
REMARK    5  A    between atoms: C_9  and  C_10 
REMARK    6  A    between atoms: N_15  and  C_14 
REMARK    7  A    between atoms: N_20  and  C_19 
REMARK       I    between atoms: C_22  and  N_20 
ROOT
ATOM      1  C   LIG d   1     -10.006  80.683 120.665  0.00  0.00     0.161 C 
ATOM      2  C   LIG d   1      -9.788  79.437 120.054  0.00  0.00     0.016 C 
ATOM      3  C   LIG d   1      -9.605  79.275 118.661  0.00  0.00     0.038 C 
ATOM      4  C   LIG d   1      -9.476  80.372 117.798  0.00  0.00     0.028 C 
ATOM      5  C   LIG d   1     -10.192  81.623 118.296  0.00  0.00    -0.047 C 
ATOM      6  C   LIG d   1      -9.758  81.903 119.753  0.00  0.00     0.091 C 
ENDROOT
BRANCH   1   7
ATOM      7  O   LIG d   1      -9.214  80.785 121.864  0.00  0.00    -0.368 OA
BRANCH   7   8
ATOM      8  C   LIG d   1      -7.958  80.061 121.862  0.00  0.00     0.119 C 
BRANCH   8   9
ATOM      9  C   LIG d   1      -7.764  79.467 123.271  0.00  0.00     0.028 C 
ATOM     10  C   LIG d   1      -9.098  79.227 123.996  0.00  0.00     0.006 C 
ENDBRANCH   8   9
BRANCH   8  11
ATOM     11  C   LIG d   1      -6.771  81.005 121.652  0.00  0.00     0.028 C 
ATOM     12  C   LIG d   1      -6.212  80.950 120.222  0.00  0.00     0.006 C 
ENDBRANCH   8  11
ENDBRANCH   7   8
ENDBRANCH   1   7
BRANCH   6  13
ATOM     13  N   LIG d   1     -10.476  83.061 120.346  0.00  0.00    -0.311 N 
ATOM     14  C   LIG d   1      -9.884  83.978 121.109  0.00  0.00     0.210 C 
ATOM     15  C   LIG d   1     -10.812  85.078 121.635  0.00  0.00     0.109 C 
ATOM     16  O   LIG d   1      -8.673  84.003 121.373  0.00  0.00    -0.276 OA
ATOM     17  H   LIG d   1     -11.457  83.136 120.156  0.00  0.00     0.149 HD
ENDBRANCH   6  13
BRANCH   5  18
ATOM     18  N   LIG d   1      -9.861  82.724 117.372  0.00  0.00     0.381 N 
ATOM     19  H   LIG d   1     -10.262  83.578 117.706  0.00  0.00    -0.090 HD
ATOM     20  H   LIG d   1     -10.256  82.522 116.471  0.00  0.00    -0.090 HD
ATOM     21  H   LIG d   1      -8.873  82.820 117.297  0.00  0.00    -0.090 HD
ENDBRANCH   5  18
BRANCH   3  22
ATOM     22  C   LIG d   1      -9.588  78.001 118.114  0.00  0.00     0.382 C 
ATOM     23  O   LIG d   1      -8.543  77.563 117.576  0.00  0.00    -0.241 OA
ATOM     24  O   LIG d   1     -10.619  77.300 118.113  0.00  0.00    -0.241 OA
ENDBRANCH   3  22
TORSDOF 7
ENDMDL
MODEL 4
REMARK VINA RESULT:      -4.4     21.196     23.451
REMARK  7 active torsions:
REMARK  status: ('A' for Active; 'I' for Inactive)
REMARK    1  A    between atoms: C_2  and  C_3 
REMARK    2  A    between atoms: C_3  and  O_6 
REMARK    3  A    between atoms: C_3  and  C_4 
REMARK    4  A    between atoms: C_7  and  O_6 
REMARK    5  A    between atoms: C_9  and  C_10 
REMARK    6  A    between atoms: N_15  and  C_14 
REMARK    7  A    between atoms: N_20  and  C_19 
REMARK       I    between atoms: C_22  and  N_20 
ROOT
ATOM      1  C   LIG d   1     -10.139  80.684 120.722  0.00  0.00     0.161 C 
ATOM      2  C   LIG d   1      -9.934  79.417 120.150  0.00  0.00     0.016 C 
ATOM      3  C   LIG d   1      -9.683  79.217 118.773  0.00  0.00     0.038 C 
ATOM      4  C   LIG d   1      -9.469  80.289 117.895  0.00  0.00     0.028 C 
ATOM      5  C   LIG d   1     -10.166  81.575 118.327  0.00  0.00    -0.047 C 
ATOM      6  C   LIG d   1      -9.800  81.873 119.799  0.00  0.00     0.091 C 
ENDROOT
BRANCH   1   7
ATOM      7  O   LIG d   1      -9.408  80.785 121.960  0.00  0.00    -0.368 OA
BRANCH   7   8
ATOM      8  C   LIG d   1     -10.203  80.789 123.171  0.00  0.00     0.119 C 
BRANCH   8   9
ATOM      9  C   LIG d   1     -10.018  79.418 123.850  0.00  0.00     0.028 C 
ATOM     10  C   LIG d   1     -11.219  78.484 123.623  0.00  0.00     0.006 C 
ENDBRANCH   8   9
BRANCH   8  11
ATOM     11  C   LIG d   1     -11.699  80.887 122.856  0.00  0.00     0.028 C 
ATOM     12  C   LIG d   1     -12.334  82.186 123.378  0.00  0.00     0.006 C 
ENDBRANCH   8  11
ENDBRANCH   7   8
ENDBRANCH   1   7
BRANCH   6  13
ATOM     13  N   LIG d   1     -10.506  83.069 120.328  0.00  0.00    -0.311 N 
ATOM     14  C   LIG d   1      -9.922  83.985 121.099  0.00  0.00     0.210 C 
ATOM     15  C   LIG d   1     -10.836  85.127 121.551  0.00  0.00     0.109 C 
ATOM     16  O   LIG d   1      -8.725  83.976 121.424  0.00  0.00    -0.276 OA
ATOM     17  H   LIG d   1     -11.473  83.171 120.087  0.00  0.00     0.149 HD
ENDBRANCH   6  13
BRANCH   5  18
ATOM     18  N   LIG d   1      -9.747  82.643 117.400  0.00  0.00     0.381 N 
ATOM     19  H   LIG d   1      -9.783  83.528 117.864  0.00  0.00    -0.090 HD
ATOM     20  H   LIG d   1     -10.384  82.667 116.624  0.00  0.00    -0.090 HD
ATOM     21  H   LIG d   1      -8.822  82.468 117.074  0.00  0.00    -0.090 HD
ENDBRANCH   5  18
BRANCH   3  22
ATOM     22  C   LIG d   1      -9.683  77.931 118.255  0.00  0.00     0.382 C 
ATOM     23  O   LIG d   1      -8.603  77.393 117.911  0.00  0.00    -0.241 OA
ATOM     24  O   LIG d   1     -10.754  77.318 118.086  0.00  0.00    -0.241 OA
ENDBRANCH   3  22
TORSDOF 7
ENDMDL
MODEL 5
REMARK VINA RESULT:      -4.4     30.629     32.310
REMARK  7 active torsions:
REMARK  status: ('A' for Active; 'I' for Inactive)
REMARK    1  A    between atoms: C_2  and  C_3 
REMARK    2  A    between atoms: C_3  and  O_6 
REMARK    3  A    between atoms: C_3  and  C_4 
REMARK    4  A    between atoms: C_7  and  O_6 
REMARK    5  A    between atoms: C_9  and  C_10 
REMARK    6  A    between atoms: N_15  and  C_14 
REMARK    7  A    between atoms: N_20  and  C_19 
REMARK       I    between atoms: C_22  and  N_20 
ROOT
ATOM      1  C   LIG d   1      -3.759  92.653 118.838  0.00  0.00     0.161 C 
ATOM      2  C   LIG d   1      -2.963  91.588 118.381  0.00  0.00     0.016 C 
ATOM      3  C   LIG d   1      -3.485  90.461 117.705  0.00  0.00     0.038 C 
ATOM      4  C   LIG d   1      -4.827  90.394 117.303  0.00  0.00     0.028 C 
ATOM      5  C   LIG d   1      -5.765  91.212 118.184  0.00  0.00    -0.047 C 
ATOM      6  C   LIG d   1      -5.209  92.649 118.310  0.00  0.00     0.091 C 
ENDROOT
BRANCH   1   7
ATOM      7  O   LIG d   1      -3.118  93.907 118.532  0.00  0.00    -0.368 OA
BRANCH   7   8
ATOM      8  C   LIG d   1      -2.560  94.628 119.658  0.00  0.00     0.119 C 
BRANCH   8   9
ATOM      9  C   LIG d   1      -3.492  95.819 119.953  0.00  0.00     0.028 C 
ATOM     10  C   LIG d   1      -3.033  97.111 119.256  0.00  0.00     0.006 C 
ENDBRANCH   8   9
BRANCH   8  11
ATOM     11  C   LIG d   1      -1.206  95.251 119.305  0.00  0.00     0.028 C 
ATOM     12  C   LIG d   1      -0.036  94.268 119.471  0.00  0.00     0.006 C 
ENDBRANCH   8  11
ENDBRANCH   7   8
ENDBRANCH   1   7
BRANCH   6  13
ATOM     13  N   LIG d   1      -6.022  93.493 119.224  0.00  0.00    -0.311 N 
ATOM     14  C   LIG d   1      -6.975  94.322 118.803  0.00  0.00     0.210 C 
ATOM     15  C   LIG d   1      -7.678  95.115 119.909  0.00  0.00     0.109 C 
ATOM     16  O   LIG d   1      -7.326  94.453 117.620  0.00  0.00    -0.276 OA
ATOM     17  H   LIG d   1      -5.824  93.426 120.204  0.00  0.00     0.149 HD
ENDBRANCH   6  13
BRANCH   5  18
ATOM     18  N   LIG d   1      -7.107  91.164 117.572  0.00  0.00     0.381 N 
ATOM     19  H   LIG d   1      -7.774  91.589 118.184  0.00  0.00    -0.090 HD
ATOM     20  H   LIG d   1      -7.369  90.203 117.439  0.00  0.00    -0.090 HD
ATOM     21  H   LIG d   1      -7.099  91.638 116.696  0.00  0.00    -0.090 HD
ENDBRANCH   5  18
BRANCH   3  22
ATOM     22  C   LIG d   1      -2.668  89.368 117.459  0.00  0.00     0.382 C 
ATOM     23  O   LIG d   1      -1.457  89.541 117.180  0.00  0.00    -0.241 OA
ATOM     24  O   LIG d   1      -3.137  88.214 117.469  0.00  0.00    -0.241 OA
ENDBRANCH   3  22
TORSDOF 7
ENDMDL
MODEL 6
REMARK VINA RESULT:      -4.3     20.392     22.900
REMARK  7 active torsions:
REMARK  status: ('A' for Active; 'I' for Inactive)
REMARK    1  A    between atoms: C_2  and  C_3 
REMARK    2  A    between atoms: C_3  and  O_6 
REMARK    3  A    between atoms: C_3  and  C_4 
REMARK    4  A    between atoms: C_7  and  O_6 
REMARK    5  A    between atoms: C_9  and  C_10 
REMARK    6  A    between atoms: N_15  and  C_14 
REMARK    7  A    between atoms: N_20  and  C_19 
REMARK       I    between atoms: C_22  and  N_20 
ROOT
ATOM      1  C   LIG d   1      -7.673  81.186 119.655  0.00  0.00     0.161 C 
ATOM      2  C   LIG d   1      -7.957  79.913 119.133  0.00  0.00     0.016 C 
ATOM      3  C   LIG d   1      -9.128  79.616 118.398  0.00  0.00     0.038 C 
ATOM      4  C   LIG d   1     -10.029  80.617 118.004  0.00  0.00     0.028 C 
ATOM      5  C   LIG d   1     -10.041  81.823 118.936  0.00  0.00    -0.047 C 
ATOM      6  C   LIG d   1      -8.589  82.315 119.139  0.00  0.00     0.091 C 
ENDROOT
BRANCH   1   7
ATOM      7  O   LIG d   1      -6.290  81.514 119.416  0.00  0.00    -0.368 OA
BRANCH   7   8
ATOM      8  C   LIG d   1      -5.407  81.430 120.561  0.00  0.00     0.119 C 
BRANCH   8   9
ATOM      9  C   LIG d   1      -5.027  82.869 120.960  0.00  0.00     0.028 C 
ATOM     10  C   LIG d   1      -5.328  83.167 122.438  0.00  0.00     0.006 C 
ENDBRANCH   8   9
BRANCH   8  11
ATOM     11  C   LIG d   1      -4.085  80.747 120.198  0.00  0.00     0.028 C 
ATOM     12  C   LIG d   1      -4.284  79.460 119.382  0.00  0.00     0.006 C 
ENDBRANCH   8  11
ENDBRANCH   7   8
ENDBRANCH   1   7
BRANCH   6  13
ATOM     13  N   LIG d   1      -8.502  83.441 120.106  0.00  0.00    -0.311 N 
ATOM     14  C   LIG d   1      -8.932  83.362 121.364  0.00  0.00     0.210 C 
ATOM     15  C   LIG d   1      -8.766  84.645 122.185  0.00  0.00     0.109 C 
ATOM     16  O   LIG d   1      -9.405  82.342 121.887  0.00  0.00    -0.276 OA
ATOM     17  H   LIG d   1      -8.102  84.297 119.774  0.00  0.00     0.149 HD
ENDBRANCH   6  13
BRANCH   5  18
ATOM     18  N   LIG d   1     -10.918  82.844 118.333  0.00  0.00     0.381 N 
ATOM     19  H   LIG d   1     -10.609  83.051 117.404  0.00  0.00    -0.090 HD
ATOM     20  H   LIG d   1     -10.860  83.686 118.879  0.00  0.00    -0.090 HD
ATOM     21  H   LIG d   1     -11.859  82.517 118.313  0.00  0.00    -0.090 HD
ENDBRANCH   5  18
BRANCH   3  22
ATOM     22  C   LIG d   1      -9.428  78.299 118.085  0.00  0.00     0.382 C 
ATOM     23  O   LIG d   1     -10.564  77.836 118.348  0.00  0.00    -0.241 OA
ATOM     24  O   LIG d   1      -8.563  77.556 117.584  0.00  0.00    -0.241 OA
ENDBRANCH   3  22
TORSDOF 7
ENDMDL
MODEL 7
REMARK VINA RESULT:      -4.3     16.403     18.428
REMARK  7 active torsions:
REMARK  status: ('A' for Active; 'I' for Inactive)
REMARK    1  A    between atoms: C_2  and  C_3 
REMARK    2  A    between atoms: C_3  and  O_6 
REMARK    3  A    between atoms: C_3  and  C_4 
REMARK    4  A    between atoms: C_7  and  O_6 
REMARK    5  A    between atoms: C_9  and  C_10 
REMARK    6  A    between atoms: N_15  and  C_14 
REMARK    7  A    between atoms: N_20  and  C_19 
REMARK       I    between atoms: C_22  and  N_20 
ROOT
ATOM      1  C   LIG d   1     -15.012  65.932 119.315  0.00  0.00     0.161 C 
ATOM      2  C   LIG d   1     -14.422  66.763 120.281  0.00  0.00     0.016 C 
ATOM      3  C   LIG d   1     -13.693  66.273 121.389  0.00  0.00     0.038 C 
ATOM      4  C   LIG d   1     -13.374  64.914 121.525  0.00  0.00     0.028 C 
ATOM      5  C   LIG d   1     -14.376  63.986 120.845  0.00  0.00    -0.047 C 
ATOM      6  C   LIG d   1     -14.580  64.452 119.385  0.00  0.00     0.091 C 
ENDROOT
BRANCH   1   7
ATOM      7  O   LIG d   1     -14.767  66.463 117.998  0.00  0.00    -0.368 OA
BRANCH   7   8
ATOM      8  C   LIG d   1     -15.920  66.997 117.302  0.00  0.00     0.119 C 
BRANCH   8   9
ATOM      9  C   LIG d   1     -15.782  68.532 117.286  0.00  0.00     0.028 C 
ATOM     10  C   LIG d   1     -16.583  69.205 118.413  0.00  0.00     0.006 C 
ENDBRANCH   8   9
BRANCH   8  11
ATOM     11  C   LIG d   1     -17.215  66.714 118.069  0.00  0.00     0.028 C 
ATOM     12  C   LIG d   1     -18.214  65.870 117.262  0.00  0.00     0.006 C 
ENDBRANCH   8  11
ENDBRANCH   7   8
ENDBRANCH   1   7
BRANCH   6  13
ATOM     13  N   LIG d   1     -15.609  63.649 118.674  0.00  0.00    -0.311 N 
ATOM     14  C   LIG d   1     -15.322  62.577 117.937  0.00  0.00     0.210 C 
ATOM     15  C   LIG d   1     -16.529  61.907 117.273  0.00  0.00     0.109 C 
ATOM     16  O   LIG d   1     -14.187  62.098 117.798  0.00  0.00    -0.276 OA
ATOM     17  H   LIG d   1     -16.560  63.949 118.758  0.00  0.00     0.149 HD
ENDBRANCH   6  13
BRANCH   5  18
ATOM     18  N   LIG d   1     -13.849  62.612 120.945  0.00  0.00     0.381 N 
ATOM     19  H   LIG d   1     -14.592  61.980 121.168  0.00  0.00    -0.090 HD
ATOM     20  H   LIG d   1     -13.172  62.577 121.687  0.00  0.00    -0.090 HD
ATOM     21  H   LIG d   1     -13.424  62.346 120.084  0.00  0.00    -0.090 HD
ENDBRANCH   5  18
BRANCH   3  22
ATOM     22  C   LIG d   1     -13.309  67.144 122.398  0.00  0.00     0.382 C 
ATOM     23  O   LIG d   1     -13.757  68.315 122.420  0.00  0.00    -0.241 OA
ATOM     24  O   LIG d   1     -12.485  66.786 123.261  0.00  0.00    -0.241 OA
ENDBRANCH   3  22
TORSDOF 7
ENDMDL
MODEL 8
REMARK VINA RESULT:      -4.3     31.725     33.622
REMARK  7 active torsions:
REMARK  status: ('A' for Active; 'I' for Inactive)
REMARK    1  A    between atoms: C_2  and  C_3 
REMARK    2  A    between atoms: C_3  and  O_6 
REMARK    3  A    between atoms: C_3  and  C_4 
REMARK    4  A    between atoms: C_7  and  O_6 
REMARK    5  A    between atoms: C_9  and  C_10 
REMARK    6  A    between atoms: N_15  and  C_14 
REMARK    7  A    between atoms: N_20  and  C_19 
REMARK       I    between atoms: C_22  and  N_20 
ROOT
ATOM      1  C   LIG d   1      -5.321  93.803 118.833  0.00  0.00     0.161 C 
ATOM      2  C   LIG d   1      -5.650  92.491 118.456  0.00  0.00     0.016 C 
ATOM      3  C   LIG d   1      -4.692  91.535 118.049  0.00  0.00     0.038 C 
ATOM      4  C   LIG d   1      -3.314  91.782 118.136  0.00  0.00     0.028 C 
ATOM      5  C   LIG d   1      -2.956  93.261 118.032  0.00  0.00    -0.047 C 
ATOM      6  C   LIG d   1      -3.814  94.057 119.042  0.00  0.00     0.091 C 
ENDROOT
BRANCH   1   7
ATOM      7  O   LIG d   1      -6.060  94.171 120.015  0.00  0.00    -0.368 OA
BRANCH   7   8
ATOM      8  C   LIG d   1      -6.916  95.334 119.895  0.00  0.00     0.119 C 
BRANCH   8   9
ATOM      9  C   LIG d   1      -8.317  94.930 120.395  0.00  0.00     0.028 C 
ATOM     10  C   LIG d   1      -9.047  94.001 119.410  0.00  0.00     0.006 C 
ENDBRANCH   8   9
BRANCH   8  11
ATOM     11  C   LIG d   1      -7.109  95.735 118.430  0.00  0.00     0.028 C 
ATOM     12  C   LIG d   1      -6.828  97.225 118.178  0.00  0.00     0.006 C 
ENDBRANCH   8  11
ENDBRANCH   7   8
ENDBRANCH   1   7
BRANCH   6  13
ATOM     13  N   LIG d   1      -3.587  95.523 118.946  0.00  0.00    -0.311 N 
ATOM     14  C   LIG d   1      -2.732  96.185 119.723  0.00  0.00     0.210 C 
ATOM     15  C   LIG d   1      -2.666  97.695 119.473  0.00  0.00     0.109 C 
ATOM     16  O   LIG d   1      -1.998  95.660 120.574  0.00  0.00    -0.276 OA
ATOM     17  H   LIG d   1      -4.119  96.023 118.261  0.00  0.00     0.149 HD
ENDBRANCH   6  13
BRANCH   5  18
ATOM     18  N   LIG d   1      -1.507  93.388 118.277  0.00  0.00     0.381 N 
ATOM     19  H   LIG d   1      -1.205  92.665 118.899  0.00  0.00    -0.090 HD
ATOM     20  H   LIG d   1      -1.328  94.275 118.713  0.00  0.00    -0.090 HD
ATOM     21  H   LIG d   1      -1.009  93.325 117.416  0.00  0.00    -0.090 HD
ENDBRANCH   5  18
BRANCH   3  22
ATOM     22  C   LIG d   1      -5.111  90.328 117.509  0.00  0.00     0.382 C 
ATOM     23  O   LIG d   1      -6.312  90.171 117.182  0.00  0.00    -0.241 OA
ATOM     24  O   LIG d   1      -4.313  89.380 117.386  0.00  0.00    -0.241 OA
ENDBRANCH   3  22
TORSDOF 7
ENDMDL
MODEL 9
REMARK VINA RESULT:      -4.2     30.703     32.487
REMARK  7 active torsions:
REMARK  status: ('A' for Active; 'I' for Inactive)
REMARK    1  A    between atoms: C_2  and  C_3 
REMARK    2  A    between atoms: C_3  and  O_6 
REMARK    3  A    between atoms: C_3  and  C_4 
REMARK    4  A    between atoms: C_7  and  O_6 
REMARK    5  A    between atoms: C_9  and  C_10 
REMARK    6  A    between atoms: N_15  and  C_14 
REMARK    7  A    between atoms: N_20  and  C_19 
REMARK       I    between atoms: C_22  and  N_20 
ROOT
ATOM      1  C   LIG d   1      -3.947  92.791 119.698  0.00  0.00     0.161 C 
ATOM      2  C   LIG d   1      -3.826  94.190 119.671  0.00  0.00     0.016 C 
ATOM      3  C   LIG d   1      -2.761  94.867 119.034  0.00  0.00     0.038 C 
ATOM      4  C   LIG d   1      -1.818  94.190 118.246  0.00  0.00     0.028 C 
ATOM      5  C   LIG d   1      -1.612  92.738 118.662  0.00  0.00    -0.047 C 
ATOM      6  C   LIG d   1      -2.988  92.040 118.749  0.00  0.00     0.091 C 
ENDROOT
BRANCH   1   7
ATOM      7  O   LIG d   1      -5.312  92.413 119.432  0.00  0.00    -0.368 OA
BRANCH   7   8
ATOM      8  C   LIG d   1      -6.052  93.283 118.540  0.00  0.00     0.119 C 
BRANCH   8   9
ATOM      9  C   LIG d   1      -7.363  93.669 119.253  0.00  0.00     0.028 C 
ATOM     10  C   LIG d   1      -8.405  94.258 118.287  0.00  0.00     0.006 C 
ENDBRANCH   8   9
BRANCH   8  11
ATOM     11  C   LIG d   1      -6.484  92.543 117.271  0.00  0.00     0.028 C 
ATOM     12  C   LIG d   1      -6.353  91.017 117.397  0.00  0.00     0.006 C 
ENDBRANCH   8  11
ENDBRANCH   7   8
ENDBRANCH   1   7
BRANCH   6  13
ATOM     13  N   LIG d   1      -2.885  90.638 119.232  0.00  0.00    -0.311 N 
ATOM     14  C   LIG d   1      -2.860  89.584 118.419  0.00  0.00     0.210 C 
ATOM     15  C   LIG d   1      -2.769  88.226 119.124  0.00  0.00     0.109 C 
ATOM     16  O   LIG d   1      -2.873  89.644 117.181  0.00  0.00    -0.276 OA
ATOM     17  H   LIG d   1      -2.838  90.499 120.222  0.00  0.00     0.149 HD
ENDBRANCH   6  13
BRANCH   5  18
ATOM     18  N   LIG d   1      -0.710  92.115 117.675  0.00  0.00     0.381 N 
ATOM     19  H   LIG d   1      -0.249  91.328 118.086  0.00  0.00    -0.090 HD
ATOM     20  H   LIG d   1      -0.010  92.784 117.406  0.00  0.00    -0.090 HD
ATOM     21  H   LIG d   1      -1.228  91.825 116.875  0.00  0.00    -0.090 HD
ENDBRANCH   5  18
BRANCH   3  22
ATOM     22  C   LIG d   1      -2.608  96.233 119.216  0.00  0.00     0.382 C 
ATOM     23  O   LIG d   1      -3.588  96.931 119.574  0.00  0.00    -0.241 OA
ATOM     24  O   LIG d   1      -1.515  96.783 118.983  0.00  0.00    -0.241 OA
ENDBRANCH   3  22
TORSDOF 7
ENDMDL
