MODEL 1
REMARK VINA RESULT:      -4.6      0.000      0.000
REMARK  7 active torsions:
REMARK  status: ('A' for Active; 'I' for Inactive)
REMARK    1  A    between atoms: C_2  and  C_3 
REMARK    2  A    between atoms: C_3  and  O_6 
REMARK    3  A    between atoms: C_3  and  C_4 
REMARK    4  A    between atoms: C_7  and  O_6 
REMARK    5  A    between atoms: C_9  and  C_10 
REMARK    6  A    between atoms: N_15  and  C_14 
REMARK    7  A    between atoms: N_20  and  C_19 
REMARK       I    between atoms: C_22  and  N_20 
ROOT
ATOM      1  C   LIG d   1     -12.568  65.690 121.639  0.00  0.00     0.161 C 
ATOM      2  C   LIG d   1     -11.448  65.248 122.362  0.00  0.00     0.016 C 
ATOM      3  C   LIG d   1     -10.803  64.014 122.120  0.00  0.00     0.038 C 
ATOM      4  C   LIG d   1     -11.144  63.200 121.030  0.00  0.00     0.028 C 
ATOM      5  C   LIG d   1     -12.593  63.363 120.583  0.00  0.00    -0.047 C 
ATOM      6  C   LIG d   1     -12.887  64.866 120.373  0.00  0.00     0.091 C 
ENDROOT
BRANCH   1   7
ATOM      7  O   LIG d   1     -12.416  67.084 121.304  0.00  0.00    -0.368 OA
BRANCH   7   8
ATOM      8  C   LIG d   1     -12.754  68.030 122.348  0.00  0.00     0.119 C 
BRANCH   8   9
ATOM      9  C   LIG d   1     -14.281  68.233 122.311  0.00  0.00     0.028 C 
ATOM     10  C   LIG d   1     -14.793  68.580 120.903  0.00  0.00     0.006 C 
ENDBRANCH   8   9
BRANCH   8  11
ATOM     11  C   LIG d   1     -12.154  69.410 122.063  0.00  0.00     0.028 C 
ATOM     12  C   LIG d   1     -12.219  70.350 123.278  0.00  0.00     0.006 C 
ENDBRANCH   8  11
ENDBRANCH   7   8
ENDBRANCH   1   7
BRANCH   6  13
ATOM     13  N   LIG d   1     -14.306  65.122 120.016  0.00  0.00    -0.311 N 
ATOM     14  C   LIG d   1     -14.734  65.252 118.761  0.00  0.00     0.210 C 
ATOM     15  C   LIG d   1     -16.233  65.532 118.615  0.00  0.00     0.109 C 
ATOM     16  O   LIG d   1     -14.021  65.130 117.754  0.00  0.00    -0.276 OA
ATOM     17  H   LIG d   1     -14.959  65.204 120.770  0.00  0.00     0.149 HD
ENDBRANCH   6  13
BRANCH   5  18
ATOM     18  N   LIG d   1     -12.774  62.562 119.357  0.00  0.00     0.381 N 
ATOM     19  H   LIG d   1     -12.242  61.717 119.423  0.00  0.00    -0.090 HD
ATOM     20  H   LIG d   1     -12.433  63.089 118.572  0.00  0.00    -0.090 HD
ATOM     21  H   LIG d   1     -13.738  62.348 119.229  0.00  0.00    -0.090 HD
ENDBRANCH   5  18
BRANCH   3  22
ATOM     22  C   LIG d   1      -9.829  63.564 122.999  0.00  0.00     0.382 C 
ATOM     23  O   LIG d   1      -9.092  62.600 122.678  0.00  0.00    -0.241 OA
ATOM     24  O   LIG d   1      -9.708  64.080 124.126  0.00  0.00    -0.241 OA
ENDBRANCH   3  22
TORSDOF 7
ENDMDL
MODEL 2
REMARK VINA RESULT:      -4.4     27.303     30.163
REMARK  7 active torsions:
REMARK  status: ('A' for Active; 'I' for Inactive)
REMARK    1  A    between atoms: C_2  and  C_3 
REMARK    2  A    between atoms: C_3  and  O_6 
REMARK    3  A    between atoms: C_3  and  C_4 
REMARK    4  A    between atoms: C_7  and  O_6 
REMARK    5  A    between atoms: C_9  and  C_10 
REMARK    6  A    between atoms: N_15  and  C_14 
REMARK    7  A    between atoms: N_20  and  C_19 
REMARK       I    between atoms: C_22  and  N_20 
ROOT
ATOM      1  C   LIG d   1      -0.325  93.371 117.984  0.00  0.00     0.161 C 
ATOM      2  C   LIG d   1      -1.611  92.807 117.977  0.00  0.00     0.016 C 
ATOM      3  C   LIG d   1      -1.856  91.424 118.144  0.00  0.00     0.038 C 
ATOM      4  C   LIG d   1      -0.833  90.526 118.483  0.00  0.00     0.028 C 
ATOM      5  C   LIG d   1       0.545  90.969 118.003  0.00  0.00    -0.047 C 
ATOM      6  C   LIG d   1       0.794  92.423 118.464  0.00  0.00     0.091 C 
ENDROOT
BRANCH   1   7
ATOM      7  O   LIG d   1      -0.327  94.581 118.768  0.00  0.00    -0.368 OA
BRANCH   7   8
ATOM      8  C   LIG d   1      -1.332  94.665 119.808  0.00  0.00     0.119 C 
BRANCH   8   9
ATOM      9  C   LIG d   1      -1.903  96.096 119.786  0.00  0.00     0.028 C 
ATOM     10  C   LIG d   1      -3.220  96.214 120.572  0.00  0.00     0.006 C 
ENDBRANCH   8   9
BRANCH   8  11
ATOM     11  C   LIG d   1      -0.710  94.498 121.198  0.00  0.00     0.028 C 
ATOM     12  C   LIG d   1      -0.894  93.082 121.767  0.00  0.00     0.006 C 
ENDBRANCH   8  11
ENDBRANCH   7   8
ENDBRANCH   1   7
BRANCH   6  13
ATOM     13  N   LIG d   1       2.086  92.963 117.964  0.00  0.00    -0.311 N 
ATOM     14  C   LIG d   1       3.224  92.894 118.652  0.00  0.00     0.210 C 
ATOM     15  C   LIG d   1       4.435  93.530 117.963  0.00  0.00     0.109 C 
ATOM     16  O   LIG d   1       3.353  92.337 119.753  0.00  0.00    -0.276 OA
ATOM     17  H   LIG d   1       2.079  93.404 117.065  0.00  0.00     0.149 HD
ENDBRANCH   6  13
BRANCH   5  18
ATOM     18  N   LIG d   1       1.533  90.015 118.542  0.00  0.00     0.381 N 
ATOM     19  H   LIG d   1       2.422  90.464 118.637  0.00  0.00    -0.090 HD
ATOM     20  H   LIG d   1       1.633  89.251 117.897  0.00  0.00    -0.090 HD
ATOM     21  H   LIG d   1       1.229  89.673 119.428  0.00  0.00    -0.090 HD
ENDBRANCH   5  18
BRANCH   3  22
ATOM     22  C   LIG d   1      -3.130  90.921 117.931  0.00  0.00     0.382 C 
ATOM     23  O   LIG d   1      -3.438  89.787 118.372  0.00  0.00    -0.241 OA
ATOM     24  O   LIG d   1      -3.962  91.567 117.267  0.00  0.00    -0.241 OA
ENDBRANCH   3  22
TORSDOF 7
ENDMDL
MODEL 3
REMARK VINA RESULT:      -4.4     13.103     16.474
REMARK  7 active torsions:
REMARK  status: ('A' for Active; 'I' for Inactive)
REMARK    1  A    between atoms: C_2  and  C_3 
REMARK    2  A    between atoms: C_3  and  O_6 
REMARK    3  A    between atoms: C_3  and  C_4 
REMARK    4  A    between atoms: C_7  and  O_6 
REMARK    5  A    between atoms: C_9  and  C_10 
REMARK    6  A    between atoms: N_15  and  C_14 
REMARK    7  A    between atoms: N_20  and  C_19 
REMARK       I    between atoms: C_22  and  N_20 
ROOT
ATOM      1  C   LIG d   1      -9.379  81.144 118.665  0.00  0.00     0.161 C 
ATOM      2  C   LIG d   1      -9.379  82.414 119.267  0.00  0.00     0.016 C 
ATOM      3  C   LIG d   1      -9.754  82.637 120.611  0.00  0.00     0.038 C 
ATOM      4  C   LIG d   1     -10.011  81.579 121.495  0.00  0.00     0.028 C 
ATOM      5  C   LIG d   1     -10.513  80.318 120.800  0.00  0.00    -0.047 C 
ATOM      6  C   LIG d   1      -9.549  79.964 119.644  0.00  0.00     0.091 C 
ENDROOT
BRANCH   1   7
ATOM      7  O   LIG d   1      -8.181  80.976 117.881  0.00  0.00    -0.368 OA
BRANCH   7   8
ATOM      8  C   LIG d   1      -6.969  80.692 118.622  0.00  0.00     0.119 C 
BRANCH   8   9
ATOM      9  C   LIG d   1      -5.959  81.812 118.304  0.00  0.00     0.028 C 
ATOM     10  C   LIG d   1      -5.693  82.724 119.514  0.00  0.00     0.006 C 
ENDBRANCH   8   9
BRANCH   8  11
ATOM     11  C   LIG d   1      -6.307  79.399 118.136  0.00  0.00     0.028 C 
ATOM     12  C   LIG d   1      -4.927  79.638 117.502  0.00  0.00     0.006 C 
ENDBRANCH   8  11
ENDBRANCH   7   8
ENDBRANCH   1   7
BRANCH   6  13
ATOM     13  N   LIG d   1     -10.013  78.791 118.858  0.00  0.00    -0.311 N 
ATOM     14  C   LIG d   1      -9.667  77.536 119.142  0.00  0.00     0.210 C 
ATOM     15  C   LIG d   1     -10.239  76.478 118.193  0.00  0.00     0.109 C 
ATOM     16  O   LIG d   1      -8.968  77.196 120.108  0.00  0.00    -0.276 OA
ATOM     17  H   LIG d   1     -10.609  78.973 118.075  0.00  0.00     0.149 HD
ENDBRANCH   6  13
BRANCH   5  18
ATOM     18  N   LIG d   1     -10.609  79.255 121.818  0.00  0.00     0.381 N 
ATOM     19  H   LIG d   1     -11.421  79.400 122.384  0.00  0.00    -0.090 HD
ATOM     20  H   LIG d   1      -9.799  79.300 122.412  0.00  0.00    -0.090 HD
ATOM     21  H   LIG d   1     -10.657  78.363 121.377  0.00  0.00    -0.090 HD
ENDBRANCH   5  18
BRANCH   3  22
ATOM     22  C   LIG d   1      -9.914  83.935 121.074  0.00  0.00     0.382 C 
ATOM     23  O   LIG d   1      -8.950  84.738 121.033  0.00  0.00    -0.241 OA
ATOM     24  O   LIG d   1     -10.996  84.299 121.572  0.00  0.00    -0.241 OA
ENDBRANCH   3  22
TORSDOF 7
ENDMDL
MODEL 4
REMARK VINA RESULT:      -4.1     12.910     15.620
REMARK  7 active torsions:
REMARK  status: ('A' for Active; 'I' for Inactive)
REMARK    1  A    between atoms: C_2  and  C_3 
REMARK    2  A    between atoms: C_3  and  O_6 
REMARK    3  A    between atoms: C_3  and  C_4 
REMARK    4  A    between atoms: C_7  and  O_6 
REMARK    5  A    between atoms: C_9  and  C_10 
REMARK    6  A    between atoms: N_15  and  C_14 
REMARK    7  A    between atoms: N_20  and  C_19 
REMARK       I    between atoms: C_22  and  N_20 
ROOT
ATOM      1  C   LIG d   1      -7.704  79.048 118.820  0.00  0.00     0.161 C 
ATOM      2  C   LIG d   1      -8.735  78.095 118.765  0.00  0.00     0.016 C 
ATOM      3  C   LIG d   1     -10.077  78.380 119.103  0.00  0.00     0.038 C 
ATOM      4  C   LIG d   1     -10.512  79.686 119.377  0.00  0.00     0.028 C 
ATOM      5  C   LIG d   1      -9.414  80.585 119.936  0.00  0.00    -0.047 C 
ATOM      6  C   LIG d   1      -8.179  80.504 119.009  0.00  0.00     0.091 C 
ENDROOT
BRANCH   1   7
ATOM      7  O   LIG d   1      -6.875  78.940 117.646  0.00  0.00    -0.368 OA
BRANCH   7   8
ATOM      8  C   LIG d   1      -5.547  78.398 117.851  0.00  0.00     0.119 C 
BRANCH   8   9
ATOM      9  C   LIG d   1      -5.529  76.978 117.252  0.00  0.00     0.028 C 
ATOM     10  C   LIG d   1      -5.643  75.886 118.329  0.00  0.00     0.006 C 
ENDBRANCH   8   9
BRANCH   8  11
ATOM     11  C   LIG d   1      -5.244  78.214 119.341  0.00  0.00     0.028 C 
ATOM     12  C   LIG d   1      -4.062  79.071 119.819  0.00  0.00     0.006 C 
ENDBRANCH   8  11
ENDBRANCH   7   8
ENDBRANCH   1   7
BRANCH   6  13
ATOM     13  N   LIG d   1      -7.028  81.288 119.529  0.00  0.00    -0.311 N 
ATOM     14  C   LIG d   1      -6.229  82.019 118.753  0.00  0.00     0.210 C 
ATOM     15  C   LIG d   1      -5.091  82.733 119.488  0.00  0.00     0.109 C 
ATOM     16  O   LIG d   1      -6.374  82.169 117.530  0.00  0.00    -0.276 OA
ATOM     17  H   LIG d   1      -6.857  81.248 120.514  0.00  0.00     0.149 HD
ENDBRANCH   6  13
BRANCH   5  18
ATOM     18  N   LIG d   1      -9.966  81.948 120.045  0.00  0.00     0.381 N 
ATOM     19  H   LIG d   1      -9.706  82.350 120.923  0.00  0.00    -0.090 HD
ATOM     20  H   LIG d   1     -10.969  81.896 120.007  0.00  0.00    -0.090 HD
ATOM     21  H   LIG d   1      -9.627  82.514 119.298  0.00  0.00    -0.090 HD
ENDBRANCH   5  18
BRANCH   3  22
ATOM     22  C   LIG d   1     -10.994  77.346 119.209  0.00  0.00     0.382 C 
ATOM     23  O   LIG d   1     -11.549  77.109 120.309  0.00  0.00    -0.241 OA
ATOM     24  O   LIG d   1     -11.241  76.617 118.229  0.00  0.00    -0.241 OA
ENDBRANCH   3  22
TORSDOF 7
ENDMDL
MODEL 5
REMARK VINA RESULT:      -4.1      9.181     12.175
REMARK  7 active torsions:
REMARK  status: ('A' for Active; 'I' for Inactive)
REMARK    1  A    between atoms: C_2  and  C_3 
REMARK    2  A    between atoms: C_3  and  O_6 
REMARK    3  A    between atoms: C_3  and  C_4 
REMARK    4  A    between atoms: C_7  and  O_6 
REMARK    5  A    between atoms: C_9  and  C_10 
REMARK    6  A    between atoms: N_15  and  C_14 
REMARK    7  A    between atoms: N_20  and  C_19 
REMARK       I    between atoms: C_22  and  N_20 
ROOT
ATOM      1  C   LIG d   1     -17.125  75.727 119.850  0.00  0.00     0.161 C 
ATOM      2  C   LIG d   1     -17.480  74.426 119.458  0.00  0.00     0.016 C 
ATOM      3  C   LIG d   1     -17.612  73.349 120.364  0.00  0.00     0.038 C 
ATOM      4  C   LIG d   1     -17.546  73.536 121.753  0.00  0.00     0.028 C 
ATOM      5  C   LIG d   1     -16.692  74.731 122.163  0.00  0.00    -0.047 C 
ATOM      6  C   LIG d   1     -17.158  75.975 121.373  0.00  0.00     0.091 C 
ENDROOT
BRANCH   1   7
ATOM      7  O   LIG d   1     -17.957  76.687 119.169  0.00  0.00    -0.368 OA
BRANCH   7   8
ATOM      8  C   LIG d   1     -19.143  77.122 119.879  0.00  0.00     0.119 C 
BRANCH   8   9
ATOM      9  C   LIG d   1     -20.352  76.411 119.241  0.00  0.00     0.028 C 
ATOM     10  C   LIG d   1     -20.983  75.369 120.180  0.00  0.00     0.006 C 
ENDBRANCH   8   9
BRANCH   8  11
ATOM     11  C   LIG d   1     -19.398  78.618 119.675  0.00  0.00     0.028 C 
ATOM     12  C   LIG d   1     -19.954  79.305 120.932  0.00  0.00     0.006 C 
ENDBRANCH   8  11
ENDBRANCH   7   8
ENDBRANCH   1   7
BRANCH   6  13
ATOM     13  N   LIG d   1     -16.320  77.171 121.652  0.00  0.00    -0.311 N 
ATOM     14  C   LIG d   1     -16.635  78.091 122.561  0.00  0.00     0.210 C 
ATOM     15  C   LIG d   1     -15.643  79.253 122.676  0.00  0.00     0.109 C 
ATOM     16  O   LIG d   1     -17.625  78.039 123.307  0.00  0.00    -0.276 OA
ATOM     17  H   LIG d   1     -15.482  77.276 121.114  0.00  0.00     0.149 HD
ENDBRANCH   6  13
BRANCH   5  18
ATOM     18  N   LIG d   1     -16.822  74.892 123.624  0.00  0.00     0.381 N 
ATOM     19  H   LIG d   1     -16.916  73.995 124.056  0.00  0.00    -0.090 HD
ATOM     20  H   LIG d   1     -17.650  75.425 123.820  0.00  0.00    -0.090 HD
ATOM     21  H   LIG d   1     -16.022  75.361 123.987  0.00  0.00    -0.090 HD
ENDBRANCH   5  18
BRANCH   3  22
ATOM     22  C   LIG d   1     -17.774  72.060 119.881  0.00  0.00     0.382 C 
ATOM     23  O   LIG d   1     -18.901  71.510 119.925  0.00  0.00    -0.241 OA
ATOM     24  O   LIG d   1     -16.798  71.422 119.442  0.00  0.00    -0.241 OA
ENDBRANCH   3  22
TORSDOF 7
ENDMDL
MODEL 6
REMARK VINA RESULT:      -4.0     12.157     15.881
REMARK  7 active torsions:
REMARK  status: ('A' for Active; 'I' for Inactive)
REMARK    1  A    between atoms: C_2  and  C_3 
REMARK    2  A    between atoms: C_3  and  O_6 
REMARK    3  A    between atoms: C_3  and  C_4 
REMARK    4  A    between atoms: C_7  and  O_6 
REMARK    5  A    between atoms: C_9  and  C_10 
REMARK    6  A    between atoms: N_15  and  C_14 
REMARK    7  A    between atoms: N_20  and  C_19 
REMARK       I    between atoms: C_22  and  N_20 
ROOT
ATOM      1  C   LIG d   1     -18.855  78.712 121.069  0.00  0.00     0.161 C 
ATOM      2  C   LIG d   1     -19.605  79.445 120.134  0.00  0.00     0.016 C 
ATOM      3  C   LIG d   1     -19.730  80.853 120.168  0.00  0.00     0.038 C 
ATOM      4  C   LIG d   1     -18.985  81.641 121.057  0.00  0.00     0.028 C 
ATOM      5  C   LIG d   1     -18.607  80.913 122.342  0.00  0.00    -0.047 C 
ATOM      6  C   LIG d   1     -17.946  79.564 121.978  0.00  0.00     0.091 C 
ENDROOT
BRANCH   1   7
ATOM      7  O   LIG d   1     -18.082  77.702 120.391  0.00  0.00    -0.368 OA
BRANCH   7   8
ATOM      8  C   LIG d   1     -18.512  76.332 120.584  0.00  0.00     0.119 C 
BRANCH   8   9
ATOM      9  C   LIG d   1     -17.249  75.451 120.620  0.00  0.00     0.028 C 
ATOM     10  C   LIG d   1     -17.253  74.374 119.522  0.00  0.00     0.006 C 
ENDBRANCH   8   9
BRANCH   8  11
ATOM     11  C   LIG d   1     -19.324  75.829 119.386  0.00  0.00     0.028 C 
ATOM     12  C   LIG d   1     -20.841  75.923 119.613  0.00  0.00     0.006 C 
ENDBRANCH   8  11
ENDBRANCH   7   8
ENDBRANCH   1   7
BRANCH   6  13
ATOM     13  N   LIG d   1     -17.621  78.749 123.179  0.00  0.00    -0.311 N 
ATOM     14  C   LIG d   1     -16.440  78.164 123.370  0.00  0.00     0.210 C 
ATOM     15  C   LIG d   1     -16.322  77.355 124.665  0.00  0.00     0.109 C 
ATOM     16  O   LIG d   1     -15.469  78.266 122.606  0.00  0.00    -0.276 OA
ATOM     17  H   LIG d   1     -18.342  78.641 123.865  0.00  0.00     0.149 HD
ENDBRANCH   6  13
BRANCH   5  18
ATOM     18  N   LIG d   1     -17.718  81.802 123.114  0.00  0.00     0.381 N 
ATOM     19  H   LIG d   1     -18.258  82.518 123.558  0.00  0.00    -0.090 HD
ATOM     20  H   LIG d   1     -17.071  82.241 122.483  0.00  0.00    -0.090 HD
ATOM     21  H   LIG d   1     -17.221  81.277 123.799  0.00  0.00    -0.090 HD
ENDBRANCH   5  18
BRANCH   3  22
ATOM     22  C   LIG d   1     -20.639  81.483 119.332  0.00  0.00     0.382 C 
ATOM     23  O   LIG d   1     -20.230  82.182 118.374  0.00  0.00    -0.241 OA
ATOM     24  O   LIG d   1     -21.863  81.397 119.550  0.00  0.00    -0.241 OA
ENDBRANCH   3  22
TORSDOF 7
ENDMDL
MODEL 7
REMARK VINA RESULT:      -4.0     10.616     13.964
REMARK  7 active torsions:
REMARK  status: ('A' for Active; 'I' for Inactive)
REMARK    1  A    between atoms: C_2  and  C_3 
REMARK    2  A    between atoms: C_3  and  O_6 
REMARK    3  A    between atoms: C_3  and  C_4 
REMARK    4  A    between atoms: C_7  and  O_6 
REMARK    5  A    between atoms: C_9  and  C_10 
REMARK    6  A    between atoms: N_15  and  C_14 
REMARK    7  A    between atoms: N_20  and  C_19 
REMARK       I    between atoms: C_22  and  N_20 
ROOT
ATOM      1  C   LIG d   1     -18.854  77.415 119.696  0.00  0.00     0.161 C 
ATOM      2  C   LIG d   1     -19.853  78.368 119.956  0.00  0.00     0.016 C 
ATOM      3  C   LIG d   1     -21.228  78.049 120.049  0.00  0.00     0.038 C 
ATOM      4  C   LIG d   1     -21.684  76.723 120.037  0.00  0.00     0.028 C 
ATOM      5  C   LIG d   1     -20.767  75.774 119.272  0.00  0.00    -0.047 C 
ATOM      6  C   LIG d   1     -19.321  75.947 119.790  0.00  0.00     0.091 C 
ENDROOT
BRANCH   1   7
ATOM      7  O   LIG d   1     -17.727  77.639 120.565  0.00  0.00    -0.368 OA
BRANCH   7   8
ATOM      8  C   LIG d   1     -17.867  77.165 121.927  0.00  0.00     0.119 C 
BRANCH   8   9
ATOM      9  C   LIG d   1     -17.618  78.364 122.862  0.00  0.00     0.028 C 
ATOM     10  C   LIG d   1     -18.916  78.903 123.485  0.00  0.00     0.006 C 
ENDBRANCH   8   9
BRANCH   8  11
ATOM     11  C   LIG d   1     -16.780  76.145 122.277  0.00  0.00     0.028 C 
ATOM     12  C   LIG d   1     -15.598  76.173 121.295  0.00  0.00     0.006 C 
ENDBRANCH   8  11
ENDBRANCH   7   8
ENDBRANCH   1   7
BRANCH   6  13
ATOM     13  N   LIG d   1     -18.346  75.116 119.037  0.00  0.00    -0.311 N 
ATOM     14  C   LIG d   1     -17.947  73.910 119.438  0.00  0.00     0.210 C 
ATOM     15  C   LIG d   1     -16.921  73.232 118.525  0.00  0.00     0.109 C 
ATOM     16  O   LIG d   1     -18.371  73.323 120.445  0.00  0.00    -0.276 OA
ATOM     17  H   LIG d   1     -17.975  75.502 118.191  0.00  0.00     0.149 HD
ENDBRANCH   6  13
BRANCH   5  18
ATOM     18  N   LIG d   1     -21.287  74.406 119.456  0.00  0.00     0.381 N 
ATOM     19  H   LIG d   1     -20.611  73.741 119.139  0.00  0.00    -0.090 HD
ATOM     20  H   LIG d   1     -22.120  74.298 118.904  0.00  0.00    -0.090 HD
ATOM     21  H   LIG d   1     -21.495  74.247 120.418  0.00  0.00    -0.090 HD
ENDBRANCH   5  18
BRANCH   3  22
ATOM     22  C   LIG d   1     -22.166  79.068 120.115  0.00  0.00     0.382 C 
ATOM     23  O   LIG d   1     -23.278  78.862 120.659  0.00  0.00    -0.241 OA
ATOM     24  O   LIG d   1     -21.932  80.177 119.598  0.00  0.00    -0.241 OA
ENDBRANCH   3  22
TORSDOF 7
ENDMDL
MODEL 8
REMARK VINA RESULT:      -4.0     28.637     31.376
REMARK  7 active torsions:
REMARK  status: ('A' for Active; 'I' for Inactive)
REMARK    1  A    between atoms: C_2  and  C_3 
REMARK    2  A    between atoms: C_3  and  O_6 
REMARK    3  A    between atoms: C_3  and  C_4 
REMARK    4  A    between atoms: C_7  and  O_6 
REMARK    5  A    between atoms: C_9  and  C_10 
REMARK    6  A    between atoms: N_15  and  C_14 
REMARK    7  A    between atoms: N_20  and  C_19 
REMARK       I    between atoms: C_22  and  N_20 
ROOT
ATOM      1  C   LIG d   1      -5.789  95.187 120.607  0.00  0.00     0.161 C 
ATOM      2  C   LIG d   1      -7.091  94.742 120.326  0.00  0.00     0.016 C 
ATOM      3  C   LIG d   1      -8.172  95.614 120.061  0.00  0.00     0.038 C 
ATOM      4  C   LIG d   1      -7.988  96.997 119.911  0.00  0.00     0.028 C 
ATOM      5  C   LIG d   1      -6.789  97.537 120.684  0.00  0.00    -0.047 C 
ATOM      6  C   LIG d   1      -5.546  96.687 120.338  0.00  0.00     0.091 C 
ENDROOT
BRANCH   1   7
ATOM      7  O   LIG d   1      -4.832  94.386 119.885  0.00  0.00    -0.368 OA
BRANCH   7   8
ATOM      8  C   LIG d   1      -4.001  93.510 120.685  0.00  0.00     0.119 C 
BRANCH   8   9
ATOM      9  C   LIG d   1      -2.536  93.932 120.465  0.00  0.00     0.028 C 
ATOM     10  C   LIG d   1      -2.295  94.504 119.058  0.00  0.00     0.006 C 
ENDBRANCH   8   9
BRANCH   8  11
ATOM     11  C   LIG d   1      -4.084  92.062 120.193  0.00  0.00     0.028 C 
ATOM     12  C   LIG d   1      -4.869  91.923 118.880  0.00  0.00     0.006 C 
ENDBRANCH   8  11
ENDBRANCH   7   8
ENDBRANCH   1   7
BRANCH   6  13
ATOM     13  N   LIG d   1      -4.346  97.094 121.116  0.00  0.00    -0.311 N 
ATOM     14  C   LIG d   1      -3.285  97.685 120.570  0.00  0.00     0.210 C 
ATOM     15  C   LIG d   1      -2.149  98.004 121.547  0.00  0.00     0.109 C 
ATOM     16  O   LIG d   1      -3.189  98.004 119.376  0.00  0.00    -0.276 OA
ATOM     17  H   LIG d   1      -4.353  96.901 122.098  0.00  0.00     0.149 HD
ENDBRANCH   6  13
BRANCH   5  18
ATOM     18  N   LIG d   1      -6.634  98.960 120.329  0.00  0.00     0.381 N 
ATOM     19  H   LIG d   1      -5.879  99.359 120.850  0.00  0.00    -0.090 HD
ATOM     20  H   LIG d   1      -7.478  99.449 120.570  0.00  0.00    -0.090 HD
ATOM     21  H   LIG d   1      -6.457  99.050 119.352  0.00  0.00    -0.090 HD
ENDBRANCH   5  18
BRANCH   3  22
ATOM     22  C   LIG d   1      -9.460  95.109 119.984  0.00  0.00     0.382 C 
ATOM     23  O   LIG d   1     -10.318  95.446 120.835  0.00  0.00    -0.241 OA
ATOM     24  O   LIG d   1      -9.764  94.286 119.100  0.00  0.00    -0.241 OA
ENDBRANCH   3  22
TORSDOF 7
ENDMDL
MODEL 9
REMARK VINA RESULT:      -3.9      1.465      2.264
REMARK  7 active torsions:
REMARK  status: ('A' for Active; 'I' for Inactive)
REMARK    1  A    between atoms: C_2  and  C_3 
REMARK    2  A    between atoms: C_3  and  O_6 
REMARK    3  A    between atoms: C_3  and  C_4 
REMARK    4  A    between atoms: C_7  and  O_6 
REMARK    5  A    between atoms: C_9  and  C_10 
REMARK    6  A    between atoms: N_15  and  C_14 
REMARK    7  A    between atoms: N_20  and  C_19 
REMARK       I    between atoms: C_22  and  N_20 
ROOT
ATOM      1  C   LIG d   1     -13.854  65.050 122.004  0.00  0.00     0.161 C 
ATOM      2  C   LIG d   1     -12.724  65.126 122.835  0.00  0.00     0.016 C 
ATOM      3  C   LIG d   1     -11.516  64.442 122.570  0.00  0.00     0.038 C 
ATOM      4  C   LIG d   1     -11.303  63.751 121.367  0.00  0.00     0.028 C 
ATOM      5  C   LIG d   1     -12.589  63.230 120.733  0.00  0.00    -0.047 C 
ATOM      6  C   LIG d   1     -13.604  64.391 120.631  0.00  0.00     0.091 C 
ENDROOT
BRANCH   1   7
ATOM      7  O   LIG d   1     -14.424  66.363 121.833  0.00  0.00    -0.368 OA
BRANCH   7   8
ATOM      8  C   LIG d   1     -14.028  67.079 120.637  0.00  0.00     0.119 C 
BRANCH   8   9
ATOM      9  C   LIG d   1     -13.131  68.252 121.075  0.00  0.00     0.028 C 
ATOM     10  C   LIG d   1     -11.699  68.133 120.525  0.00  0.00     0.006 C 
ENDBRANCH   8   9
BRANCH   8  11
ATOM     11  C   LIG d   1     -15.235  67.725 119.950  0.00  0.00     0.028 C 
ATOM     12  C   LIG d   1     -15.258  67.480 118.433  0.00  0.00     0.006 C 
ENDBRANCH   8  11
ENDBRANCH   7   8
ENDBRANCH   1   7
BRANCH   6  13
ATOM     13  N   LIG d   1     -14.920  63.948 120.099  0.00  0.00    -0.311 N 
ATOM     14  C   LIG d   1     -15.206  63.902 118.799  0.00  0.00     0.210 C 
ATOM     15  C   LIG d   1     -16.627  63.435 118.467  0.00  0.00     0.109 C 
ATOM     16  O   LIG d   1     -14.408  64.171 117.889  0.00  0.00    -0.276 OA
ATOM     17  H   LIG d   1     -15.616  63.681 120.768  0.00  0.00     0.149 HD
ENDBRANCH   6  13
BRANCH   5  18
ATOM     18  N   LIG d   1     -12.237  62.653 119.422  0.00  0.00     0.381 N 
ATOM     19  H   LIG d   1     -11.827  61.749 119.549  0.00  0.00    -0.090 HD
ATOM     20  H   LIG d   1     -11.559  63.247 118.977  0.00  0.00    -0.090 HD
ATOM     21  H   LIG d   1     -13.051  62.580 118.852  0.00  0.00    -0.090 HD
ENDBRANCH   5  18
BRANCH   3  22
ATOM     22  C   LIG d   1     -10.517  64.412 123.531  0.00  0.00     0.382 C 
ATOM     23  O   LIG d   1      -9.381  63.967 123.241  0.00  0.00    -0.241 OA
ATOM     24  O   LIG d   1     -10.751  64.784 124.697  0.00  0.00    -0.241 OA
ENDBRANCH   3  22
TORSDOF 7
ENDMDL
