MODEL 1
REMARK VINA RESULT:      -5.0      0.000      0.000
REMARK  7 active torsions:
REMARK  status: ('A' for Active; 'I' for Inactive)
REMARK    1  A    between atoms: C_2  and  C_3 
REMARK    2  A    between atoms: C_3  and  O_6 
REMARK    3  A    between atoms: C_3  and  C_4 
REMARK    4  A    between atoms: C_7  and  O_6 
REMARK    5  A    between atoms: C_9  and  C_10 
REMARK    6  A    between atoms: N_15  and  C_14 
REMARK    7  A    between atoms: N_20  and  C_19 
REMARK       I    between atoms: C_22  and  N_20 
ROOT
ATOM      1  C   LIG d   1      -0.914  59.749 119.378  0.00  0.00     0.161 C 
ATOM      2  C   LIG d   1      -2.196  59.357 118.960  0.00  0.00     0.016 C 
ATOM      3  C   LIG d   1      -2.438  58.218 118.157  0.00  0.00     0.038 C 
ATOM      4  C   LIG d   1      -1.422  57.303 117.843  0.00  0.00     0.028 C 
ATOM      5  C   LIG d   1      -0.031  57.927 117.819  0.00  0.00    -0.047 C 
ATOM      6  C   LIG d   1       0.193  58.702 119.138  0.00  0.00     0.091 C 
ENDROOT
BRANCH   1   7
ATOM      7  O   LIG d   1      -0.949  60.131 120.767  0.00  0.00    -0.368 OA
BRANCH   7   8
ATOM      8  C   LIG d   1      -0.887  59.049 121.728  0.00  0.00     0.119 C 
BRANCH   8   9
ATOM      9  C   LIG d   1      -2.133  59.156 122.628  0.00  0.00     0.028 C 
ATOM     10  C   LIG d   1      -2.088  58.173 123.811  0.00  0.00     0.006 C 
ENDBRANCH   8   9
BRANCH   8  11
ATOM     11  C   LIG d   1       0.310  59.209 122.671  0.00  0.00     0.028 C 
ATOM     12  C   LIG d   1       0.925  60.616 122.619  0.00  0.00     0.006 C 
ENDBRANCH   8  11
ENDBRANCH   7   8
ENDBRANCH   1   7
BRANCH   6  13
ATOM     13  N   LIG d   1       1.498  59.414 119.162  0.00  0.00    -0.311 N 
ATOM     14  C   LIG d   1       2.600  58.907 119.712  0.00  0.00     0.210 C 
ATOM     15  C   LIG d   1       3.832  59.814 119.645  0.00  0.00     0.109 C 
ATOM     16  O   LIG d   1       2.682  57.778 120.220  0.00  0.00    -0.276 OA
ATOM     17  H   LIG d   1       1.529  60.323 118.743  0.00  0.00     0.149 HD
ENDBRANCH   6  13
BRANCH   5  18
ATOM     18  N   LIG d   1       0.943  56.838 117.615  0.00  0.00     0.381 N 
ATOM     19  H   LIG d   1       1.500  56.723 118.438  0.00  0.00    -0.090 HD
ATOM     20  H   LIG d   1       1.551  57.084 116.854  0.00  0.00    -0.090 HD
ATOM     21  H   LIG d   1       0.466  55.989 117.407  0.00  0.00    -0.090 HD
ENDBRANCH   5  18
BRANCH   3  22
ATOM     22  C   LIG d   1      -3.702  58.006 117.627  0.00  0.00     0.382 C 
ATOM     23  O   LIG d   1      -4.374  58.977 117.203  0.00  0.00    -0.241 OA
ATOM     24  O   LIG d   1      -4.196  56.863 117.609  0.00  0.00    -0.241 OA
ENDBRANCH   3  22
TORSDOF 7
ENDMDL
MODEL 2
REMARK VINA RESULT:      -4.7      2.313      5.799
REMARK  7 active torsions:
REMARK  status: ('A' for Active; 'I' for Inactive)
REMARK    1  A    between atoms: C_2  and  C_3 
REMARK    2  A    between atoms: C_3  and  O_6 
REMARK    3  A    between atoms: C_3  and  C_4 
REMARK    4  A    between atoms: C_7  and  O_6 
REMARK    5  A    between atoms: C_9  and  C_10 
REMARK    6  A    between atoms: N_15  and  C_14 
REMARK    7  A    between atoms: N_20  and  C_19 
REMARK       I    between atoms: C_22  and  N_20 
ROOT
ATOM      1  C   LIG d   1      -0.425  59.665 119.844  0.00  0.00     0.161 C 
ATOM      2  C   LIG d   1       0.357  59.775 121.006  0.00  0.00     0.016 C 
ATOM      3  C   LIG d   1      -0.090  59.372 122.285  0.00  0.00     0.038 C 
ATOM      4  C   LIG d   1      -1.300  58.686 122.466  0.00  0.00     0.028 C 
ATOM      5  C   LIG d   1      -2.342  59.005 121.400  0.00  0.00    -0.047 C 
ATOM      6  C   LIG d   1      -1.705  58.818 120.004  0.00  0.00     0.091 C 
ENDROOT
BRANCH   1   7
ATOM      7  O   LIG d   1       0.379  59.159 118.760  0.00  0.00    -0.368 OA
BRANCH   7   8
ATOM      8  C   LIG d   1       1.454  58.261 119.130  0.00  0.00     0.119 C 
BRANCH   8   9
ATOM      9  C   LIG d   1       2.768  58.872 118.605  0.00  0.00     0.028 C 
ATOM     10  C   LIG d   1       3.892  58.836 119.655  0.00  0.00     0.006 C 
ENDBRANCH   8   9
BRANCH   8  11
ATOM     11  C   LIG d   1       1.322  56.911 118.419  0.00  0.00     0.028 C 
ATOM     12  C   LIG d   1       0.027  56.793 117.599  0.00  0.00     0.006 C 
ENDBRANCH   8  11
ENDBRANCH   7   8
ENDBRANCH   1   7
BRANCH   6  13
ATOM     13  N   LIG d   1      -2.631  59.191 118.903  0.00  0.00    -0.311 N 
ATOM     14  C   LIG d   1      -3.446  58.323 118.305  0.00  0.00     0.210 C 
ATOM     15  C   LIG d   1      -4.304  58.911 117.180  0.00  0.00     0.109 C 
ATOM     16  O   LIG d   1      -3.563  57.129 118.620  0.00  0.00    -0.276 OA
ATOM     17  H   LIG d   1      -2.624  60.146 118.605  0.00  0.00     0.149 HD
ENDBRANCH   6  13
BRANCH   5  18
ATOM     18  N   LIG d   1      -3.501  58.122 121.630  0.00  0.00     0.381 N 
ATOM     19  H   LIG d   1      -4.192  58.603 122.169  0.00  0.00    -0.090 HD
ATOM     20  H   LIG d   1      -3.198  57.318 122.151  0.00  0.00    -0.090 HD
ATOM     21  H   LIG d   1      -3.889  57.834 120.758  0.00  0.00    -0.090 HD
ENDBRANCH   5  18
BRANCH   3  22
ATOM     22  C   LIG d   1       0.661  59.690 123.407  0.00  0.00     0.382 C 
ATOM     23  O   LIG d   1       1.136  60.844 123.537  0.00  0.00    -0.241 OA
ATOM     24  O   LIG d   1       0.907  58.824 124.269  0.00  0.00    -0.241 OA
ENDBRANCH   3  22
TORSDOF 7
ENDMDL
MODEL 3
REMARK VINA RESULT:      -4.3      2.555      5.786
REMARK  7 active torsions:
REMARK  status: ('A' for Active; 'I' for Inactive)
REMARK    1  A    between atoms: C_2  and  C_3 
REMARK    2  A    between atoms: C_3  and  O_6 
REMARK    3  A    between atoms: C_3  and  C_4 
REMARK    4  A    between atoms: C_7  and  O_6 
REMARK    5  A    between atoms: C_9  and  C_10 
REMARK    6  A    between atoms: N_15  and  C_14 
REMARK    7  A    between atoms: N_20  and  C_19 
REMARK       I    between atoms: C_22  and  N_20 
ROOT
ATOM      1  C   LIG d   1      -0.541  58.337 120.640  0.00  0.00     0.161 C 
ATOM      2  C   LIG d   1       0.117  59.090 121.626  0.00  0.00     0.016 C 
ATOM      3  C   LIG d   1      -0.469  59.425 122.869  0.00  0.00     0.038 C 
ATOM      4  C   LIG d   1      -1.705  58.898 123.272  0.00  0.00     0.028 C 
ATOM      5  C   LIG d   1      -2.623  58.547 122.106  0.00  0.00    -0.047 C 
ATOM      6  C   LIG d   1      -1.847  57.660 121.106  0.00  0.00     0.091 C 
ENDROOT
BRANCH   1   7
ATOM      7  O   LIG d   1       0.362  57.357 120.089  0.00  0.00    -0.368 OA
BRANCH   7   8
ATOM      8  C   LIG d   1       0.826  57.605 118.739  0.00  0.00     0.119 C 
BRANCH   8   9
ATOM      9  C   LIG d   1       0.541  56.337 117.912  0.00  0.00     0.028 C 
ATOM     10  C   LIG d   1       0.527  55.064 118.774  0.00  0.00     0.006 C 
ENDBRANCH   8   9
BRANCH   8  11
ATOM     11  C   LIG d   1       2.346  57.784 118.696  0.00  0.00     0.028 C 
ATOM     12  C   LIG d   1       2.778  59.251 118.851  0.00  0.00     0.006 C 
ENDBRANCH   8  11
ENDBRANCH   7   8
ENDBRANCH   1   7
BRANCH   6  13
ATOM     13  N   LIG d   1      -2.645  57.340 119.894  0.00  0.00    -0.311 N 
ATOM     14  C   LIG d   1      -2.885  58.217 118.921  0.00  0.00     0.210 C 
ATOM     15  C   LIG d   1      -3.747  57.688 117.771  0.00  0.00     0.109 C 
ATOM     16  O   LIG d   1      -2.439  59.374 118.886  0.00  0.00    -0.276 OA
ATOM     17  H   LIG d   1      -3.020  56.413 119.826  0.00  0.00     0.149 HD
ENDBRANCH   6  13
BRANCH   5  18
ATOM     18  N   LIG d   1      -3.816  57.882 122.663  0.00  0.00     0.381 N 
ATOM     19  H   LIG d   1      -3.801  56.909 122.432  0.00  0.00    -0.090 HD
ATOM     20  H   LIG d   1      -4.637  58.291 122.253  0.00  0.00    -0.090 HD
ATOM     21  H   LIG d   1      -3.839  57.996 123.653  0.00  0.00    -0.090 HD
ENDBRANCH   5  18
BRANCH   3  22
ATOM     22  C   LIG d   1       0.166  60.329 123.706  0.00  0.00     0.382 C 
ATOM     23  O   LIG d   1       1.108  59.948 124.442  0.00  0.00    -0.241 OA
ATOM     24  O   LIG d   1      -0.219  61.512 123.768  0.00  0.00    -0.241 OA
ENDBRANCH   3  22
TORSDOF 7
ENDMDL
MODEL 4
REMARK VINA RESULT:      -4.2     22.771     24.255
REMARK  7 active torsions:
REMARK  status: ('A' for Active; 'I' for Inactive)
REMARK    1  A    between atoms: C_2  and  C_3 
REMARK    2  A    between atoms: C_3  and  O_6 
REMARK    3  A    between atoms: C_3  and  C_4 
REMARK    4  A    between atoms: C_7  and  O_6 
REMARK    5  A    between atoms: C_9  and  C_10 
REMARK    6  A    between atoms: N_15  and  C_14 
REMARK    7  A    between atoms: N_20  and  C_19 
REMARK       I    between atoms: C_22  and  N_20 
ROOT
ATOM      1  C   LIG d   1     -17.731  75.923 122.444  0.00  0.00     0.161 C 
ATOM      2  C   LIG d   1     -17.766  74.607 121.955  0.00  0.00     0.016 C 
ATOM      3  C   LIG d   1     -18.084  74.282 120.616  0.00  0.00     0.038 C 
ATOM      4  C   LIG d   1     -18.242  75.268 119.631  0.00  0.00     0.028 C 
ATOM      5  C   LIG d   1     -18.713  76.608 120.186  0.00  0.00    -0.047 C 
ATOM      6  C   LIG d   1     -17.792  77.018 121.358  0.00  0.00     0.091 C 
ENDROOT
BRANCH   1   7
ATOM      7  O   LIG d   1     -16.567  76.105 123.274  0.00  0.00    -0.368 OA
BRANCH   7   8
ATOM      8  C   LIG d   1     -15.321  75.589 122.746  0.00  0.00     0.119 C 
BRANCH   8   9
ATOM      9  C   LIG d   1     -14.643  74.778 123.868  0.00  0.00     0.028 C 
ATOM     10  C   LIG d   1     -14.573  73.276 123.547  0.00  0.00     0.006 C 
ENDBRANCH   8   9
BRANCH   8  11
ATOM     11  C   LIG d   1     -14.343  76.721 122.417  0.00  0.00     0.028 C 
ATOM     12  C   LIG d   1     -13.089  76.229 121.678  0.00  0.00     0.006 C 
ENDBRANCH   8  11
ENDBRANCH   7   8
ENDBRANCH   1   7
BRANCH   6  13
ATOM     13  N   LIG d   1     -18.233  78.277 122.013  0.00  0.00    -0.311 N 
ATOM     14  C   LIG d   1     -17.865  79.488 121.598  0.00  0.00     0.210 C 
ATOM     15  C   LIG d   1     -18.417  80.651 122.427  0.00  0.00     0.109 C 
ATOM     16  O   LIG d   1     -17.159  79.710 120.602  0.00  0.00    -0.276 OA
ATOM     17  H   LIG d   1     -18.833  78.190 122.810  0.00  0.00     0.149 HD
ENDBRANCH   6  13
BRANCH   5  18
ATOM     18  N   LIG d   1     -18.703  77.579 119.076  0.00  0.00     0.381 N 
ATOM     19  H   LIG d   1     -17.779  77.941 118.951  0.00  0.00    -0.090 HD
ATOM     20  H   LIG d   1     -19.313  78.344 119.307  0.00  0.00    -0.090 HD
ATOM     21  H   LIG d   1     -19.012  77.141 118.237  0.00  0.00    -0.090 HD
ENDBRANCH   5  18
BRANCH   3  22
ATOM     22  C   LIG d   1     -18.287  72.957 120.260  0.00  0.00     0.382 C 
ATOM     23  O   LIG d   1     -18.428  72.083 121.149  0.00  0.00    -0.241 OA
ATOM     24  O   LIG d   1     -18.285  72.618 119.061  0.00  0.00    -0.241 OA
ENDBRANCH   3  22
TORSDOF 7
ENDMDL
MODEL 5
REMARK VINA RESULT:      -4.0     33.719     35.219
REMARK  7 active torsions:
REMARK  status: ('A' for Active; 'I' for Inactive)
REMARK    1  A    between atoms: C_2  and  C_3 
REMARK    2  A    between atoms: C_3  and  O_6 
REMARK    3  A    between atoms: C_3  and  C_4 
REMARK    4  A    between atoms: C_7  and  O_6 
REMARK    5  A    between atoms: C_9  and  C_10 
REMARK    6  A    between atoms: N_15  and  C_14 
REMARK    7  A    between atoms: N_20  and  C_19 
REMARK       I    between atoms: C_22  and  N_20 
ROOT
ATOM      1  C   LIG d   1      -4.783  93.240 119.364  0.00  0.00     0.161 C 
ATOM      2  C   LIG d   1      -3.598  92.633 118.916  0.00  0.00     0.016 C 
ATOM      3  C   LIG d   1      -3.571  91.588 117.964  0.00  0.00     0.038 C 
ATOM      4  C   LIG d   1      -4.724  91.179 117.279  0.00  0.00     0.028 C 
ATOM      5  C   LIG d   1      -6.011  91.415 118.064  0.00  0.00    -0.047 C 
ATOM      6  C   LIG d   1      -6.042  92.883 118.546  0.00  0.00     0.091 C 
ENDROOT
BRANCH   1   7
ATOM      7  O   LIG d   1      -4.609  94.670 119.418  0.00  0.00    -0.368 OA
BRANCH   7   8
ATOM      8  C   LIG d   1      -4.871  95.296 120.698  0.00  0.00     0.119 C 
BRANCH   8   9
ATOM      9  C   LIG d   1      -5.784  96.511 120.441  0.00  0.00     0.028 C 
ATOM     10  C   LIG d   1      -6.134  96.677 118.953  0.00  0.00     0.006 C 
ENDBRANCH   8   9
BRANCH   8  11
ATOM     11  C   LIG d   1      -3.591  95.873 121.308  0.00  0.00     0.028 C 
ATOM     12  C   LIG d   1      -2.454  96.016 120.284  0.00  0.00     0.006 C 
ENDBRANCH   8  11
ENDBRANCH   7   8
ENDBRANCH   1   7
BRANCH   6  13
ATOM     13  N   LIG d   1      -7.227  93.177 119.394  0.00  0.00    -0.311 N 
ATOM     14  C   LIG d   1      -8.344  93.731 118.926  0.00  0.00     0.210 C 
ATOM     15  C   LIG d   1      -9.437  93.966 119.973  0.00  0.00     0.109 C 
ATOM     16  O   LIG d   1      -8.545  94.022 117.737  0.00  0.00    -0.276 OA
ATOM     17  H   LIG d   1      -7.161  92.944 120.365  0.00  0.00     0.149 HD
ENDBRANCH   6  13
BRANCH   5  18
ATOM     18  N   LIG d   1      -7.141  91.072 117.180  0.00  0.00     0.381 N 
ATOM     19  H   LIG d   1      -7.974  91.520 117.507  0.00  0.00    -0.090 HD
ATOM     20  H   LIG d   1      -7.286  90.078 117.208  0.00  0.00    -0.090 HD
ATOM     21  H   LIG d   1      -6.944  91.361 116.247  0.00  0.00    -0.090 HD
ENDBRANCH   5  18
BRANCH   3  22
ATOM     22  C   LIG d   1      -2.385  90.913 117.719  0.00  0.00     0.382 C 
ATOM     23  O   LIG d   1      -2.351  89.661 117.786  0.00  0.00    -0.241 OA
ATOM     24  O   LIG d   1      -1.338  91.543 117.475  0.00  0.00    -0.241 OA
ENDBRANCH   3  22
TORSDOF 7
ENDMDL
MODEL 6
REMARK VINA RESULT:      -4.0     20.197     21.536
REMARK  7 active torsions:
REMARK  status: ('A' for Active; 'I' for Inactive)
REMARK    1  A    between atoms: C_2  and  C_3 
REMARK    2  A    between atoms: C_3  and  O_6 
REMARK    3  A    between atoms: C_3  and  C_4 
REMARK    4  A    between atoms: C_7  and  O_6 
REMARK    5  A    between atoms: C_9  and  C_10 
REMARK    6  A    between atoms: N_15  and  C_14 
REMARK    7  A    between atoms: N_20  and  C_19 
REMARK       I    between atoms: C_22  and  N_20 
ROOT
ATOM      1  C   LIG d   1      -7.261  78.440 118.183  0.00  0.00     0.161 C 
ATOM      2  C   LIG d   1      -6.973  77.096 117.892  0.00  0.00     0.016 C 
ATOM      3  C   LIG d   1      -7.928  76.058 117.985  0.00  0.00     0.038 C 
ATOM      4  C   LIG d   1      -9.285  76.318 118.232  0.00  0.00     0.028 C 
ATOM      5  C   LIG d   1      -9.521  77.597 119.028  0.00  0.00    -0.047 C 
ATOM      6  C   LIG d   1      -8.762  78.759 118.347  0.00  0.00     0.091 C 
ENDROOT
BRANCH   1   7
ATOM      7  O   LIG d   1      -6.674  79.294 117.182  0.00  0.00    -0.368 OA
BRANCH   7   8
ATOM      8  C   LIG d   1      -5.504  80.045 117.591  0.00  0.00     0.119 C 
BRANCH   8   9
ATOM      9  C   LIG d   1      -4.264  79.228 117.180  0.00  0.00     0.028 C 
ATOM     10  C   LIG d   1      -2.975  79.744 117.843  0.00  0.00     0.006 C 
ENDBRANCH   8   9
BRANCH   8  11
ATOM     11  C   LIG d   1      -5.424  80.164 119.116  0.00  0.00     0.028 C 
ATOM     12  C   LIG d   1      -5.737  81.582 119.619  0.00  0.00     0.006 C 
ENDBRANCH   8  11
ENDBRANCH   7   8
ENDBRANCH   1   7
BRANCH   6  13
ATOM     13  N   LIG d   1      -8.871  80.030 119.109  0.00  0.00    -0.311 N 
ATOM     14  C   LIG d   1      -9.765  80.978 118.830  0.00  0.00     0.210 C 
ATOM     15  C   LIG d   1      -9.693  82.218 119.726  0.00  0.00     0.109 C 
ATOM     16  O   LIG d   1     -10.631  80.895 117.946  0.00  0.00    -0.276 OA
ATOM     17  H   LIG d   1      -8.227  80.167 119.863  0.00  0.00     0.149 HD
ENDBRANCH   6  13
BRANCH   5  18
ATOM     18  N   LIG d   1     -10.978  77.818 119.094  0.00  0.00     0.381 N 
ATOM     19  H   LIG d   1     -11.262  78.428 118.354  0.00  0.00    -0.090 HD
ATOM     20  H   LIG d   1     -11.200  78.258 119.970  0.00  0.00    -0.090 HD
ATOM     21  H   LIG d   1     -11.458  76.948 119.021  0.00  0.00    -0.090 HD
ENDBRANCH   5  18
BRANCH   3  22
ATOM     22  C   LIG d   1      -7.521  74.737 117.869  0.00  0.00     0.382 C 
ATOM     23  O   LIG d   1      -8.372  73.832 117.693  0.00  0.00    -0.241 OA
ATOM     24  O   LIG d   1      -6.318  74.435 117.981  0.00  0.00    -0.241 OA
ENDBRANCH   3  22
TORSDOF 7
ENDMDL
MODEL 7
REMARK VINA RESULT:      -4.0     22.553     23.795
REMARK  7 active torsions:
REMARK  status: ('A' for Active; 'I' for Inactive)
REMARK    1  A    between atoms: C_2  and  C_3 
REMARK    2  A    between atoms: C_3  and  O_6 
REMARK    3  A    between atoms: C_3  and  C_4 
REMARK    4  A    between atoms: C_7  and  O_6 
REMARK    5  A    between atoms: C_9  and  C_10 
REMARK    6  A    between atoms: N_15  and  C_14 
REMARK    7  A    between atoms: N_20  and  C_19 
REMARK       I    between atoms: C_22  and  N_20 
ROOT
ATOM      1  C   LIG d   1      -8.586  80.273 120.917  0.00  0.00     0.161 C 
ATOM      2  C   LIG d   1      -9.701  80.790 121.597  0.00  0.00     0.016 C 
ATOM      3  C   LIG d   1     -10.195  82.100 121.399  0.00  0.00     0.038 C 
ATOM      4  C   LIG d   1      -9.695  82.936 120.390  0.00  0.00     0.028 C 
ATOM      5  C   LIG d   1      -8.244  82.643 120.023  0.00  0.00    -0.047 C 
ATOM      6  C   LIG d   1      -8.096  81.132 119.732  0.00  0.00     0.091 C 
ENDROOT
BRANCH   1   7
ATOM      7  O   LIG d   1      -8.860  78.927 120.480  0.00  0.00    -0.368 OA
BRANCH   7   8
ATOM      8  C   LIG d   1      -9.823  78.789 119.406  0.00  0.00     0.119 C 
BRANCH   8   9
ATOM      9  C   LIG d   1     -10.828  77.698 119.823  0.00  0.00     0.028 C 
ATOM     10  C   LIG d   1     -10.492  77.083 121.192  0.00  0.00     0.006 C 
ENDBRANCH   8   9
BRANCH   8  11
ATOM     11  C   LIG d   1      -9.161  78.264 118.129  0.00  0.00     0.028 C 
ATOM     12  C   LIG d   1      -7.932  77.386 118.412  0.00  0.00     0.006 C 
ENDBRANCH   8  11
ENDBRANCH   7   8
ENDBRANCH   1   7
BRANCH   6  13
ATOM     13  N   LIG d   1      -6.689  80.745 119.447  0.00  0.00    -0.311 N 
ATOM     14  C   LIG d   1      -6.184  80.670 118.217  0.00  0.00     0.210 C 
ATOM     15  C   LIG d   1      -4.718  80.232 118.145  0.00  0.00     0.109 C 
ATOM     16  O   LIG d   1      -6.802  80.956 117.180  0.00  0.00    -0.276 OA
ATOM     17  H   LIG d   1      -6.108  80.526 120.233  0.00  0.00     0.149 HD
ENDBRANCH   6  13
BRANCH   5  18
ATOM     18  N   LIG d   1      -7.896  83.491 118.868  0.00  0.00     0.381 N 
ATOM     19  H   LIG d   1      -8.235  83.072 118.025  0.00  0.00    -0.090 HD
ATOM     20  H   LIG d   1      -6.895  83.560 118.805  0.00  0.00    -0.090 HD
ATOM     21  H   LIG d   1      -8.292  84.398 118.979  0.00  0.00    -0.090 HD
ENDBRANCH   5  18
BRANCH   3  22
ATOM     22  C   LIG d   1     -11.174  82.600 122.243  0.00  0.00     0.382 C 
ATOM     23  O   LIG d   1     -11.618  81.890 123.178  0.00  0.00    -0.241 OA
ATOM     24  O   LIG d   1     -11.652  83.734 122.054  0.00  0.00    -0.241 OA
ENDBRANCH   3  22
TORSDOF 7
ENDMDL
MODEL 8
REMARK VINA RESULT:      -4.0     24.613     26.150
REMARK  7 active torsions:
REMARK  status: ('A' for Active; 'I' for Inactive)
REMARK    1  A    between atoms: C_2  and  C_3 
REMARK    2  A    between atoms: C_3  and  O_6 
REMARK    3  A    between atoms: C_3  and  C_4 
REMARK    4  A    between atoms: C_7  and  O_6 
REMARK    5  A    between atoms: C_9  and  C_10 
REMARK    6  A    between atoms: N_15  and  C_14 
REMARK    7  A    between atoms: N_20  and  C_19 
REMARK       I    between atoms: C_22  and  N_20 
ROOT
ATOM      1  C   LIG d   1     -18.672  76.948 119.610  0.00  0.00     0.161 C 
ATOM      2  C   LIG d   1     -19.176  78.255 119.720  0.00  0.00     0.016 C 
ATOM      3  C   LIG d   1     -20.510  78.546 120.087  0.00  0.00     0.038 C 
ATOM      4  C   LIG d   1     -21.395  77.547 120.519  0.00  0.00     0.028 C 
ATOM      5  C   LIG d   1     -21.084  76.171 119.940  0.00  0.00    -0.047 C 
ATOM      6  C   LIG d   1     -19.591  75.850 120.184  0.00  0.00     0.091 C 
ENDROOT
BRANCH   1   7
ATOM      7  O   LIG d   1     -17.366  76.876 120.215  0.00  0.00    -0.368 OA
BRANCH   7   8
ATOM      8  C   LIG d   1     -17.330  76.929 121.662  0.00  0.00     0.119 C 
BRANCH   8   9
ATOM      9  C   LIG d   1     -16.672  78.264 122.061  0.00  0.00     0.028 C 
ATOM     10  C   LIG d   1     -17.554  79.094 123.008  0.00  0.00     0.006 C 
ENDBRANCH   8   9
BRANCH   8  11
ATOM     11  C   LIG d   1     -16.420  75.840 122.238  0.00  0.00     0.028 C 
ATOM     12  C   LIG d   1     -14.932  76.224 122.197  0.00  0.00     0.006 C 
ENDBRANCH   8  11
ENDBRANCH   7   8
ENDBRANCH   1   7
BRANCH   6  13
ATOM     13  N   LIG d   1     -19.182  74.557 119.575  0.00  0.00    -0.311 N 
ATOM     14  C   LIG d   1     -18.833  73.489 120.289  0.00  0.00     0.210 C 
ATOM     15  C   LIG d   1     -18.427  72.264 119.463  0.00  0.00     0.109 C 
ATOM     16  O   LIG d   1     -18.853  73.428 121.527  0.00  0.00    -0.276 OA
ATOM     17  H   LIG d   1     -19.169  74.509 118.575  0.00  0.00     0.149 HD
ENDBRANCH   6  13
BRANCH   5  18
ATOM     18  N   LIG d   1     -21.995  75.202 120.578  0.00  0.00     0.381 N 
ATOM     19  H   LIG d   1     -21.881  75.234 121.572  0.00  0.00    -0.090 HD
ATOM     20  H   LIG d   1     -21.759  74.278 120.263  0.00  0.00    -0.090 HD
ATOM     21  H   LIG d   1     -22.939  75.413 120.338  0.00  0.00    -0.090 HD
ENDBRANCH   5  18
BRANCH   3  22
ATOM     22  C   LIG d   1     -20.982  79.846 119.987  0.00  0.00     0.382 C 
ATOM     23  O   LIG d   1     -20.185  80.787 119.757  0.00  0.00    -0.241 OA
ATOM     24  O   LIG d   1     -22.189  80.095 120.166  0.00  0.00    -0.241 OA
ENDBRANCH   3  22
TORSDOF 7
ENDMDL
MODEL 9
REMARK VINA RESULT:      -3.9     12.856     15.062
REMARK  7 active torsions:
REMARK  status: ('A' for Active; 'I' for Inactive)
REMARK    1  A    between atoms: C_2  and  C_3 
REMARK    2  A    between atoms: C_3  and  O_6 
REMARK    3  A    between atoms: C_3  and  C_4 
REMARK    4  A    between atoms: C_7  and  O_6 
REMARK    5  A    between atoms: C_9  and  C_10 
REMARK    6  A    between atoms: N_15  and  C_14 
REMARK    7  A    between atoms: N_20  and  C_19 
REMARK       I    between atoms: C_22  and  N_20 
ROOT
ATOM      1  C   LIG d   1     -14.168  64.210 121.896  0.00  0.00     0.161 C 
ATOM      2  C   LIG d   1     -13.016  64.034 122.680  0.00  0.00     0.016 C 
ATOM      3  C   LIG d   1     -11.952  63.176 122.319  0.00  0.00     0.038 C 
ATOM      4  C   LIG d   1     -11.900  62.546 121.066  0.00  0.00     0.028 C 
ATOM      5  C   LIG d   1     -13.275  62.296 120.456  0.00  0.00    -0.047 C 
ATOM      6  C   LIG d   1     -14.080  63.616 120.474  0.00  0.00     0.091 C 
ENDROOT
BRANCH   1   7
ATOM      7  O   LIG d   1     -14.510  65.609 121.835  0.00  0.00    -0.368 OA
BRANCH   7   8
ATOM      8  C   LIG d   1     -13.467  66.499 121.366  0.00  0.00     0.119 C 
BRANCH   8   9
ATOM      9  C   LIG d   1     -13.482  67.746 122.271  0.00  0.00     0.028 C 
ATOM     10  C   LIG d   1     -14.231  67.504 123.592  0.00  0.00     0.006 C 
ENDBRANCH   8   9
BRANCH   8  11
ATOM     11  C   LIG d   1     -13.768  67.017 119.957  0.00  0.00     0.028 C 
ATOM     12  C   LIG d   1     -15.273  67.178 119.690  0.00  0.00     0.006 C 
ENDBRANCH   8  11
ENDBRANCH   7   8
ENDBRANCH   1   7
BRANCH   6  13
ATOM     13  N   LIG d   1     -15.467  63.442 119.972  0.00  0.00    -0.311 N 
ATOM     14  C   LIG d   1     -15.829  63.688 118.714  0.00  0.00     0.210 C 
ATOM     15  C   LIG d   1     -17.313  63.462 118.411  0.00  0.00     0.109 C 
ATOM     16  O   LIG d   1     -15.054  64.042 117.812  0.00  0.00    -0.276 OA
ATOM     17  H   LIG d   1     -16.154  63.127 120.630  0.00  0.00     0.149 HD
ENDBRANCH   6  13
BRANCH   5  18
ATOM     18  N   LIG d   1     -13.070  61.763 119.097  0.00  0.00     0.381 N 
ATOM     19  H   LIG d   1     -12.428  62.346 118.597  0.00  0.00    -0.090 HD
ATOM     20  H   LIG d   1     -13.948  61.770 118.608  0.00  0.00    -0.090 HD
ATOM     21  H   LIG d   1     -12.716  60.833 119.145  0.00  0.00    -0.090 HD
ENDBRANCH   5  18
BRANCH   3  22
ATOM     22  C   LIG d   1     -10.944  62.910 123.232  0.00  0.00     0.382 C 
ATOM     23  O   LIG d   1     -10.943  63.481 124.349  0.00  0.00    -0.241 OA
ATOM     24  O   LIG d   1     -10.011  62.139 122.936  0.00  0.00    -0.241 OA
ENDBRANCH   3  22
TORSDOF 7
ENDMDL
