MODEL 1
REMARK VINA RESULT:      -4.5      0.000      0.000
REMARK  7 active torsions:
REMARK  status: ('A' for Active; 'I' for Inactive)
REMARK    1  A    between atoms: C_2  and  C_3 
REMARK    2  A    between atoms: C_3  and  O_6 
REMARK    3  A    between atoms: C_3  and  C_4 
REMARK    4  A    between atoms: C_7  and  O_6 
REMARK    5  A    between atoms: C_9  and  C_10 
REMARK    6  A    between atoms: N_15  and  C_14 
REMARK    7  A    between atoms: N_20  and  C_19 
REMARK       I    between atoms: C_22  and  N_20 
ROOT
ATOM      1  C   LIG d   1       0.207  59.611 120.492  0.00  0.00     0.161 C 
ATOM      2  C   LIG d   1       1.455  59.737 121.124  0.00  0.00     0.016 C 
ATOM      3  C   LIG d   1       2.677  59.376 120.511  0.00  0.00     0.038 C 
ATOM      4  C   LIG d   1       2.748  59.004 119.161  0.00  0.00     0.028 C 
ATOM      5  C   LIG d   1       1.459  58.380 118.636  0.00  0.00    -0.047 C 
ATOM      6  C   LIG d   1       0.275  59.312 118.980  0.00  0.00     0.091 C 
ENDROOT
BRANCH   1   7
ATOM      7  O   LIG d   1      -0.584  60.791 120.734  0.00  0.00    -0.368 OA
BRANCH   7   8
ATOM      8  C   LIG d   1      -1.721  60.627 121.618  0.00  0.00     0.119 C 
BRANCH   8   9
ATOM      9  C   LIG d   1      -1.462  61.486 122.870  0.00  0.00     0.028 C 
ATOM     10  C   LIG d   1      -0.913  60.660 124.046  0.00  0.00     0.006 C 
ENDBRANCH   8   9
BRANCH   8  11
ATOM     11  C   LIG d   1      -1.825  59.186 122.128  0.00  0.00     0.028 C 
ATOM     12  C   LIG d   1      -3.085  58.465 121.623  0.00  0.00     0.006 C 
ENDBRANCH   8  11
ENDBRANCH   7   8
ENDBRANCH   1   7
BRANCH   6  13
ATOM     13  N   LIG d   1      -1.035  58.736 118.576  0.00  0.00    -0.311 N 
ATOM     14  C   LIG d   1      -1.943  59.406 117.868  0.00  0.00     0.210 C 
ATOM     15  C   LIG d   1      -3.233  58.633 117.577  0.00  0.00     0.109 C 
ATOM     16  O   LIG d   1      -1.788  60.554 117.426  0.00  0.00    -0.276 OA
ATOM     17  H   LIG d   1      -1.230  57.798 118.867  0.00  0.00     0.149 HD
ENDBRANCH   6  13
BRANCH   5  18
ATOM     18  N   LIG d   1       1.625  58.167 117.186  0.00  0.00     0.381 N 
ATOM     19  H   LIG d   1       1.637  59.049 116.713  0.00  0.00    -0.090 HD
ATOM     20  H   LIG d   1       0.843  57.637 116.844  0.00  0.00    -0.090 HD
ATOM     21  H   LIG d   1       2.473  57.675 117.008  0.00  0.00    -0.090 HD
ENDBRANCH   5  18
BRANCH   3  22
ATOM     22  C   LIG d   1       3.842  59.347 121.264  0.00  0.00     0.382 C 
ATOM     23  O   LIG d   1       4.293  58.253 121.679  0.00  0.00    -0.241 OA
ATOM     24  O   LIG d   1       4.422  60.406 121.571  0.00  0.00    -0.241 OA
ENDBRANCH   3  22
TORSDOF 7
ENDMDL
MODEL 2
REMARK VINA RESULT:      -4.4     33.231     34.888
REMARK  7 active torsions:
REMARK  status: ('A' for Active; 'I' for Inactive)
REMARK    1  A    between atoms: C_2  and  C_3 
REMARK    2  A    between atoms: C_3  and  O_6 
REMARK    3  A    between atoms: C_3  and  C_4 
REMARK    4  A    between atoms: C_7  and  O_6 
REMARK    5  A    between atoms: C_9  and  C_10 
REMARK    6  A    between atoms: N_15  and  C_14 
REMARK    7  A    between atoms: N_20  and  C_19 
REMARK       I    between atoms: C_22  and  N_20 
ROOT
ATOM      1  C   LIG d   1      -5.098  93.765 119.086  0.00  0.00     0.161 C 
ATOM      2  C   LIG d   1      -3.952  93.093 118.631  0.00  0.00     0.016 C 
ATOM      3  C   LIG d   1      -3.993  91.847 117.964  0.00  0.00     0.038 C 
ATOM      4  C   LIG d   1      -5.203  91.257 117.570  0.00  0.00     0.028 C 
ATOM      5  C   LIG d   1      -6.384  91.650 118.452  0.00  0.00    -0.047 C 
ATOM      6  C   LIG d   1      -6.433  93.190 118.567  0.00  0.00     0.091 C 
ENDROOT
BRANCH   1   7
ATOM      7  O   LIG d   1      -5.000  95.168 118.771  0.00  0.00    -0.368 OA
BRANCH   7   8
ATOM      8  C   LIG d   1      -5.077  96.080 119.893  0.00  0.00     0.119 C 
BRANCH   8   9
ATOM      9  C   LIG d   1      -6.107  97.169 119.534  0.00  0.00     0.028 C 
ATOM     10  C   LIG d   1      -6.699  96.977 118.128  0.00  0.00     0.006 C 
ENDBRANCH   8   9
BRANCH   8  11
ATOM     11  C   LIG d   1      -3.754  96.825 120.098  0.00  0.00     0.028 C 
ATOM     12  C   LIG d   1      -2.887  96.858 118.830  0.00  0.00     0.006 C 
ENDBRANCH   8  11
ENDBRANCH   7   8
ENDBRANCH   1   7
BRANCH   6  13
ATOM     13  N   LIG d   1      -7.509  93.656 119.481  0.00  0.00    -0.311 N 
ATOM     14  C   LIG d   1      -8.740  93.956 119.072  0.00  0.00     0.210 C 
ATOM     15  C   LIG d   1      -9.689  94.436 120.174  0.00  0.00     0.109 C 
ATOM     16  O   LIG d   1      -9.145  93.839 117.906  0.00  0.00    -0.276 OA
ATOM     17  H   LIG d   1      -7.275  93.749 120.450  0.00  0.00     0.149 HD
ENDBRANCH   6  13
BRANCH   5  18
ATOM     18  N   LIG d   1      -7.601  91.076 117.848  0.00  0.00     0.381 N 
ATOM     19  H   LIG d   1      -8.151  90.628 118.554  0.00  0.00    -0.090 HD
ATOM     20  H   LIG d   1      -7.333  90.384 117.170  0.00  0.00    -0.090 HD
ATOM     21  H   LIG d   1      -8.134  91.794 117.407  0.00  0.00    -0.090 HD
ENDBRANCH   5  18
BRANCH   3  22
ATOM     22  C   LIG d   1      -2.814  91.159 117.719  0.00  0.00     0.382 C 
ATOM     23  O   LIG d   1      -1.742  91.790 117.555  0.00  0.00    -0.241 OA
ATOM     24  O   LIG d   1      -2.817  89.918 117.616  0.00  0.00    -0.241 OA
ENDBRANCH   3  22
TORSDOF 7
ENDMDL
MODEL 3
REMARK VINA RESULT:      -4.3     21.484     23.674
REMARK  7 active torsions:
REMARK  status: ('A' for Active; 'I' for Inactive)
REMARK    1  A    between atoms: C_2  and  C_3 
REMARK    2  A    between atoms: C_3  and  O_6 
REMARK    3  A    between atoms: C_3  and  C_4 
REMARK    4  A    between atoms: C_7  and  O_6 
REMARK    5  A    between atoms: C_9  and  C_10 
REMARK    6  A    between atoms: N_15  and  C_14 
REMARK    7  A    between atoms: N_20  and  C_19 
REMARK       I    between atoms: C_22  and  N_20 
ROOT
ATOM      1  C   LIG d   1      -6.893  81.247 118.456  0.00  0.00     0.161 C 
ATOM      2  C   LIG d   1      -7.700  80.099 118.385  0.00  0.00     0.016 C 
ATOM      3  C   LIG d   1      -9.083  80.100 118.681  0.00  0.00     0.038 C 
ATOM      4  C   LIG d   1      -9.788  81.289 118.922  0.00  0.00     0.028 C 
ATOM      5  C   LIG d   1      -8.920  82.402 119.499  0.00  0.00    -0.047 C 
ATOM      6  C   LIG d   1      -7.667  82.573 118.610  0.00  0.00     0.091 C 
ENDROOT
BRANCH   1   7
ATOM      7  O   LIG d   1      -6.024  81.305 117.308  0.00  0.00    -0.368 OA
BRANCH   7   8
ATOM      8  C   LIG d   1      -4.664  80.850 117.515  0.00  0.00     0.119 C 
BRANCH   8   9
ATOM      9  C   LIG d   1      -4.641  79.330 117.266  0.00  0.00     0.028 C 
ATOM     10  C   LIG d   1      -4.120  78.544 118.481  0.00  0.00     0.006 C 
ENDBRANCH   8   9
BRANCH   8  11
ATOM     11  C   LIG d   1      -4.232  81.029 118.973  0.00  0.00     0.028 C 
ATOM     12  C   LIG d   1      -3.096  82.051 119.137  0.00  0.00     0.006 C 
ENDBRANCH   8  11
ENDBRANCH   7   8
ENDBRANCH   1   7
BRANCH   6  13
ATOM     13  N   LIG d   1      -6.723  83.585 119.151  0.00  0.00    -0.311 N 
ATOM     14  C   LIG d   1      -6.227  83.539 120.386  0.00  0.00     0.210 C 
ATOM     15  C   LIG d   1      -5.286  84.692 120.748  0.00  0.00     0.109 C 
ATOM     16  O   LIG d   1      -6.452  82.636 121.205  0.00  0.00    -0.276 OA
ATOM     17  H   LIG d   1      -6.462  84.337 118.543  0.00  0.00     0.149 HD
ENDBRANCH   6  13
BRANCH   5  18
ATOM     18  N   LIG d   1      -9.748  83.620 119.573  0.00  0.00     0.381 N 
ATOM     19  H   LIG d   1      -9.195  84.421 119.341  0.00  0.00    -0.090 HD
ATOM     20  H   LIG d   1     -10.083  83.730 120.514  0.00  0.00    -0.090 HD
ATOM     21  H   LIG d   1     -10.518  83.547 118.945  0.00  0.00    -0.090 HD
ENDBRANCH   5  18
BRANCH   3  22
ATOM     22  C   LIG d   1      -9.766  78.898 118.775  0.00  0.00     0.382 C 
ATOM     23  O   LIG d   1     -10.948  78.880 119.195  0.00  0.00    -0.241 OA
ATOM     24  O   LIG d   1      -9.201  77.826 118.488  0.00  0.00    -0.241 OA
ENDBRANCH   3  22
TORSDOF 7
ENDMDL
MODEL 4
REMARK VINA RESULT:      -4.3     22.641     24.899
REMARK  7 active torsions:
REMARK  status: ('A' for Active; 'I' for Inactive)
REMARK    1  A    between atoms: C_2  and  C_3 
REMARK    2  A    between atoms: C_3  and  O_6 
REMARK    3  A    between atoms: C_3  and  C_4 
REMARK    4  A    between atoms: C_7  and  O_6 
REMARK    5  A    between atoms: C_9  and  C_10 
REMARK    6  A    between atoms: N_15  and  C_14 
REMARK    7  A    between atoms: N_20  and  C_19 
REMARK       I    between atoms: C_22  and  N_20 
ROOT
ATOM      1  C   LIG d   1      -8.305  82.106 120.090  0.00  0.00     0.161 C 
ATOM      2  C   LIG d   1      -8.583  80.940 119.357  0.00  0.00     0.016 C 
ATOM      3  C   LIG d   1      -9.763  80.180 119.521  0.00  0.00     0.038 C 
ATOM      4  C   LIG d   1     -10.823  80.621 120.328  0.00  0.00     0.028 C 
ATOM      5  C   LIG d   1     -10.378  81.529 121.470  0.00  0.00    -0.047 C 
ATOM      6  C   LIG d   1      -9.499  82.663 120.895  0.00  0.00     0.091 C 
ENDROOT
BRANCH   1   7
ATOM      7  O   LIG d   1      -7.775  83.120 119.214  0.00  0.00    -0.368 OA
BRANCH   7   8
ATOM      8  C   LIG d   1      -6.345  83.343 119.290  0.00  0.00     0.119 C 
BRANCH   8   9
ATOM      9  C   LIG d   1      -5.678  82.430 118.243  0.00  0.00     0.028 C 
ATOM     10  C   LIG d   1      -4.402  81.758 118.779  0.00  0.00     0.006 C 
ENDBRANCH   8   9
BRANCH   8  11
ATOM     11  C   LIG d   1      -5.782  82.892 120.640  0.00  0.00     0.028 C 
ATOM     12  C   LIG d   1      -5.393  84.070 121.548  0.00  0.00     0.006 C 
ENDBRANCH   8  11
ENDBRANCH   7   8
ENDBRANCH   1   7
BRANCH   6  13
ATOM     13  N   LIG d   1      -8.952  83.549 121.955  0.00  0.00    -0.311 N 
ATOM     14  C   LIG d   1      -9.175  84.861 122.001  0.00  0.00     0.210 C 
ATOM     15  C   LIG d   1      -8.501  85.591 123.167  0.00  0.00     0.109 C 
ATOM     16  O   LIG d   1      -9.894  85.485 121.206  0.00  0.00    -0.276 OA
ATOM     17  H   LIG d   1      -8.383  83.121 122.659  0.00  0.00     0.149 HD
ENDBRANCH   6  13
BRANCH   5  18
ATOM     18  N   LIG d   1     -11.592  82.024 122.144  0.00  0.00     0.381 N 
ATOM     19  H   LIG d   1     -11.409  82.154 123.119  0.00  0.00    -0.090 HD
ATOM     20  H   LIG d   1     -12.320  81.339 122.048  0.00  0.00    -0.090 HD
ATOM     21  H   LIG d   1     -11.882  82.886 121.736  0.00  0.00    -0.090 HD
ENDBRANCH   5  18
BRANCH   3  22
ATOM     22  C   LIG d   1      -9.876  78.943 118.904  0.00  0.00     0.382 C 
ATOM     23  O   LIG d   1      -8.858  78.385 118.429  0.00  0.00    -0.241 OA
ATOM     24  O   LIG d   1     -10.989  78.399 118.778  0.00  0.00    -0.241 OA
ENDBRANCH   3  22
TORSDOF 7
ENDMDL
MODEL 5
REMARK VINA RESULT:      -4.2     33.078     34.846
REMARK  7 active torsions:
REMARK  status: ('A' for Active; 'I' for Inactive)
REMARK    1  A    between atoms: C_2  and  C_3 
REMARK    2  A    between atoms: C_3  and  O_6 
REMARK    3  A    between atoms: C_3  and  C_4 
REMARK    4  A    between atoms: C_7  and  O_6 
REMARK    5  A    between atoms: C_9  and  C_10 
REMARK    6  A    between atoms: N_15  and  C_14 
REMARK    7  A    between atoms: N_20  and  C_19 
REMARK       I    between atoms: C_22  and  N_20 
ROOT
ATOM      1  C   LIG d   1      -3.593  93.994 117.922  0.00  0.00     0.161 C 
ATOM      2  C   LIG d   1      -4.997  94.042 117.930  0.00  0.00     0.016 C 
ATOM      3  C   LIG d   1      -5.816  92.904 117.750  0.00  0.00     0.038 C 
ATOM      4  C   LIG d   1      -5.282  91.607 117.700  0.00  0.00     0.028 C 
ATOM      5  C   LIG d   1      -3.849  91.562 117.182  0.00  0.00    -0.047 C 
ATOM      6  C   LIG d   1      -2.994  92.573 117.980  0.00  0.00     0.091 C 
ENDROOT
BRANCH   1   7
ATOM      7  O   LIG d   1      -3.070  94.802 118.996  0.00  0.00    -0.368 OA
BRANCH   7   8
ATOM      8  C   LIG d   1      -2.469  96.062 118.610  0.00  0.00     0.119 C 
BRANCH   8   9
ATOM      9  C   LIG d   1      -0.965  95.976 118.934  0.00  0.00     0.028 C 
ATOM     10  C   LIG d   1      -0.701  95.464 120.360  0.00  0.00     0.006 C 
ENDBRANCH   8   9
BRANCH   8  11
ATOM     11  C   LIG d   1      -3.002  97.218 119.462  0.00  0.00     0.028 C 
ATOM     12  C   LIG d   1      -3.058  98.548 118.694  0.00  0.00     0.006 C 
ENDBRANCH   8  11
ENDBRANCH   7   8
ENDBRANCH   1   7
BRANCH   6  13
ATOM     13  N   LIG d   1      -1.597  92.653 117.480  0.00  0.00    -0.311 N 
ATOM     14  C   LIG d   1      -0.532  92.388 118.236  0.00  0.00     0.210 C 
ATOM     15  C   LIG d   1       0.818  92.551 117.530  0.00  0.00     0.109 C 
ATOM     16  O   LIG d   1      -0.579  92.002 119.413  0.00  0.00    -0.276 OA
ATOM     17  H   LIG d   1      -1.469  92.929 116.526  0.00  0.00     0.149 HD
ENDBRANCH   6  13
BRANCH   5  18
ATOM     18  N   LIG d   1      -3.371  90.172 117.312  0.00  0.00     0.381 N 
ATOM     19  H   LIG d   1      -4.080  89.540 116.996  0.00  0.00    -0.090 HD
ATOM     20  H   LIG d   1      -3.187  89.981 118.281  0.00  0.00    -0.090 HD
ATOM     21  H   LIG d   1      -2.541  90.045 116.776  0.00  0.00    -0.090 HD
ENDBRANCH   5  18
BRANCH   3  22
ATOM     22  C   LIG d   1      -7.183  93.060 117.578  0.00  0.00     0.382 C 
ATOM     23  O   LIG d   1      -7.917  92.052 117.442  0.00  0.00    -0.241 OA
ATOM     24  O   LIG d   1      -7.685  94.198 117.512  0.00  0.00    -0.241 OA
ENDBRANCH   3  22
TORSDOF 7
ENDMDL
MODEL 6
REMARK VINA RESULT:      -4.2     34.424     36.177
REMARK  7 active torsions:
REMARK  status: ('A' for Active; 'I' for Inactive)
REMARK    1  A    between atoms: C_2  and  C_3 
REMARK    2  A    between atoms: C_3  and  O_6 
REMARK    3  A    between atoms: C_3  and  C_4 
REMARK    4  A    between atoms: C_7  and  O_6 
REMARK    5  A    between atoms: C_9  and  C_10 
REMARK    6  A    between atoms: N_15  and  C_14 
REMARK    7  A    between atoms: N_20  and  C_19 
REMARK       I    between atoms: C_22  and  N_20 
ROOT
ATOM      1  C   LIG d   1      -7.478  94.928 118.298  0.00  0.00     0.161 C 
ATOM      2  C   LIG d   1      -7.535  93.525 118.258  0.00  0.00     0.016 C 
ATOM      3  C   LIG d   1      -6.390  92.703 118.152  0.00  0.00     0.038 C 
ATOM      4  C   LIG d   1      -5.091  93.226 118.231  0.00  0.00     0.028 C 
ATOM      5  C   LIG d   1      -4.992  94.674 117.764  0.00  0.00    -0.047 C 
ATOM      6  C   LIG d   1      -6.064  95.512 118.498  0.00  0.00     0.091 C 
ENDROOT
BRANCH   1   7
ATOM      7  O   LIG d   1      -8.373  95.425 119.313  0.00  0.00    -0.368 OA
BRANCH   7   8
ATOM      8  C   LIG d   1      -8.496  94.613 120.507  0.00  0.00     0.119 C 
BRANCH   8   9
ATOM      9  C   LIG d   1      -9.995  94.514 120.848  0.00  0.00     0.028 C 
ATOM     10  C   LIG d   1     -10.239  94.045 122.292  0.00  0.00     0.006 C 
ENDBRANCH   8   9
BRANCH   8  11
ATOM     11  C   LIG d   1      -7.850  95.299 121.715  0.00  0.00     0.028 C 
ATOM     12  C   LIG d   1      -7.753  96.824 121.554  0.00  0.00     0.006 C 
ENDBRANCH   8  11
ENDBRANCH   7   8
ENDBRANCH   1   7
BRANCH   6  13
ATOM     13  N   LIG d   1      -6.092  96.925 118.038  0.00  0.00    -0.311 N 
ATOM     14  C   LIG d   1      -5.443  97.911 118.656  0.00  0.00     0.210 C 
ATOM     15  C   LIG d   1      -5.622  99.296 118.027  0.00  0.00     0.109 C 
ATOM     16  O   LIG d   1      -4.711  97.764 119.646  0.00  0.00    -0.276 OA
ATOM     17  H   LIG d   1      -6.637  97.129 117.223  0.00  0.00     0.149 HD
ENDBRANCH   6  13
BRANCH   5  18
ATOM     18  N   LIG d   1      -3.616  95.135 118.029  0.00  0.00     0.381 N 
ATOM     19  H   LIG d   1      -3.639  95.967 118.585  0.00  0.00    -0.090 HD
ATOM     20  H   LIG d   1      -3.172  95.353 117.154  0.00  0.00    -0.090 HD
ATOM     21  H   LIG d   1      -3.104  94.424 118.502  0.00  0.00    -0.090 HD
ENDBRANCH   5  18
BRANCH   3  22
ATOM     22  C   LIG d   1      -6.540  91.343 117.924  0.00  0.00     0.382 C 
ATOM     23  O   LIG d   1      -5.537  90.590 117.945  0.00  0.00    -0.241 OA
ATOM     24  O   LIG d   1      -7.659  90.867 117.654  0.00  0.00    -0.241 OA
ENDBRANCH   3  22
TORSDOF 7
ENDMDL
MODEL 7
REMARK VINA RESULT:      -4.1      2.506      5.182
REMARK  7 active torsions:
REMARK  status: ('A' for Active; 'I' for Inactive)
REMARK    1  A    between atoms: C_2  and  C_3 
REMARK    2  A    between atoms: C_3  and  O_6 
REMARK    3  A    between atoms: C_3  and  C_4 
REMARK    4  A    between atoms: C_7  and  O_6 
REMARK    5  A    between atoms: C_9  and  C_10 
REMARK    6  A    between atoms: N_15  and  C_14 
REMARK    7  A    between atoms: N_20  and  C_19 
REMARK       I    between atoms: C_22  and  N_20 
ROOT
ATOM      1  C   LIG d   1       1.465  58.201 118.363  0.00  0.00     0.161 C 
ATOM      2  C   LIG d   1       0.363  59.065 118.258  0.00  0.00     0.016 C 
ATOM      3  C   LIG d   1      -0.918  58.645 117.832  0.00  0.00     0.038 C 
ATOM      4  C   LIG d   1      -1.224  57.292 117.624  0.00  0.00     0.028 C 
ATOM      5  C   LIG d   1      -0.014  56.451 117.230  0.00  0.00    -0.047 C 
ATOM      6  C   LIG d   1       1.123  56.700 118.248  0.00  0.00     0.091 C 
ENDROOT
BRANCH   1   7
ATOM      7  O   LIG d   1       2.174  58.460 119.591  0.00  0.00    -0.368 OA
BRANCH   7   8
ATOM      8  C   LIG d   1       1.409  59.089 120.648  0.00  0.00     0.119 C 
BRANCH   8   9
ATOM      9  C   LIG d   1       2.352  60.055 121.391  0.00  0.00     0.028 C 
ATOM     10  C   LIG d   1       1.998  60.190 122.882  0.00  0.00     0.006 C 
ENDBRANCH   8   9
BRANCH   8  11
ATOM     11  C   LIG d   1       0.966  58.066 121.699  0.00  0.00     0.028 C 
ATOM     12  C   LIG d   1      -0.523  57.704 121.587  0.00  0.00     0.006 C 
ENDBRANCH   8  11
ENDBRANCH   7   8
ENDBRANCH   1   7
BRANCH   6  13
ATOM     13  N   LIG d   1       2.373  55.981 117.889  0.00  0.00    -0.311 N 
ATOM     14  C   LIG d   1       2.815  54.908 118.544  0.00  0.00     0.210 C 
ATOM     15  C   LIG d   1       4.135  54.332 118.022  0.00  0.00     0.109 C 
ATOM     16  O   LIG d   1       2.223  54.361 119.486  0.00  0.00    -0.276 OA
ATOM     17  H   LIG d   1       2.900  56.339 117.117  0.00  0.00     0.149 HD
ENDBRANCH   6  13
BRANCH   5  18
ATOM     18  N   LIG d   1      -0.447  55.042 117.181  0.00  0.00     0.381 N 
ATOM     19  H   LIG d   1      -1.446  54.994 117.193  0.00  0.00    -0.090 HD
ATOM     20  H   LIG d   1      -0.098  54.566 117.995  0.00  0.00    -0.090 HD
ATOM     21  H   LIG d   1      -0.096  54.606 116.357  0.00  0.00    -0.090 HD
ENDBRANCH   5  18
BRANCH   3  22
ATOM     22  C   LIG d   1      -1.899  59.589 117.570  0.00  0.00     0.382 C 
ATOM     23  O   LIG d   1      -1.580  60.785 117.367  0.00  0.00    -0.241 OA
ATOM     24  O   LIG d   1      -3.103  59.268 117.578  0.00  0.00    -0.241 OA
ENDBRANCH   3  22
TORSDOF 7
ENDMDL
MODEL 8
REMARK VINA RESULT:      -4.1     13.162     15.246
REMARK  7 active torsions:
REMARK  status: ('A' for Active; 'I' for Inactive)
REMARK    1  A    between atoms: C_2  and  C_3 
REMARK    2  A    between atoms: C_3  and  O_6 
REMARK    3  A    between atoms: C_3  and  C_4 
REMARK    4  A    between atoms: C_7  and  O_6 
REMARK    5  A    between atoms: C_9  and  C_10 
REMARK    6  A    between atoms: N_15  and  C_14 
REMARK    7  A    between atoms: N_20  and  C_19 
REMARK       I    between atoms: C_22  and  N_20 
ROOT
ATOM      1  C   LIG d   1     -13.062  66.375 122.142  0.00  0.00     0.161 C 
ATOM      2  C   LIG d   1     -11.931  66.022 122.897  0.00  0.00     0.016 C 
ATOM      3  C   LIG d   1     -11.061  64.964 122.547  0.00  0.00     0.038 C 
ATOM      4  C   LIG d   1     -11.179  64.280 121.328  0.00  0.00     0.028 C 
ATOM      5  C   LIG d   1     -12.601  64.265 120.777  0.00  0.00    -0.047 C 
ATOM      6  C   LIG d   1     -13.144  65.712 120.751  0.00  0.00     0.091 C 
ENDROOT
BRANCH   1   7
ATOM      7  O   LIG d   1     -13.139  67.809 122.019  0.00  0.00    -0.368 OA
BRANCH   7   8
ATOM      8  C   LIG d   1     -13.856  68.502 123.071  0.00  0.00     0.119 C 
BRANCH   8   9
ATOM      9  C   LIG d   1     -15.335  68.080 122.977  0.00  0.00     0.028 C 
ATOM     10  C   LIG d   1     -16.160  69.028 122.090  0.00  0.00     0.006 C 
ENDBRANCH   8   9
BRANCH   8  11
ATOM     11  C   LIG d   1     -13.851  70.016 122.845  0.00  0.00     0.028 C 
ATOM     12  C   LIG d   1     -12.470  70.649 123.081  0.00  0.00     0.006 C 
ENDBRANCH   8  11
ENDBRANCH   7   8
ENDBRANCH   1   7
BRANCH   6  13
ATOM     13  N   LIG d   1     -14.559  65.779 120.304  0.00  0.00    -0.311 N 
ATOM     14  C   LIG d   1     -15.014  66.687 119.443  0.00  0.00     0.210 C 
ATOM     15  C   LIG d   1     -16.511  66.591 119.132  0.00  0.00     0.109 C 
ATOM     16  O   LIG d   1     -14.314  67.544 118.883  0.00  0.00    -0.276 OA
ATOM     17  H   LIG d   1     -15.190  65.101 120.685  0.00  0.00     0.149 HD
ENDBRANCH   6  13
BRANCH   5  18
ATOM     18  N   LIG d   1     -12.554  63.642 119.441  0.00  0.00     0.381 N 
ATOM     19  H   LIG d   1     -13.045  64.213 118.783  0.00  0.00    -0.090 HD
ATOM     20  H   LIG d   1     -13.010  62.747 119.484  0.00  0.00    -0.090 HD
ATOM     21  H   LIG d   1     -11.608  63.527 119.151  0.00  0.00    -0.090 HD
ENDBRANCH   5  18
BRANCH   3  22
ATOM     22  C   LIG d   1     -10.083  64.555 123.440  0.00  0.00     0.382 C 
ATOM     23  O   LIG d   1     -10.070  63.371 123.858  0.00  0.00    -0.241 OA
ATOM     24  O   LIG d   1      -9.239  65.365 123.869  0.00  0.00    -0.241 OA
ENDBRANCH   3  22
TORSDOF 7
ENDMDL
MODEL 9
REMARK VINA RESULT:      -4.0     12.931     15.024
REMARK  7 active torsions:
REMARK  status: ('A' for Active; 'I' for Inactive)
REMARK    1  A    between atoms: C_2  and  C_3 
REMARK    2  A    between atoms: C_3  and  O_6 
REMARK    3  A    between atoms: C_3  and  C_4 
REMARK    4  A    between atoms: C_7  and  O_6 
REMARK    5  A    between atoms: C_9  and  C_10 
REMARK    6  A    between atoms: N_15  and  C_14 
REMARK    7  A    between atoms: N_20  and  C_19 
REMARK       I    between atoms: C_22  and  N_20 
ROOT
ATOM      1  C   LIG d   1     -13.674  65.504 122.551  0.00  0.00     0.161 C 
ATOM      2  C   LIG d   1     -12.470  65.423 123.270  0.00  0.00     0.016 C 
ATOM      3  C   LIG d   1     -11.306  64.793 122.772  0.00  0.00     0.038 C 
ATOM      4  C   LIG d   1     -11.221  64.331 121.451  0.00  0.00     0.028 C 
ATOM      5  C   LIG d   1     -12.571  63.938 120.859  0.00  0.00    -0.047 C 
ATOM      6  C   LIG d   1     -13.567  65.103 121.064  0.00  0.00     0.091 C 
ENDROOT
BRANCH   1   7
ATOM      7  O   LIG d   1     -14.229  66.828 122.673  0.00  0.00    -0.368 OA
BRANCH   7   8
ATOM      8  C   LIG d   1     -13.315  67.927 122.436  0.00  0.00     0.119 C 
BRANCH   8   9
ATOM      9  C   LIG d   1     -13.565  68.982 123.531  0.00  0.00     0.028 C 
ATOM     10  C   LIG d   1     -12.830  70.304 123.250  0.00  0.00     0.006 C 
ENDBRANCH   8   9
BRANCH   8  11
ATOM     11  C   LIG d   1     -13.625  68.634 121.113  0.00  0.00     0.028 C 
ATOM     12  C   LIG d   1     -15.120  68.604 120.758  0.00  0.00     0.006 C 
ENDBRANCH   8  11
ENDBRANCH   7   8
ENDBRANCH   1   7
BRANCH   6  13
ATOM     13  N   LIG d   1     -14.935  64.769 120.589  0.00  0.00    -0.311 N 
ATOM     14  C   LIG d   1     -15.399  65.116 119.390  0.00  0.00     0.210 C 
ATOM     15  C   LIG d   1     -16.843  64.690 119.107  0.00  0.00     0.109 C 
ATOM     16  O   LIG d   1     -14.741  65.708 118.521  0.00  0.00    -0.276 OA
ATOM     17  H   LIG d   1     -15.526  64.263 121.219  0.00  0.00     0.149 HD
ENDBRANCH   6  13
BRANCH   5  18
ATOM     18  N   LIG d   1     -12.355  63.607 119.438  0.00  0.00     0.381 N 
ATOM     19  H   LIG d   1     -13.017  64.097 118.871  0.00  0.00    -0.090 HD
ATOM     20  H   LIG d   1     -12.498  62.621 119.308  0.00  0.00    -0.090 HD
ATOM     21  H   LIG d   1     -11.428  63.854 119.167  0.00  0.00    -0.090 HD
ENDBRANCH   5  18
BRANCH   3  22
ATOM     22  C   LIG d   1     -10.224  64.586 123.613  0.00  0.00     0.382 C 
ATOM     23  O   LIG d   1      -9.282  65.414 123.639  0.00  0.00    -0.241 OA
ATOM     24  O   LIG d   1     -10.156  63.558 124.314  0.00  0.00    -0.241 OA
ENDBRANCH   3  22
TORSDOF 7
ENDMDL
