MODEL 1
REMARK VINA RESULT:      -4.8      0.000      0.000
REMARK  7 active torsions:
REMARK  status: ('A' for Active; 'I' for Inactive)
REMARK    1  A    between atoms: C_2  and  C_3 
REMARK    2  A    between atoms: C_3  and  O_6 
REMARK    3  A    between atoms: C_3  and  C_4 
REMARK    4  A    between atoms: C_7  and  O_6 
REMARK    5  A    between atoms: C_9  and  C_10 
REMARK    6  A    between atoms: N_15  and  C_14 
REMARK    7  A    between atoms: N_20  and  C_19 
REMARK       I    between atoms: C_22  and  N_20 
ROOT
ATOM      1  C   LIG d   1      -0.620  59.471 119.967  0.00  0.00     0.161 C 
ATOM      2  C   LIG d   1       0.477  59.520 119.091  0.00  0.00     0.016 C 
ATOM      3  C   LIG d   1       1.777  59.905 119.493  0.00  0.00     0.038 C 
ATOM      4  C   LIG d   1       2.102  60.122 120.840  0.00  0.00     0.028 C 
ATOM      5  C   LIG d   1       0.916  60.574 121.685  0.00  0.00    -0.047 C 
ATOM      6  C   LIG d   1      -0.260  59.596 121.462  0.00  0.00     0.091 C 
ENDROOT
BRANCH   1   7
ATOM      7  O   LIG d   1      -1.378  58.267 119.733  0.00  0.00    -0.368 OA
BRANCH   7   8
ATOM      8  C   LIG d   1      -1.537  57.873 118.348  0.00  0.00     0.119 C 
BRANCH   8   9
ATOM      9  C   LIG d   1      -3.031  58.014 117.996  0.00  0.00     0.028 C 
ATOM     10  C   LIG d   1      -3.390  59.432 117.519  0.00  0.00     0.006 C 
ENDBRANCH   8   9
BRANCH   8  11
ATOM     11  C   LIG d   1      -1.213  56.389 118.150  0.00  0.00     0.028 C 
ATOM     12  C   LIG d   1       0.065  56.164 117.325  0.00  0.00     0.006 C 
ENDBRANCH   8  11
ENDBRANCH   7   8
ENDBRANCH   1   7
BRANCH   6  13
ATOM     13  N   LIG d   1      -1.489  60.013 122.187  0.00  0.00    -0.311 N 
ATOM     14  C   LIG d   1      -1.799  59.586 123.409  0.00  0.00     0.210 C 
ATOM     15  C   LIG d   1      -3.122  60.123 123.966  0.00  0.00     0.109 C 
ATOM     16  O   LIG d   1      -1.089  58.838 124.099  0.00  0.00    -0.276 OA
ATOM     17  H   LIG d   1      -2.106  60.643 121.713  0.00  0.00     0.149 HD
ENDBRANCH   6  13
BRANCH   5  18
ATOM     18  N   LIG d   1       1.364  60.629 123.089  0.00  0.00     0.381 N 
ATOM     19  H   LIG d   1       2.216  61.151 123.153  0.00  0.00    -0.090 HD
ATOM     20  H   LIG d   1       1.542  59.694 123.410  0.00  0.00    -0.090 HD
ATOM     21  H   LIG d   1       0.663  61.054 123.654  0.00  0.00    -0.090 HD
ENDBRANCH   5  18
BRANCH   3  22
ATOM     22  C   LIG d   1       2.758  60.115 118.536  0.00  0.00     0.382 C 
ATOM     23  O   LIG d   1       2.508  59.902 117.325  0.00  0.00    -0.241 OA
ATOM     24  O   LIG d   1       3.903  60.472 118.873  0.00  0.00    -0.241 OA
ENDBRANCH   3  22
TORSDOF 7
ENDMDL
MODEL 2
REMARK VINA RESULT:      -4.8      2.928      5.272
REMARK  7 active torsions:
REMARK  status: ('A' for Active; 'I' for Inactive)
REMARK    1  A    between atoms: C_2  and  C_3 
REMARK    2  A    between atoms: C_3  and  O_6 
REMARK    3  A    between atoms: C_3  and  C_4 
REMARK    4  A    between atoms: C_7  and  O_6 
REMARK    5  A    between atoms: C_9  and  C_10 
REMARK    6  A    between atoms: N_15  and  C_14 
REMARK    7  A    between atoms: N_20  and  C_19 
REMARK       I    between atoms: C_22  and  N_20 
ROOT
ATOM      1  C   LIG d   1       0.624  57.614 119.730  0.00  0.00     0.161 C 
ATOM      2  C   LIG d   1       1.552  56.645 119.314  0.00  0.00     0.016 C 
ATOM      3  C   LIG d   1       1.283  55.693 118.303  0.00  0.00     0.038 C 
ATOM      4  C   LIG d   1       0.115  55.743 117.530  0.00  0.00     0.028 C 
ATOM      5  C   LIG d   1      -1.063  56.389 118.252  0.00  0.00    -0.047 C 
ATOM      6  C   LIG d   1      -0.615  57.755 118.820  0.00  0.00     0.091 C 
ENDROOT
BRANCH   1   7
ATOM      7  O   LIG d   1       1.282  58.887 119.881  0.00  0.00    -0.368 OA
BRANCH   7   8
ATOM      8  C   LIG d   1       2.670  58.940 119.468  0.00  0.00     0.119 C 
BRANCH   8   9
ATOM      9  C   LIG d   1       3.435  59.767 120.520  0.00  0.00     0.028 C 
ATOM     10  C   LIG d   1       4.385  60.794 119.882  0.00  0.00     0.006 C 
ENDBRANCH   8   9
BRANCH   8  11
ATOM     11  C   LIG d   1       2.832  59.709 118.153  0.00  0.00     0.028 C 
ATOM     12  C   LIG d   1       1.512  60.315 117.652  0.00  0.00     0.006 C 
ENDBRANCH   8  11
ENDBRANCH   7   8
ENDBRANCH   1   7
BRANCH   6  13
ATOM     13  N   LIG d   1      -1.683  58.416 119.615  0.00  0.00    -0.311 N 
ATOM     14  C   LIG d   1      -2.162  59.627 119.334  0.00  0.00     0.210 C 
ATOM     15  C   LIG d   1      -3.246  60.131 120.291  0.00  0.00     0.109 C 
ATOM     16  O   LIG d   1      -1.816  60.317 118.363  0.00  0.00    -0.276 OA
ATOM     17  H   LIG d   1      -2.043  57.914 120.402  0.00  0.00     0.149 HD
ENDBRANCH   6  13
BRANCH   5  18
ATOM     18  N   LIG d   1      -2.172  56.501 117.286  0.00  0.00     0.381 N 
ATOM     19  H   LIG d   1      -2.137  55.737 116.641  0.00  0.00    -0.090 HD
ATOM     20  H   LIG d   1      -2.067  57.356 116.768  0.00  0.00    -0.090 HD
ATOM     21  H   LIG d   1      -3.044  56.500 117.766  0.00  0.00    -0.090 HD
ENDBRANCH   5  18
BRANCH   3  22
ATOM     22  C   LIG d   1       2.173  54.652 118.086  0.00  0.00     0.382 C 
ATOM     23  O   LIG d   1       3.219  54.567 118.774  0.00  0.00    -0.241 OA
ATOM     24  O   LIG d   1       1.965  53.822 117.180  0.00  0.00    -0.241 OA
ENDBRANCH   3  22
TORSDOF 7
ENDMDL
MODEL 3
REMARK VINA RESULT:      -4.6      3.268      6.052
REMARK  7 active torsions:
REMARK  status: ('A' for Active; 'I' for Inactive)
REMARK    1  A    between atoms: C_2  and  C_3 
REMARK    2  A    between atoms: C_3  and  O_6 
REMARK    3  A    between atoms: C_3  and  C_4 
REMARK    4  A    between atoms: C_7  and  O_6 
REMARK    5  A    between atoms: C_9  and  C_10 
REMARK    6  A    between atoms: N_15  and  C_14 
REMARK    7  A    between atoms: N_20  and  C_19 
REMARK       I    between atoms: C_22  and  N_20 
ROOT
ATOM      1  C   LIG d   1       2.679  58.579 118.819  0.00  0.00     0.161 C 
ATOM      2  C   LIG d   1       1.612  59.457 118.564  0.00  0.00     0.016 C 
ATOM      3  C   LIG d   1       0.255  59.109 118.754  0.00  0.00     0.038 C 
ATOM      4  C   LIG d   1      -0.123  57.902 119.360  0.00  0.00     0.028 C 
ATOM      5  C   LIG d   1       0.895  56.783 119.168  0.00  0.00    -0.047 C 
ATOM      6  C   LIG d   1       2.291  57.297 119.586  0.00  0.00     0.091 C 
ENDROOT
BRANCH   1   7
ATOM      7  O   LIG d   1       3.732  59.277 119.511  0.00  0.00    -0.368 OA
BRANCH   7   8
ATOM      8  C   LIG d   1       3.361  60.529 120.140  0.00  0.00     0.119 C 
BRANCH   8   9
ATOM      9  C   LIG d   1       4.566  61.482 120.020  0.00  0.00     0.028 C 
ATOM     10  C   LIG d   1       5.880  60.735 119.739  0.00  0.00     0.006 C 
ENDBRANCH   8   9
BRANCH   8  11
ATOM     11  C   LIG d   1       3.132  60.351 121.644  0.00  0.00     0.028 C 
ATOM     12  C   LIG d   1       1.732  60.800 122.091  0.00  0.00     0.006 C 
ENDBRANCH   8  11
ENDBRANCH   7   8
ENDBRANCH   1   7
BRANCH   6  13
ATOM     13  N   LIG d   1       3.360  56.291 119.350  0.00  0.00    -0.311 N 
ATOM     14  C   LIG d   1       4.030  55.690 120.331  0.00  0.00     0.210 C 
ATOM     15  C   LIG d   1       5.104  54.701 119.868  0.00  0.00     0.109 C 
ATOM     16  O   LIG d   1       3.815  55.858 121.541  0.00  0.00    -0.276 OA
ATOM     17  H   LIG d   1       3.577  56.072 118.397  0.00  0.00     0.149 HD
ENDBRANCH   6  13
BRANCH   5  18
ATOM     18  N   LIG d   1       0.442  55.627 119.964  0.00  0.00     0.381 N 
ATOM     19  H   LIG d   1      -0.200  55.077 119.429  0.00  0.00    -0.090 HD
ATOM     20  H   LIG d   1      -0.037  55.963 120.782  0.00  0.00    -0.090 HD
ATOM     21  H   LIG d   1       1.223  55.071 120.233  0.00  0.00    -0.090 HD
ENDBRANCH   5  18
BRANCH   3  22
ATOM     22  C   LIG d   1      -0.742  59.958 118.298  0.00  0.00     0.382 C 
ATOM     23  O   LIG d   1      -1.497  59.594 117.365  0.00  0.00    -0.241 OA
ATOM     24  O   LIG d   1      -0.867  61.101 118.779  0.00  0.00    -0.241 OA
ENDBRANCH   3  22
TORSDOF 7
ENDMDL
MODEL 4
REMARK VINA RESULT:      -4.6      2.793      3.923
REMARK  7 active torsions:
REMARK  status: ('A' for Active; 'I' for Inactive)
REMARK    1  A    between atoms: C_2  and  C_3 
REMARK    2  A    between atoms: C_3  and  O_6 
REMARK    3  A    between atoms: C_3  and  C_4 
REMARK    4  A    between atoms: C_7  and  O_6 
REMARK    5  A    between atoms: C_9  and  C_10 
REMARK    6  A    between atoms: N_15  and  C_14 
REMARK    7  A    between atoms: N_20  and  C_19 
REMARK       I    between atoms: C_22  and  N_20 
ROOT
ATOM      1  C   LIG d   1       0.080  57.837 120.395  0.00  0.00     0.161 C 
ATOM      2  C   LIG d   1       0.823  58.785 119.674  0.00  0.00     0.016 C 
ATOM      3  C   LIG d   1       1.801  58.440 118.712  0.00  0.00     0.038 C 
ATOM      4  C   LIG d   1       1.996  57.115 118.296  0.00  0.00     0.028 C 
ATOM      5  C   LIG d   1       1.624  56.085 119.358  0.00  0.00    -0.047 C 
ATOM      6  C   LIG d   1       0.200  56.389 119.875  0.00  0.00     0.091 C 
ENDROOT
BRANCH   1   7
ATOM      7  O   LIG d   1      -1.304  58.237 120.448  0.00  0.00    -0.368 OA
BRANCH   7   8
ATOM      8  C   LIG d   1      -1.744  59.147 119.410  0.00  0.00     0.119 C 
BRANCH   8   9
ATOM      9  C   LIG d   1      -2.639  60.210 120.075  0.00  0.00     0.028 C 
ATOM     10  C   LIG d   1      -2.817  59.968 121.583  0.00  0.00     0.006 C 
ENDBRANCH   8   9
BRANCH   8  11
ATOM     11  C   LIG d   1      -2.642  58.439 118.392  0.00  0.00     0.028 C 
ATOM     12  C   LIG d   1      -3.370  59.418 117.456  0.00  0.00     0.006 C 
ENDBRANCH   8  11
ENDBRANCH   7   8
ENDBRANCH   1   7
BRANCH   6  13
ATOM     13  N   LIG d   1      -0.209  55.479 120.977  0.00  0.00    -0.311 N 
ATOM     14  C   LIG d   1      -1.415  54.918 121.055  0.00  0.00     0.210 C 
ATOM     15  C   LIG d   1      -1.636  54.030 122.283  0.00  0.00     0.109 C 
ATOM     16  O   LIG d   1      -2.311  55.046 120.207  0.00  0.00    -0.276 OA
ATOM     17  H   LIG d   1       0.467  55.296 121.692  0.00  0.00     0.149 HD
ENDBRANCH   6  13
BRANCH   5  18
ATOM     18  N   LIG d   1       1.745  54.749 118.745  0.00  0.00     0.381 N 
ATOM     19  H   LIG d   1       0.906  54.227 118.903  0.00  0.00    -0.090 HD
ATOM     20  H   LIG d   1       2.507  54.259 119.179  0.00  0.00    -0.090 HD
ATOM     21  H   LIG d   1       1.911  54.837 117.766  0.00  0.00    -0.090 HD
ENDBRANCH   5  18
BRANCH   3  22
ATOM     22  C   LIG d   1       2.624  59.424 118.186  0.00  0.00     0.382 C 
ATOM     23  O   LIG d   1       3.713  59.697 118.746  0.00  0.00    -0.241 OA
ATOM     24  O   LIG d   1       2.271  60.072 117.182  0.00  0.00    -0.241 OA
ENDBRANCH   3  22
TORSDOF 7
ENDMDL
MODEL 5
REMARK VINA RESULT:      -4.6     12.760     15.510
REMARK  7 active torsions:
REMARK  status: ('A' for Active; 'I' for Inactive)
REMARK    1  A    between atoms: C_2  and  C_3 
REMARK    2  A    between atoms: C_3  and  O_6 
REMARK    3  A    between atoms: C_3  and  C_4 
REMARK    4  A    between atoms: C_7  and  O_6 
REMARK    5  A    between atoms: C_9  and  C_10 
REMARK    6  A    between atoms: N_15  and  C_14 
REMARK    7  A    between atoms: N_20  and  C_19 
REMARK       I    between atoms: C_22  and  N_20 
ROOT
ATOM      1  C   LIG d   1     -14.425  64.240 121.227  0.00  0.00     0.161 C 
ATOM      2  C   LIG d   1     -13.258  64.228 122.009  0.00  0.00     0.016 C 
ATOM      3  C   LIG d   1     -12.036  63.665 121.573  0.00  0.00     0.038 C 
ATOM      4  C   LIG d   1     -11.857  63.209 120.259  0.00  0.00     0.028 C 
ATOM      5  C   LIG d   1     -13.149  62.741 119.598  0.00  0.00    -0.047 C 
ATOM      6  C   LIG d   1     -14.219  63.847 119.749  0.00  0.00     0.091 C 
ENDROOT
BRANCH   1   7
ATOM      7  O   LIG d   1     -15.060  65.531 121.318  0.00  0.00    -0.368 OA
BRANCH   7   8
ATOM      8  C   LIG d   1     -14.726  66.480 120.275  0.00  0.00     0.119 C 
BRANCH   8   9
ATOM      9  C   LIG d   1     -13.723  67.487 120.871  0.00  0.00     0.028 C 
ATOM     10  C   LIG d   1     -14.094  67.908 122.303  0.00  0.00     0.006 C 
ENDBRANCH   8   9
BRANCH   8  11
ATOM     11  C   LIG d   1     -15.945  67.314 119.869  0.00  0.00     0.028 C 
ATOM     12  C   LIG d   1     -15.986  67.613 118.362  0.00  0.00     0.006 C 
ENDBRANCH   8  11
ENDBRANCH   7   8
ENDBRANCH   1   7
BRANCH   6  13
ATOM     13  N   LIG d   1     -15.539  63.437 119.204  0.00  0.00    -0.311 N 
ATOM     14  C   LIG d   1     -15.978  63.796 117.999  0.00  0.00     0.210 C 
ATOM     15  C   LIG d   1     -17.376  63.281 117.640  0.00  0.00     0.109 C 
ATOM     16  O   LIG d   1     -15.330  64.466 117.181  0.00  0.00    -0.276 OA
ATOM     17  H   LIG d   1     -16.117  62.866 119.790  0.00  0.00     0.149 HD
ENDBRANCH   6  13
BRANCH   5  18
ATOM     18  N   LIG d   1     -12.841  62.423 118.191  0.00  0.00     0.381 N 
ATOM     19  H   LIG d   1     -12.144  63.053 117.847  0.00  0.00    -0.090 HD
ATOM     20  H   LIG d   1     -13.673  62.542 117.641  0.00  0.00    -0.090 HD
ATOM     21  H   LIG d   1     -12.516  61.484 118.117  0.00  0.00    -0.090 HD
ENDBRANCH   5  18
BRANCH   3  22
ATOM     22  C   LIG d   1     -10.989  63.519 122.470  0.00  0.00     0.382 C 
ATOM     23  O   LIG d   1     -10.506  64.527 123.041  0.00  0.00    -0.241 OA
ATOM     24  O   LIG d   1     -10.491  62.397 122.682  0.00  0.00    -0.241 OA
ENDBRANCH   3  22
TORSDOF 7
ENDMDL
MODEL 6
REMARK VINA RESULT:      -4.5     22.270     23.398
REMARK  7 active torsions:
REMARK  status: ('A' for Active; 'I' for Inactive)
REMARK    1  A    between atoms: C_2  and  C_3 
REMARK    2  A    between atoms: C_3  and  O_6 
REMARK    3  A    between atoms: C_3  and  C_4 
REMARK    4  A    between atoms: C_7  and  O_6 
REMARK    5  A    between atoms: C_9  and  C_10 
REMARK    6  A    between atoms: N_15  and  C_14 
REMARK    7  A    between atoms: N_20  and  C_19 
REMARK       I    between atoms: C_22  and  N_20 
ROOT
ATOM      1  C   LIG d   1      -7.280  81.193 119.386  0.00  0.00     0.161 C 
ATOM      2  C   LIG d   1      -7.420  79.881 118.904  0.00  0.00     0.016 C 
ATOM      3  C   LIG d   1      -8.475  79.472 118.057  0.00  0.00     0.038 C 
ATOM      4  C   LIG d   1      -9.385  80.389 117.509  0.00  0.00     0.028 C 
ATOM      5  C   LIG d   1      -9.583  81.633 118.369  0.00  0.00    -0.047 C 
ATOM      6  C   LIG d   1      -8.199  82.232 118.710  0.00  0.00     0.091 C 
ENDROOT
BRANCH   1   7
ATOM      7  O   LIG d   1      -5.902  81.606 119.290  0.00  0.00    -0.368 OA
BRANCH   7   8
ATOM      8  C   LIG d   1      -5.006  80.681 118.626  0.00  0.00     0.119 C 
BRANCH   8   9
ATOM      9  C   LIG d   1      -3.802  80.451 119.561  0.00  0.00     0.028 C 
ATOM     10  C   LIG d   1      -3.784  79.033 120.155  0.00  0.00     0.006 C 
ENDBRANCH   8   9
BRANCH   8  11
ATOM     11  C   LIG d   1      -4.418  81.294 117.351  0.00  0.00     0.028 C 
ATOM     12  C   LIG d   1      -2.922  81.624 117.483  0.00  0.00     0.006 C 
ENDBRANCH   8  11
ENDBRANCH   7   8
ENDBRANCH   1   7
BRANCH   6  13
ATOM     13  N   LIG d   1      -8.298  83.404 119.619  0.00  0.00    -0.311 N 
ATOM     14  C   LIG d   1      -8.832  83.344 120.838  0.00  0.00     0.210 C 
ATOM     15  C   LIG d   1      -8.853  84.672 121.601  0.00  0.00     0.109 C 
ATOM     16  O   LIG d   1      -9.262  82.310 121.371  0.00  0.00    -0.276 OA
ATOM     17  H   LIG d   1      -7.945  84.277 119.278  0.00  0.00     0.149 HD
ENDBRANCH   6  13
BRANCH   5  18
ATOM     18  N   LIG d   1     -10.446  82.562 117.617  0.00  0.00     0.381 N 
ATOM     19  H   LIG d   1     -11.252  82.793 118.162  0.00  0.00    -0.090 HD
ATOM     20  H   LIG d   1     -10.755  82.109 116.774  0.00  0.00    -0.090 HD
ATOM     21  H   LIG d   1      -9.940  83.390 117.391  0.00  0.00    -0.090 HD
ENDBRANCH   5  18
BRANCH   3  22
ATOM     22  C   LIG d   1      -8.652  78.124 117.782  0.00  0.00     0.382 C 
ATOM     23  O   LIG d   1      -9.809  77.641 117.732  0.00  0.00    -0.241 OA
ATOM     24  O   LIG d   1      -7.668  77.377 117.627  0.00  0.00    -0.241 OA
ENDBRANCH   3  22
TORSDOF 7
ENDMDL
MODEL 7
REMARK VINA RESULT:      -4.3      2.106      4.566
REMARK  7 active torsions:
REMARK  status: ('A' for Active; 'I' for Inactive)
REMARK    1  A    between atoms: C_2  and  C_3 
REMARK    2  A    between atoms: C_3  and  O_6 
REMARK    3  A    between atoms: C_3  and  C_4 
REMARK    4  A    between atoms: C_7  and  O_6 
REMARK    5  A    between atoms: C_9  and  C_10 
REMARK    6  A    between atoms: N_15  and  C_14 
REMARK    7  A    between atoms: N_20  and  C_19 
REMARK       I    between atoms: C_22  and  N_20 
ROOT
ATOM      1  C   LIG d   1      -0.610  59.392 120.562  0.00  0.00     0.161 C 
ATOM      2  C   LIG d   1      -1.267  60.416 121.263  0.00  0.00     0.016 C 
ATOM      3  C   LIG d   1      -0.613  61.280 122.172  0.00  0.00     0.038 C 
ATOM      4  C   LIG d   1       0.781  61.274 122.328  0.00  0.00     0.028 C 
ATOM      5  C   LIG d   1       1.419  59.923 122.020  0.00  0.00    -0.047 C 
ATOM      6  C   LIG d   1       0.930  59.442 120.635  0.00  0.00     0.091 C 
ENDROOT
BRANCH   1   7
ATOM      7  O   LIG d   1      -1.046  59.383 119.188  0.00  0.00    -0.368 OA
BRANCH   7   8
ATOM      8  C   LIG d   1      -1.465  58.100 118.660  0.00  0.00     0.119 C 
BRANCH   8   9
ATOM      9  C   LIG d   1      -0.627  57.824 117.396  0.00  0.00     0.028 C 
ATOM     10  C   LIG d   1      -0.212  56.348 117.278  0.00  0.00     0.006 C 
ENDBRANCH   8   9
BRANCH   8  11
ATOM     11  C   LIG d   1      -2.919  58.143 118.181  0.00  0.00     0.028 C 
ATOM     12  C   LIG d   1      -3.373  59.554 117.777  0.00  0.00     0.006 C 
ENDBRANCH   8  11
ENDBRANCH   7   8
ENDBRANCH   1   7
BRANCH   6  13
ATOM     13  N   LIG d   1       1.441  58.089 120.293  0.00  0.00    -0.311 N 
ATOM     14  C   LIG d   1       2.528  57.881 119.552  0.00  0.00     0.210 C 
ATOM     15  C   LIG d   1       2.869  56.409 119.301  0.00  0.00     0.109 C 
ATOM     16  O   LIG d   1       3.261  58.777 119.106  0.00  0.00    -0.276 OA
ATOM     17  H   LIG d   1       0.924  57.305 120.640  0.00  0.00     0.149 HD
ENDBRANCH   6  13
BRANCH   5  18
ATOM     18  N   LIG d   1       2.882  60.096 122.089  0.00  0.00     0.381 N 
ATOM     19  H   LIG d   1       3.306  59.261 122.441  0.00  0.00    -0.090 HD
ATOM     20  H   LIG d   1       3.092  60.847 122.723  0.00  0.00    -0.090 HD
ATOM     21  H   LIG d   1       3.244  60.304 121.184  0.00  0.00    -0.090 HD
ENDBRANCH   5  18
BRANCH   3  22
ATOM     22  C   LIG d   1      -1.361  62.135 122.967  0.00  0.00     0.382 C 
ATOM     23  O   LIG d   1      -2.431  61.734 123.486  0.00  0.00    -0.241 OA
ATOM     24  O   LIG d   1      -1.003  63.316 123.134  0.00  0.00    -0.241 OA
ENDBRANCH   3  22
TORSDOF 7
ENDMDL
MODEL 8
REMARK VINA RESULT:      -4.3     35.339     36.508
REMARK  7 active torsions:
REMARK  status: ('A' for Active; 'I' for Inactive)
REMARK    1  A    between atoms: C_2  and  C_3 
REMARK    2  A    between atoms: C_3  and  O_6 
REMARK    3  A    between atoms: C_3  and  C_4 
REMARK    4  A    between atoms: C_7  and  O_6 
REMARK    5  A    between atoms: C_9  and  C_10 
REMARK    6  A    between atoms: N_15  and  C_14 
REMARK    7  A    between atoms: N_20  and  C_19 
REMARK       I    between atoms: C_22  and  N_20 
ROOT
ATOM      1  C   LIG d   1      -5.557  94.754 121.498  0.00  0.00     0.161 C 
ATOM      2  C   LIG d   1      -6.801  94.151 121.249  0.00  0.00     0.016 C 
ATOM      3  C   LIG d   1      -7.800  94.735 120.438  0.00  0.00     0.038 C 
ATOM      4  C   LIG d   1      -7.563  95.900 119.693  0.00  0.00     0.028 C 
ATOM      5  C   LIG d   1      -6.503  96.807 120.308  0.00  0.00    -0.047 C 
ATOM      6  C   LIG d   1      -5.238  95.971 120.605  0.00  0.00     0.091 C 
ENDROOT
BRANCH   1   7
ATOM      7  O   LIG d   1      -4.508  93.770 121.398  0.00  0.00    -0.368 OA
BRANCH   7   8
ATOM      8  C   LIG d   1      -4.046  93.465 120.059  0.00  0.00     0.119 C 
BRANCH   8   9
ATOM      9  C   LIG d   1      -4.334  91.974 119.797  0.00  0.00     0.028 C 
ATOM     10  C   LIG d   1      -5.383  91.764 118.692  0.00  0.00     0.006 C 
ENDBRANCH   8   9
BRANCH   8  11
ATOM     11  C   LIG d   1      -2.525  93.610 119.948  0.00  0.00     0.028 C 
ATOM     12  C   LIG d   1      -1.857  93.922 121.297  0.00  0.00     0.006 C 
ENDBRANCH   8  11
ENDBRANCH   7   8
ENDBRANCH   1   7
BRANCH   6  13
ATOM     13  N   LIG d   1      -4.181  96.764 121.286  0.00  0.00    -0.311 N 
ATOM     14  C   LIG d   1      -3.167  97.339 120.643  0.00  0.00     0.210 C 
ATOM     15  C   LIG d   1      -2.178  98.094 121.537  0.00  0.00     0.109 C 
ATOM     16  O   LIG d   1      -3.010  97.324 119.413  0.00  0.00    -0.276 OA
ATOM     17  H   LIG d   1      -4.248  96.853 122.281  0.00  0.00     0.149 HD
ENDBRANCH   6  13
BRANCH   5  18
ATOM     18  N   LIG d   1      -6.257  97.911 119.362  0.00  0.00     0.381 N 
ATOM     19  H   LIG d   1      -6.723  98.738 119.677  0.00  0.00    -0.090 HD
ATOM     20  H   LIG d   1      -6.634  97.660 118.464  0.00  0.00    -0.090 HD
ATOM     21  H   LIG d   1      -5.279  98.082 119.283  0.00  0.00    -0.090 HD
ENDBRANCH   5  18
BRANCH   3  22
ATOM     22  C   LIG d   1      -9.068  94.174 120.397  0.00  0.00     0.382 C 
ATOM     23  O   LIG d   1      -9.808  94.368 119.402  0.00  0.00    -0.241 OA
ATOM     24  O   LIG d   1      -9.497  93.512 121.361  0.00  0.00    -0.241 OA
ENDBRANCH   3  22
TORSDOF 7
ENDMDL
MODEL 9
REMARK VINA RESULT:      -4.3     24.465     26.410
REMARK  7 active torsions:
REMARK  status: ('A' for Active; 'I' for Inactive)
REMARK    1  A    between atoms: C_2  and  C_3 
REMARK    2  A    between atoms: C_3  and  O_6 
REMARK    3  A    between atoms: C_3  and  C_4 
REMARK    4  A    between atoms: C_7  and  O_6 
REMARK    5  A    between atoms: C_9  and  C_10 
REMARK    6  A    between atoms: N_15  and  C_14 
REMARK    7  A    between atoms: N_20  and  C_19 
REMARK       I    between atoms: C_22  and  N_20 
ROOT
ATOM      1  C   LIG d   1     -18.871  77.959 120.585  0.00  0.00     0.161 C 
ATOM      2  C   LIG d   1     -19.533  79.061 120.017  0.00  0.00     0.016 C 
ATOM      3  C   LIG d   1     -19.153  80.402 120.252  0.00  0.00     0.038 C 
ATOM      4  C   LIG d   1     -17.985  80.730 120.956  0.00  0.00     0.028 C 
ATOM      5  C   LIG d   1     -17.570  79.668 121.969  0.00  0.00    -0.047 C 
ATOM      6  C   LIG d   1     -17.527  78.293 121.266  0.00  0.00     0.091 C 
ENDROOT
BRANCH   1   7
ATOM      7  O   LIG d   1     -18.688  76.933 119.589  0.00  0.00    -0.368 OA
BRANCH   7   8
ATOM      8  C   LIG d   1     -19.114  75.600 119.962  0.00  0.00     0.119 C 
BRANCH   8   9
ATOM      9  C   LIG d   1     -18.042  74.614 119.460  0.00  0.00     0.028 C 
ATOM     10  C   LIG d   1     -17.777  73.475 120.460  0.00  0.00     0.006 C 
ENDBRANCH   8   9
BRANCH   8  11
ATOM     11  C   LIG d   1     -20.402  75.203 119.235  0.00  0.00     0.028 C 
ATOM     12  C   LIG d   1     -21.669  75.654 119.979  0.00  0.00     0.006 C 
ENDBRANCH   8  11
ENDBRANCH   7   8
ENDBRANCH   1   7
BRANCH   6  13
ATOM     13  N   LIG d   1     -17.212  77.185 122.205  0.00  0.00    -0.311 N 
ATOM     14  C   LIG d   1     -16.109  76.442 122.119  0.00  0.00     0.210 C 
ATOM     15  C   LIG d   1     -15.989  75.340 123.176  0.00  0.00     0.109 C 
ATOM     16  O   LIG d   1     -15.204  76.613 121.289  0.00  0.00    -0.276 OA
ATOM     17  H   LIG d   1     -17.877  76.998 122.929  0.00  0.00     0.149 HD
ENDBRANCH   6  13
BRANCH   5  18
ATOM     18  N   LIG d   1     -16.267  80.072 122.530  0.00  0.00     0.381 N 
ATOM     19  H   LIG d   1     -15.546  79.924 121.853  0.00  0.00    -0.090 HD
ATOM     20  H   LIG d   1     -16.068  79.501 123.333  0.00  0.00    -0.090 HD
ATOM     21  H   LIG d   1     -16.293  81.032 122.795  0.00  0.00    -0.090 HD
ENDBRANCH   5  18
BRANCH   3  22
ATOM     22  C   LIG d   1     -19.969  81.434 119.814  0.00  0.00     0.382 C 
ATOM     23  O   LIG d   1     -19.487  82.367 119.128  0.00  0.00    -0.241 OA
ATOM     24  O   LIG d   1     -21.173  81.467 120.134  0.00  0.00    -0.241 OA
ENDBRANCH   3  22
TORSDOF 7
ENDMDL
