MODEL 1
REMARK VINA RESULT:      -4.8      0.000      0.000
REMARK  7 active torsions:
REMARK  status: ('A' for Active; 'I' for Inactive)
REMARK    1  A    between atoms: C_2  and  C_3 
REMARK    2  A    between atoms: C_3  and  O_6 
REMARK    3  A    between atoms: C_3  and  C_4 
REMARK    4  A    between atoms: C_7  and  O_6 
REMARK    5  A    between atoms: C_9  and  C_10 
REMARK    6  A    between atoms: N_15  and  C_14 
REMARK    7  A    between atoms: N_20  and  C_19 
REMARK       I    between atoms: C_22  and  N_20 
ROOT
ATOM      1  C   LIG d   1     -13.487  66.716 121.599  0.00  0.00     0.161 C 
ATOM      2  C   LIG d   1     -12.246  66.500 122.221  0.00  0.00     0.016 C 
ATOM      3  C   LIG d   1     -11.399  65.411 121.911  0.00  0.00     0.038 C 
ATOM      4  C   LIG d   1     -11.670  64.542 120.844  0.00  0.00     0.028 C 
ATOM      5  C   LIG d   1     -13.155  64.423 120.521  0.00  0.00    -0.047 C 
ATOM      6  C   LIG d   1     -13.748  65.841 120.355  0.00  0.00     0.091 C 
ENDROOT
BRANCH   1   7
ATOM      7  O   LIG d   1     -13.633  68.111 121.270  0.00  0.00    -0.368 OA
BRANCH   7   8
ATOM      8  C   LIG d   1     -14.436  68.901 122.181  0.00  0.00     0.119 C 
BRANCH   8   9
ATOM      9  C   LIG d   1     -15.765  69.219 121.470  0.00  0.00     0.028 C 
ATOM     10  C   LIG d   1     -15.559  70.014 120.169  0.00  0.00     0.006 C 
ENDBRANCH   8   9
BRANCH   8  11
ATOM     11  C   LIG d   1     -13.789  70.261 122.459  0.00  0.00     0.028 C 
ATOM     12  C   LIG d   1     -12.268  70.167 122.659  0.00  0.00     0.006 C 
ENDBRANCH   8  11
ENDBRANCH   7   8
ENDBRANCH   1   7
BRANCH   6  13
ATOM     13  N   LIG d   1     -15.215  65.818 120.121  0.00  0.00    -0.311 N 
ATOM     14  C   LIG d   1     -15.802  66.420 119.088  0.00  0.00     0.210 C 
ATOM     15  C   LIG d   1     -17.328  66.290 119.045  0.00  0.00     0.109 C 
ATOM     16  O   LIG d   1     -15.201  67.022 118.185  0.00  0.00    -0.276 OA
ATOM     17  H   LIG d   1     -15.776  65.325 120.788  0.00  0.00     0.149 HD
ENDBRANCH   6  13
BRANCH   5  18
ATOM     18  N   LIG d   1     -13.282  63.597 119.306  0.00  0.00     0.381 N 
ATOM     19  H   LIG d   1     -14.175  63.145 119.295  0.00  0.00    -0.090 HD
ATOM     20  H   LIG d   1     -12.571  62.887 119.319  0.00  0.00    -0.090 HD
ATOM     21  H   LIG d   1     -13.180  64.166 118.495  0.00  0.00    -0.090 HD
ENDBRANCH   5  18
BRANCH   3  22
ATOM     22  C   LIG d   1     -10.286  65.160 122.700  0.00  0.00     0.382 C 
ATOM     23  O   LIG d   1      -9.980  65.953 123.622  0.00  0.00    -0.241 OA
ATOM     24  O   LIG d   1      -9.560  64.174 122.472  0.00  0.00    -0.241 OA
ENDBRANCH   3  22
TORSDOF 7
ENDMDL
MODEL 2
REMARK VINA RESULT:      -4.6     13.957     17.373
REMARK  7 active torsions:
REMARK  status: ('A' for Active; 'I' for Inactive)
REMARK    1  A    between atoms: C_2  and  C_3 
REMARK    2  A    between atoms: C_3  and  O_6 
REMARK    3  A    between atoms: C_3  and  C_4 
REMARK    4  A    between atoms: C_7  and  O_6 
REMARK    5  A    between atoms: C_9  and  C_10 
REMARK    6  A    between atoms: N_15  and  C_14 
REMARK    7  A    between atoms: N_20  and  C_19 
REMARK       I    between atoms: C_22  and  N_20 
ROOT
ATOM      1  C   LIG d   1      -0.409  57.406 119.452  0.00  0.00     0.161 C 
ATOM      2  C   LIG d   1      -1.259  58.524 119.474  0.00  0.00     0.016 C 
ATOM      3  C   LIG d   1      -0.800  59.854 119.336  0.00  0.00     0.038 C 
ATOM      4  C   LIG d   1       0.533  60.148 119.013  0.00  0.00     0.028 C 
ATOM      5  C   LIG d   1       1.519  59.083 119.481  0.00  0.00    -0.047 C 
ATOM      6  C   LIG d   1       1.033  57.700 118.990  0.00  0.00     0.091 C 
ENDROOT
BRANCH   1   7
ATOM      7  O   LIG d   1      -0.992  56.365 118.644  0.00  0.00    -0.368 OA
BRANCH   7   8
ATOM      8  C   LIG d   1      -1.498  55.211 119.359  0.00  0.00     0.119 C 
BRANCH   8   9
ATOM      9  C   LIG d   1      -1.089  55.366 120.836  0.00  0.00     0.028 C 
ATOM     10  C   LIG d   1      -2.281  55.213 121.795  0.00  0.00     0.006 C 
ENDBRANCH   8   9
BRANCH   8  11
ATOM     11  C   LIG d   1      -0.823  53.921 118.884  0.00  0.00     0.028 C 
ATOM     12  C   LIG d   1      -0.586  53.897 117.366  0.00  0.00     0.006 C 
ENDBRANCH   8  11
ENDBRANCH   7   8
ENDBRANCH   1   7
BRANCH   6  13
ATOM     13  N   LIG d   1       1.896  56.591 119.475  0.00  0.00    -0.311 N 
ATOM     14  C   LIG d   1       2.455  55.690 118.669  0.00  0.00     0.210 C 
ATOM     15  C   LIG d   1       3.291  54.619 119.377  0.00  0.00     0.109 C 
ATOM     16  O   LIG d   1       2.365  55.696 117.432  0.00  0.00    -0.276 OA
ATOM     17  H   LIG d   1       2.047  56.530 120.463  0.00  0.00     0.149 HD
ENDBRANCH   6  13
BRANCH   5  18
ATOM     18  N   LIG d   1       2.850  59.447 118.959  0.00  0.00     0.381 N 
ATOM     19  H   LIG d   1       3.368  59.934 119.663  0.00  0.00    -0.090 HD
ATOM     20  H   LIG d   1       2.734  60.061 118.172  0.00  0.00    -0.090 HD
ATOM     21  H   LIG d   1       3.343  58.627 118.681  0.00  0.00    -0.090 HD
ENDBRANCH   5  18
BRANCH   3  22
ATOM     22  C   LIG d   1      -1.671  60.909 119.561  0.00  0.00     0.382 C 
ATOM     23  O   LIG d   1      -1.466  62.019 119.013  0.00  0.00    -0.241 OA
ATOM     24  O   LIG d   1      -2.634  60.778 120.340  0.00  0.00    -0.241 OA
ENDBRANCH   3  22
TORSDOF 7
ENDMDL
MODEL 3
REMARK VINA RESULT:      -4.6     12.762     15.911
REMARK  7 active torsions:
REMARK  status: ('A' for Active; 'I' for Inactive)
REMARK    1  A    between atoms: C_2  and  C_3 
REMARK    2  A    between atoms: C_3  and  O_6 
REMARK    3  A    between atoms: C_3  and  C_4 
REMARK    4  A    between atoms: C_7  and  O_6 
REMARK    5  A    between atoms: C_9  and  C_10 
REMARK    6  A    between atoms: N_15  and  C_14 
REMARK    7  A    between atoms: N_20  and  C_19 
REMARK       I    between atoms: C_22  and  N_20 
ROOT
ATOM      1  C   LIG d   1      -0.401  57.759 119.336  0.00  0.00     0.161 C 
ATOM      2  C   LIG d   1       0.521  56.952 118.649  0.00  0.00     0.016 C 
ATOM      3  C   LIG d   1       0.301  55.583 118.372  0.00  0.00     0.038 C 
ATOM      4  C   LIG d   1      -0.929  54.961 118.633  0.00  0.00     0.028 C 
ATOM      5  C   LIG d   1      -1.701  55.604 119.780  0.00  0.00    -0.047 C 
ATOM      6  C   LIG d   1      -1.795  57.127 119.531  0.00  0.00     0.091 C 
ENDROOT
BRANCH   1   7
ATOM      7  O   LIG d   1      -0.517  59.036 118.679  0.00  0.00    -0.368 OA
BRANCH   7   8
ATOM      8  C   LIG d   1       0.024  60.173 119.396  0.00  0.00     0.119 C 
BRANCH   8   9
ATOM      9  C   LIG d   1       0.594  59.651 120.729  0.00  0.00     0.028 C 
ATOM     10  C   LIG d   1       2.117  59.839 120.830  0.00  0.00     0.006 C 
ENDBRANCH   8   9
BRANCH   8  11
ATOM     11  C   LIG d   1      -1.078  61.163 119.785  0.00  0.00     0.028 C 
ATOM     12  C   LIG d   1      -1.127  61.435 121.297  0.00  0.00     0.006 C 
ENDBRANCH   8  11
ENDBRANCH   7   8
ENDBRANCH   1   7
BRANCH   6  13
ATOM     13  N   LIG d   1      -2.462  57.844 120.648  0.00  0.00    -0.311 N 
ATOM     14  C   LIG d   1      -3.549  58.598 120.491  0.00  0.00     0.210 C 
ATOM     15  C   LIG d   1      -4.064  59.265 121.770  0.00  0.00     0.109 C 
ATOM     16  O   LIG d   1      -4.154  58.751 119.419  0.00  0.00    -0.276 OA
ATOM     17  H   LIG d   1      -2.056  57.749 121.558  0.00  0.00     0.149 HD
ENDBRANCH   6  13
BRANCH   5  18
ATOM     18  N   LIG d   1      -3.020  54.948 119.853  0.00  0.00     0.381 N 
ATOM     19  H   LIG d   1      -2.901  53.958 119.941  0.00  0.00    -0.090 HD
ATOM     20  H   LIG d   1      -3.521  55.131 119.002  0.00  0.00    -0.090 HD
ATOM     21  H   LIG d   1      -3.533  55.299 120.631  0.00  0.00    -0.090 HD
ENDBRANCH   5  18
BRANCH   3  22
ATOM     22  C   LIG d   1       1.334  54.810 117.863  0.00  0.00     0.382 C 
ATOM     23  O   LIG d   1       1.253  53.558 117.889  0.00  0.00    -0.241 OA
ATOM     24  O   LIG d   1       2.366  55.348 117.419  0.00  0.00    -0.241 OA
ENDBRANCH   3  22
TORSDOF 7
ENDMDL
MODEL 4
REMARK VINA RESULT:      -4.5     13.014     15.515
REMARK  7 active torsions:
REMARK  status: ('A' for Active; 'I' for Inactive)
REMARK    1  A    between atoms: C_2  and  C_3 
REMARK    2  A    between atoms: C_3  and  O_6 
REMARK    3  A    between atoms: C_3  and  C_4 
REMARK    4  A    between atoms: C_7  and  O_6 
REMARK    5  A    between atoms: C_9  and  C_10 
REMARK    6  A    between atoms: N_15  and  C_14 
REMARK    7  A    between atoms: N_20  and  C_19 
REMARK       I    between atoms: C_22  and  N_20 
ROOT
ATOM      1  C   LIG d   1      -9.694  80.604 120.524  0.00  0.00     0.161 C 
ATOM      2  C   LIG d   1      -9.508  79.346 119.928  0.00  0.00     0.016 C 
ATOM      3  C   LIG d   1      -9.461  79.148 118.529  0.00  0.00     0.038 C 
ATOM      4  C   LIG d   1      -9.446  80.223 117.628  0.00  0.00     0.028 C 
ATOM      5  C   LIG d   1     -10.138  81.472 118.162  0.00  0.00    -0.047 C 
ATOM      6  C   LIG d   1      -9.567  81.802 119.560  0.00  0.00     0.091 C 
ENDROOT
BRANCH   1   7
ATOM      7  O   LIG d   1      -8.788  80.757 121.635  0.00  0.00    -0.368 OA
BRANCH   7   8
ATOM      8  C   LIG d   1      -7.447  80.243 121.439  0.00  0.00     0.119 C 
BRANCH   8   9
ATOM      9  C   LIG d   1      -7.072  79.435 122.696  0.00  0.00     0.028 C 
ATOM     10  C   LIG d   1      -6.830  77.948 122.388  0.00  0.00     0.006 C 
ENDBRANCH   8   9
BRANCH   8  11
ATOM     11  C   LIG d   1      -6.421  81.378 121.365  0.00  0.00     0.028 C 
ATOM     12  C   LIG d   1      -5.903  81.620 119.938  0.00  0.00     0.006 C 
ENDBRANCH   8  11
ENDBRANCH   7   8
ENDBRANCH   1   7
BRANCH   6  13
ATOM     13  N   LIG d   1     -10.250  82.962 120.192  0.00  0.00    -0.311 N 
ATOM     14  C   LIG d   1      -9.607  84.047 120.619  0.00  0.00     0.210 C 
ATOM     15  C   LIG d   1     -10.498  85.117 121.258  0.00  0.00     0.109 C 
ATOM     16  O   LIG d   1      -8.388  84.239 120.502  0.00  0.00    -0.276 OA
ATOM     17  H   LIG d   1     -11.244  82.903 120.298  0.00  0.00     0.149 HD
ENDBRANCH   6  13
BRANCH   5  18
ATOM     18  N   LIG d   1      -9.928  82.553 117.181  0.00  0.00     0.381 N 
ATOM     19  H   LIG d   1      -9.272  82.257 116.487  0.00  0.00    -0.090 HD
ATOM     20  H   LIG d   1      -9.546  83.352 117.655  0.00  0.00    -0.090 HD
ATOM     21  H   LIG d   1     -10.793  82.795 116.750  0.00  0.00    -0.090 HD
ENDBRANCH   5  18
BRANCH   3  22
ATOM     22  C   LIG d   1      -9.469  77.859 118.017  0.00  0.00     0.382 C 
ATOM     23  O   LIG d   1     -10.524  77.180 118.046  0.00  0.00    -0.241 OA
ATOM     24  O   LIG d   1      -8.425  77.352 117.566  0.00  0.00    -0.241 OA
ENDBRANCH   3  22
TORSDOF 7
ENDMDL
MODEL 5
REMARK VINA RESULT:      -4.5     12.552     15.309
REMARK  7 active torsions:
REMARK  status: ('A' for Active; 'I' for Inactive)
REMARK    1  A    between atoms: C_2  and  C_3 
REMARK    2  A    between atoms: C_3  and  O_6 
REMARK    3  A    between atoms: C_3  and  C_4 
REMARK    4  A    between atoms: C_7  and  O_6 
REMARK    5  A    between atoms: C_9  and  C_10 
REMARK    6  A    between atoms: N_15  and  C_14 
REMARK    7  A    between atoms: N_20  and  C_19 
REMARK       I    between atoms: C_22  and  N_20 
ROOT
ATOM      1  C   LIG d   1       0.571  60.226 121.791  0.00  0.00     0.161 C 
ATOM      2  C   LIG d   1       1.911  59.923 122.081  0.00  0.00     0.016 C 
ATOM      3  C   LIG d   1       2.821  59.421 121.122  0.00  0.00     0.038 C 
ATOM      4  C   LIG d   1       2.489  59.332 119.761  0.00  0.00     0.028 C 
ATOM      5  C   LIG d   1       0.995  59.150 119.513  0.00  0.00    -0.047 C 
ATOM      6  C   LIG d   1       0.221  60.240 120.288  0.00  0.00     0.091 C 
ENDROOT
BRANCH   1   7
ATOM      7  O   LIG d   1       0.211  61.482 122.401  0.00  0.00    -0.368 OA
BRANCH   7   8
ATOM      8  C   LIG d   1      -0.611  61.401 123.591  0.00  0.00     0.119 C 
BRANCH   8   9
ATOM      9  C   LIG d   1      -2.030  61.862 123.206  0.00  0.00     0.028 C 
ATOM     10  C   LIG d   1      -3.065  60.730 123.314  0.00  0.00     0.006 C 
ENDBRANCH   8   9
BRANCH   8  11
ATOM     11  C   LIG d   1      -0.140  62.389 124.662  0.00  0.00     0.028 C 
ATOM     12  C   LIG d   1       0.009  63.822 124.127  0.00  0.00     0.006 C 
ENDBRANCH   8  11
ENDBRANCH   7   8
ENDBRANCH   1   7
BRANCH   6  13
ATOM     13  N   LIG d   1      -1.252  60.084 120.168  0.00  0.00    -0.311 N 
ATOM     14  C   LIG d   1      -2.038  60.982 119.578  0.00  0.00     0.210 C 
ATOM     15  C   LIG d   1      -3.531  60.636 119.580  0.00  0.00     0.109 C 
ATOM     16  O   LIG d   1      -1.639  62.018 119.025  0.00  0.00    -0.276 OA
ATOM     17  H   LIG d   1      -1.656  59.257 120.562  0.00  0.00     0.149 HD
ENDBRANCH   6  13
BRANCH   5  18
ATOM     18  N   LIG d   1       0.775  59.210 118.056  0.00  0.00     0.381 N 
ATOM     19  H   LIG d   1      -0.069  58.729 117.820  0.00  0.00    -0.090 HD
ATOM     20  H   LIG d   1       1.540  58.751 117.592  0.00  0.00    -0.090 HD
ATOM     21  H   LIG d   1       0.719  60.160 117.758  0.00  0.00    -0.090 HD
ENDBRANCH   5  18
BRANCH   3  22
ATOM     22  C   LIG d   1       4.066  58.965 121.527  0.00  0.00     0.382 C 
ATOM     23  O   LIG d   1       4.795  58.335 120.724  0.00  0.00    -0.241 OA
ATOM     24  O   LIG d   1       4.451  59.138 122.699  0.00  0.00    -0.241 OA
ENDBRANCH   3  22
TORSDOF 7
ENDMDL
MODEL 6
REMARK VINA RESULT:      -4.4     12.706     15.094
REMARK  7 active torsions:
REMARK  status: ('A' for Active; 'I' for Inactive)
REMARK    1  A    between atoms: C_2  and  C_3 
REMARK    2  A    between atoms: C_3  and  O_6 
REMARK    3  A    between atoms: C_3  and  C_4 
REMARK    4  A    between atoms: C_7  and  O_6 
REMARK    5  A    between atoms: C_9  and  C_10 
REMARK    6  A    between atoms: N_15  and  C_14 
REMARK    7  A    between atoms: N_20  and  C_19 
REMARK       I    between atoms: C_22  and  N_20 
ROOT
ATOM      1  C   LIG d   1      -7.047  79.796 117.801  0.00  0.00     0.161 C 
ATOM      2  C   LIG d   1      -7.617  78.560 117.454  0.00  0.00     0.016 C 
ATOM      3  C   LIG d   1      -7.659  77.450 118.328  0.00  0.00     0.038 C 
ATOM      4  C   LIG d   1      -7.266  77.548 119.671  0.00  0.00     0.028 C 
ATOM      5  C   LIG d   1      -6.220  78.630 119.918  0.00  0.00    -0.047 C 
ATOM      6  C   LIG d   1      -6.714  79.957 119.299  0.00  0.00     0.091 C 
ENDROOT
BRANCH   1   7
ATOM      7  O   LIG d   1      -7.902  80.870 117.360  0.00  0.00    -0.368 OA
BRANCH   7   8
ATOM      8  C   LIG d   1      -8.747  81.469 118.373  0.00  0.00     0.119 C 
BRANCH   8   9
ATOM      9  C   LIG d   1     -10.173  80.921 118.169  0.00  0.00     0.028 C 
ATOM     10  C   LIG d   1     -10.594  79.951 119.286  0.00  0.00     0.006 C 
ENDBRANCH   8   9
BRANCH   8  11
ATOM     11  C   LIG d   1      -8.863  82.983 118.178  0.00  0.00     0.028 C 
ATOM     12  C   LIG d   1      -8.819  83.760 119.503  0.00  0.00     0.006 C 
ENDBRANCH   8  11
ENDBRANCH   7   8
ENDBRANCH   1   7
BRANCH   6  13
ATOM     13  N   LIG d   1      -5.712  81.048 119.422  0.00  0.00    -0.311 N 
ATOM     14  C   LIG d   1      -5.678  81.899 120.446  0.00  0.00     0.210 C 
ATOM     15  C   LIG d   1      -4.576  82.961 120.367  0.00  0.00     0.109 C 
ATOM     16  O   LIG d   1      -6.435  81.857 121.427  0.00  0.00    -0.276 OA
ATOM     17  H   LIG d   1      -5.040  81.135 118.685  0.00  0.00     0.149 HD
ENDBRANCH   6  13
BRANCH   5  18
ATOM     18  N   LIG d   1      -6.004  78.717 121.375  0.00  0.00     0.381 N 
ATOM     19  H   LIG d   1      -6.292  79.615 121.707  0.00  0.00    -0.090 HD
ATOM     20  H   LIG d   1      -5.023  78.610 121.565  0.00  0.00    -0.090 HD
ATOM     21  H   LIG d   1      -6.520  78.002 121.839  0.00  0.00    -0.090 HD
ENDBRANCH   5  18
BRANCH   3  22
ATOM     22  C   LIG d   1      -8.061  76.212 117.848  0.00  0.00     0.382 C 
ATOM     23  O   LIG d   1      -7.206  75.329 117.597  0.00  0.00    -0.241 OA
ATOM     24  O   LIG d   1      -9.264  75.983 117.622  0.00  0.00    -0.241 OA
ENDBRANCH   3  22
TORSDOF 7
ENDMDL
MODEL 7
REMARK VINA RESULT:      -4.4     14.456     17.165
REMARK  7 active torsions:
REMARK  status: ('A' for Active; 'I' for Inactive)
REMARK    1  A    between atoms: C_2  and  C_3 
REMARK    2  A    between atoms: C_3  and  O_6 
REMARK    3  A    between atoms: C_3  and  C_4 
REMARK    4  A    between atoms: C_7  and  O_6 
REMARK    5  A    between atoms: C_9  and  C_10 
REMARK    6  A    between atoms: N_15  and  C_14 
REMARK    7  A    between atoms: N_20  and  C_19 
REMARK       I    between atoms: C_22  and  N_20 
ROOT
ATOM      1  C   LIG d   1       0.900  58.821 118.922  0.00  0.00     0.161 C 
ATOM      2  C   LIG d   1      -0.182  57.926 118.953  0.00  0.00     0.016 C 
ATOM      3  C   LIG d   1      -0.049  56.554 119.266  0.00  0.00     0.038 C 
ATOM      4  C   LIG d   1       1.162  56.011 119.720  0.00  0.00     0.028 C 
ATOM      5  C   LIG d   1       2.389  56.766 119.219  0.00  0.00    -0.047 C 
ATOM      6  C   LIG d   1       2.211  58.271 119.522  0.00  0.00     0.091 C 
ENDROOT
BRANCH   1   7
ATOM      7  O   LIG d   1       0.533  60.056 119.568  0.00  0.00    -0.368 OA
BRANCH   7   8
ATOM      8  C   LIG d   1      -0.163  59.930 120.833  0.00  0.00     0.119 C 
BRANCH   8   9
ATOM      9  C   LIG d   1      -1.391  60.861 120.780  0.00  0.00     0.028 C 
ATOM     10  C   LIG d   1      -1.654  61.405 119.365  0.00  0.00     0.006 C 
ENDBRANCH   8   9
BRANCH   8  11
ATOM     11  C   LIG d   1       0.690  60.451 121.993  0.00  0.00     0.028 C 
ATOM     12  C   LIG d   1      -0.032  61.516 122.833  0.00  0.00     0.006 C 
ENDBRANCH   8  11
ENDBRANCH   7   8
ENDBRANCH   1   7
BRANCH   6  13
ATOM     13  N   LIG d   1       3.329  59.092 118.989  0.00  0.00    -0.311 N 
ATOM     14  C   LIG d   1       4.112  59.850 119.756  0.00  0.00     0.210 C 
ATOM     15  C   LIG d   1       5.192  60.633 119.002  0.00  0.00     0.109 C 
ATOM     16  O   LIG d   1       4.034  59.924 120.991  0.00  0.00    -0.276 OA
ATOM     17  H   LIG d   1       3.483  59.067 118.000  0.00  0.00     0.149 HD
ENDBRANCH   6  13
BRANCH   5  18
ATOM     18  N   LIG d   1       3.572  56.179 119.877  0.00  0.00     0.381 N 
ATOM     19  H   LIG d   1       4.257  56.890 120.039  0.00  0.00    -0.090 HD
ATOM     20  H   LIG d   1       3.974  55.488 119.267  0.00  0.00    -0.090 HD
ATOM     21  H   LIG d   1       3.309  55.758 120.740  0.00  0.00    -0.090 HD
ENDBRANCH   5  18
BRANCH   3  22
ATOM     22  C   LIG d   1      -1.127  55.701 119.088  0.00  0.00     0.382 C 
ATOM     23  O   LIG d   1      -0.933  54.474 118.912  0.00  0.00    -0.241 OA
ATOM     24  O   LIG d   1      -2.289  56.149 119.056  0.00  0.00    -0.241 OA
ENDBRANCH   3  22
TORSDOF 7
ENDMDL
MODEL 8
REMARK VINA RESULT:      -4.4     12.779     15.411
REMARK  7 active torsions:
REMARK  status: ('A' for Active; 'I' for Inactive)
REMARK    1  A    between atoms: C_2  and  C_3 
REMARK    2  A    between atoms: C_3  and  O_6 
REMARK    3  A    between atoms: C_3  and  C_4 
REMARK    4  A    between atoms: C_7  and  O_6 
REMARK    5  A    between atoms: C_9  and  C_10 
REMARK    6  A    between atoms: N_15  and  C_14 
REMARK    7  A    between atoms: N_20  and  C_19 
REMARK       I    between atoms: C_22  and  N_20 
ROOT
ATOM      1  C   LIG d   1      -8.150  80.212 120.414  0.00  0.00     0.161 C 
ATOM      2  C   LIG d   1      -8.286  79.283 119.369  0.00  0.00     0.016 C 
ATOM      3  C   LIG d   1      -9.534  78.787 118.927  0.00  0.00     0.038 C 
ATOM      4  C   LIG d   1     -10.748  79.304 119.402  0.00  0.00     0.028 C 
ATOM      5  C   LIG d   1     -10.652  79.878 120.812  0.00  0.00    -0.047 C 
ATOM      6  C   LIG d   1      -9.469  80.871 120.869  0.00  0.00     0.091 C 
ENDROOT
BRANCH   1   7
ATOM      7  O   LIG d   1      -7.186  81.220 120.049  0.00  0.00    -0.368 OA
BRANCH   7   8
ATOM      8  C   LIG d   1      -7.716  82.405 119.407  0.00  0.00     0.119 C 
BRANCH   8   9
ATOM      9  C   LIG d   1      -7.631  82.184 117.884  0.00  0.00     0.028 C 
ATOM     10  C   LIG d   1      -9.015  82.174 117.214  0.00  0.00     0.006 C 
ENDBRANCH   8   9
BRANCH   8  11
ATOM     11  C   LIG d   1      -6.840  83.630 119.688  0.00  0.00     0.028 C 
ATOM     12  C   LIG d   1      -7.266  84.389 120.954  0.00  0.00     0.006 C 
ENDBRANCH   8  11
ENDBRANCH   7   8
ENDBRANCH   1   7
BRANCH   6  13
ATOM     13  N   LIG d   1      -9.252  81.415 122.235  0.00  0.00    -0.311 N 
ATOM     14  C   LIG d   1      -9.799  82.550 122.668  0.00  0.00     0.210 C 
ATOM     15  C   LIG d   1      -9.429  82.940 124.102  0.00  0.00     0.109 C 
ATOM     16  O   LIG d   1     -10.581  83.254 122.011  0.00  0.00    -0.276 OA
ATOM     17  H   LIG d   1      -8.655  80.891 122.845  0.00  0.00     0.149 HD
ENDBRANCH   6  13
BRANCH   5  18
ATOM     18  N   LIG d   1     -11.949  80.505 121.127  0.00  0.00     0.381 N 
ATOM     19  H   LIG d   1     -12.695  79.937 120.777  0.00  0.00    -0.090 HD
ATOM     20  H   LIG d   1     -11.996  81.401 120.674  0.00  0.00    -0.090 HD
ATOM     21  H   LIG d   1     -12.043  80.618 122.113  0.00  0.00    -0.090 HD
ENDBRANCH   5  18
BRANCH   3  22
ATOM     22  C   LIG d   1      -9.575  77.733 118.027  0.00  0.00     0.382 C 
ATOM     23  O   LIG d   1     -10.623  77.056 117.901  0.00  0.00    -0.241 OA
ATOM     24  O   LIG d   1      -8.562  77.423 117.371  0.00  0.00    -0.241 OA
ENDBRANCH   3  22
TORSDOF 7
ENDMDL
MODEL 9
REMARK VINA RESULT:      -4.4     13.109     15.400
REMARK  7 active torsions:
REMARK  status: ('A' for Active; 'I' for Inactive)
REMARK    1  A    between atoms: C_2  and  C_3 
REMARK    2  A    between atoms: C_3  and  O_6 
REMARK    3  A    between atoms: C_3  and  C_4 
REMARK    4  A    between atoms: C_7  and  O_6 
REMARK    5  A    between atoms: C_9  and  C_10 
REMARK    6  A    between atoms: N_15  and  C_14 
REMARK    7  A    between atoms: N_20  and  C_19 
REMARK       I    between atoms: C_22  and  N_20 
ROOT
ATOM      1  C   LIG d   1      -9.949  80.716 120.700  0.00  0.00     0.161 C 
ATOM      2  C   LIG d   1      -9.737  79.468 120.092  0.00  0.00     0.016 C 
ATOM      3  C   LIG d   1      -9.608  79.295 118.694  0.00  0.00     0.038 C 
ATOM      4  C   LIG d   1      -9.531  80.387 117.816  0.00  0.00     0.028 C 
ATOM      5  C   LIG d   1     -10.245  81.631 118.333  0.00  0.00    -0.047 C 
ATOM      6  C   LIG d   1      -9.756  81.931 119.768  0.00  0.00     0.091 C 
ENDROOT
BRANCH   1   7
ATOM      7  O   LIG d   1      -9.109  80.841 121.865  0.00  0.00    -0.368 OA
BRANCH   7   8
ATOM      8  C   LIG d   1      -9.739  80.556 123.138  0.00  0.00     0.119 C 
BRANCH   8   9
ATOM      9  C   LIG d   1      -9.937  81.899 123.867  0.00  0.00     0.028 C 
ATOM     10  C   LIG d   1     -11.407  82.353 123.871  0.00  0.00     0.006 C 
ENDBRANCH   8   9
BRANCH   8  11
ATOM     11  C   LIG d   1      -8.817  79.735 124.045  0.00  0.00     0.028 C 
ATOM     12  C   LIG d   1      -7.836  78.854 123.256  0.00  0.00     0.006 C 
ENDBRANCH   8  11
ENDBRANCH   7   8
ENDBRANCH   1   7
BRANCH   6  13
ATOM     13  N   LIG d   1     -10.466  83.084 120.380  0.00  0.00    -0.311 N 
ATOM     14  C   LIG d   1      -9.844  84.170 120.837  0.00  0.00     0.210 C 
ATOM     15  C   LIG d   1     -10.763  85.233 121.447  0.00  0.00     0.109 C 
ATOM     16  O   LIG d   1      -8.622  84.368 120.765  0.00  0.00    -0.276 OA
ATOM     17  H   LIG d   1     -11.463  83.021 120.450  0.00  0.00     0.149 HD
ENDBRANCH   6  13
BRANCH   5  18
ATOM     18  N   LIG d   1      -9.969  82.729 117.387  0.00  0.00     0.381 N 
ATOM     19  H   LIG d   1     -10.828  83.147 117.093  0.00  0.00    -0.090 HD
ATOM     20  H   LIG d   1      -9.509  82.351 116.577  0.00  0.00    -0.090 HD
ATOM     21  H   LIG d   1      -9.388  83.413 117.819  0.00  0.00    -0.090 HD
ENDBRANCH   5  18
BRANCH   3  22
ATOM     22  C   LIG d   1      -9.596  78.017 118.158  0.00  0.00     0.382 C 
ATOM     23  O   LIG d   1     -10.654  77.344 118.115  0.00  0.00    -0.241 OA
ATOM     24  O   LIG d   1      -8.530  77.510 117.759  0.00  0.00    -0.241 OA
ENDBRANCH   3  22
TORSDOF 7
ENDMDL
