MODEL 1
REMARK VINA RESULT:      -5.5      0.000      0.000
REMARK  7 active torsions:
REMARK  status: ('A' for Active; 'I' for Inactive)
REMARK    1  A    between atoms: C_2  and  C_3 
REMARK    2  A    between atoms: C_3  and  O_6 
REMARK    3  A    between atoms: C_3  and  C_4 
REMARK    4  A    between atoms: C_7  and  O_6 
REMARK    5  A    between atoms: C_9  and  C_10 
REMARK    6  A    between atoms: N_15  and  C_14 
REMARK    7  A    between atoms: N_20  and  C_19 
REMARK       I    between atoms: C_22  and  N_20 
ROOT
ATOM      1  C   LIG d   1       0.749  59.487 120.912  0.00  0.00     0.161 C 
ATOM      2  C   LIG d   1       2.038  59.303 121.440  0.00  0.00     0.016 C 
ATOM      3  C   LIG d   1       3.131  58.829 120.678  0.00  0.00     0.038 C 
ATOM      4  C   LIG d   1       3.043  58.648 119.290  0.00  0.00     0.028 C 
ATOM      5  C   LIG d   1       1.631  58.338 118.807  0.00  0.00    -0.047 C 
ATOM      6  C   LIG d   1       0.662  59.401 119.374  0.00  0.00     0.091 C 
ENDROOT
BRANCH   1   7
ATOM      7  O   LIG d   1       0.205  60.739 121.376  0.00  0.00    -0.368 OA
BRANCH   7   8
ATOM      8  C   LIG d   1       0.219  60.948 122.809  0.00  0.00     0.119 C 
BRANCH   8   9
ATOM      9  C   LIG d   1      -1.237  60.852 123.305  0.00  0.00     0.028 C 
ATOM     10  C   LIG d   1      -1.746  62.180 123.891  0.00  0.00     0.006 C 
ENDBRANCH   8   9
BRANCH   8  11
ATOM     11  C   LIG d   1       0.674  62.368 123.161  0.00  0.00     0.028 C 
ATOM     12  C   LIG d   1       2.121  62.419 123.678  0.00  0.00     0.006 C 
ENDBRANCH   8  11
ENDBRANCH   7   8
ENDBRANCH   1   7
BRANCH   6  13
ATOM     13  N   LIG d   1      -0.754  59.124 119.019  0.00  0.00    -0.311 N 
ATOM     14  C   LIG d   1      -1.405  59.763 118.048  0.00  0.00     0.210 C 
ATOM     15  C   LIG d   1      -2.865  59.338 117.860  0.00  0.00     0.109 C 
ATOM     16  O   LIG d   1      -0.903  60.618 117.304  0.00  0.00    -0.276 OA
ATOM     17  H   LIG d   1      -1.229  58.422 119.552  0.00  0.00     0.149 HD
ENDBRANCH   6  13
BRANCH   5  18
ATOM     18  N   LIG d   1       1.660  58.310 117.333  0.00  0.00     0.381 N 
ATOM     19  H   LIG d   1       0.726  58.335 116.975  0.00  0.00    -0.090 HD
ATOM     20  H   LIG d   1       2.089  57.453 117.032  0.00  0.00    -0.090 HD
ATOM     21  H   LIG d   1       2.177  59.088 116.987  0.00  0.00    -0.090 HD
ENDBRANCH   5  18
BRANCH   3  22
ATOM     22  C   LIG d   1       4.316  58.492 121.313  0.00  0.00     0.382 C 
ATOM     23  O   LIG d   1       4.312  57.649 122.243  0.00  0.00    -0.241 OA
ATOM     24  O   LIG d   1       5.383  59.053 120.998  0.00  0.00    -0.241 OA
ENDBRANCH   3  22
TORSDOF 7
ENDMDL
MODEL 2
REMARK VINA RESULT:      -5.4      2.606      5.228
REMARK  7 active torsions:
REMARK  status: ('A' for Active; 'I' for Inactive)
REMARK    1  A    between atoms: C_2  and  C_3 
REMARK    2  A    between atoms: C_3  and  O_6 
REMARK    3  A    between atoms: C_3  and  C_4 
REMARK    4  A    between atoms: C_7  and  O_6 
REMARK    5  A    between atoms: C_9  and  C_10 
REMARK    6  A    between atoms: N_15  and  C_14 
REMARK    7  A    between atoms: N_20  and  C_19 
REMARK       I    between atoms: C_22  and  N_20 
ROOT
ATOM      1  C   LIG d   1       0.446  57.772 121.047  0.00  0.00     0.161 C 
ATOM      2  C   LIG d   1       0.607  58.465 119.836  0.00  0.00     0.016 C 
ATOM      3  C   LIG d   1      -0.431  59.200 119.217  0.00  0.00     0.038 C 
ATOM      4  C   LIG d   1      -1.664  59.418 119.849  0.00  0.00     0.028 C 
ATOM      5  C   LIG d   1      -2.041  58.319 120.837  0.00  0.00    -0.047 C 
ATOM      6  C   LIG d   1      -0.859  58.089 121.807  0.00  0.00     0.091 C 
ENDROOT
BRANCH   1   7
ATOM      7  O   LIG d   1       1.588  58.001 121.896  0.00  0.00    -0.368 OA
BRANCH   7   8
ATOM      8  C   LIG d   1       2.265  59.271 121.725  0.00  0.00     0.119 C 
BRANCH   8   9
ATOM      9  C   LIG d   1       3.781  58.999 121.787  0.00  0.00     0.028 C 
ATOM     10  C   LIG d   1       4.367  58.629 120.414  0.00  0.00     0.006 C 
ENDBRANCH   8   9
BRANCH   8  11
ATOM     11  C   LIG d   1       1.975  60.218 122.893  0.00  0.00     0.028 C 
ATOM     12  C   LIG d   1       0.912  61.275 122.553  0.00  0.00     0.006 C 
ENDBRANCH   8  11
ENDBRANCH   7   8
ENDBRANCH   1   7
BRANCH   6  13
ATOM     13  N   LIG d   1      -1.111  56.971 122.753  0.00  0.00    -0.311 N 
ATOM     14  C   LIG d   1      -1.626  57.143 123.970  0.00  0.00     0.210 C 
ATOM     15  C   LIG d   1      -1.786  55.860 124.791  0.00  0.00     0.109 C 
ATOM     16  O   LIG d   1      -1.996  58.232 124.434  0.00  0.00    -0.276 OA
ATOM     17  H   LIG d   1      -0.869  56.050 122.446  0.00  0.00     0.149 HD
ENDBRANCH   6  13
BRANCH   5  18
ATOM     18  N   LIG d   1      -3.277  58.740 121.523  0.00  0.00     0.381 N 
ATOM     19  H   LIG d   1      -3.319  58.325 122.432  0.00  0.00    -0.090 HD
ATOM     20  H   LIG d   1      -4.068  58.419 120.993  0.00  0.00    -0.090 HD
ATOM     21  H   LIG d   1      -3.302  59.733 121.601  0.00  0.00    -0.090 HD
ENDBRANCH   5  18
BRANCH   3  22
ATOM     22  C   LIG d   1      -0.252  59.694 117.934  0.00  0.00     0.382 C 
ATOM     23  O   LIG d   1       0.612  59.184 117.181  0.00  0.00    -0.241 OA
ATOM     24  O   LIG d   1      -0.914  60.671 117.535  0.00  0.00    -0.241 OA
ENDBRANCH   3  22
TORSDOF 7
ENDMDL
MODEL 3
REMARK VINA RESULT:      -4.8      2.397      5.037
REMARK  7 active torsions:
REMARK  status: ('A' for Active; 'I' for Inactive)
REMARK    1  A    between atoms: C_2  and  C_3 
REMARK    2  A    between atoms: C_3  and  O_6 
REMARK    3  A    between atoms: C_3  and  C_4 
REMARK    4  A    between atoms: C_7  and  O_6 
REMARK    5  A    between atoms: C_9  and  C_10 
REMARK    6  A    between atoms: N_15  and  C_14 
REMARK    7  A    between atoms: N_20  and  C_19 
REMARK       I    between atoms: C_22  and  N_20 
ROOT
ATOM      1  C   LIG d   1       0.116  58.606 121.320  0.00  0.00     0.161 C 
ATOM      2  C   LIG d   1      -0.758  58.977 120.285  0.00  0.00     0.016 C 
ATOM      3  C   LIG d   1      -0.327  59.272 118.971  0.00  0.00     0.038 C 
ATOM      4  C   LIG d   1       1.000  59.069 118.563  0.00  0.00     0.028 C 
ATOM      5  C   LIG d   1       2.008  59.180 119.701  0.00  0.00    -0.047 C 
ATOM      6  C   LIG d   1       1.552  58.271 120.865  0.00  0.00     0.091 C 
ENDROOT
BRANCH   1   7
ATOM      7  O   LIG d   1      -0.444  57.504 122.062  0.00  0.00    -0.368 OA
BRANCH   7   8
ATOM      8  C   LIG d   1      -0.754  57.764 123.453  0.00  0.00     0.119 C 
BRANCH   8   9
ATOM      9  C   LIG d   1      -2.204  57.303 123.698  0.00  0.00     0.028 C 
ATOM     10  C   LIG d   1      -3.236  58.242 123.051  0.00  0.00     0.006 C 
ENDBRANCH   8   9
BRANCH   8  11
ATOM     11  C   LIG d   1      -0.750  59.266 123.753  0.00  0.00     0.028 C 
ATOM     12  C   LIG d   1      -0.074  59.604 125.092  0.00  0.00     0.006 C 
ENDBRANCH   8  11
ENDBRANCH   7   8
ENDBRANCH   1   7
BRANCH   6  13
ATOM     13  N   LIG d   1       2.438  58.384 122.053  0.00  0.00    -0.311 N 
ATOM     14  C   LIG d   1       3.015  57.337 122.640  0.00  0.00     0.210 C 
ATOM     15  C   LIG d   1       3.874  57.673 123.863  0.00  0.00     0.109 C 
ATOM     16  O   LIG d   1       2.923  56.165 122.245  0.00  0.00    -0.276 OA
ATOM     17  H   LIG d   1       2.593  59.302 122.421  0.00  0.00     0.149 HD
ENDBRANCH   6  13
BRANCH   5  18
ATOM     18  N   LIG d   1       3.331  58.810 119.163  0.00  0.00     0.381 N 
ATOM     19  H   LIG d   1       4.024  59.446 119.503  0.00  0.00    -0.090 HD
ATOM     20  H   LIG d   1       3.304  58.879 118.161  0.00  0.00    -0.090 HD
ATOM     21  H   LIG d   1       3.561  57.880 119.433  0.00  0.00    -0.090 HD
ENDBRANCH   5  18
BRANCH   3  22
ATOM     22  C   LIG d   1      -1.220  59.816 118.061  0.00  0.00     0.382 C 
ATOM     23  O   LIG d   1      -0.852  60.740 117.296  0.00  0.00    -0.241 OA
ATOM     24  O   LIG d   1      -2.402  59.424 118.025  0.00  0.00    -0.241 OA
ENDBRANCH   3  22
TORSDOF 7
ENDMDL
MODEL 4
REMARK VINA RESULT:      -4.7     20.323     22.700
REMARK  7 active torsions:
REMARK  status: ('A' for Active; 'I' for Inactive)
REMARK    1  A    between atoms: C_2  and  C_3 
REMARK    2  A    between atoms: C_3  and  O_6 
REMARK    3  A    between atoms: C_3  and  C_4 
REMARK    4  A    between atoms: C_7  and  O_6 
REMARK    5  A    between atoms: C_9  and  C_10 
REMARK    6  A    between atoms: N_15  and  C_14 
REMARK    7  A    between atoms: N_20  and  C_19 
REMARK       I    between atoms: C_22  and  N_20 
ROOT
ATOM      1  C   LIG d   1      -7.673  79.622 118.800  0.00  0.00     0.161 C 
ATOM      2  C   LIG d   1      -8.192  78.445 118.236  0.00  0.00     0.016 C 
ATOM      3  C   LIG d   1      -9.461  77.917 118.568  0.00  0.00     0.038 C 
ATOM      4  C   LIG d   1     -10.366  78.616 119.381  0.00  0.00     0.028 C 
ATOM      5  C   LIG d   1      -9.688  79.559 120.370  0.00  0.00    -0.047 C 
ATOM      6  C   LIG d   1      -8.691  80.458 119.604  0.00  0.00     0.091 C 
ENDROOT
BRANCH   1   7
ATOM      7  O   LIG d   1      -7.063  80.429 117.773  0.00  0.00    -0.368 OA
BRANCH   7   8
ATOM      8  C   LIG d   1      -5.616  80.408 117.721  0.00  0.00     0.119 C 
BRANCH   8   9
ATOM      9  C   LIG d   1      -5.112  79.883 119.080  0.00  0.00     0.028 C 
ATOM     10  C   LIG d   1      -4.024  78.807 118.926  0.00  0.00     0.006 C 
ENDBRANCH   8   9
BRANCH   8  11
ATOM     11  C   LIG d   1      -5.042  81.822 117.595  0.00  0.00     0.028 C 
ATOM     12  C   LIG d   1      -4.912  82.535 118.950  0.00  0.00     0.006 C 
ENDBRANCH   8  11
ENDBRANCH   7   8
ENDBRANCH   1   7
BRANCH   6  13
ATOM     13  N   LIG d   1      -7.924  81.353 120.509  0.00  0.00    -0.311 N 
ATOM     14  C   LIG d   1      -8.298  82.598 120.799  0.00  0.00     0.210 C 
ATOM     15  C   LIG d   1      -7.353  83.355 121.738  0.00  0.00     0.109 C 
ATOM     16  O   LIG d   1      -9.339  83.136 120.394  0.00  0.00    -0.276 OA
ATOM     17  H   LIG d   1      -7.082  80.985 120.907  0.00  0.00     0.149 HD
ENDBRANCH   6  13
BRANCH   5  18
ATOM     18  N   LIG d   1     -10.748  80.323 121.055  0.00  0.00     0.381 N 
ATOM     19  H   LIG d   1     -10.509  81.294 121.070  0.00  0.00    -0.090 HD
ATOM     20  H   LIG d   1     -10.820  80.000 122.004  0.00  0.00    -0.090 HD
ATOM     21  H   LIG d   1     -11.618  80.195 120.586  0.00  0.00    -0.090 HD
ENDBRANCH   5  18
BRANCH   3  22
ATOM     22  C   LIG d   1      -9.819  76.655 118.118  0.00  0.00     0.382 C 
ATOM     23  O   LIG d   1     -11.002  76.257 118.246  0.00  0.00    -0.241 OA
ATOM     24  O   LIG d   1      -8.965  75.894 117.625  0.00  0.00    -0.241 OA
ENDBRANCH   3  22
TORSDOF 7
ENDMDL
MODEL 5
REMARK VINA RESULT:      -4.6     32.111     33.987
REMARK  7 active torsions:
REMARK  status: ('A' for Active; 'I' for Inactive)
REMARK    1  A    between atoms: C_2  and  C_3 
REMARK    2  A    between atoms: C_3  and  O_6 
REMARK    3  A    between atoms: C_3  and  C_4 
REMARK    4  A    between atoms: C_7  and  O_6 
REMARK    5  A    between atoms: C_9  and  C_10 
REMARK    6  A    between atoms: N_15  and  C_14 
REMARK    7  A    between atoms: N_20  and  C_19 
REMARK       I    between atoms: C_22  and  N_20 
ROOT
ATOM      1  C   LIG d   1      -2.220  93.403 117.991  0.00  0.00     0.161 C 
ATOM      2  C   LIG d   1      -1.085  92.580 117.901  0.00  0.00     0.016 C 
ATOM      3  C   LIG d   1       0.055  92.735 118.723  0.00  0.00     0.038 C 
ATOM      4  C   LIG d   1       0.077  93.634 119.799  0.00  0.00     0.028 C 
ATOM      5  C   LIG d   1      -0.850  94.830 119.608  0.00  0.00    -0.047 C 
ATOM      6  C   LIG d   1      -2.259  94.318 119.233  0.00  0.00     0.091 C 
ENDROOT
BRANCH   1   7
ATOM      7  O   LIG d   1      -3.414  92.599 117.923  0.00  0.00    -0.368 OA
BRANCH   7   8
ATOM      8  C   LIG d   1      -3.732  91.829 119.109  0.00  0.00     0.119 C 
BRANCH   8   9
ATOM      9  C   LIG d   1      -3.746  90.342 118.706  0.00  0.00     0.028 C 
ATOM     10  C   LIG d   1      -3.756  90.148 117.180  0.00  0.00     0.006 C 
ENDBRANCH   8   9
BRANCH   8  11
ATOM     11  C   LIG d   1      -5.150  92.129 119.604  0.00  0.00     0.028 C 
ATOM     12  C   LIG d   1      -5.979  92.931 118.588  0.00  0.00     0.006 C 
ENDBRANCH   8  11
ENDBRANCH   7   8
ENDBRANCH   1   7
BRANCH   6  13
ATOM     13  N   LIG d   1      -3.207  95.426 118.946  0.00  0.00    -0.311 N 
ATOM     14  C   LIG d   1      -4.065  95.908 119.843  0.00  0.00     0.210 C 
ATOM     15  C   LIG d   1      -4.966  97.037 119.335  0.00  0.00     0.109 C 
ATOM     16  O   LIG d   1      -4.143  95.529 121.022  0.00  0.00    -0.276 OA
ATOM     17  H   LIG d   1      -3.189  95.814 118.023  0.00  0.00     0.149 HD
ENDBRANCH   6  13
BRANCH   5  18
ATOM     18  N   LIG d   1      -0.832  95.611 120.859  0.00  0.00     0.381 N 
ATOM     19  H   LIG d   1      -1.131  95.036 121.622  0.00  0.00    -0.090 HD
ATOM     20  H   LIG d   1      -1.475  96.379 120.772  0.00  0.00    -0.090 HD
ATOM     21  H   LIG d   1       0.086  95.956 121.034  0.00  0.00    -0.090 HD
ENDBRANCH   5  18
BRANCH   3  22
ATOM     22  C   LIG d   1       1.205  92.011 118.445  0.00  0.00     0.382 C 
ATOM     23  O   LIG d   1       2.197  92.584 117.932  0.00  0.00    -0.241 OA
ATOM     24  O   LIG d   1       1.248  90.785 118.661  0.00  0.00    -0.241 OA
ENDBRANCH   3  22
TORSDOF 7
ENDMDL
MODEL 6
REMARK VINA RESULT:      -4.6     12.493     15.087
REMARK  7 active torsions:
REMARK  status: ('A' for Active; 'I' for Inactive)
REMARK    1  A    between atoms: C_2  and  C_3 
REMARK    2  A    between atoms: C_3  and  O_6 
REMARK    3  A    between atoms: C_3  and  C_4 
REMARK    4  A    between atoms: C_7  and  O_6 
REMARK    5  A    between atoms: C_9  and  C_10 
REMARK    6  A    between atoms: N_15  and  C_14 
REMARK    7  A    between atoms: N_20  and  C_19 
REMARK       I    between atoms: C_22  and  N_20 
ROOT
ATOM      1  C   LIG d   1     -12.858  65.509 121.738  0.00  0.00     0.161 C 
ATOM      2  C   LIG d   1     -11.710  65.236 122.500  0.00  0.00     0.016 C 
ATOM      3  C   LIG d   1     -10.862  64.130 122.261  0.00  0.00     0.038 C 
ATOM      4  C   LIG d   1     -11.022  63.302 121.140  0.00  0.00     0.028 C 
ATOM      5  C   LIG d   1     -12.459  63.240 120.633  0.00  0.00    -0.047 C 
ATOM      6  C   LIG d   1     -12.987  64.680 120.443  0.00  0.00     0.091 C 
ENDROOT
BRANCH   1   7
ATOM      7  O   LIG d   1     -12.923  66.918 121.440  0.00  0.00    -0.368 OA
BRANCH   7   8
ATOM      8  C   LIG d   1     -14.009  67.651 122.058  0.00  0.00     0.119 C 
BRANCH   8   9
ATOM      9  C   LIG d   1     -14.872  68.241 120.926  0.00  0.00     0.028 C 
ATOM     10  C   LIG d   1     -15.788  69.375 121.417  0.00  0.00     0.006 C 
ENDBRANCH   8   9
BRANCH   8  11
ATOM     11  C   LIG d   1     -13.490  68.858 122.844  0.00  0.00     0.028 C 
ATOM     12  C   LIG d   1     -11.963  69.009 122.765  0.00  0.00     0.006 C 
ENDBRANCH   8  11
ENDBRANCH   7   8
ENDBRANCH   1   7
BRANCH   6  13
ATOM     13  N   LIG d   1     -14.414  64.711 120.029  0.00  0.00    -0.311 N 
ATOM     14  C   LIG d   1     -14.824  65.154 118.842  0.00  0.00     0.210 C 
ATOM     15  C   LIG d   1     -16.340  65.118 118.626  0.00  0.00     0.109 C 
ATOM     16  O   LIG d   1     -14.073  65.544 117.935  0.00  0.00    -0.276 OA
ATOM     17  H   LIG d   1     -15.088  64.384 120.693  0.00  0.00     0.149 HD
ENDBRANCH   6  13
BRANCH   5  18
ATOM     18  N   LIG d   1     -12.458  62.455 119.384  0.00  0.00     0.381 N 
ATOM     19  H   LIG d   1     -12.762  63.029 118.623  0.00  0.00    -0.090 HD
ATOM     20  H   LIG d   1     -13.103  61.690 119.480  0.00  0.00    -0.090 HD
ATOM     21  H   LIG d   1     -11.543  62.106 119.202  0.00  0.00    -0.090 HD
ENDBRANCH   5  18
BRANCH   3  22
ATOM     22  C   LIG d   1      -9.863  63.820 123.171  0.00  0.00     0.382 C 
ATOM     23  O   LIG d   1      -9.704  62.634 123.547  0.00  0.00    -0.241 OA
ATOM     24  O   LIG d   1      -9.149  64.719 123.655  0.00  0.00    -0.241 OA
ENDBRANCH   3  22
TORSDOF 7
ENDMDL
MODEL 7
REMARK VINA RESULT:      -4.6     32.308     34.456
REMARK  7 active torsions:
REMARK  status: ('A' for Active; 'I' for Inactive)
REMARK    1  A    between atoms: C_2  and  C_3 
REMARK    2  A    between atoms: C_3  and  O_6 
REMARK    3  A    between atoms: C_3  and  C_4 
REMARK    4  A    between atoms: C_7  and  O_6 
REMARK    5  A    between atoms: C_9  and  C_10 
REMARK    6  A    between atoms: N_15  and  C_14 
REMARK    7  A    between atoms: N_20  and  C_19 
REMARK       I    between atoms: C_22  and  N_20 
ROOT
ATOM      1  C   LIG d   1      -5.850  93.780 120.144  0.00  0.00     0.161 C 
ATOM      2  C   LIG d   1      -5.717  92.691 121.020  0.00  0.00     0.016 C 
ATOM      3  C   LIG d   1      -6.816  92.054 121.643  0.00  0.00     0.038 C 
ATOM      4  C   LIG d   1      -8.141  92.370 121.311  0.00  0.00     0.028 C 
ATOM      5  C   LIG d   1      -8.317  93.801 120.812  0.00  0.00    -0.047 C 
ATOM      6  C   LIG d   1      -7.295  94.067 119.683  0.00  0.00     0.091 C 
ENDROOT
BRANCH   1   7
ATOM      7  O   LIG d   1      -4.988  93.598 119.003  0.00  0.00    -0.368 OA
BRANCH   7   8
ATOM      8  C   LIG d   1      -4.677  92.228 118.652  0.00  0.00     0.119 C 
BRANCH   8   9
ATOM      9  C   LIG d   1      -3.178  92.169 118.299  0.00  0.00     0.028 C 
ATOM     10  C   LIG d   1      -2.403  91.186 119.192  0.00  0.00     0.006 C 
ENDBRANCH   8   9
BRANCH   8  11
ATOM     11  C   LIG d   1      -5.411  91.799 117.378  0.00  0.00     0.028 C 
ATOM     12  C   LIG d   1      -6.667  90.962 117.667  0.00  0.00     0.006 C 
ENDBRANCH   8  11
ENDBRANCH   7   8
ENDBRANCH   1   7
BRANCH   6  13
ATOM     13  N   LIG d   1      -7.342  95.471 119.197  0.00  0.00    -0.311 N 
ATOM     14  C   LIG d   1      -8.024  95.850 118.117  0.00  0.00     0.210 C 
ATOM     15  C   LIG d   1      -7.922  97.341 117.779  0.00  0.00     0.109 C 
ATOM     16  O   LIG d   1      -8.729  95.100 117.426  0.00  0.00    -0.276 OA
ATOM     17  H   LIG d   1      -6.822  96.151 119.716  0.00  0.00     0.149 HD
ENDBRANCH   6  13
BRANCH   5  18
ATOM     18  N   LIG d   1      -9.717  93.951 120.373  0.00  0.00     0.381 N 
ATOM     19  H   LIG d   1     -10.333  93.618 121.087  0.00  0.00    -0.090 HD
ATOM     20  H   LIG d   1      -9.860  93.396 119.548  0.00  0.00    -0.090 HD
ATOM     21  H   LIG d   1      -9.911  94.908 120.176  0.00  0.00    -0.090 HD
ENDBRANCH   5  18
BRANCH   3  22
ATOM     22  C   LIG d   1      -6.592  91.116 122.639  0.00  0.00     0.382 C 
ATOM     23  O   LIG d   1      -5.424  90.895 123.041  0.00  0.00    -0.241 OA
ATOM     24  O   LIG d   1      -7.538  90.457 123.111  0.00  0.00    -0.241 OA
ENDBRANCH   3  22
TORSDOF 7
ENDMDL
MODEL 8
REMARK VINA RESULT:      -4.6     22.094     24.740
REMARK  7 active torsions:
REMARK  status: ('A' for Active; 'I' for Inactive)
REMARK    1  A    between atoms: C_2  and  C_3 
REMARK    2  A    between atoms: C_3  and  O_6 
REMARK    3  A    between atoms: C_3  and  C_4 
REMARK    4  A    between atoms: C_7  and  O_6 
REMARK    5  A    between atoms: C_9  and  C_10 
REMARK    6  A    between atoms: N_15  and  C_14 
REMARK    7  A    between atoms: N_20  and  C_19 
REMARK       I    between atoms: C_22  and  N_20 
ROOT
ATOM      1  C   LIG d   1      -8.979  82.117 120.366  0.00  0.00     0.161 C 
ATOM      2  C   LIG d   1      -9.029  83.377 120.985  0.00  0.00     0.016 C 
ATOM      3  C   LIG d   1      -9.838  83.659 122.110  0.00  0.00     0.038 C 
ATOM      4  C   LIG d   1     -10.541  82.653 122.789  0.00  0.00     0.028 C 
ATOM      5  C   LIG d   1     -10.918  81.472 121.900  0.00  0.00    -0.047 C 
ATOM      6  C   LIG d   1      -9.654  80.979 121.159  0.00  0.00     0.091 C 
ENDROOT
BRANCH   1   7
ATOM      7  O   LIG d   1      -7.611  81.775 120.065  0.00  0.00    -0.368 OA
BRANCH   7   8
ATOM      8  C   LIG d   1      -7.112  82.217 118.778  0.00  0.00     0.119 C 
BRANCH   8   9
ATOM      9  C   LIG d   1      -7.419  81.104 117.756  0.00  0.00     0.028 C 
ATOM     10  C   LIG d   1      -6.896  79.731 118.210  0.00  0.00     0.006 C 
ENDBRANCH   8   9
BRANCH   8  11
ATOM     11  C   LIG d   1      -5.587  82.349 118.788  0.00  0.00     0.028 C 
ATOM     12  C   LIG d   1      -5.062  83.110 120.016  0.00  0.00     0.006 C 
ENDBRANCH   8  11
ENDBRANCH   7   8
ENDBRANCH   1   7
BRANCH   6  13
ATOM     13  N   LIG d   1      -9.949  79.879 120.205  0.00  0.00    -0.311 N 
ATOM     14  C   LIG d   1      -9.866  78.588 120.524  0.00  0.00     0.210 C 
ATOM     15  C   LIG d   1     -10.194  77.618 119.385  0.00  0.00     0.109 C 
ATOM     16  O   LIG d   1      -9.583  78.156 121.651  0.00  0.00    -0.276 OA
ATOM     17  H   LIG d   1     -10.217  80.140 119.276  0.00  0.00     0.149 HD
ENDBRANCH   6  13
BRANCH   5  18
ATOM     18  N   LIG d   1     -11.522  80.439 122.763  0.00  0.00     0.381 N 
ATOM     19  H   LIG d   1     -12.463  80.694 122.988  0.00  0.00    -0.090 HD
ATOM     20  H   LIG d   1     -10.998  80.383 123.618  0.00  0.00    -0.090 HD
ATOM     21  H   LIG d   1     -11.511  79.558 122.299  0.00  0.00    -0.090 HD
ENDBRANCH   5  18
BRANCH   3  22
ATOM     22  C   LIG d   1      -9.980  84.968 122.543  0.00  0.00     0.382 C 
ATOM     23  O   LIG d   1     -11.122  85.428 122.784  0.00  0.00    -0.241 OA
ATOM     24  O   LIG d   1      -8.985  85.709 122.653  0.00  0.00    -0.241 OA
ENDBRANCH   3  22
TORSDOF 7
ENDMDL
MODEL 9
REMARK VINA RESULT:      -4.5      2.299      4.044
REMARK  7 active torsions:
REMARK  status: ('A' for Active; 'I' for Inactive)
REMARK    1  A    between atoms: C_2  and  C_3 
REMARK    2  A    between atoms: C_3  and  O_6 
REMARK    3  A    between atoms: C_3  and  C_4 
REMARK    4  A    between atoms: C_7  and  O_6 
REMARK    5  A    between atoms: C_9  and  C_10 
REMARK    6  A    between atoms: N_15  and  C_14 
REMARK    7  A    between atoms: N_20  and  C_19 
REMARK       I    between atoms: C_22  and  N_20 
ROOT
ATOM      1  C   LIG d   1       0.706  60.136 121.991  0.00  0.00     0.161 C 
ATOM      2  C   LIG d   1       1.486  59.681 120.915  0.00  0.00     0.016 C 
ATOM      3  C   LIG d   1       0.937  59.200 119.704  0.00  0.00     0.038 C 
ATOM      4  C   LIG d   1      -0.436  59.284 119.428  0.00  0.00     0.028 C 
ATOM      5  C   LIG d   1      -1.308  59.268 120.679  0.00  0.00    -0.047 C 
ATOM      6  C   LIG d   1      -0.789  60.338 121.666  0.00  0.00     0.091 C 
ENDROOT
BRANCH   1   7
ATOM      7  O   LIG d   1       1.271  61.349 122.526  0.00  0.00    -0.368 OA
BRANCH   7   8
ATOM      8  C   LIG d   1       2.260  61.184 123.572  0.00  0.00     0.119 C 
BRANCH   8   9
ATOM      9  C   LIG d   1       1.640  60.283 124.657  0.00  0.00     0.028 C 
ATOM     10  C   LIG d   1       2.579  59.139 125.077  0.00  0.00     0.006 C 
ENDBRANCH   8   9
BRANCH   8  11
ATOM     11  C   LIG d   1       2.558  62.514 124.271  0.00  0.00     0.028 C 
ATOM     12  C   LIG d   1       4.042  62.907 124.198  0.00  0.00     0.006 C 
ENDBRANCH   8  11
ENDBRANCH   7   8
ENDBRANCH   1   7
BRANCH   6  13
ATOM     13  N   LIG d   1      -1.534  60.332 122.952  0.00  0.00    -0.311 N 
ATOM     14  C   LIG d   1      -1.846  61.439 123.624  0.00  0.00     0.210 C 
ATOM     15  C   LIG d   1      -2.599  61.207 124.938  0.00  0.00     0.109 C 
ATOM     16  O   LIG d   1      -1.599  62.592 123.241  0.00  0.00    -0.276 OA
ATOM     17  H   LIG d   1      -1.801  59.440 123.320  0.00  0.00     0.149 HD
ENDBRANCH   6  13
BRANCH   5  18
ATOM     18  N   LIG d   1      -2.701  59.499 120.255  0.00  0.00     0.381 N 
ATOM     19  H   LIG d   1      -3.310  58.862 120.728  0.00  0.00    -0.090 HD
ATOM     20  H   LIG d   1      -2.773  59.328 119.267  0.00  0.00    -0.090 HD
ATOM     21  H   LIG d   1      -2.968  60.438 120.457  0.00  0.00    -0.090 HD
ENDBRANCH   5  18
BRANCH   3  22
ATOM     22  C   LIG d   1       1.761  58.592 118.770  0.00  0.00     0.382 C 
ATOM     23  O   LIG d   1       1.377  58.469 117.582  0.00  0.00    -0.241 OA
ATOM     24  O   LIG d   1       2.864  58.124 119.110  0.00  0.00    -0.241 OA
ENDBRANCH   3  22
TORSDOF 7
ENDMDL
