MODEL 1
REMARK VINA RESULT:      -4.8      0.000      0.000
REMARK  7 active torsions:
REMARK  status: ('A' for Active; 'I' for Inactive)
REMARK    1  A    between atoms: C_2  and  C_3 
REMARK    2  A    between atoms: C_3  and  O_6 
REMARK    3  A    between atoms: C_3  and  C_4 
REMARK    4  A    between atoms: C_7  and  O_6 
REMARK    5  A    between atoms: C_9  and  C_10 
REMARK    6  A    between atoms: N_15  and  C_14 
REMARK    7  A    between atoms: N_20  and  C_19 
REMARK       I    between atoms: C_22  and  N_20 
ROOT
ATOM      1  C   LIG d   1       1.128  60.642 122.162  0.00  0.00     0.161 C 
ATOM      2  C   LIG d   1       0.664  61.540 123.137  0.00  0.00     0.016 C 
ATOM      3  C   LIG d   1      -0.642  62.082 123.138  0.00  0.00     0.038 C 
ATOM      4  C   LIG d   1      -1.627  61.643 122.241  0.00  0.00     0.028 C 
ATOM      5  C   LIG d   1      -1.059  61.115 120.928  0.00  0.00    -0.047 C 
ATOM      6  C   LIG d   1       0.033  60.066 121.239  0.00  0.00     0.091 C 
ENDROOT
BRANCH   1   7
ATOM      7  O   LIG d   1       1.865  59.575 122.790  0.00  0.00    -0.368 OA
BRANCH   7   8
ATOM      8  C   LIG d   1       3.290  59.546 122.531  0.00  0.00     0.119 C 
BRANCH   8   9
ATOM      9  C   LIG d   1       4.007  59.909 123.846  0.00  0.00     0.028 C 
ATOM     10  C   LIG d   1       4.392  61.396 123.914  0.00  0.00     0.006 C 
ENDBRANCH   8   9
BRANCH   8  11
ATOM     11  C   LIG d   1       3.698  60.634 121.534  0.00  0.00     0.028 C 
ATOM     12  C   LIG d   1       4.340  60.064 120.259  0.00  0.00     0.006 C 
ENDBRANCH   8  11
ENDBRANCH   7   8
ENDBRANCH   1   7
BRANCH   6  13
ATOM     13  N   LIG d   1       0.699  59.560 120.011  0.00  0.00    -0.311 N 
ATOM     14  C   LIG d   1       0.970  58.273 119.802  0.00  0.00     0.210 C 
ATOM     15  C   LIG d   1       1.679  57.969 118.478  0.00  0.00     0.109 C 
ATOM     16  O   LIG d   1       0.661  57.351 120.571  0.00  0.00    -0.276 OA
ATOM     17  H   LIG d   1       0.957  60.237 119.320  0.00  0.00     0.149 HD
ENDBRANCH   6  13
BRANCH   5  18
ATOM     18  N   LIG d   1      -2.182  60.566 120.146  0.00  0.00     0.381 N 
ATOM     19  H   LIG d   1      -3.032  61.025 120.404  0.00  0.00    -0.090 HD
ATOM     20  H   LIG d   1      -2.277  59.587 120.355  0.00  0.00    -0.090 HD
ATOM     21  H   LIG d   1      -2.012  60.689 119.172  0.00  0.00    -0.090 HD
ENDBRANCH   5  18
BRANCH   3  22
ATOM     22  C   LIG d   1      -0.961  63.105 124.018  0.00  0.00     0.382 C 
ATOM     23  O   LIG d   1      -1.647  62.861 125.040  0.00  0.00    -0.241 OA
ATOM     24  O   LIG d   1      -0.609  64.276 123.781  0.00  0.00    -0.241 OA
ENDBRANCH   3  22
TORSDOF 7
ENDMDL
MODEL 2
REMARK VINA RESULT:      -4.6      0.882      1.661
REMARK  7 active torsions:
REMARK  status: ('A' for Active; 'I' for Inactive)
REMARK    1  A    between atoms: C_2  and  C_3 
REMARK    2  A    between atoms: C_3  and  O_6 
REMARK    3  A    between atoms: C_3  and  C_4 
REMARK    4  A    between atoms: C_7  and  O_6 
REMARK    5  A    between atoms: C_9  and  C_10 
REMARK    6  A    between atoms: N_15  and  C_14 
REMARK    7  A    between atoms: N_20  and  C_19 
REMARK       I    between atoms: C_22  and  N_20 
ROOT
ATOM      1  C   LIG d   1       1.346  60.543 121.802  0.00  0.00     0.161 C 
ATOM      2  C   LIG d   1       0.758  61.355 122.786  0.00  0.00     0.016 C 
ATOM      3  C   LIG d   1      -0.638  61.434 122.997  0.00  0.00     0.038 C 
ATOM      4  C   LIG d   1      -1.537  60.587 122.333  0.00  0.00     0.028 C 
ATOM      5  C   LIG d   1      -1.032  60.112 120.975  0.00  0.00    -0.047 C 
ATOM      6  C   LIG d   1       0.389  59.528 121.144  0.00  0.00     0.091 C 
ENDROOT
BRANCH   1   7
ATOM      7  O   LIG d   1       2.495  59.865 122.350  0.00  0.00    -0.368 OA
BRANCH   7   8
ATOM      8  C   LIG d   1       3.780  60.483 122.096  0.00  0.00     0.119 C 
BRANCH   8   9
ATOM      9  C   LIG d   1       4.363  59.834 120.826  0.00  0.00     0.028 C 
ATOM     10  C   LIG d   1       4.419  60.811 119.640  0.00  0.00     0.006 C 
ENDBRANCH   8   9
BRANCH   8  11
ATOM     11  C   LIG d   1       4.782  60.164 123.210  0.00  0.00     0.028 C 
ATOM     12  C   LIG d   1       6.027  61.063 123.167  0.00  0.00     0.006 C 
ENDBRANCH   8  11
ENDBRANCH   7   8
ENDBRANCH   1   7
BRANCH   6  13
ATOM     13  N   LIG d   1       0.991  59.117 119.848  0.00  0.00    -0.311 N 
ATOM     14  C   LIG d   1       1.281  57.854 119.543  0.00  0.00     0.210 C 
ATOM     15  C   LIG d   1       1.915  57.652 118.162  0.00  0.00     0.109 C 
ATOM     16  O   LIG d   1       1.045  56.878 120.270  0.00  0.00    -0.276 OA
ATOM     17  H   LIG d   1       1.187  59.842 119.186  0.00  0.00     0.149 HD
ENDBRANCH   6  13
BRANCH   5  18
ATOM     18  N   LIG d   1      -2.003  59.130 120.456  0.00  0.00     0.381 N 
ATOM     19  H   LIG d   1      -2.038  59.183 119.458  0.00  0.00    -0.090 HD
ATOM     20  H   LIG d   1      -2.915  59.354 120.815  0.00  0.00    -0.090 HD
ATOM     21  H   LIG d   1      -1.743  58.211 120.739  0.00  0.00    -0.090 HD
ENDBRANCH   5  18
BRANCH   3  22
ATOM     22  C   LIG d   1      -1.150  62.398 123.852  0.00  0.00     0.382 C 
ATOM     23  O   LIG d   1      -1.852  62.056 124.834  0.00  0.00    -0.241 OA
ATOM     24  O   LIG d   1      -0.956  63.608 123.628  0.00  0.00    -0.241 OA
ENDBRANCH   3  22
TORSDOF 7
ENDMDL
MODEL 3
REMARK VINA RESULT:      -4.5     20.758     23.627
REMARK  7 active torsions:
REMARK  status: ('A' for Active; 'I' for Inactive)
REMARK    1  A    between atoms: C_2  and  C_3 
REMARK    2  A    between atoms: C_3  and  O_6 
REMARK    3  A    between atoms: C_3  and  C_4 
REMARK    4  A    between atoms: C_7  and  O_6 
REMARK    5  A    between atoms: C_9  and  C_10 
REMARK    6  A    between atoms: N_15  and  C_14 
REMARK    7  A    between atoms: N_20  and  C_19 
REMARK       I    between atoms: C_22  and  N_20 
ROOT
ATOM      1  C   LIG d   1      -9.579  80.983 121.226  0.00  0.00     0.161 C 
ATOM      2  C   LIG d   1      -9.834  82.198 121.884  0.00  0.00     0.016 C 
ATOM      3  C   LIG d   1     -10.064  83.417 121.206  0.00  0.00     0.038 C 
ATOM      4  C   LIG d   1     -10.204  83.474 119.811  0.00  0.00     0.028 C 
ATOM      5  C   LIG d   1      -9.455  82.365 119.081  0.00  0.00    -0.047 C 
ATOM      6  C   LIG d   1      -9.839  81.004 119.705  0.00  0.00     0.091 C 
ENDROOT
BRANCH   1   7
ATOM      7  O   LIG d   1     -10.332  79.923 121.848  0.00  0.00    -0.368 OA
BRANCH   7   8
ATOM      8  C   LIG d   1     -10.679  80.120 123.241  0.00  0.00     0.119 C 
BRANCH   8   9
ATOM      9  C   LIG d   1      -9.810  79.157 124.074  0.00  0.00     0.028 C 
ATOM     10  C   LIG d   1     -10.248  79.098 125.548  0.00  0.00     0.006 C 
ENDBRANCH   8   9
BRANCH   8  11
ATOM     11  C   LIG d   1     -12.126  79.704 123.520  0.00  0.00     0.028 C 
ATOM     12  C   LIG d   1     -13.092  80.121 122.399  0.00  0.00     0.006 C 
ENDBRANCH   8  11
ENDBRANCH   7   8
ENDBRANCH   1   7
BRANCH   6  13
ATOM     13  N   LIG d   1      -9.086  79.872 119.105  0.00  0.00    -0.311 N 
ATOM     14  C   LIG d   1      -9.660  78.736 118.713  0.00  0.00     0.210 C 
ATOM     15  C   LIG d   1      -8.699  77.691 118.139  0.00  0.00     0.109 C 
ATOM     16  O   LIG d   1     -10.878  78.507 118.758  0.00  0.00    -0.276 OA
ATOM     17  H   LIG d   1      -8.096  79.986 119.003  0.00  0.00     0.149 HD
ENDBRANCH   6  13
BRANCH   5  18
ATOM     18  N   LIG d   1      -9.799  82.462 117.650  0.00  0.00     0.381 N 
ATOM     19  H   LIG d   1      -8.967  82.405 117.097  0.00  0.00    -0.090 HD
ATOM     20  H   LIG d   1     -10.231  83.353 117.479  0.00  0.00    -0.090 HD
ATOM     21  H   LIG d   1     -10.425  81.728 117.399  0.00  0.00    -0.090 HD
ENDBRANCH   5  18
BRANCH   3  22
ATOM     22  C   LIG d   1     -10.115  84.603 121.923  0.00  0.00     0.382 C 
ATOM     23  O   LIG d   1     -10.629  85.625 121.407  0.00  0.00    -0.241 OA
ATOM     24  O   LIG d   1      -9.615  84.675 123.061  0.00  0.00    -0.241 OA
ENDBRANCH   3  22
TORSDOF 7
ENDMDL
MODEL 4
REMARK VINA RESULT:      -4.5     20.280     23.127
REMARK  7 active torsions:
REMARK  status: ('A' for Active; 'I' for Inactive)
REMARK    1  A    between atoms: C_2  and  C_3 
REMARK    2  A    between atoms: C_3  and  O_6 
REMARK    3  A    between atoms: C_3  and  C_4 
REMARK    4  A    between atoms: C_7  and  O_6 
REMARK    5  A    between atoms: C_9  and  C_10 
REMARK    6  A    between atoms: N_15  and  C_14 
REMARK    7  A    between atoms: N_20  and  C_19 
REMARK       I    between atoms: C_22  and  N_20 
ROOT
ATOM      1  C   LIG d   1      -8.959  81.248 121.451  0.00  0.00     0.161 C 
ATOM      2  C   LIG d   1      -9.166  82.488 122.078  0.00  0.00     0.016 C 
ATOM      3  C   LIG d   1      -9.732  83.606 121.422  0.00  0.00     0.038 C 
ATOM      4  C   LIG d   1     -10.273  83.513 120.131  0.00  0.00     0.028 C 
ATOM      5  C   LIG d   1      -9.631  82.421 119.283  0.00  0.00    -0.047 C 
ATOM      6  C   LIG d   1      -9.645  81.095 120.077  0.00  0.00     0.091 C 
ENDROOT
BRANCH   1   7
ATOM      7  O   LIG d   1      -9.362  80.182 122.334  0.00  0.00    -0.368 OA
BRANCH   7   8
ATOM      8  C   LIG d   1      -8.295  79.495 123.034  0.00  0.00     0.119 C 
BRANCH   8   9
ATOM      9  C   LIG d   1      -8.070  78.145 122.325  0.00  0.00     0.028 C 
ATOM     10  C   LIG d   1      -6.722  78.087 121.587  0.00  0.00     0.006 C 
ENDBRANCH   8   9
BRANCH   8  11
ATOM     11  C   LIG d   1      -8.707  79.139 124.465  0.00  0.00     0.028 C 
ATOM     12  C   LIG d   1      -9.572  80.224 125.124  0.00  0.00     0.006 C 
ENDBRANCH   8  11
ENDBRANCH   7   8
ENDBRANCH   1   7
BRANCH   6  13
ATOM     13  N   LIG d   1      -8.959  79.993 119.353  0.00  0.00    -0.311 N 
ATOM     14  C   LIG d   1      -9.589  78.909 118.902  0.00  0.00     0.210 C 
ATOM     15  C   LIG d   1      -8.691  77.885 118.200  0.00  0.00     0.109 C 
ATOM     16  O   LIG d   1     -10.811  78.714 118.988  0.00  0.00    -0.276 OA
ATOM     17  H   LIG d   1      -7.972  80.084 119.212  0.00  0.00     0.149 HD
ENDBRANCH   6  13
BRANCH   5  18
ATOM     18  N   LIG d   1     -10.380  82.343 118.015  0.00  0.00     0.381 N 
ATOM     19  H   LIG d   1      -9.945  82.925 117.328  0.00  0.00    -0.090 HD
ATOM     20  H   LIG d   1     -11.314  82.680 118.168  0.00  0.00    -0.090 HD
ATOM     21  H   LIG d   1     -10.408  81.401 117.692  0.00  0.00    -0.090 HD
ENDBRANCH   5  18
BRANCH   3  22
ATOM     22  C   LIG d   1      -9.725  84.844 122.046  0.00  0.00     0.382 C 
ATOM     23  O   LIG d   1     -10.567  85.715 121.720  0.00  0.00    -0.241 OA
ATOM     24  O   LIG d   1      -8.859  85.117 122.899  0.00  0.00    -0.241 OA
ENDBRANCH   3  22
TORSDOF 7
ENDMDL
MODEL 5
REMARK VINA RESULT:      -4.4     31.680     34.370
REMARK  7 active torsions:
REMARK  status: ('A' for Active; 'I' for Inactive)
REMARK    1  A    between atoms: C_2  and  C_3 
REMARK    2  A    between atoms: C_3  and  O_6 
REMARK    3  A    between atoms: C_3  and  C_4 
REMARK    4  A    between atoms: C_7  and  O_6 
REMARK    5  A    between atoms: C_9  and  C_10 
REMARK    6  A    between atoms: N_15  and  C_14 
REMARK    7  A    between atoms: N_20  and  C_19 
REMARK       I    between atoms: C_22  and  N_20 
ROOT
ATOM      1  C   LIG d   1      -5.814  93.818 119.363  0.00  0.00     0.161 C 
ATOM      2  C   LIG d   1      -4.531  93.502 118.886  0.00  0.00     0.016 C 
ATOM      3  C   LIG d   1      -4.249  92.345 118.123  0.00  0.00     0.038 C 
ATOM      4  C   LIG d   1      -5.265  91.499 117.655  0.00  0.00     0.028 C 
ATOM      5  C   LIG d   1      -6.510  91.503 118.535  0.00  0.00    -0.047 C 
ATOM      6  C   LIG d   1      -6.954  92.965 118.769  0.00  0.00     0.091 C 
ENDROOT
BRANCH   1   7
ATOM      7  O   LIG d   1      -6.079  95.220 119.159  0.00  0.00    -0.368 OA
BRANCH   7   8
ATOM      8  C   LIG d   1      -5.840  96.086 120.296  0.00  0.00     0.119 C 
BRANCH   8   9
ATOM      9  C   LIG d   1      -7.210  96.430 120.912  0.00  0.00     0.028 C 
ATOM     10  C   LIG d   1      -7.479  95.656 122.214  0.00  0.00     0.006 C 
ENDBRANCH   8   9
BRANCH   8  11
ATOM     11  C   LIG d   1      -5.243  97.427 119.860  0.00  0.00     0.028 C 
ATOM     12  C   LIG d   1      -4.146  97.273 118.794  0.00  0.00     0.006 C 
ENDBRANCH   8  11
ENDBRANCH   7   8
ENDBRANCH   1   7
BRANCH   6  13
ATOM     13  N   LIG d   1      -8.117  93.064 119.689  0.00  0.00    -0.311 N 
ATOM     14  C   LIG d   1      -9.221  93.753 119.404  0.00  0.00     0.210 C 
ATOM     15  C   LIG d   1     -10.291  93.741 120.500  0.00  0.00     0.109 C 
ATOM     16  O   LIG d   1      -9.429  94.345 118.334  0.00  0.00    -0.276 OA
ATOM     17  H   LIG d   1      -8.046  92.588 120.567  0.00  0.00     0.149 HD
ENDBRANCH   6  13
BRANCH   5  18
ATOM     18  N   LIG d   1      -7.537  90.688 117.859  0.00  0.00     0.381 N 
ATOM     19  H   LIG d   1      -7.770  89.898 118.427  0.00  0.00    -0.090 HD
ATOM     20  H   LIG d   1      -7.163  90.352 116.989  0.00  0.00    -0.090 HD
ATOM     21  H   LIG d   1      -8.351  91.237 117.690  0.00  0.00    -0.090 HD
ENDBRANCH   5  18
BRANCH   3  22
ATOM     22  C   LIG d   1      -2.932  92.004 117.855  0.00  0.00     0.382 C 
ATOM     23  O   LIG d   1      -2.575  90.801 117.894  0.00  0.00    -0.241 OA
ATOM     24  O   LIG d   1      -2.086  92.887 117.619  0.00  0.00    -0.241 OA
ENDBRANCH   3  22
TORSDOF 7
ENDMDL
MODEL 6
REMARK VINA RESULT:      -4.4     23.347     26.462
REMARK  7 active torsions:
REMARK  status: ('A' for Active; 'I' for Inactive)
REMARK    1  A    between atoms: C_2  and  C_3 
REMARK    2  A    between atoms: C_3  and  O_6 
REMARK    3  A    between atoms: C_3  and  C_4 
REMARK    4  A    between atoms: C_7  and  O_6 
REMARK    5  A    between atoms: C_9  and  C_10 
REMARK    6  A    between atoms: N_15  and  C_14 
REMARK    7  A    between atoms: N_20  and  C_19 
REMARK       I    between atoms: C_22  and  N_20 
ROOT
ATOM      1  C   LIG d   1     -17.894  78.516 121.628  0.00  0.00     0.161 C 
ATOM      2  C   LIG d   1     -17.936  77.186 121.180  0.00  0.00     0.016 C 
ATOM      3  C   LIG d   1     -18.715  76.760 120.080  0.00  0.00     0.038 C 
ATOM      4  C   LIG d   1     -19.391  77.669 119.253  0.00  0.00     0.028 C 
ATOM      5  C   LIG d   1     -19.784  78.959 119.966  0.00  0.00    -0.047 C 
ATOM      6  C   LIG d   1     -18.538  79.542 120.672  0.00  0.00     0.091 C 
ENDROOT
BRANCH   1   7
ATOM      7  O   LIG d   1     -16.533  78.890 121.921  0.00  0.00    -0.368 OA
BRANCH   7   8
ATOM      8  C   LIG d   1     -15.924  78.237 123.062  0.00  0.00     0.119 C 
BRANCH   8   9
ATOM      9  C   LIG d   1     -15.610  79.327 124.106  0.00  0.00     0.028 C 
ATOM     10  C   LIG d   1     -15.753  80.747 123.533  0.00  0.00     0.006 C 
ENDBRANCH   8   9
BRANCH   8  11
ATOM     11  C   LIG d   1     -14.569  77.624 122.696  0.00  0.00     0.028 C 
ATOM     12  C   LIG d   1     -14.649  76.111 122.442  0.00  0.00     0.006 C 
ENDBRANCH   8  11
ENDBRANCH   7   8
ENDBRANCH   1   7
BRANCH   6  13
ATOM     13  N   LIG d   1     -18.852  80.760 121.463  0.00  0.00    -0.311 N 
ATOM     14  C   LIG d   1     -18.759  81.995 120.975  0.00  0.00     0.210 C 
ATOM     15  C   LIG d   1     -19.110  83.110 121.966  0.00  0.00     0.109 C 
ATOM     16  O   LIG d   1     -18.449  82.273 119.806  0.00  0.00    -0.276 OA
ATOM     17  H   LIG d   1     -19.141  80.625 122.412  0.00  0.00     0.149 HD
ENDBRANCH   6  13
BRANCH   5  18
ATOM     18  N   LIG d   1     -20.356  79.870 118.957  0.00  0.00     0.381 N 
ATOM     19  H   LIG d   1     -20.171  79.518 118.039  0.00  0.00    -0.090 HD
ATOM     20  H   LIG d   1     -19.916  80.769 119.044  0.00  0.00    -0.090 HD
ATOM     21  H   LIG d   1     -21.338  79.958 119.095  0.00  0.00    -0.090 HD
ENDBRANCH   5  18
BRANCH   3  22
ATOM     22  C   LIG d   1     -18.855  75.405 119.820  0.00  0.00     0.382 C 
ATOM     23  O   LIG d   1     -17.946  74.785 119.216  0.00  0.00    -0.241 OA
ATOM     24  O   LIG d   1     -19.897  74.804 120.143  0.00  0.00    -0.241 OA
ENDBRANCH   3  22
TORSDOF 7
ENDMDL
MODEL 7
REMARK VINA RESULT:      -4.3      3.075      6.499
REMARK  7 active torsions:
REMARK  status: ('A' for Active; 'I' for Inactive)
REMARK    1  A    between atoms: C_2  and  C_3 
REMARK    2  A    between atoms: C_3  and  O_6 
REMARK    3  A    between atoms: C_3  and  C_4 
REMARK    4  A    between atoms: C_7  and  O_6 
REMARK    5  A    between atoms: C_9  and  C_10 
REMARK    6  A    between atoms: N_15  and  C_14 
REMARK    7  A    between atoms: N_20  and  C_19 
REMARK       I    between atoms: C_22  and  N_20 
ROOT
ATOM      1  C   LIG d   1       1.800  58.355 118.875  0.00  0.00     0.161 C 
ATOM      2  C   LIG d   1       3.131  58.037 118.556  0.00  0.00     0.016 C 
ATOM      3  C   LIG d   1       4.240  58.479 119.314  0.00  0.00     0.038 C 
ATOM      4  C   LIG d   1       4.083  59.147 120.538  0.00  0.00     0.028 C 
ATOM      5  C   LIG d   1       2.776  59.925 120.639  0.00  0.00    -0.047 C 
ATOM      6  C   LIG d   1       1.603  58.989 120.268  0.00  0.00     0.091 C 
ENDROOT
BRANCH   1   7
ATOM      7  O   LIG d   1       0.972  57.184 118.736  0.00  0.00    -0.368 OA
BRANCH   7   8
ATOM      8  C   LIG d   1       1.636  55.908 118.915  0.00  0.00     0.119 C 
BRANCH   8   9
ATOM      9  C   LIG d   1       0.977  54.904 117.950  0.00  0.00     0.028 C 
ATOM     10  C   LIG d   1       0.905  53.485 118.538  0.00  0.00     0.006 C 
ENDBRANCH   8   9
BRANCH   8  11
ATOM     11  C   LIG d   1       1.389  55.344 120.318  0.00  0.00     0.028 C 
ATOM     12  C   LIG d   1       2.606  55.494 121.243  0.00  0.00     0.006 C 
ENDBRANCH   8  11
ENDBRANCH   7   8
ENDBRANCH   1   7
BRANCH   6  13
ATOM     13  N   LIG d   1       0.295  59.694 120.260  0.00  0.00    -0.311 N 
ATOM     14  C   LIG d   1      -0.779  59.254 120.913  0.00  0.00     0.210 C 
ATOM     15  C   LIG d   1      -2.032  60.121 120.756  0.00  0.00     0.109 C 
ATOM     16  O   LIG d   1      -0.804  58.245 121.634  0.00  0.00    -0.276 OA
ATOM     17  H   LIG d   1       0.235  60.538 119.725  0.00  0.00     0.149 HD
ENDBRANCH   6  13
BRANCH   5  18
ATOM     18  N   LIG d   1       2.679  60.457 122.012  0.00  0.00     0.381 N 
ATOM     19  H   LIG d   1       1.924  60.013 122.494  0.00  0.00    -0.090 HD
ATOM     20  H   LIG d   1       2.488  61.443 121.966  0.00  0.00    -0.090 HD
ATOM     21  H   LIG d   1       3.533  60.299 122.499  0.00  0.00    -0.090 HD
ENDBRANCH   5  18
BRANCH   3  22
ATOM     22  C   LIG d   1       5.524  58.287 118.829  0.00  0.00     0.382 C 
ATOM     23  O   LIG d   1       6.213  59.273 118.471  0.00  0.00    -0.241 OA
ATOM     24  O   LIG d   1       5.987  57.137 118.702  0.00  0.00    -0.241 OA
ENDBRANCH   3  22
TORSDOF 7
ENDMDL
MODEL 8
REMARK VINA RESULT:      -4.3     19.795     22.651
REMARK  7 active torsions:
REMARK  status: ('A' for Active; 'I' for Inactive)
REMARK    1  A    between atoms: C_2  and  C_3 
REMARK    2  A    between atoms: C_3  and  O_6 
REMARK    3  A    between atoms: C_3  and  C_4 
REMARK    4  A    between atoms: C_7  and  O_6 
REMARK    5  A    between atoms: C_9  and  C_10 
REMARK    6  A    between atoms: N_15  and  C_14 
REMARK    7  A    between atoms: N_20  and  C_19 
REMARK       I    between atoms: C_22  and  N_20 
ROOT
ATOM      1  C   LIG d   1      -8.962  80.362 121.357  0.00  0.00     0.161 C 
ATOM      2  C   LIG d   1      -9.778  81.501 121.461  0.00  0.00     0.016 C 
ATOM      3  C   LIG d   1      -9.281  82.823 121.410  0.00  0.00     0.038 C 
ATOM      4  C   LIG d   1      -7.941  83.099 121.098  0.00  0.00     0.028 C 
ATOM      5  C   LIG d   1      -6.985  81.977 121.485  0.00  0.00    -0.047 C 
ATOM      6  C   LIG d   1      -7.514  80.645 120.905  0.00  0.00     0.091 C 
ENDROOT
BRANCH   1   7
ATOM      7  O   LIG d   1      -9.579  79.396 120.485  0.00  0.00    -0.368 OA
BRANCH   7   8
ATOM      8  C   LIG d   1      -9.212  79.474 119.085  0.00  0.00     0.119 C 
BRANCH   8   9
ATOM      9  C   LIG d   1     -10.244  80.380 118.386  0.00  0.00     0.028 C 
ATOM     10  C   LIG d   1      -9.596  81.610 117.730  0.00  0.00     0.006 C 
ENDBRANCH   8   9
BRANCH   8  11
ATOM     11  C   LIG d   1      -9.339  78.110 118.399  0.00  0.00     0.028 C 
ATOM     12  C   LIG d   1      -8.017  77.327 118.382  0.00  0.00     0.006 C 
ENDBRANCH   8  11
ENDBRANCH   7   8
ENDBRANCH   1   7
BRANCH   6  13
ATOM     13  N   LIG d   1      -6.682  79.481 121.308  0.00  0.00    -0.311 N 
ATOM     14  C   LIG d   1      -5.657  79.028 120.588  0.00  0.00     0.210 C 
ATOM     15  C   LIG d   1      -4.945  77.805 121.174  0.00  0.00     0.109 C 
ATOM     16  O   LIG d   1      -5.249  79.543 119.536  0.00  0.00    -0.276 OA
ATOM     17  H   LIG d   1      -6.923  79.023 122.165  0.00  0.00     0.149 HD
ENDBRANCH   6  13
BRANCH   5  18
ATOM     18  N   LIG d   1      -5.647  82.337 120.979  0.00  0.00     0.381 N 
ATOM     19  H   LIG d   1      -5.642  83.293 120.686  0.00  0.00    -0.090 HD
ATOM     20  H   LIG d   1      -5.435  81.762 120.183  0.00  0.00    -0.090 HD
ATOM     21  H   LIG d   1      -4.964  82.196 121.691  0.00  0.00    -0.090 HD
ENDBRANCH   5  18
BRANCH   3  22
ATOM     22  C   LIG d   1     -10.119  83.885 121.712  0.00  0.00     0.382 C 
ATOM     23  O   LIG d   1     -10.692  84.514 120.790  0.00  0.00    -0.241 OA
ATOM     24  O   LIG d   1     -10.275  84.251 122.893  0.00  0.00    -0.241 OA
ENDBRANCH   3  22
TORSDOF 7
ENDMDL
MODEL 9
REMARK VINA RESULT:      -4.3      1.783      2.159
REMARK  7 active torsions:
REMARK  status: ('A' for Active; 'I' for Inactive)
REMARK    1  A    between atoms: C_2  and  C_3 
REMARK    2  A    between atoms: C_3  and  O_6 
REMARK    3  A    between atoms: C_3  and  C_4 
REMARK    4  A    between atoms: C_7  and  O_6 
REMARK    5  A    between atoms: C_9  and  C_10 
REMARK    6  A    between atoms: N_15  and  C_14 
REMARK    7  A    between atoms: N_20  and  C_19 
REMARK       I    between atoms: C_22  and  N_20 
ROOT
ATOM      1  C   LIG d   1       2.489  60.063 121.401  0.00  0.00     0.161 C 
ATOM      2  C   LIG d   1       2.167  61.075 122.320  0.00  0.00     0.016 C 
ATOM      3  C   LIG d   1       0.916  61.165 122.972  0.00  0.00     0.038 C 
ATOM      4  C   LIG d   1      -0.052  60.155 122.862  0.00  0.00     0.028 C 
ATOM      5  C   LIG d   1       0.033  59.375 121.554  0.00  0.00    -0.047 C 
ATOM      6  C   LIG d   1       1.487  58.890 121.352  0.00  0.00     0.091 C 
ENDROOT
BRANCH   1   7
ATOM      7  O   LIG d   1       3.820  59.573 121.659  0.00  0.00    -0.368 OA
BRANCH   7   8
ATOM      8  C   LIG d   1       4.757  59.663 120.557  0.00  0.00     0.119 C 
BRANCH   8   9
ATOM      9  C   LIG d   1       6.133  60.027 121.148  0.00  0.00     0.028 C 
ATOM     10  C   LIG d   1       6.030  61.064 122.279  0.00  0.00     0.006 C 
ENDBRANCH   8   9
BRANCH   8  11
ATOM     11  C   LIG d   1       4.401  60.817 119.616  0.00  0.00     0.028 C 
ATOM     12  C   LIG d   1       4.310  60.380 118.145  0.00  0.00     0.006 C 
ENDBRANCH   8  11
ENDBRANCH   7   8
ENDBRANCH   1   7
BRANCH   6  13
ATOM     13  N   LIG d   1       1.676  58.190 120.055  0.00  0.00    -0.311 N 
ATOM     14  C   LIG d   1       1.467  56.885 119.889  0.00  0.00     0.210 C 
ATOM     15  C   LIG d   1       1.740  56.361 118.476  0.00  0.00     0.109 C 
ATOM     16  O   LIG d   1       1.050  56.118 120.770  0.00  0.00    -0.276 OA
ATOM     17  H   LIG d   1       1.983  58.743 119.279  0.00  0.00     0.149 HD
ENDBRANCH   6  13
BRANCH   5  18
ATOM     18  N   LIG d   1      -0.940  58.269 121.631  0.00  0.00     0.381 N 
ATOM     19  H   LIG d   1      -1.334  58.228 122.550  0.00  0.00    -0.090 HD
ATOM     20  H   LIG d   1      -0.462  57.403 121.455  0.00  0.00    -0.090 HD
ATOM     21  H   LIG d   1      -1.662  58.402 120.958  0.00  0.00    -0.090 HD
ENDBRANCH   5  18
BRANCH   3  22
ATOM     22  C   LIG d   1       0.607  62.295 123.713  0.00  0.00     0.382 C 
ATOM     23  O   LIG d   1      -0.305  63.067 123.329  0.00  0.00    -0.241 OA
ATOM     24  O   LIG d   1       1.258  62.576 124.737  0.00  0.00    -0.241 OA
ENDBRANCH   3  22
TORSDOF 7
ENDMDL
