MODEL 1
REMARK VINA RESULT:      -5.2      0.000      0.000
REMARK  7 active torsions:
REMARK  status: ('A' for Active; 'I' for Inactive)
REMARK    1  A    between atoms: C_2  and  C_3 
REMARK    2  A    between atoms: C_3  and  O_6 
REMARK    3  A    between atoms: C_3  and  C_4 
REMARK    4  A    between atoms: C_7  and  O_6 
REMARK    5  A    between atoms: C_9  and  C_10 
REMARK    6  A    between atoms: N_15  and  C_14 
REMARK    7  A    between atoms: N_20  and  C_19 
REMARK       I    between atoms: C_22  and  N_20 
ROOT
ATOM      1  C   LIG d   1       0.951  58.894 119.375  0.00  0.00     0.161 C 
ATOM      2  C   LIG d   1      -0.063  58.925 118.403  0.00  0.00     0.016 C 
ATOM      3  C   LIG d   1      -1.324  59.530 118.613  0.00  0.00     0.038 C 
ATOM      4  C   LIG d   1      -1.603  60.283 119.763  0.00  0.00     0.028 C 
ATOM      5  C   LIG d   1      -0.791  59.852 120.980  0.00  0.00    -0.047 C 
ATOM      6  C   LIG d   1       0.705  59.806 120.595  0.00  0.00     0.091 C 
ENDROOT
BRANCH   1   7
ATOM      7  O   LIG d   1       2.221  59.203 118.767  0.00  0.00    -0.368 OA
BRANCH   7   8
ATOM      8  C   LIG d   1       2.964  58.078 118.237  0.00  0.00     0.119 C 
BRANCH   8   9
ATOM      9  C   LIG d   1       2.901  56.948 119.283  0.00  0.00     0.028 C 
ATOM     10  C   LIG d   1       2.256  55.668 118.726  0.00  0.00     0.006 C 
ENDBRANCH   8   9
BRANCH   8  11
ATOM     11  C   LIG d   1       4.451  58.412 118.090  0.00  0.00     0.028 C 
ATOM     12  C   LIG d   1       5.351  57.518 118.958  0.00  0.00     0.006 C 
ENDBRANCH   8  11
ENDBRANCH   7   8
ENDBRANCH   1   7
BRANCH   6  13
ATOM     13  N   LIG d   1       1.561  59.313 121.705  0.00  0.00    -0.311 N 
ATOM     14  C   LIG d   1       1.991  60.088 122.700  0.00  0.00     0.210 C 
ATOM     15  C   LIG d   1       2.879  59.384 123.730  0.00  0.00     0.109 C 
ATOM     16  O   LIG d   1       1.695  61.283 122.843  0.00  0.00    -0.276 OA
ATOM     17  H   LIG d   1       1.824  58.347 121.684  0.00  0.00     0.149 HD
ENDBRANCH   6  13
BRANCH   5  18
ATOM     18  N   LIG d   1      -1.079  60.805 122.068  0.00  0.00     0.381 N 
ATOM     19  H   LIG d   1      -1.543  61.611 121.699  0.00  0.00    -0.090 HD
ATOM     20  H   LIG d   1      -0.212  61.102 122.479  0.00  0.00    -0.090 HD
ATOM     21  H   LIG d   1      -1.651  60.372 122.759  0.00  0.00    -0.090 HD
ENDBRANCH   5  18
BRANCH   3  22
ATOM     22  C   LIG d   1      -2.335  59.351 117.681  0.00  0.00     0.382 C 
ATOM     23  O   LIG d   1      -2.632  58.196 117.292  0.00  0.00    -0.241 OA
ATOM     24  O   LIG d   1      -2.924  60.334 117.192  0.00  0.00    -0.241 OA
ENDBRANCH   3  22
TORSDOF 7
ENDMDL
MODEL 2
REMARK VINA RESULT:      -4.7     34.460     36.041
REMARK  7 active torsions:
REMARK  status: ('A' for Active; 'I' for Inactive)
REMARK    1  A    between atoms: C_2  and  C_3 
REMARK    2  A    between atoms: C_3  and  O_6 
REMARK    3  A    between atoms: C_3  and  C_4 
REMARK    4  A    between atoms: C_7  and  O_6 
REMARK    5  A    between atoms: C_9  and  C_10 
REMARK    6  A    between atoms: N_15  and  C_14 
REMARK    7  A    between atoms: N_20  and  C_19 
REMARK       I    between atoms: C_22  and  N_20 
ROOT
ATOM      1  C   LIG d   1      -5.138  94.066 120.256  0.00  0.00     0.161 C 
ATOM      2  C   LIG d   1      -6.502  94.341 120.062  0.00  0.00     0.016 C 
ATOM      3  C   LIG d   1      -6.986  95.583 119.591  0.00  0.00     0.038 C 
ATOM      4  C   LIG d   1      -6.123  96.591 119.136  0.00  0.00     0.028 C 
ATOM      5  C   LIG d   1      -4.744  96.547 119.786  0.00  0.00    -0.047 C 
ATOM      6  C   LIG d   1      -4.176  95.115 119.660  0.00  0.00     0.091 C 
ENDROOT
BRANCH   1   7
ATOM      7  O   LIG d   1      -4.827  92.754 119.748  0.00  0.00    -0.368 OA
BRANCH   7   8
ATOM      8  C   LIG d   1      -4.353  92.696 118.380  0.00  0.00     0.119 C 
BRANCH   8   9
ATOM      9  C   LIG d   1      -5.382  91.886 117.568  0.00  0.00     0.028 C 
ATOM     10  C   LIG d   1      -6.613  92.721 117.180  0.00  0.00     0.006 C 
ENDBRANCH   8   9
BRANCH   8  11
ATOM     11  C   LIG d   1      -3.044  91.909 118.277  0.00  0.00     0.028 C 
ATOM     12  C   LIG d   1      -2.519  91.444 119.644  0.00  0.00     0.006 C 
ENDBRANCH   8  11
ENDBRANCH   7   8
ENDBRANCH   1   7
BRANCH   6  13
ATOM     13  N   LIG d   1      -2.865  94.963 120.344  0.00  0.00    -0.311 N 
ATOM     14  C   LIG d   1      -1.695  95.072 119.719  0.00  0.00     0.210 C 
ATOM     15  C   LIG d   1      -0.465  94.860 120.607  0.00  0.00     0.109 C 
ATOM     16  O   LIG d   1      -1.558  95.357 118.520  0.00  0.00    -0.276 OA
ATOM     17  H   LIG d   1      -2.884  94.761 121.325  0.00  0.00     0.149 HD
ENDBRANCH   6  13
BRANCH   5  18
ATOM     18  N   LIG d   1      -3.905  97.562 119.122  0.00  0.00     0.381 N 
ATOM     19  H   LIG d   1      -4.048  97.524 118.132  0.00  0.00    -0.090 HD
ATOM     20  H   LIG d   1      -2.939  97.359 119.309  0.00  0.00    -0.090 HD
ATOM     21  H   LIG d   1      -4.134  98.470 119.463  0.00  0.00    -0.090 HD
ENDBRANCH   5  18
BRANCH   3  22
ATOM     22  C   LIG d   1      -8.348  95.842 119.610  0.00  0.00     0.382 C 
ATOM     23  O   LIG d   1      -8.862  96.428 120.593  0.00  0.00    -0.241 OA
ATOM     24  O   LIG d   1      -9.077  95.457 118.676  0.00  0.00    -0.241 OA
ENDBRANCH   3  22
TORSDOF 7
ENDMDL
MODEL 3
REMARK VINA RESULT:      -4.7      2.222      4.457
REMARK  7 active torsions:
REMARK  status: ('A' for Active; 'I' for Inactive)
REMARK    1  A    between atoms: C_2  and  C_3 
REMARK    2  A    between atoms: C_3  and  O_6 
REMARK    3  A    between atoms: C_3  and  C_4 
REMARK    4  A    between atoms: C_7  and  O_6 
REMARK    5  A    between atoms: C_9  and  C_10 
REMARK    6  A    between atoms: N_15  and  C_14 
REMARK    7  A    between atoms: N_20  and  C_19 
REMARK       I    between atoms: C_22  and  N_20 
ROOT
ATOM      1  C   LIG d   1       1.997  59.408 120.389  0.00  0.00     0.161 C 
ATOM      2  C   LIG d   1       0.627  59.547 120.109  0.00  0.00     0.016 C 
ATOM      3  C   LIG d   1       0.012  59.016 118.952  0.00  0.00     0.038 C 
ATOM      4  C   LIG d   1       0.701  58.175 118.066  0.00  0.00     0.028 C 
ATOM      5  C   LIG d   1       2.205  58.423 118.041  0.00  0.00    -0.047 C 
ATOM      6  C   LIG d   1       2.742  58.400 119.490  0.00  0.00     0.091 C 
ENDROOT
BRANCH   1   7
ATOM      7  O   LIG d   1       2.179  59.071 121.779  0.00  0.00    -0.368 OA
BRANCH   7   8
ATOM      8  C   LIG d   1       2.887  60.047 122.583  0.00  0.00     0.119 C 
BRANCH   8   9
ATOM      9  C   LIG d   1       4.106  59.338 123.205  0.00  0.00     0.028 C 
ATOM     10  C   LIG d   1       3.832  57.855 123.505  0.00  0.00     0.006 C 
ENDBRANCH   8   9
BRANCH   8  11
ATOM     11  C   LIG d   1       2.038  60.510 123.771  0.00  0.00     0.028 C 
ATOM     12  C   LIG d   1       0.836  61.368 123.346  0.00  0.00     0.006 C 
ENDBRANCH   8  11
ENDBRANCH   7   8
ENDBRANCH   1   7
BRANCH   6  13
ATOM     13  N   LIG d   1       4.192  58.718 119.563  0.00  0.00    -0.311 N 
ATOM     14  C   LIG d   1       5.116  57.841 119.953  0.00  0.00     0.210 C 
ATOM     15  C   LIG d   1       6.549  58.380 119.976  0.00  0.00     0.109 C 
ATOM     16  O   LIG d   1       4.888  56.659 120.252  0.00  0.00    -0.276 OA
ATOM     17  H   LIG d   1       4.468  59.645 119.308  0.00  0.00     0.149 HD
ENDBRANCH   6  13
BRANCH   5  18
ATOM     18  N   LIG d   1       2.813  57.390 117.182  0.00  0.00     0.381 N 
ATOM     19  H   LIG d   1       3.571  56.951 117.665  0.00  0.00    -0.090 HD
ATOM     20  H   LIG d   1       3.178  57.828 116.354  0.00  0.00    -0.090 HD
ATOM     21  H   LIG d   1       2.130  56.709 116.932  0.00  0.00    -0.090 HD
ENDBRANCH   5  18
BRANCH   3  22
ATOM     22  C   LIG d   1      -1.298  59.359 118.651  0.00  0.00     0.382 C 
ATOM     23  O   LIG d   1      -1.642  60.565 118.636  0.00  0.00    -0.241 OA
ATOM     24  O   LIG d   1      -2.149  58.475 118.440  0.00  0.00    -0.241 OA
ENDBRANCH   3  22
TORSDOF 7
ENDMDL
MODEL 4
REMARK VINA RESULT:      -4.7     12.655     15.980
REMARK  7 active torsions:
REMARK  status: ('A' for Active; 'I' for Inactive)
REMARK    1  A    between atoms: C_2  and  C_3 
REMARK    2  A    between atoms: C_3  and  O_6 
REMARK    3  A    between atoms: C_3  and  C_4 
REMARK    4  A    between atoms: C_7  and  O_6 
REMARK    5  A    between atoms: C_9  and  C_10 
REMARK    6  A    between atoms: N_15  and  C_14 
REMARK    7  A    between atoms: N_20  and  C_19 
REMARK       I    between atoms: C_22  and  N_20 
ROOT
ATOM      1  C   LIG d   1     -12.540  65.782 122.672  0.00  0.00     0.161 C 
ATOM      2  C   LIG d   1     -11.313  65.794 123.357  0.00  0.00     0.016 C 
ATOM      3  C   LIG d   1     -10.202  65.006 122.977  0.00  0.00     0.038 C 
ATOM      4  C   LIG d   1     -10.193  64.261 121.788  0.00  0.00     0.028 C 
ATOM      5  C   LIG d   1     -11.583  63.824 121.337  0.00  0.00    -0.047 C 
ATOM      6  C   LIG d   1     -12.512  65.059 121.309  0.00  0.00     0.091 C 
ENDROOT
BRANCH   1   7
ATOM      7  O   LIG d   1     -13.025  67.130 122.515  0.00  0.00    -0.368 OA
BRANCH   7   8
ATOM      8  C   LIG d   1     -12.581  67.833 121.329  0.00  0.00     0.119 C 
BRANCH   8   9
ATOM      9  C   LIG d   1     -11.807  69.082 121.792  0.00  0.00     0.028 C 
ATOM     10  C   LIG d   1     -12.133  69.469 123.245  0.00  0.00     0.006 C 
ENDBRANCH   8   9
BRANCH   8  11
ATOM     11  C   LIG d   1     -13.768  68.368 120.522  0.00  0.00     0.028 C 
ATOM     12  C   LIG d   1     -15.109  68.201 121.253  0.00  0.00     0.006 C 
ENDBRANCH   8  11
ENDBRANCH   7   8
ENDBRANCH   1   7
BRANCH   6  13
ATOM     13  N   LIG d   1     -13.913  64.707 120.959  0.00  0.00    -0.311 N 
ATOM     14  C   LIG d   1     -14.403  64.792 119.723  0.00  0.00     0.210 C 
ATOM     15  C   LIG d   1     -15.878  64.400 119.584  0.00  0.00     0.109 C 
ATOM     16  O   LIG d   1     -13.748  65.124 118.724  0.00  0.00    -0.276 OA
ATOM     17  H   LIG d   1     -14.506  64.398 121.704  0.00  0.00     0.149 HD
ENDBRANCH   6  13
BRANCH   5  18
ATOM     18  N   LIG d   1     -11.441  63.178 120.018  0.00  0.00     0.381 N 
ATOM     19  H   LIG d   1     -11.986  62.340 119.992  0.00  0.00    -0.090 HD
ATOM     20  H   LIG d   1     -10.477  62.932 119.879  0.00  0.00    -0.090 HD
ATOM     21  H   LIG d   1     -11.739  63.800 119.300  0.00  0.00    -0.090 HD
ENDBRANCH   5  18
BRANCH   3  22
ATOM     22  C   LIG d   1      -9.097  64.927 123.811  0.00  0.00     0.382 C 
ATOM     23  O   LIG d   1      -8.709  63.812 124.234  0.00  0.00    -0.241 OA
ATOM     24  O   LIG d   1      -8.512  65.962 124.183  0.00  0.00    -0.241 OA
ENDBRANCH   3  22
TORSDOF 7
ENDMDL
MODEL 5
REMARK VINA RESULT:      -4.6     34.673     36.334
REMARK  7 active torsions:
REMARK  status: ('A' for Active; 'I' for Inactive)
REMARK    1  A    between atoms: C_2  and  C_3 
REMARK    2  A    between atoms: C_3  and  O_6 
REMARK    3  A    between atoms: C_3  and  C_4 
REMARK    4  A    between atoms: C_7  and  O_6 
REMARK    5  A    between atoms: C_9  and  C_10 
REMARK    6  A    between atoms: N_15  and  C_14 
REMARK    7  A    between atoms: N_20  and  C_19 
REMARK       I    between atoms: C_22  and  N_20 
ROOT
ATOM      1  C   LIG d   1      -4.838  94.971 119.533  0.00  0.00     0.161 C 
ATOM      2  C   LIG d   1      -6.010  95.745 119.502  0.00  0.00     0.016 C 
ATOM      3  C   LIG d   1      -7.209  95.318 118.887  0.00  0.00     0.038 C 
ATOM      4  C   LIG d   1      -7.364  94.016 118.389  0.00  0.00     0.028 C 
ATOM      5  C   LIG d   1      -6.052  93.376 117.947  0.00  0.00    -0.047 C 
ATOM      6  C   LIG d   1      -5.021  93.503 119.092  0.00  0.00     0.091 C 
ENDROOT
BRANCH   1   7
ATOM      7  O   LIG d   1      -4.248  95.029 120.846  0.00  0.00    -0.368 OA
BRANCH   7   8
ATOM      8  C   LIG d   1      -3.009  95.773 120.956  0.00  0.00     0.119 C 
BRANCH   8   9
ATOM      9  C   LIG d   1      -3.315  97.071 121.727  0.00  0.00     0.028 C 
ATOM     10  C   LIG d   1      -3.462  98.287 120.796  0.00  0.00     0.006 C 
ENDBRANCH   8   9
BRANCH   8  11
ATOM     11  C   LIG d   1      -2.508  96.227 119.581  0.00  0.00     0.028 C 
ATOM     12  C   LIG d   1      -1.167  95.583 119.194  0.00  0.00     0.006 C 
ENDBRANCH   8  11
ENDBRANCH   7   8
ENDBRANCH   1   7
BRANCH   6  13
ATOM     13  N   LIG d   1      -3.684  92.977 118.712  0.00  0.00    -0.311 N 
ATOM     14  C   LIG d   1      -2.938  92.222 119.516  0.00  0.00     0.210 C 
ATOM     15  C   LIG d   1      -1.583  91.803 118.936  0.00  0.00     0.109 C 
ATOM     16  O   LIG d   1      -3.283  91.832 120.641  0.00  0.00    -0.276 OA
ATOM     17  H   LIG d   1      -3.340  93.220 117.804  0.00  0.00     0.149 HD
ENDBRANCH   6  13
BRANCH   5  18
ATOM     18  N   LIG d   1      -6.340  91.977 117.581  0.00  0.00     0.381 N 
ATOM     19  H   LIG d   1      -7.043  91.605 118.187  0.00  0.00    -0.090 HD
ATOM     20  H   LIG d   1      -5.503  91.432 117.697  0.00  0.00    -0.090 HD
ATOM     21  H   LIG d   1      -6.647  91.928 116.634  0.00  0.00    -0.090 HD
ENDBRANCH   5  18
BRANCH   3  22
ATOM     22  C   LIG d   1      -8.257  96.212 118.730  0.00  0.00     0.382 C 
ATOM     23  O   LIG d   1      -8.037  97.363 118.281  0.00  0.00    -0.241 OA
ATOM     24  O   LIG d   1      -9.413  95.898 119.073  0.00  0.00    -0.241 OA
ENDBRANCH   3  22
TORSDOF 7
ENDMDL
MODEL 6
REMARK VINA RESULT:      -4.6     32.209     33.833
REMARK  7 active torsions:
REMARK  status: ('A' for Active; 'I' for Inactive)
REMARK    1  A    between atoms: C_2  and  C_3 
REMARK    2  A    between atoms: C_3  and  O_6 
REMARK    3  A    between atoms: C_3  and  C_4 
REMARK    4  A    between atoms: C_7  and  O_6 
REMARK    5  A    between atoms: C_9  and  C_10 
REMARK    6  A    between atoms: N_15  and  C_14 
REMARK    7  A    between atoms: N_20  and  C_19 
REMARK       I    between atoms: C_22  and  N_20 
ROOT
ATOM      1  C   LIG d   1      -3.215  93.663 119.916  0.00  0.00     0.161 C 
ATOM      2  C   LIG d   1      -4.553  93.710 119.489  0.00  0.00     0.016 C 
ATOM      3  C   LIG d   1      -5.047  92.965 118.394  0.00  0.00     0.038 C 
ATOM      4  C   LIG d   1      -4.266  91.999 117.742  0.00  0.00     0.028 C 
ATOM      5  C   LIG d   1      -2.769  92.282 117.813  0.00  0.00    -0.047 C 
ATOM      6  C   LIG d   1      -2.375  92.532 119.286  0.00  0.00     0.091 C 
ENDROOT
BRANCH   1   7
ATOM      7  O   LIG d   1      -3.164  93.584 121.354  0.00  0.00    -0.368 OA
BRANCH   7   8
ATOM      8  C   LIG d   1      -3.561  92.319 121.938  0.00  0.00     0.119 C 
BRANCH   8   9
ATOM      9  C   LIG d   1      -4.534  92.626 123.092  0.00  0.00     0.028 C 
ATOM     10  C   LIG d   1      -5.915  91.981 122.883  0.00  0.00     0.006 C 
ENDBRANCH   8   9
BRANCH   8  11
ATOM     11  C   LIG d   1      -2.371  91.608 122.589  0.00  0.00     0.028 C 
ATOM     12  C   LIG d   1      -2.459  90.077 122.481  0.00  0.00     0.006 C 
ENDBRANCH   8  11
ENDBRANCH   7   8
ENDBRANCH   1   7
BRANCH   6  13
ATOM     13  N   LIG d   1      -0.943  92.899 119.436  0.00  0.00    -0.311 N 
ATOM     14  C   LIG d   1       0.023  92.009 119.657  0.00  0.00     0.210 C 
ATOM     15  C   LIG d   1       1.428  92.602 119.800  0.00  0.00     0.109 C 
ATOM     16  O   LIG d   1      -0.146  90.782 119.716  0.00  0.00    -0.276 OA
ATOM     17  H   LIG d   1      -0.712  93.871 119.370  0.00  0.00     0.149 HD
ENDBRANCH   6  13
BRANCH   5  18
ATOM     18  N   LIG d   1      -2.069  91.130 117.215  0.00  0.00     0.381 N 
ATOM     19  H   LIG d   1      -2.647  90.708 116.515  0.00  0.00    -0.090 HD
ATOM     20  H   LIG d   1      -1.894  90.448 117.932  0.00  0.00    -0.090 HD
ATOM     21  H   LIG d   1      -1.208  91.426 116.810  0.00  0.00    -0.090 HD
ENDBRANCH   5  18
BRANCH   3  22
ATOM     22  C   LIG d   1      -6.325  93.211 117.916  0.00  0.00     0.382 C 
ATOM     23  O   LIG d   1      -6.933  94.254 118.259  0.00  0.00    -0.241 OA
ATOM     24  O   LIG d   1      -6.896  92.382 117.182  0.00  0.00    -0.241 OA
ENDBRANCH   3  22
TORSDOF 7
ENDMDL
MODEL 7
REMARK VINA RESULT:      -4.5     34.591     37.150
REMARK  7 active torsions:
REMARK  status: ('A' for Active; 'I' for Inactive)
REMARK    1  A    between atoms: C_2  and  C_3 
REMARK    2  A    between atoms: C_3  and  O_6 
REMARK    3  A    between atoms: C_3  and  C_4 
REMARK    4  A    between atoms: C_7  and  O_6 
REMARK    5  A    between atoms: C_9  and  C_10 
REMARK    6  A    between atoms: N_15  and  C_14 
REMARK    7  A    between atoms: N_20  and  C_19 
REMARK       I    between atoms: C_22  and  N_20 
ROOT
ATOM      1  C   LIG d   1     -17.590  90.793 120.849  0.00  0.00     0.161 C 
ATOM      2  C   LIG d   1     -17.857  89.438 121.106  0.00  0.00     0.016 C 
ATOM      3  C   LIG d   1     -16.859  88.502 121.461  0.00  0.00     0.038 C 
ATOM      4  C   LIG d   1     -15.539  88.892 121.733  0.00  0.00     0.028 C 
ATOM      5  C   LIG d   1     -15.119  90.160 120.997  0.00  0.00    -0.047 C 
ATOM      6  C   LIG d   1     -16.175  91.260 121.250  0.00  0.00     0.091 C 
ENDROOT
BRANCH   1   7
ATOM      7  O   LIG d   1     -18.588  91.616 121.485  0.00  0.00    -0.368 OA
BRANCH   7   8
ATOM      8  C   LIG d   1     -19.735  91.970 120.672  0.00  0.00     0.119 C 
BRANCH   8   9
ATOM      9  C   LIG d   1     -19.709  93.498 120.477  0.00  0.00     0.028 C 
ATOM     10  C   LIG d   1     -20.655  93.962 119.356  0.00  0.00     0.006 C 
ENDBRANCH   8   9
BRANCH   8  11
ATOM     11  C   LIG d   1     -21.048  91.676 121.403  0.00  0.00     0.028 C 
ATOM     12  C   LIG d   1     -20.832  91.210 122.852  0.00  0.00     0.006 C 
ENDBRANCH   8  11
ENDBRANCH   7   8
ENDBRANCH   1   7
BRANCH   6  13
ATOM     13  N   LIG d   1     -15.885  92.509 120.497  0.00  0.00    -0.311 N 
ATOM     14  C   LIG d   1     -15.991  93.726 121.028  0.00  0.00     0.210 C 
ATOM     15  C   LIG d   1     -15.664  94.878 120.073  0.00  0.00     0.109 C 
ATOM     16  O   LIG d   1     -16.295  93.959 122.207  0.00  0.00    -0.276 OA
ATOM     17  H   LIG d   1     -15.601  92.410 119.542  0.00  0.00     0.149 HD
ENDBRANCH   6  13
BRANCH   5  18
ATOM     18  N   LIG d   1     -13.774  90.529 121.477  0.00  0.00     0.381 N 
ATOM     19  H   LIG d   1     -13.397  91.257 120.903  0.00  0.00    -0.090 HD
ATOM     20  H   LIG d   1     -13.172  89.728 121.406  0.00  0.00    -0.090 HD
ATOM     21  H   LIG d   1     -13.822  90.834 122.425  0.00  0.00    -0.090 HD
ENDBRANCH   5  18
BRANCH   3  22
ATOM     22  C   LIG d   1     -17.169  87.151 121.508  0.00  0.00     0.382 C 
ATOM     23  O   LIG d   1     -16.860  86.472 122.517  0.00  0.00    -0.241 OA
ATOM     24  O   LIG d   1     -17.713  86.593 120.536  0.00  0.00    -0.241 OA
ENDBRANCH   3  22
TORSDOF 7
ENDMDL
MODEL 8
REMARK VINA RESULT:      -4.5     34.298     35.774
REMARK  7 active torsions:
REMARK  status: ('A' for Active; 'I' for Inactive)
REMARK    1  A    between atoms: C_2  and  C_3 
REMARK    2  A    between atoms: C_3  and  O_6 
REMARK    3  A    between atoms: C_3  and  C_4 
REMARK    4  A    between atoms: C_7  and  O_6 
REMARK    5  A    between atoms: C_9  and  C_10 
REMARK    6  A    between atoms: N_15  and  C_14 
REMARK    7  A    between atoms: N_20  and  C_19 
REMARK       I    between atoms: C_22  and  N_20 
ROOT
ATOM      1  C   LIG d   1      -3.916  93.977 119.558  0.00  0.00     0.161 C 
ATOM      2  C   LIG d   1      -5.186  93.728 119.011  0.00  0.00     0.016 C 
ATOM      3  C   LIG d   1      -6.222  94.689 118.982  0.00  0.00     0.038 C 
ATOM      4  C   LIG d   1      -6.009  96.022 119.365  0.00  0.00     0.028 C 
ATOM      5  C   LIG d   1      -4.893  96.186 120.391  0.00  0.00    -0.047 C 
ATOM      6  C   LIG d   1      -3.629  95.459 119.879  0.00  0.00     0.091 C 
ENDROOT
BRANCH   1   7
ATOM      7  O   LIG d   1      -2.897  93.446 118.687  0.00  0.00    -0.368 OA
BRANCH   7   8
ATOM      8  C   LIG d   1      -1.933  92.556 119.302  0.00  0.00     0.119 C 
BRANCH   8   9
ATOM      9  C   LIG d   1      -0.533  92.992 118.830  0.00  0.00     0.028 C 
ATOM     10  C   LIG d   1      -0.592  93.996 117.667  0.00  0.00     0.006 C 
ENDBRANCH   8   9
BRANCH   8  11
ATOM     11  C   LIG d   1      -2.102  91.119 118.799  0.00  0.00     0.028 C 
ATOM     12  C   LIG d   1      -2.982  91.028 117.542  0.00  0.00     0.006 C 
ENDBRANCH   8  11
ENDBRANCH   7   8
ENDBRANCH   1   7
BRANCH   6  13
ATOM     13  N   LIG d   1      -2.515  95.499 120.861  0.00  0.00    -0.311 N 
ATOM     14  C   LIG d   1      -1.387  96.180 120.664  0.00  0.00     0.210 C 
ATOM     15  C   LIG d   1      -0.359  96.071 121.794  0.00  0.00     0.109 C 
ATOM     16  O   LIG d   1      -1.154  96.890 119.674  0.00  0.00    -0.276 OA
ATOM     17  H   LIG d   1      -2.633  94.975 121.706  0.00  0.00     0.149 HD
ENDBRANCH   6  13
BRANCH   5  18
ATOM     18  N   LIG d   1      -4.685  97.632 120.596  0.00  0.00     0.381 N 
ATOM     19  H   LIG d   1      -4.188  98.016 119.817  0.00  0.00    -0.090 HD
ATOM     20  H   LIG d   1      -4.130  97.767 121.422  0.00  0.00    -0.090 HD
ATOM     21  H   LIG d   1      -5.563  98.091 120.698  0.00  0.00    -0.090 HD
ENDBRANCH   5  18
BRANCH   3  22
ATOM     22  C   LIG d   1      -7.501  94.309 118.604  0.00  0.00     0.382 C 
ATOM     23  O   LIG d   1      -8.497  94.765 119.215  0.00  0.00    -0.241 OA
ATOM     24  O   LIG d   1      -7.670  93.481 117.689  0.00  0.00    -0.241 OA
ENDBRANCH   3  22
TORSDOF 7
ENDMDL
MODEL 9
REMARK VINA RESULT:      -4.4     34.621     36.397
REMARK  7 active torsions:
REMARK  status: ('A' for Active; 'I' for Inactive)
REMARK    1  A    between atoms: C_2  and  C_3 
REMARK    2  A    between atoms: C_3  and  O_6 
REMARK    3  A    between atoms: C_3  and  C_4 
REMARK    4  A    between atoms: C_7  and  O_6 
REMARK    5  A    between atoms: C_9  and  C_10 
REMARK    6  A    between atoms: N_15  and  C_14 
REMARK    7  A    between atoms: N_20  and  C_19 
REMARK       I    between atoms: C_22  and  N_20 
ROOT
ATOM      1  C   LIG d   1      -5.072  95.184 119.421  0.00  0.00     0.161 C 
ATOM      2  C   LIG d   1      -6.230  95.976 119.485  0.00  0.00     0.016 C 
ATOM      3  C   LIG d   1      -7.482  95.568 118.969  0.00  0.00     0.038 C 
ATOM      4  C   LIG d   1      -7.696  94.269 118.484  0.00  0.00     0.028 C 
ATOM      5  C   LIG d   1      -6.434  93.611 117.937  0.00  0.00    -0.047 C 
ATOM      6  C   LIG d   1      -5.312  93.720 118.995  0.00  0.00     0.091 C 
ENDROOT
BRANCH   1   7
ATOM      7  O   LIG d   1      -4.376  95.231 120.682  0.00  0.00    -0.368 OA
BRANCH   7   8
ATOM      8  C   LIG d   1      -5.179  95.569 121.840  0.00  0.00     0.119 C 
BRANCH   8   9
ATOM      9  C   LIG d   1      -4.338  96.507 122.728  0.00  0.00     0.028 C 
ATOM     10  C   LIG d   1      -4.807  96.504 124.193  0.00  0.00     0.006 C 
ENDBRANCH   8   9
BRANCH   8  11
ATOM     11  C   LIG d   1      -5.459  94.335 122.703  0.00  0.00     0.028 C 
ATOM     12  C   LIG d   1      -6.880  93.783 122.510  0.00  0.00     0.006 C 
ENDBRANCH   8  11
ENDBRANCH   7   8
ENDBRANCH   1   7
BRANCH   6  13
ATOM     13  N   LIG d   1      -4.018  93.175 118.508  0.00  0.00    -0.311 N 
ATOM     14  C   LIG d   1      -3.236  92.380 119.236  0.00  0.00     0.210 C 
ATOM     15  C   LIG d   1      -1.936  91.948 118.551  0.00  0.00     0.109 C 
ATOM     16  O   LIG d   1      -3.511  91.966 120.373  0.00  0.00    -0.276 OA
ATOM     17  H   LIG d   1      -3.732  93.435 117.584  0.00  0.00     0.149 HD
ENDBRANCH   6  13
BRANCH   5  18
ATOM     18  N   LIG d   1      -6.771  92.216 117.594  0.00  0.00     0.381 N 
ATOM     19  H   LIG d   1      -6.866  91.675 118.430  0.00  0.00    -0.090 HD
ATOM     20  H   LIG d   1      -6.022  91.825 117.049  0.00  0.00    -0.090 HD
ATOM     21  H   LIG d   1      -7.620  92.189 117.074  0.00  0.00    -0.090 HD
ENDBRANCH   5  18
BRANCH   3  22
ATOM     22  C   LIG d   1      -8.526  96.477 118.898  0.00  0.00     0.382 C 
ATOM     23  O   LIG d   1      -8.430  97.485 118.156  0.00  0.00    -0.241 OA
ATOM     24  O   LIG d   1      -9.544  96.327 119.600  0.00  0.00    -0.241 OA
ENDBRANCH   3  22
TORSDOF 7
ENDMDL
