MODEL 1
REMARK VINA RESULT:      -4.7      0.000      0.000
REMARK  7 active torsions:
REMARK  status: ('A' for Active; 'I' for Inactive)
REMARK    1  A    between atoms: C_2  and  C_3 
REMARK    2  A    between atoms: C_3  and  O_6 
REMARK    3  A    between atoms: C_3  and  C_4 
REMARK    4  A    between atoms: C_7  and  O_6 
REMARK    5  A    between atoms: C_9  and  C_10 
REMARK    6  A    between atoms: N_15  and  C_14 
REMARK    7  A    between atoms: N_20  and  C_19 
REMARK       I    between atoms: C_22  and  N_20 
ROOT
ATOM      1  C   LIG d   1      -0.231  59.138 120.247  0.00  0.00     0.161 C 
ATOM      2  C   LIG d   1       0.754  59.028 121.242  0.00  0.00     0.016 C 
ATOM      3  C   LIG d   1       0.614  59.571 122.540  0.00  0.00     0.038 C 
ATOM      4  C   LIG d   1      -0.592  60.135 122.981  0.00  0.00     0.028 C 
ATOM      5  C   LIG d   1      -1.436  60.718 121.853  0.00  0.00    -0.047 C 
ATOM      6  C   LIG d   1      -1.598  59.653 120.745  0.00  0.00     0.091 C 
ENDROOT
BRANCH   1   7
ATOM      7  O   LIG d   1      -0.388  57.875 119.572  0.00  0.00    -0.368 OA
BRANCH   7   8
ATOM      8  C   LIG d   1       0.813  57.077 119.426  0.00  0.00     0.119 C 
BRANCH   8   9
ATOM      9  C   LIG d   1       1.207  57.100 117.937  0.00  0.00     0.028 C 
ATOM     10  C   LIG d   1       2.285  58.153 117.631  0.00  0.00     0.006 C 
ENDBRANCH   8   9
BRANCH   8  11
ATOM     11  C   LIG d   1       0.546  55.604 119.752  0.00  0.00     0.028 C 
ATOM     12  C   LIG d   1       0.463  55.334 121.263  0.00  0.00     0.006 C 
ENDBRANCH   8  11
ENDBRANCH   7   8
ENDBRANCH   1   7
BRANCH   6  13
ATOM     13  N   LIG d   1      -2.340  60.170 119.566  0.00  0.00    -0.311 N 
ATOM     14  C   LIG d   1      -3.556  59.748 119.223  0.00  0.00     0.210 C 
ATOM     15  C   LIG d   1      -4.133  60.397 117.961  0.00  0.00     0.109 C 
ATOM     16  O   LIG d   1      -4.224  58.921 119.861  0.00  0.00    -0.276 OA
ATOM     17  H   LIG d   1      -1.885  60.866 119.009  0.00  0.00     0.149 HD
ENDBRANCH   6  13
BRANCH   5  18
ATOM     18  N   LIG d   1      -2.722  61.147 122.435  0.00  0.00     0.381 N 
ATOM     19  H   LIG d   1      -2.750  60.910 123.407  0.00  0.00    -0.090 HD
ATOM     20  H   LIG d   1      -3.468  60.659 121.971  0.00  0.00    -0.090 HD
ATOM     21  H   LIG d   1      -2.837  62.130 122.322  0.00  0.00    -0.090 HD
ENDBRANCH   5  18
BRANCH   3  22
ATOM     22  C   LIG d   1       1.703  59.589 123.399  0.00  0.00     0.382 C 
ATOM     23  O   LIG d   1       2.262  58.514 123.724  0.00  0.00    -0.241 OA
ATOM     24  O   LIG d   1       2.105  60.662 123.887  0.00  0.00    -0.241 OA
ENDBRANCH   3  22
TORSDOF 7
ENDMDL
MODEL 2
REMARK VINA RESULT:      -4.7     20.478     22.848
REMARK  7 active torsions:
REMARK  status: ('A' for Active; 'I' for Inactive)
REMARK    1  A    between atoms: C_2  and  C_3 
REMARK    2  A    between atoms: C_3  and  O_6 
REMARK    3  A    between atoms: C_3  and  C_4 
REMARK    4  A    between atoms: C_7  and  O_6 
REMARK    5  A    between atoms: C_9  and  C_10 
REMARK    6  A    between atoms: N_15  and  C_14 
REMARK    7  A    between atoms: N_20  and  C_19 
REMARK       I    between atoms: C_22  and  N_20 
ROOT
ATOM      1  C   LIG d   1      -9.929  79.159 120.135  0.00  0.00     0.161 C 
ATOM      2  C   LIG d   1     -10.383  78.484 121.281  0.00  0.00     0.016 C 
ATOM      3  C   LIG d   1     -10.977  79.138 122.385  0.00  0.00     0.038 C 
ATOM      4  C   LIG d   1     -11.297  80.503 122.353  0.00  0.00     0.028 C 
ATOM      5  C   LIG d   1     -10.401  81.314 121.423  0.00  0.00    -0.047 C 
ATOM      6  C   LIG d   1     -10.371  80.634 120.035  0.00  0.00     0.091 C 
ENDROOT
BRANCH   1   7
ATOM      7  O   LIG d   1     -10.327  78.436 118.953  0.00  0.00    -0.368 OA
BRANCH   7   8
ATOM      8  C   LIG d   1      -9.882  77.059 118.868  0.00  0.00     0.119 C 
BRANCH   8   9
ATOM      9  C   LIG d   1      -8.690  77.018 117.892  0.00  0.00     0.028 C 
ATOM     10  C   LIG d   1      -8.558  75.659 117.184  0.00  0.00     0.006 C 
ENDBRANCH   8   9
BRANCH   8  11
ATOM     11  C   LIG d   1     -10.954  76.165 118.238  0.00  0.00     0.028 C 
ATOM     12  C   LIG d   1     -12.299  76.236 118.977  0.00  0.00     0.006 C 
ENDBRANCH   8  11
ENDBRANCH   7   8
ENDBRANCH   1   7
BRANCH   6  13
ATOM     13  N   LIG d   1      -9.451  81.316 119.089  0.00  0.00    -0.311 N 
ATOM     14  C   LIG d   1      -9.869  82.027 118.043  0.00  0.00     0.210 C 
ATOM     15  C   LIG d   1      -8.754  82.630 117.184  0.00  0.00     0.109 C 
ATOM     16  O   LIG d   1     -11.059  82.242 117.765  0.00  0.00    -0.276 OA
ATOM     17  H   LIG d   1      -8.469  81.220 119.258  0.00  0.00     0.149 HD
ENDBRANCH   6  13
BRANCH   5  18
ATOM     18  N   LIG d   1     -10.932  82.690 121.380  0.00  0.00     0.381 N 
ATOM     19  H   LIG d   1     -10.183  83.338 121.235  0.00  0.00    -0.090 HD
ATOM     20  H   LIG d   1     -11.363  82.899 122.263  0.00  0.00    -0.090 HD
ATOM     21  H   LIG d   1     -11.601  82.775 120.647  0.00  0.00    -0.090 HD
ENDBRANCH   5  18
BRANCH   3  22
ATOM     22  C   LIG d   1     -11.220  78.431 123.552  0.00  0.00     0.382 C 
ATOM     23  O   LIG d   1     -12.051  77.491 123.555  0.00  0.00    -0.241 OA
ATOM     24  O   LIG d   1     -10.653  78.751 124.614  0.00  0.00    -0.241 OA
ENDBRANCH   3  22
TORSDOF 7
ENDMDL
MODEL 3
REMARK VINA RESULT:      -4.7     20.185     22.956
REMARK  7 active torsions:
REMARK  status: ('A' for Active; 'I' for Inactive)
REMARK    1  A    between atoms: C_2  and  C_3 
REMARK    2  A    between atoms: C_3  and  O_6 
REMARK    3  A    between atoms: C_3  and  C_4 
REMARK    4  A    between atoms: C_7  and  O_6 
REMARK    5  A    between atoms: C_9  and  C_10 
REMARK    6  A    between atoms: N_15  and  C_14 
REMARK    7  A    between atoms: N_20  and  C_19 
REMARK       I    between atoms: C_22  and  N_20 
ROOT
ATOM      1  C   LIG d   1      -8.679  79.492 119.019  0.00  0.00     0.161 C 
ATOM      2  C   LIG d   1      -9.686  78.619 118.575  0.00  0.00     0.016 C 
ATOM      3  C   LIG d   1      -9.836  77.297 119.051  0.00  0.00     0.038 C 
ATOM      4  C   LIG d   1      -9.076  76.804 120.122  0.00  0.00     0.028 C 
ATOM      5  C   LIG d   1      -7.714  77.476 120.258  0.00  0.00    -0.047 C 
ATOM      6  C   LIG d   1      -7.910  79.009 120.267  0.00  0.00     0.091 C 
ENDROOT
BRANCH   1   7
ATOM      7  O   LIG d   1      -9.234  80.802 119.248  0.00  0.00    -0.368 OA
BRANCH   7   8
ATOM      8  C   LIG d   1      -8.582  81.899 118.563  0.00  0.00     0.119 C 
BRANCH   8   9
ATOM      9  C   LIG d   1      -8.658  83.132 119.485  0.00  0.00     0.028 C 
ATOM     10  C   LIG d   1      -7.306  83.853 119.614  0.00  0.00     0.006 C 
ENDBRANCH   8   9
BRANCH   8  11
ATOM     11  C   LIG d   1      -9.342  82.295 117.294  0.00  0.00     0.028 C 
ATOM     12  C   LIG d   1     -10.868  82.251 117.475  0.00  0.00     0.006 C 
ENDBRANCH   8  11
ENDBRANCH   7   8
ENDBRANCH   1   7
BRANCH   6  13
ATOM     13  N   LIG d   1      -6.620  79.746 120.313  0.00  0.00    -0.311 N 
ATOM     14  C   LIG d   1      -6.329  80.658 121.238  0.00  0.00     0.210 C 
ATOM     15  C   LIG d   1      -4.952  81.313 121.091  0.00  0.00     0.109 C 
ATOM     16  O   LIG d   1      -7.067  80.964 122.186  0.00  0.00    -0.276 OA
ATOM     17  H   LIG d   1      -5.950  79.536 119.599  0.00  0.00     0.149 HD
ENDBRANCH   6  13
BRANCH   5  18
ATOM     18  N   LIG d   1      -7.086  76.966 121.492  0.00  0.00     0.381 N 
ATOM     19  H   LIG d   1      -6.598  76.115 121.297  0.00  0.00    -0.090 HD
ATOM     20  H   LIG d   1      -7.806  76.770 122.165  0.00  0.00    -0.090 HD
ATOM     21  H   LIG d   1      -6.454  77.644 121.858  0.00  0.00    -0.090 HD
ENDBRANCH   5  18
BRANCH   3  22
ATOM     22  C   LIG d   1     -10.728  76.438 118.427  0.00  0.00     0.382 C 
ATOM     23  O   LIG d   1     -10.302  75.528 117.676  0.00  0.00    -0.241 OA
ATOM     24  O   LIG d   1     -11.956  76.590 118.570  0.00  0.00    -0.241 OA
ENDBRANCH   3  22
TORSDOF 7
ENDMDL
MODEL 4
REMARK VINA RESULT:      -4.6      2.805      5.237
REMARK  7 active torsions:
REMARK  status: ('A' for Active; 'I' for Inactive)
REMARK    1  A    between atoms: C_2  and  C_3 
REMARK    2  A    between atoms: C_3  and  O_6 
REMARK    3  A    between atoms: C_3  and  C_4 
REMARK    4  A    between atoms: C_7  and  O_6 
REMARK    5  A    between atoms: C_9  and  C_10 
REMARK    6  A    between atoms: N_15  and  C_14 
REMARK    7  A    between atoms: N_20  and  C_19 
REMARK       I    between atoms: C_22  and  N_20 
ROOT
ATOM      1  C   LIG d   1      -1.981  58.923 122.057  0.00  0.00     0.161 C 
ATOM      2  C   LIG d   1      -1.915  59.553 120.803  0.00  0.00     0.016 C 
ATOM      3  C   LIG d   1      -2.751  60.629 120.427  0.00  0.00     0.038 C 
ATOM      4  C   LIG d   1      -3.614  61.252 121.342  0.00  0.00     0.028 C 
ATOM      5  C   LIG d   1      -4.076  60.328 122.464  0.00  0.00    -0.047 C 
ATOM      6  C   LIG d   1      -2.838  59.661 123.106  0.00  0.00     0.091 C 
ENDROOT
BRANCH   1   7
ATOM      7  O   LIG d   1      -0.649  58.702 122.563  0.00  0.00    -0.368 OA
BRANCH   7   8
ATOM      8  C   LIG d   1       0.375  59.604 122.076  0.00  0.00     0.119 C 
BRANCH   8   9
ATOM      9  C   LIG d   1       1.631  58.760 121.781  0.00  0.00     0.028 C 
ATOM     10  C   LIG d   1       2.933  59.525 122.073  0.00  0.00     0.006 C 
ENDBRANCH   8   9
BRANCH   8  11
ATOM     11  C   LIG d   1       0.801  60.600 123.158  0.00  0.00     0.028 C 
ATOM     12  C   LIG d   1       0.039  61.932 123.075  0.00  0.00     0.006 C 
ENDBRANCH   8  11
ENDBRANCH   7   8
ENDBRANCH   1   7
BRANCH   6  13
ATOM     13  N   LIG d   1      -3.207  58.677 124.158  0.00  0.00    -0.311 N 
ATOM     14  C   LIG d   1      -3.295  58.985 125.451  0.00  0.00     0.210 C 
ATOM     15  C   LIG d   1      -3.670  57.817 126.369  0.00  0.00     0.109 C 
ATOM     16  O   LIG d   1      -3.131  60.121 125.920  0.00  0.00    -0.276 OA
ATOM     17  H   LIG d   1      -3.387  57.738 123.861  0.00  0.00     0.149 HD
ENDBRANCH   6  13
BRANCH   5  18
ATOM     18  N   LIG d   1      -4.855  61.140 123.418  0.00  0.00     0.381 N 
ATOM     19  H   LIG d   1      -5.484  61.738 122.919  0.00  0.00    -0.090 HD
ATOM     20  H   LIG d   1      -4.223  61.717 123.945  0.00  0.00    -0.090 HD
ATOM     21  H   LIG d   1      -5.366  60.547 124.033  0.00  0.00    -0.090 HD
ENDBRANCH   5  18
BRANCH   3  22
ATOM     22  C   LIG d   1      -2.759  61.067 119.112  0.00  0.00     0.382 C 
ATOM     23  O   LIG d   1      -1.796  61.740 118.670  0.00  0.00    -0.241 OA
ATOM     24  O   LIG d   1      -3.735  60.836 118.374  0.00  0.00    -0.241 OA
ENDBRANCH   3  22
TORSDOF 7
ENDMDL
MODEL 5
REMARK VINA RESULT:      -4.6     19.402     21.312
REMARK  7 active torsions:
REMARK  status: ('A' for Active; 'I' for Inactive)
REMARK    1  A    between atoms: C_2  and  C_3 
REMARK    2  A    between atoms: C_3  and  O_6 
REMARK    3  A    between atoms: C_3  and  C_4 
REMARK    4  A    between atoms: C_7  and  O_6 
REMARK    5  A    between atoms: C_9  and  C_10 
REMARK    6  A    between atoms: N_15  and  C_14 
REMARK    7  A    between atoms: N_20  and  C_19 
REMARK       I    between atoms: C_22  and  N_20 
ROOT
ATOM      1  C   LIG d   1      -7.616  78.502 118.162  0.00  0.00     0.161 C 
ATOM      2  C   LIG d   1      -6.624  77.714 118.768  0.00  0.00     0.016 C 
ATOM      3  C   LIG d   1      -6.000  78.052 119.991  0.00  0.00     0.038 C 
ATOM      4  C   LIG d   1      -6.437  79.133 120.772  0.00  0.00     0.028 C 
ATOM      5  C   LIG d   1      -7.092  80.243 119.957  0.00  0.00    -0.047 C 
ATOM      6  C   LIG d   1      -8.184  79.626 119.054  0.00  0.00     0.091 C 
ENDROOT
BRANCH   1   7
ATOM      7  O   LIG d   1      -8.681  77.660 117.678  0.00  0.00    -0.368 OA
BRANCH   7   8
ATOM      8  C   LIG d   1      -9.197  76.683 118.616  0.00  0.00     0.119 C 
BRANCH   8   9
ATOM      9  C   LIG d   1      -9.421  75.371 117.840  0.00  0.00     0.028 C 
ATOM     10  C   LIG d   1     -10.893  75.167 117.443  0.00  0.00     0.006 C 
ENDBRANCH   8   9
BRANCH   8  11
ATOM     11  C   LIG d   1     -10.580  77.087 119.137  0.00  0.00     0.028 C 
ATOM     12  C   LIG d   1     -10.587  77.374 120.647  0.00  0.00     0.006 C 
ENDBRANCH   8  11
ENDBRANCH   7   8
ENDBRANCH   1   7
BRANCH   6  13
ATOM     13  N   LIG d   1      -8.818  80.632 118.162  0.00  0.00    -0.311 N 
ATOM     14  C   LIG d   1      -9.940  81.280 118.469  0.00  0.00     0.210 C 
ATOM     15  C   LIG d   1     -10.433  82.260 117.400  0.00  0.00     0.109 C 
ATOM     16  O   LIG d   1     -10.556  81.161 119.539  0.00  0.00    -0.276 OA
ATOM     17  H   LIG d   1      -8.367  80.813 117.287  0.00  0.00     0.149 HD
ENDBRANCH   6  13
BRANCH   5  18
ATOM     18  N   LIG d   1      -7.622  81.239 120.907  0.00  0.00     0.381 N 
ATOM     19  H   LIG d   1      -7.907  80.784 121.751  0.00  0.00    -0.090 HD
ATOM     20  H   LIG d   1      -8.427  81.681 120.500  0.00  0.00    -0.090 HD
ATOM     21  H   LIG d   1      -6.926  81.923 121.109  0.00  0.00    -0.090 HD
ENDBRANCH   5  18
BRANCH   3  22
ATOM     22  C   LIG d   1      -4.899  77.329 120.424  0.00  0.00     0.382 C 
ATOM     23  O   LIG d   1      -4.033  76.950 119.599  0.00  0.00    -0.241 OA
ATOM     24  O   LIG d   1      -4.784  77.012 121.623  0.00  0.00    -0.241 OA
ENDBRANCH   3  22
TORSDOF 7
ENDMDL
MODEL 6
REMARK VINA RESULT:      -4.5     20.175     22.825
REMARK  7 active torsions:
REMARK  status: ('A' for Active; 'I' for Inactive)
REMARK    1  A    between atoms: C_2  and  C_3 
REMARK    2  A    between atoms: C_3  and  O_6 
REMARK    3  A    between atoms: C_3  and  C_4 
REMARK    4  A    between atoms: C_7  and  O_6 
REMARK    5  A    between atoms: C_9  and  C_10 
REMARK    6  A    between atoms: N_15  and  C_14 
REMARK    7  A    between atoms: N_20  and  C_19 
REMARK       I    between atoms: C_22  and  N_20 
ROOT
ATOM      1  C   LIG d   1      -9.044  79.231 119.157  0.00  0.00     0.161 C 
ATOM      2  C   LIG d   1      -9.264  78.112 118.338  0.00  0.00     0.016 C 
ATOM      3  C   LIG d   1     -10.081  77.021 118.714  0.00  0.00     0.038 C 
ATOM      4  C   LIG d   1     -10.860  77.045 119.880  0.00  0.00     0.028 C 
ATOM      5  C   LIG d   1     -10.280  77.932 120.977  0.00  0.00    -0.047 C 
ATOM      6  C   LIG d   1      -9.973  79.326 120.386  0.00  0.00     0.091 C 
ENDROOT
BRANCH   1   7
ATOM      7  O   LIG d   1      -9.128  80.436 118.371  0.00  0.00    -0.368 OA
BRANCH   7   8
ATOM      8  C   LIG d   1      -7.870  80.980 117.901  0.00  0.00     0.119 C 
BRANCH   8   9
ATOM      9  C   LIG d   1      -6.822  80.744 119.006  0.00  0.00     0.028 C 
ATOM     10  C   LIG d   1      -5.497  80.196 118.450  0.00  0.00     0.006 C 
ENDBRANCH   8   9
BRANCH   8  11
ATOM     11  C   LIG d   1      -7.947  82.500 117.734  0.00  0.00     0.028 C 
ATOM     12  C   LIG d   1      -7.538  83.261 119.005  0.00  0.00     0.006 C 
ENDBRANCH   8  11
ENDBRANCH   7   8
ENDBRANCH   1   7
BRANCH   6  13
ATOM     13  N   LIG d   1      -9.325  80.230 121.371  0.00  0.00    -0.311 N 
ATOM     14  C   LIG d   1      -9.660  81.510 121.524  0.00  0.00     0.210 C 
ATOM     15  C   LIG d   1      -8.853  82.268 122.582  0.00  0.00     0.109 C 
ATOM     16  O   LIG d   1     -10.571  82.081 120.905  0.00  0.00    -0.276 OA
ATOM     17  H   LIG d   1      -8.596  79.841 121.937  0.00  0.00     0.149 HD
ENDBRANCH   6  13
BRANCH   5  18
ATOM     18  N   LIG d   1     -11.259  77.974 122.080  0.00  0.00     0.381 N 
ATOM     19  H   LIG d   1     -11.831  77.153 122.057  0.00  0.00    -0.090 HD
ATOM     20  H   LIG d   1     -11.853  78.775 121.957  0.00  0.00    -0.090 HD
ATOM     21  H   LIG d   1     -10.786  78.034 122.954  0.00  0.00    -0.090 HD
ENDBRANCH   5  18
BRANCH   3  22
ATOM     22  C   LIG d   1     -10.093  75.872 117.937  0.00  0.00     0.382 C 
ATOM     23  O   LIG d   1     -11.184  75.324 117.647  0.00  0.00    -0.241 OA
ATOM     24  O   LIG d   1      -9.026  75.352 117.561  0.00  0.00    -0.241 OA
ENDBRANCH   3  22
TORSDOF 7
ENDMDL
MODEL 7
REMARK VINA RESULT:      -4.4     20.013     22.688
REMARK  7 active torsions:
REMARK  status: ('A' for Active; 'I' for Inactive)
REMARK    1  A    between atoms: C_2  and  C_3 
REMARK    2  A    between atoms: C_3  and  O_6 
REMARK    3  A    between atoms: C_3  and  C_4 
REMARK    4  A    between atoms: C_7  and  O_6 
REMARK    5  A    between atoms: C_9  and  C_10 
REMARK    6  A    between atoms: N_15  and  C_14 
REMARK    7  A    between atoms: N_20  and  C_19 
REMARK       I    between atoms: C_22  and  N_20 
ROOT
ATOM      1  C   LIG d   1      -7.142  79.390 117.945  0.00  0.00     0.161 C 
ATOM      2  C   LIG d   1      -8.362  78.694 117.915  0.00  0.00     0.016 C 
ATOM      3  C   LIG d   1      -8.712  77.697 118.855  0.00  0.00     0.038 C 
ATOM      4  C   LIG d   1      -7.925  77.434 119.985  0.00  0.00     0.028 C 
ATOM      5  C   LIG d   1      -6.448  77.756 119.783  0.00  0.00    -0.047 C 
ATOM      6  C   LIG d   1      -6.318  79.195 119.235  0.00  0.00     0.091 C 
ENDROOT
BRANCH   1   7
ATOM      7  O   LIG d   1      -7.373  80.792 117.705  0.00  0.00    -0.368 OA
BRANCH   7   8
ATOM      8  C   LIG d   1      -8.523  81.371 118.370  0.00  0.00     0.119 C 
BRANCH   8   9
ATOM      9  C   LIG d   1      -9.187  82.348 117.381  0.00  0.00     0.028 C 
ATOM     10  C   LIG d   1     -10.721  82.240 117.390  0.00  0.00     0.006 C 
ENDBRANCH   8   9
BRANCH   8  11
ATOM     11  C   LIG d   1      -8.101  82.230 119.566  0.00  0.00     0.028 C 
ATOM     12  C   LIG d   1      -7.707  83.660 119.163  0.00  0.00     0.006 C 
ENDBRANCH   8  11
ENDBRANCH   7   8
ENDBRANCH   1   7
BRANCH   6  13
ATOM     13  N   LIG d   1      -4.910  79.560 118.929  0.00  0.00    -0.311 N 
ATOM     14  C   LIG d   1      -4.283  80.594 119.487  0.00  0.00     0.210 C 
ATOM     15  C   LIG d   1      -2.841  80.806 119.017  0.00  0.00     0.109 C 
ATOM     16  O   LIG d   1      -4.774  81.337 120.351  0.00  0.00    -0.276 OA
ATOM     17  H   LIG d   1      -4.426  78.992 118.262  0.00  0.00     0.149 HD
ENDBRANCH   6  13
BRANCH   5  18
ATOM     18  N   LIG d   1      -5.769  77.566 121.078  0.00  0.00     0.381 N 
ATOM     19  H   LIG d   1      -6.437  77.311 121.777  0.00  0.00    -0.090 HD
ATOM     20  H   LIG d   1      -5.342  78.434 121.352  0.00  0.00    -0.090 HD
ATOM     21  H   LIG d   1      -5.074  76.857 120.999  0.00  0.00    -0.090 HD
ENDBRANCH   5  18
BRANCH   3  22
ATOM     22  C   LIG d   1      -9.844  76.924 118.646  0.00  0.00     0.382 C 
ATOM     23  O   LIG d   1      -9.728  75.726 118.290  0.00  0.00    -0.241 OA
ATOM     24  O   LIG d   1     -10.980  77.421 118.766  0.00  0.00    -0.241 OA
ENDBRANCH   3  22
TORSDOF 7
ENDMDL
MODEL 8
REMARK VINA RESULT:      -4.4     20.742     23.008
REMARK  7 active torsions:
REMARK  status: ('A' for Active; 'I' for Inactive)
REMARK    1  A    between atoms: C_2  and  C_3 
REMARK    2  A    between atoms: C_3  and  O_6 
REMARK    3  A    between atoms: C_3  and  C_4 
REMARK    4  A    between atoms: C_7  and  O_6 
REMARK    5  A    between atoms: C_9  and  C_10 
REMARK    6  A    between atoms: N_15  and  C_14 
REMARK    7  A    between atoms: N_20  and  C_19 
REMARK       I    between atoms: C_22  and  N_20 
ROOT
ATOM      1  C   LIG d   1      -9.157  80.595 118.357  0.00  0.00     0.161 C 
ATOM      2  C   LIG d   1      -9.143  81.882 118.920  0.00  0.00     0.016 C 
ATOM      3  C   LIG d   1      -9.498  82.148 120.262  0.00  0.00     0.038 C 
ATOM      4  C   LIG d   1      -9.749  81.118 121.181  0.00  0.00     0.028 C 
ATOM      5  C   LIG d   1     -10.267  79.839 120.531  0.00  0.00    -0.047 C 
ATOM      6  C   LIG d   1      -9.321  79.446 119.374  0.00  0.00     0.091 C 
ENDROOT
BRANCH   1   7
ATOM      7  O   LIG d   1      -7.972  80.395 117.562  0.00  0.00    -0.368 OA
BRANCH   7   8
ATOM      8  C   LIG d   1      -6.871  79.718 118.218  0.00  0.00     0.119 C 
BRANCH   8   9
ATOM      9  C   LIG d   1      -5.716  80.729 118.346  0.00  0.00     0.028 C 
ATOM     10  C   LIG d   1      -5.581  81.287 119.773  0.00  0.00     0.006 C 
ENDBRANCH   8   9
BRANCH   8  11
ATOM     11  C   LIG d   1      -6.321  78.581 117.351  0.00  0.00     0.028 C 
ATOM     12  C   LIG d   1      -5.658  77.469 118.178  0.00  0.00     0.006 C 
ENDBRANCH   8  11
ENDBRANCH   7   8
ENDBRANCH   1   7
BRANCH   6  13
ATOM     13  N   LIG d   1      -9.801  78.252 118.630  0.00  0.00    -0.311 N 
ATOM     14  C   LIG d   1      -9.431  77.007 118.926  0.00  0.00     0.210 C 
ATOM     15  C   LIG d   1     -10.028  75.924 118.021  0.00  0.00     0.109 C 
ATOM     16  O   LIG d   1      -8.692  76.694 119.871  0.00  0.00    -0.276 OA
ATOM     17  H   LIG d   1     -10.429  78.412 117.867  0.00  0.00     0.149 HD
ENDBRANCH   6  13
BRANCH   5  18
ATOM     18  N   LIG d   1     -10.354  78.808 121.583  0.00  0.00     0.381 N 
ATOM     19  H   LIG d   1      -9.504  78.281 121.611  0.00  0.00    -0.090 HD
ATOM     20  H   LIG d   1     -11.107  78.182 121.362  0.00  0.00    -0.090 HD
ATOM     21  H   LIG d   1     -10.517  79.237 122.468  0.00  0.00    -0.090 HD
ENDBRANCH   5  18
BRANCH   3  22
ATOM     22  C   LIG d   1      -9.645  83.460 120.687  0.00  0.00     0.382 C 
ATOM     23  O   LIG d   1     -10.666  83.800 121.331  0.00  0.00    -0.241 OA
ATOM     24  O   LIG d   1      -8.789  84.317 120.397  0.00  0.00    -0.241 OA
ENDBRANCH   3  22
TORSDOF 7
ENDMDL
MODEL 9
REMARK VINA RESULT:      -4.4     19.847     22.306
REMARK  7 active torsions:
REMARK  status: ('A' for Active; 'I' for Inactive)
REMARK    1  A    between atoms: C_2  and  C_3 
REMARK    2  A    between atoms: C_3  and  O_6 
REMARK    3  A    between atoms: C_3  and  C_4 
REMARK    4  A    between atoms: C_7  and  O_6 
REMARK    5  A    between atoms: C_9  and  C_10 
REMARK    6  A    between atoms: N_15  and  C_14 
REMARK    7  A    between atoms: N_20  and  C_19 
REMARK       I    between atoms: C_22  and  N_20 
ROOT
ATOM      1  C   LIG d   1     -10.016  78.797 119.912  0.00  0.00     0.161 C 
ATOM      2  C   LIG d   1     -10.116  79.702 118.842  0.00  0.00     0.016 C 
ATOM      3  C   LIG d   1      -9.443  80.945 118.809  0.00  0.00     0.038 C 
ATOM      4  C   LIG d   1      -8.500  81.304 119.783  0.00  0.00     0.028 C 
ATOM      5  C   LIG d   1      -8.747  80.646 121.136  0.00  0.00    -0.047 C 
ATOM      6  C   LIG d   1      -8.905  79.122 120.932  0.00  0.00     0.091 C 
ENDROOT
BRANCH   1   7
ATOM      7  O   LIG d   1      -9.855  77.458 119.405  0.00  0.00    -0.368 OA
BRANCH   7   8
ATOM      8  C   LIG d   1      -9.115  77.329 118.166  0.00  0.00     0.119 C 
BRANCH   8   9
ATOM      9  C   LIG d   1      -9.475  75.963 117.552  0.00  0.00     0.028 C 
ATOM     10  C   LIG d   1     -10.932  75.558 117.833  0.00  0.00     0.006 C 
ENDBRANCH   8   9
BRANCH   8  11
ATOM     11  C   LIG d   1      -7.606  77.274 118.422  0.00  0.00     0.028 C 
ATOM     12  C   LIG d   1      -6.822  78.297 117.585  0.00  0.00     0.006 C 
ENDBRANCH   8  11
ENDBRANCH   7   8
ENDBRANCH   1   7
BRANCH   6  13
ATOM     13  N   LIG d   1      -9.233  78.412 122.195  0.00  0.00    -0.311 N 
ATOM     14  C   LIG d   1      -8.605  77.309 122.600  0.00  0.00     0.210 C 
ATOM     15  C   LIG d   1      -9.113  76.725 123.923  0.00  0.00     0.109 C 
ATOM     16  O   LIG d   1      -7.656  76.777 122.006  0.00  0.00    -0.276 OA
ATOM     17  H   LIG d   1      -9.970  78.793 122.755  0.00  0.00     0.149 HD
ENDBRANCH   6  13
BRANCH   5  18
ATOM     18  N   LIG d   1      -7.615  80.997 122.015  0.00  0.00     0.381 N 
ATOM     19  H   LIG d   1      -7.249  81.891 121.755  0.00  0.00    -0.090 HD
ATOM     20  H   LIG d   1      -6.889  80.313 121.900  0.00  0.00    -0.090 HD
ATOM     21  H   LIG d   1      -7.915  81.017 122.965  0.00  0.00    -0.090 HD
ENDBRANCH   5  18
BRANCH   3  22
ATOM     22  C   LIG d   1      -9.743  81.863 117.813  0.00  0.00     0.382 C 
ATOM     23  O   LIG d   1     -10.939  82.094 117.513  0.00  0.00    -0.241 OA
ATOM     24  O   LIG d   1      -8.831  82.428 117.180  0.00  0.00    -0.241 OA
ENDBRANCH   3  22
TORSDOF 7
ENDMDL
