MODEL 1
REMARK VINA RESULT:      -5.5      0.000      0.000
REMARK  7 active torsions:
REMARK  status: ('A' for Active; 'I' for Inactive)
REMARK    1  A    between atoms: C_2  and  C_3 
REMARK    2  A    between atoms: C_3  and  O_6 
REMARK    3  A    between atoms: C_3  and  C_4 
REMARK    4  A    between atoms: C_7  and  O_6 
REMARK    5  A    between atoms: C_9  and  C_10 
REMARK    6  A    between atoms: N_15  and  C_14 
REMARK    7  A    between atoms: N_20  and  C_19 
REMARK       I    between atoms: C_22  and  N_20 
ROOT
ATOM      1  C   LIG d   1      -0.135  60.914 118.629  0.00  0.00     0.161 C 
ATOM      2  C   LIG d   1      -1.449  60.433 118.501  0.00  0.00     0.016 C 
ATOM      3  C   LIG d   1      -1.759  59.081 118.227  0.00  0.00     0.038 C 
ATOM      4  C   LIG d   1      -0.774  58.082 118.212  0.00  0.00     0.028 C 
ATOM      5  C   LIG d   1       0.609  58.602 117.835  0.00  0.00    -0.047 C 
ATOM      6  C   LIG d   1       0.948  59.819 118.726  0.00  0.00     0.091 C 
ENDROOT
BRANCH   1   7
ATOM      7  O   LIG d   1      -0.049  61.805 119.758  0.00  0.00    -0.368 OA
BRANCH   7   8
ATOM      8  C   LIG d   1       0.455  61.229 120.988  0.00  0.00     0.119 C 
BRANCH   8   9
ATOM      9  C   LIG d   1      -0.715  61.180 121.990  0.00  0.00     0.028 C 
ATOM     10  C   LIG d   1      -1.290  59.763 122.152  0.00  0.00     0.006 C 
ENDBRANCH   8   9
BRANCH   8  11
ATOM     11  C   LIG d   1       1.507  62.133 121.637  0.00  0.00     0.028 C 
ATOM     12  C   LIG d   1       0.951  62.939 122.822  0.00  0.00     0.006 C 
ENDBRANCH   8  11
ENDBRANCH   7   8
ENDBRANCH   1   7
BRANCH   6  13
ATOM     13  N   LIG d   1       2.249  60.440 118.366  0.00  0.00    -0.311 N 
ATOM     14  C   LIG d   1       3.391  60.167 118.995  0.00  0.00     0.210 C 
ATOM     15  C   LIG d   1       4.613  60.933 118.478  0.00  0.00     0.109 C 
ATOM     16  O   LIG d   1       3.513  59.340 119.910  0.00  0.00    -0.276 OA
ATOM     17  H   LIG d   1       2.246  61.100 117.613  0.00  0.00     0.149 HD
ENDBRANCH   6  13
BRANCH   5  18
ATOM     18  N   LIG d   1       1.562  57.487 117.993  0.00  0.00     0.381 N 
ATOM     19  H   LIG d   1       2.424  57.829 118.369  0.00  0.00    -0.090 HD
ATOM     20  H   LIG d   1       1.748  57.087 117.090  0.00  0.00    -0.090 HD
ATOM     21  H   LIG d   1       1.179  56.794 118.599  0.00  0.00    -0.090 HD
ENDBRANCH   5  18
BRANCH   3  22
ATOM     22  C   LIG d   1      -3.065  58.723 117.925  0.00  0.00     0.382 C 
ATOM     23  O   LIG d   1      -3.458  57.550 118.135  0.00  0.00    -0.241 OA
ATOM     24  O   LIG d   1      -3.841  59.546 117.405  0.00  0.00    -0.241 OA
ENDBRANCH   3  22
TORSDOF 7
ENDMDL
MODEL 2
REMARK VINA RESULT:      -4.8      1.592      2.198
REMARK  7 active torsions:
REMARK  status: ('A' for Active; 'I' for Inactive)
REMARK    1  A    between atoms: C_2  and  C_3 
REMARK    2  A    between atoms: C_3  and  O_6 
REMARK    3  A    between atoms: C_3  and  C_4 
REMARK    4  A    between atoms: C_7  and  O_6 
REMARK    5  A    between atoms: C_9  and  C_10 
REMARK    6  A    between atoms: N_15  and  C_14 
REMARK    7  A    between atoms: N_20  and  C_19 
REMARK       I    between atoms: C_22  and  N_20 
ROOT
ATOM      1  C   LIG d   1      -0.530  60.582 120.193  0.00  0.00     0.161 C 
ATOM      2  C   LIG d   1      -1.748  60.038 119.753  0.00  0.00     0.016 C 
ATOM      3  C   LIG d   1      -1.842  59.071 118.726  0.00  0.00     0.038 C 
ATOM      4  C   LIG d   1      -0.705  58.468 118.168  0.00  0.00     0.028 C 
ATOM      5  C   LIG d   1       0.538  59.350 118.225  0.00  0.00    -0.047 C 
ATOM      6  C   LIG d   1       0.728  59.855 119.674  0.00  0.00     0.091 C 
ENDROOT
BRANCH   1   7
ATOM      7  O   LIG d   1      -0.514  60.645 121.633  0.00  0.00    -0.368 OA
BRANCH   7   8
ATOM      8  C   LIG d   1      -1.149  59.542 122.325  0.00  0.00     0.119 C 
BRANCH   8   9
ATOM      9  C   LIG d   1      -1.835  60.117 123.580  0.00  0.00     0.028 C 
ATOM     10  C   LIG d   1      -3.304  59.676 123.700  0.00  0.00     0.006 C 
ENDBRANCH   8   9
BRANCH   8  11
ATOM     11  C   LIG d   1      -0.113  58.544 122.851  0.00  0.00     0.028 C 
ATOM     12  C   LIG d   1      -0.184  57.183 122.142  0.00  0.00     0.006 C 
ENDBRANCH   8  11
ENDBRANCH   7   8
ENDBRANCH   1   7
BRANCH   6  13
ATOM     13  N   LIG d   1       1.874  60.793 119.801  0.00  0.00    -0.311 N 
ATOM     14  C   LIG d   1       2.908  60.581 120.613  0.00  0.00     0.210 C 
ATOM     15  C   LIG d   1       3.972  61.684 120.606  0.00  0.00     0.109 C 
ATOM     16  O   LIG d   1       3.062  59.570 121.314  0.00  0.00    -0.276 OA
ATOM     17  H   LIG d   1       1.847  61.625 119.244  0.00  0.00     0.149 HD
ENDBRANCH   6  13
BRANCH   5  18
ATOM     18  N   LIG d   1       1.676  58.548 117.738  0.00  0.00     0.381 N 
ATOM     19  H   LIG d   1       1.784  57.732 118.308  0.00  0.00    -0.090 HD
ATOM     20  H   LIG d   1       2.515  59.097 117.811  0.00  0.00    -0.090 HD
ATOM     21  H   LIG d   1       1.525  58.282 116.790  0.00  0.00    -0.090 HD
ENDBRANCH   5  18
BRANCH   3  22
ATOM     22  C   LIG d   1      -3.086  58.727 118.218  0.00  0.00     0.382 C 
ATOM     23  O   LIG d   1      -3.583  57.606 118.482  0.00  0.00    -0.241 OA
ATOM     24  O   LIG d   1      -3.697  59.507 117.462  0.00  0.00    -0.241 OA
ENDBRANCH   3  22
TORSDOF 7
ENDMDL
MODEL 3
REMARK VINA RESULT:      -4.7      1.410      2.105
REMARK  7 active torsions:
REMARK  status: ('A' for Active; 'I' for Inactive)
REMARK    1  A    between atoms: C_2  and  C_3 
REMARK    2  A    between atoms: C_3  and  O_6 
REMARK    3  A    between atoms: C_3  and  C_4 
REMARK    4  A    between atoms: C_7  and  O_6 
REMARK    5  A    between atoms: C_9  and  C_10 
REMARK    6  A    between atoms: N_15  and  C_14 
REMARK    7  A    between atoms: N_20  and  C_19 
REMARK       I    between atoms: C_22  and  N_20 
ROOT
ATOM      1  C   LIG d   1       0.404  59.598 119.473  0.00  0.00     0.161 C 
ATOM      2  C   LIG d   1      -0.986  59.522 119.284  0.00  0.00     0.016 C 
ATOM      3  C   LIG d   1      -1.617  58.490 118.552  0.00  0.00     0.038 C 
ATOM      4  C   LIG d   1      -0.909  57.373 118.084  0.00  0.00     0.028 C 
ATOM      5  C   LIG d   1       0.565  57.660 117.815  0.00  0.00    -0.047 C 
ATOM      6  C   LIG d   1       1.182  58.329 119.064  0.00  0.00     0.091 C 
ENDROOT
BRANCH   1   7
ATOM      7  O   LIG d   1       0.694  59.943 120.842  0.00  0.00    -0.368 OA
BRANCH   7   8
ATOM      8  C   LIG d   1       1.234  61.269 121.064  0.00  0.00     0.119 C 
BRANCH   8   9
ATOM      9  C   LIG d   1       2.565  61.105 121.823  0.00  0.00     0.028 C 
ATOM     10  C   LIG d   1       3.741  61.780 121.098  0.00  0.00     0.006 C 
ENDBRANCH   8   9
BRANCH   8  11
ATOM     11  C   LIG d   1       0.335  62.089 121.994  0.00  0.00     0.028 C 
ATOM     12  C   LIG d   1      -0.543  61.211 122.901  0.00  0.00     0.006 C 
ENDBRANCH   8  11
ENDBRANCH   7   8
ENDBRANCH   1   7
BRANCH   6  13
ATOM     13  N   LIG d   1       2.601  58.720 118.855  0.00  0.00    -0.311 N 
ATOM     14  C   LIG d   1       2.979  59.698 118.034  0.00  0.00     0.210 C 
ATOM     15  C   LIG d   1       4.492  59.924 117.951  0.00  0.00     0.109 C 
ATOM     16  O   LIG d   1       2.203  60.422 117.392  0.00  0.00    -0.276 OA
ATOM     17  H   LIG d   1       3.295  58.205 119.361  0.00  0.00     0.149 HD
ENDBRANCH   6  13
BRANCH   5  18
ATOM     18  N   LIG d   1       1.211  56.381 117.465  0.00  0.00     0.381 N 
ATOM     19  H   LIG d   1       1.138  55.744 118.233  0.00  0.00    -0.090 HD
ATOM     20  H   LIG d   1       2.185  56.547 117.285  0.00  0.00    -0.090 HD
ATOM     21  H   LIG d   1       0.778  55.990 116.658  0.00  0.00    -0.090 HD
ENDBRANCH   5  18
BRANCH   3  22
ATOM     22  C   LIG d   1      -2.966  58.589 118.248  0.00  0.00     0.382 C 
ATOM     23  O   LIG d   1      -3.383  59.546 117.552  0.00  0.00    -0.241 OA
ATOM     24  O   LIG d   1      -3.778  57.758 118.698  0.00  0.00    -0.241 OA
ENDBRANCH   3  22
TORSDOF 7
ENDMDL
MODEL 4
REMARK VINA RESULT:      -4.7      2.318      5.992
REMARK  7 active torsions:
REMARK  status: ('A' for Active; 'I' for Inactive)
REMARK    1  A    between atoms: C_2  and  C_3 
REMARK    2  A    between atoms: C_3  and  O_6 
REMARK    3  A    between atoms: C_3  and  C_4 
REMARK    4  A    between atoms: C_7  and  O_6 
REMARK    5  A    between atoms: C_9  and  C_10 
REMARK    6  A    between atoms: N_15  and  C_14 
REMARK    7  A    between atoms: N_20  and  C_19 
REMARK       I    between atoms: C_22  and  N_20 
ROOT
ATOM      1  C   LIG d   1       1.259  60.267 118.309  0.00  0.00     0.161 C 
ATOM      2  C   LIG d   1       2.445  60.567 119.000  0.00  0.00     0.016 C 
ATOM      3  C   LIG d   1       2.471  61.057 120.325  0.00  0.00     0.038 C 
ATOM      4  C   LIG d   1       1.309  61.138 121.108  0.00  0.00     0.028 C 
ATOM      5  C   LIG d   1       0.037  61.324 120.288  0.00  0.00    -0.047 C 
ATOM      6  C   LIG d   1      -0.011  60.243 119.184  0.00  0.00     0.091 C 
ENDROOT
BRANCH   1   7
ATOM      7  O   LIG d   1       1.407  59.017 117.605  0.00  0.00    -0.368 OA
BRANCH   7   8
ATOM      8  C   LIG d   1       1.116  57.819 118.367  0.00  0.00     0.119 C 
BRANCH   8   9
ATOM      9  C   LIG d   1       2.448  57.075 118.584  0.00  0.00     0.028 C 
ATOM     10  C   LIG d   1       2.896  57.091 120.055  0.00  0.00     0.006 C 
ENDBRANCH   8   9
BRANCH   8  11
ATOM     11  C   LIG d   1       0.236  56.852 117.570  0.00  0.00     0.028 C 
ATOM     12  C   LIG d   1      -0.013  55.527 118.308  0.00  0.00     0.006 C 
ENDBRANCH   8  11
ENDBRANCH   7   8
ENDBRANCH   1   7
BRANCH   6  13
ATOM     13  N   LIG d   1      -1.181  60.405 118.283  0.00  0.00    -0.311 N 
ATOM     14  C   LIG d   1      -2.328  59.747 118.445  0.00  0.00     0.210 C 
ATOM     15  C   LIG d   1      -3.400  60.046 117.392  0.00  0.00     0.109 C 
ATOM     16  O   LIG d   1      -2.571  58.969 119.380  0.00  0.00    -0.276 OA
ATOM     17  H   LIG d   1      -1.082  61.041 117.516  0.00  0.00     0.149 HD
ENDBRANCH   6  13
BRANCH   5  18
ATOM     18  N   LIG d   1      -1.106  61.254 121.217  0.00  0.00     0.381 N 
ATOM     19  H   LIG d   1      -1.956  61.439 120.722  0.00  0.00    -0.090 HD
ATOM     20  H   LIG d   1      -0.994  61.958 121.925  0.00  0.00    -0.090 HD
ATOM     21  H   LIG d   1      -1.149  60.352 121.638  0.00  0.00    -0.090 HD
ENDBRANCH   5  18
BRANCH   3  22
ATOM     22  C   LIG d   1       3.663  61.511 120.868  0.00  0.00     0.382 C 
ATOM     23  O   LIG d   1       3.653  62.204 121.914  0.00  0.00    -0.241 OA
ATOM     24  O   LIG d   1       4.746  61.273 120.300  0.00  0.00    -0.241 OA
ENDBRANCH   3  22
TORSDOF 7
ENDMDL
MODEL 5
REMARK VINA RESULT:      -4.7     20.737     22.262
REMARK  7 active torsions:
REMARK  status: ('A' for Active; 'I' for Inactive)
REMARK    1  A    between atoms: C_2  and  C_3 
REMARK    2  A    between atoms: C_3  and  O_6 
REMARK    3  A    between atoms: C_3  and  C_4 
REMARK    4  A    between atoms: C_7  and  O_6 
REMARK    5  A    between atoms: C_9  and  C_10 
REMARK    6  A    between atoms: N_15  and  C_14 
REMARK    7  A    between atoms: N_20  and  C_19 
REMARK       I    between atoms: C_22  and  N_20 
ROOT
ATOM      1  C   LIG d   1     -15.195  74.997 120.724  0.00  0.00     0.161 C 
ATOM      2  C   LIG d   1     -14.886  73.801 120.054  0.00  0.00     0.016 C 
ATOM      3  C   LIG d   1     -15.760  73.175 119.136  0.00  0.00     0.038 C 
ATOM      4  C   LIG d   1     -16.948  73.787 118.709  0.00  0.00     0.028 C 
ATOM      5  C   LIG d   1     -17.538  74.748 119.735  0.00  0.00    -0.047 C 
ATOM      6  C   LIG d   1     -16.438  75.736 120.187  0.00  0.00     0.091 C 
ENDROOT
BRANCH   1   7
ATOM      7  O   LIG d   1     -14.049  75.872 120.715  0.00  0.00    -0.368 OA
BRANCH   7   8
ATOM      8  C   LIG d   1     -13.157  75.766 121.852  0.00  0.00     0.119 C 
BRANCH   8   9
ATOM      9  C   LIG d   1     -13.767  76.597 122.997  0.00  0.00     0.028 C 
ATOM     10  C   LIG d   1     -13.878  78.090 122.644  0.00  0.00     0.006 C 
ENDBRANCH   8   9
BRANCH   8  11
ATOM     11  C   LIG d   1     -11.801  76.413 121.558  0.00  0.00     0.028 C 
ATOM     12  C   LIG d   1     -10.636  75.701 122.265  0.00  0.00     0.006 C 
ENDBRANCH   8  11
ENDBRANCH   7   8
ENDBRANCH   1   7
BRANCH   6  13
ATOM     13  N   LIG d   1     -16.908  76.658 121.253  0.00  0.00    -0.311 N 
ATOM     14  C   LIG d   1     -17.429  77.859 121.007  0.00  0.00     0.210 C 
ATOM     15  C   LIG d   1     -17.831  78.657 122.251  0.00  0.00     0.109 C 
ATOM     16  O   LIG d   1     -17.626  78.326 119.875  0.00  0.00    -0.276 OA
ATOM     17  H   LIG d   1     -16.815  76.346 122.200  0.00  0.00     0.149 HD
ENDBRANCH   6  13
BRANCH   5  18
ATOM     18  N   LIG d   1     -18.694  75.416 119.108  0.00  0.00     0.381 N 
ATOM     19  H   LIG d   1     -18.548  76.406 119.097  0.00  0.00    -0.090 HD
ATOM     20  H   LIG d   1     -19.516  75.225 119.653  0.00  0.00    -0.090 HD
ATOM     21  H   LIG d   1     -18.818  75.081 118.178  0.00  0.00    -0.090 HD
ENDBRANCH   5  18
BRANCH   3  22
ATOM     22  C   LIG d   1     -15.467  71.904 118.665  0.00  0.00     0.382 C 
ATOM     23  O   LIG d   1     -14.921  71.066 119.422  0.00  0.00    -0.241 OA
ATOM     24  O   LIG d   1     -15.702  71.600 117.480  0.00  0.00    -0.241 OA
ENDBRANCH   3  22
TORSDOF 7
ENDMDL
MODEL 6
REMARK VINA RESULT:      -4.6     19.868     21.568
REMARK  7 active torsions:
REMARK  status: ('A' for Active; 'I' for Inactive)
REMARK    1  A    between atoms: C_2  and  C_3 
REMARK    2  A    between atoms: C_3  and  O_6 
REMARK    3  A    between atoms: C_3  and  C_4 
REMARK    4  A    between atoms: C_7  and  O_6 
REMARK    5  A    between atoms: C_9  and  C_10 
REMARK    6  A    between atoms: N_15  and  C_14 
REMARK    7  A    between atoms: N_20  and  C_19 
REMARK       I    between atoms: C_22  and  N_20 
ROOT
ATOM      1  C   LIG d   1     -10.165  78.157 119.758  0.00  0.00     0.161 C 
ATOM      2  C   LIG d   1     -10.756  77.052 120.393  0.00  0.00     0.016 C 
ATOM      3  C   LIG d   1     -11.622  77.164 121.504  0.00  0.00     0.038 C 
ATOM      4  C   LIG d   1     -12.079  78.408 121.966  0.00  0.00     0.028 C 
ATOM      5  C   LIG d   1     -11.114  79.553 121.676  0.00  0.00    -0.047 C 
ATOM      6  C   LIG d   1     -10.739  79.527 120.177  0.00  0.00     0.091 C 
ENDROOT
BRANCH   1   7
ATOM      7  O   LIG d   1     -10.242  77.998 118.328  0.00  0.00    -0.368 OA
BRANCH   7   8
ATOM      8  C   LIG d   1      -8.990  77.742 117.646  0.00  0.00     0.119 C 
BRANCH   8   9
ATOM      9  C   LIG d   1      -9.007  76.273 117.181  0.00  0.00     0.028 C 
ATOM     10  C   LIG d   1      -8.107  75.373 118.044  0.00  0.00     0.006 C 
ENDBRANCH   8   9
BRANCH   8  11
ATOM     11  C   LIG d   1      -7.801  77.849 118.606  0.00  0.00     0.028 C 
ATOM     12  C   LIG d   1      -6.761  78.886 118.153  0.00  0.00     0.006 C 
ENDBRANCH   8  11
ENDBRANCH   7   8
ENDBRANCH   1   7
BRANCH   6  13
ATOM     13  N   LIG d   1      -9.733  80.563 119.826  0.00  0.00    -0.311 N 
ATOM     14  C   LIG d   1      -9.762  81.258 118.690  0.00  0.00     0.210 C 
ATOM     15  C   LIG d   1      -8.618  82.262 118.518  0.00  0.00     0.109 C 
ATOM     16  O   LIG d   1     -10.644  81.160 117.824  0.00  0.00    -0.276 OA
ATOM     17  H   LIG d   1      -8.999  80.728 120.487  0.00  0.00     0.149 HD
ENDBRANCH   6  13
BRANCH   5  18
ATOM     18  N   LIG d   1     -11.775  80.807 122.085  0.00  0.00     0.381 N 
ATOM     19  H   LIG d   1     -11.834  80.849 123.083  0.00  0.00    -0.090 HD
ATOM     20  H   LIG d   1     -12.708  80.818 121.714  0.00  0.00    -0.090 HD
ATOM     21  H   LIG d   1     -11.263  81.589 121.743  0.00  0.00    -0.090 HD
ENDBRANCH   5  18
BRANCH   3  22
ATOM     22  C   LIG d   1     -12.009  76.024 122.192  0.00  0.00     0.382 C 
ATOM     23  O   LIG d   1     -11.314  75.603 123.148  0.00  0.00    -0.241 OA
ATOM     24  O   LIG d   1     -13.020  75.387 121.841  0.00  0.00    -0.241 OA
ENDBRANCH   3  22
TORSDOF 7
ENDMDL
MODEL 7
REMARK VINA RESULT:      -4.6     18.231     19.810
REMARK  7 active torsions:
REMARK  status: ('A' for Active; 'I' for Inactive)
REMARK    1  A    between atoms: C_2  and  C_3 
REMARK    2  A    between atoms: C_3  and  O_6 
REMARK    3  A    between atoms: C_3  and  C_4 
REMARK    4  A    between atoms: C_7  and  O_6 
REMARK    5  A    between atoms: C_9  and  C_10 
REMARK    6  A    between atoms: N_15  and  C_14 
REMARK    7  A    between atoms: N_20  and  C_19 
REMARK       I    between atoms: C_22  and  N_20 
ROOT
ATOM      1  C   LIG d   1     -15.241  71.617 120.725  0.00  0.00     0.161 C 
ATOM      2  C   LIG d   1     -15.000  70.378 120.109  0.00  0.00     0.016 C 
ATOM      3  C   LIG d   1     -15.375  70.084 118.778  0.00  0.00     0.038 C 
ATOM      4  C   LIG d   1     -15.885  71.067 117.917  0.00  0.00     0.028 C 
ATOM      5  C   LIG d   1     -16.611  72.193 118.646  0.00  0.00    -0.047 C 
ATOM      6  C   LIG d   1     -15.695  72.738 119.766  0.00  0.00     0.091 C 
ENDROOT
BRANCH   1   7
ATOM      7  O   LIG d   1     -14.074  72.032 121.462  0.00  0.00    -0.368 OA
BRANCH   7   8
ATOM      8  C   LIG d   1     -14.144  71.883 122.902  0.00  0.00     0.119 C 
BRANCH   8   9
ATOM      9  C   LIG d   1     -13.550  73.160 123.528  0.00  0.00     0.028 C 
ATOM     10  C   LIG d   1     -13.285  74.257 122.484  0.00  0.00     0.006 C 
ENDBRANCH   8   9
BRANCH   8  11
ATOM     11  C   LIG d   1     -13.249  70.739 123.388  0.00  0.00     0.028 C 
ATOM     12  C   LIG d   1     -11.811  70.839 122.854  0.00  0.00     0.006 C 
ENDBRANCH   8  11
ENDBRANCH   7   8
ENDBRANCH   1   7
BRANCH   6  13
ATOM     13  N   LIG d   1     -16.361  73.786 120.583  0.00  0.00    -0.311 N 
ATOM     14  C   LIG d   1     -16.212  75.091 120.364  0.00  0.00     0.210 C 
ATOM     15  C   LIG d   1     -16.972  76.001 121.335  0.00  0.00     0.109 C 
ATOM     16  O   LIG d   1     -15.549  75.581 119.437  0.00  0.00    -0.276 OA
ATOM     17  H   LIG d   1     -16.943  73.476 121.336  0.00  0.00     0.149 HD
ENDBRANCH   6  13
BRANCH   5  18
ATOM     18  N   LIG d   1     -16.969  73.215 117.644  0.00  0.00     0.381 N 
ATOM     19  H   LIG d   1     -17.532  73.923 118.069  0.00  0.00    -0.090 HD
ATOM     20  H   LIG d   1     -17.506  72.780 116.914  0.00  0.00    -0.090 HD
ATOM     21  H   LIG d   1     -16.143  73.621 117.262  0.00  0.00    -0.090 HD
ENDBRANCH   5  18
BRANCH   3  22
ATOM     22  C   LIG d   1     -15.278  68.783 118.308  0.00  0.00     0.382 C 
ATOM     23  O   LIG d   1     -14.160  68.217 118.255  0.00  0.00    -0.241 OA
ATOM     24  O   LIG d   1     -16.289  68.184 117.895  0.00  0.00    -0.241 OA
ENDBRANCH   3  22
TORSDOF 7
ENDMDL
MODEL 8
REMARK VINA RESULT:      -4.6      2.975      4.716
REMARK  7 active torsions:
REMARK  status: ('A' for Active; 'I' for Inactive)
REMARK    1  A    between atoms: C_2  and  C_3 
REMARK    2  A    between atoms: C_3  and  O_6 
REMARK    3  A    between atoms: C_3  and  C_4 
REMARK    4  A    between atoms: C_7  and  O_6 
REMARK    5  A    between atoms: C_9  and  C_10 
REMARK    6  A    between atoms: N_15  and  C_14 
REMARK    7  A    between atoms: N_20  and  C_19 
REMARK       I    between atoms: C_22  and  N_20 
ROOT
ATOM      1  C   LIG d   1      -0.298  60.843 121.680  0.00  0.00     0.161 C 
ATOM      2  C   LIG d   1      -0.440  61.147 120.316  0.00  0.00     0.016 C 
ATOM      3  C   LIG d   1      -1.428  60.567 119.488  0.00  0.00     0.038 C 
ATOM      4  C   LIG d   1      -2.443  59.750 120.007  0.00  0.00     0.028 C 
ATOM      5  C   LIG d   1      -2.039  59.016 121.281  0.00  0.00    -0.047 C 
ATOM      6  C   LIG d   1      -1.466  60.038 122.288  0.00  0.00     0.091 C 
ENDROOT
BRANCH   1   7
ATOM      7  O   LIG d   1      -0.079  62.053 122.431  0.00  0.00    -0.368 OA
BRANCH   7   8
ATOM      8  C   LIG d   1       1.194  62.713 122.219  0.00  0.00     0.119 C 
BRANCH   8   9
ATOM      9  C   LIG d   1       2.303  61.700 122.562  0.00  0.00     0.028 C 
ATOM     10  C   LIG d   1       3.463  61.736 121.553  0.00  0.00     0.006 C 
ENDBRANCH   8   9
BRANCH   8  11
ATOM     11  C   LIG d   1       1.389  63.875 123.198  0.00  0.00     0.028 C 
ATOM     12  C   LIG d   1       1.903  63.416 124.572  0.00  0.00     0.006 C 
ENDBRANCH   8  11
ENDBRANCH   7   8
ENDBRANCH   1   7
BRANCH   6  13
ATOM     13  N   LIG d   1      -0.968  59.392 123.531  0.00  0.00    -0.311 N 
ATOM     14  C   LIG d   1      -1.714  59.232 124.623  0.00  0.00     0.210 C 
ATOM     15  C   LIG d   1      -1.000  58.559 125.800  0.00  0.00     0.109 C 
ATOM     16  O   LIG d   1      -2.908  59.553 124.718  0.00  0.00    -0.276 OA
ATOM     17  H   LIG d   1      -0.019  59.073 123.531  0.00  0.00     0.149 HD
ENDBRANCH   6  13
BRANCH   5  18
ATOM     18  N   LIG d   1      -3.233  58.312 121.787  0.00  0.00     0.381 N 
ATOM     19  H   LIG d   1      -4.057  58.826 121.547  0.00  0.00    -0.090 HD
ATOM     20  H   LIG d   1      -3.177  58.257 122.789  0.00  0.00    -0.090 HD
ATOM     21  H   LIG d   1      -3.279  57.396 121.399  0.00  0.00    -0.090 HD
ENDBRANCH   5  18
BRANCH   3  22
ATOM     22  C   LIG d   1      -1.382  60.770 118.117  0.00  0.00     0.382 C 
ATOM     23  O   LIG d   1      -0.279  60.958 117.548  0.00  0.00    -0.241 OA
ATOM     24  O   LIG d   1      -2.432  60.813 117.449  0.00  0.00    -0.241 OA
ENDBRANCH   3  22
TORSDOF 7
ENDMDL
MODEL 9
REMARK VINA RESULT:      -4.5     31.159     33.276
REMARK  7 active torsions:
REMARK  status: ('A' for Active; 'I' for Inactive)
REMARK    1  A    between atoms: C_2  and  C_3 
REMARK    2  A    between atoms: C_3  and  O_6 
REMARK    3  A    between atoms: C_3  and  C_4 
REMARK    4  A    between atoms: C_7  and  O_6 
REMARK    5  A    between atoms: C_9  and  C_10 
REMARK    6  A    between atoms: N_15  and  C_14 
REMARK    7  A    between atoms: N_20  and  C_19 
REMARK       I    between atoms: C_22  and  N_20 
ROOT
ATOM      1  C   LIG d   1      -4.517  93.366 118.224  0.00  0.00     0.161 C 
ATOM      2  C   LIG d   1      -5.576  94.286 118.293  0.00  0.00     0.016 C 
ATOM      3  C   LIG d   1      -6.921  93.947 118.019  0.00  0.00     0.038 C 
ATOM      4  C   LIG d   1      -7.322  92.621 117.802  0.00  0.00     0.028 C 
ATOM      5  C   LIG d   1      -6.218  91.741 117.226  0.00  0.00    -0.047 C 
ATOM      6  C   LIG d   1      -4.950  91.890 118.098  0.00  0.00     0.091 C 
ENDROOT
BRANCH   1   7
ATOM      7  O   LIG d   1      -3.645  93.537 119.359  0.00  0.00    -0.368 OA
BRANCH   7   8
ATOM      8  C   LIG d   1      -4.223  93.246 120.655  0.00  0.00     0.119 C 
BRANCH   8   9
ATOM      9  C   LIG d   1      -3.962  94.465 121.562  0.00  0.00     0.028 C 
ATOM     10  C   LIG d   1      -3.092  95.531 120.876  0.00  0.00     0.006 C 
ENDBRANCH   8   9
BRANCH   8  11
ATOM     11  C   LIG d   1      -3.507  92.075 121.334  0.00  0.00     0.028 C 
ATOM     12  C   LIG d   1      -2.061  91.897 120.847  0.00  0.00     0.006 C 
ENDBRANCH   8  11
ENDBRANCH   7   8
ENDBRANCH   1   7
BRANCH   6  13
ATOM     13  N   LIG d   1      -3.796  91.128 117.555  0.00  0.00    -0.311 N 
ATOM     14  C   LIG d   1      -3.386  89.963 118.055  0.00  0.00     0.210 C 
ATOM     15  C   LIG d   1      -2.164  89.355 117.360  0.00  0.00     0.109 C 
ATOM     16  O   LIG d   1      -3.938  89.361 118.988  0.00  0.00    -0.276 OA
ATOM     17  H   LIG d   1      -3.309  91.528 116.777  0.00  0.00     0.149 HD
ENDBRANCH   6  13
BRANCH   5  18
ATOM     18  N   LIG d   1      -6.728  90.358 117.180  0.00  0.00     0.381 N 
ATOM     19  H   LIG d   1      -6.709  89.959 118.097  0.00  0.00    -0.090 HD
ATOM     20  H   LIG d   1      -6.131  89.810 116.586  0.00  0.00    -0.090 HD
ATOM     21  H   LIG d   1      -7.659  90.349 116.826  0.00  0.00    -0.090 HD
ENDBRANCH   5  18
BRANCH   3  22
ATOM     22  C   LIG d   1      -7.875  94.948 117.920  0.00  0.00     0.382 C 
ATOM     23  O   LIG d   1      -7.530  96.116 117.619  0.00  0.00    -0.241 OA
ATOM     24  O   LIG d   1      -9.071  94.708 118.172  0.00  0.00    -0.241 OA
ENDBRANCH   3  22
TORSDOF 7
ENDMDL
