MODEL 1
REMARK VINA RESULT:      -5.3      0.000      0.000
REMARK  7 active torsions:
REMARK  status: ('A' for Active; 'I' for Inactive)
REMARK    1  A    between atoms: C_2  and  C_3 
REMARK    2  A    between atoms: C_3  and  O_6 
REMARK    3  A    between atoms: C_3  and  C_4 
REMARK    4  A    between atoms: C_7  and  O_6 
REMARK    5  A    between atoms: C_9  and  C_10 
REMARK    6  A    between atoms: N_15  and  C_14 
REMARK    7  A    between atoms: N_20  and  C_19 
REMARK       I    between atoms: C_22  and  N_20 
ROOT
ATOM      1  C   LIG d   1      -0.597  60.562 120.818  0.00  0.00     0.161 C 
ATOM      2  C   LIG d   1      -1.958  60.298 120.593  0.00  0.00     0.016 C 
ATOM      3  C   LIG d   1      -2.425  59.433 119.577  0.00  0.00     0.038 C 
ATOM      4  C   LIG d   1      -1.550  58.651 118.809  0.00  0.00     0.028 C 
ATOM      5  C   LIG d   1      -0.161  59.264 118.661  0.00  0.00    -0.047 C 
ATOM      6  C   LIG d   1       0.376  59.633 120.063  0.00  0.00     0.091 C 
ENDROOT
BRANCH   1   7
ATOM      7  O   LIG d   1      -0.321  60.533 122.233  0.00  0.00    -0.368 OA
BRANCH   7   8
ATOM      8  C   LIG d   1       0.007  61.805 122.844  0.00  0.00     0.119 C 
BRANCH   8   9
ATOM      9  C   LIG d   1       1.146  61.554 123.852  0.00  0.00     0.028 C 
ATOM     10  C   LIG d   1       2.536  61.791 123.237  0.00  0.00     0.006 C 
ENDBRANCH   8   9
BRANCH   8  11
ATOM     11  C   LIG d   1      -1.161  62.341 123.678  0.00  0.00     0.028 C 
ATOM     12  C   LIG d   1      -0.861  63.706 124.316  0.00  0.00     0.006 C 
ENDBRANCH   8  11
ENDBRANCH   7   8
ENDBRANCH   1   7
BRANCH   6  13
ATOM     13  N   LIG d   1       1.695  60.316 120.003  0.00  0.00    -0.311 N 
ATOM     14  C   LIG d   1       2.858  59.667 120.029  0.00  0.00     0.210 C 
ATOM     15  C   LIG d   1       4.099  60.563 119.977  0.00  0.00     0.109 C 
ATOM     16  O   LIG d   1       2.979  58.433 120.058  0.00  0.00    -0.276 OA
ATOM     17  H   LIG d   1       1.689  61.315 119.947  0.00  0.00     0.149 HD
ENDBRANCH   6  13
BRANCH   5  18
ATOM     18  N   LIG d   1       0.686  58.283 117.957  0.00  0.00     0.381 N 
ATOM     19  H   LIG d   1       1.625  58.624 117.902  0.00  0.00    -0.090 HD
ATOM     20  H   LIG d   1       0.339  58.165 117.022  0.00  0.00    -0.090 HD
ATOM     21  H   LIG d   1       0.670  57.411 118.438  0.00  0.00    -0.090 HD
ENDBRANCH   5  18
BRANCH   3  22
ATOM     22  C   LIG d   1      -3.781  59.374 119.294  0.00  0.00     0.382 C 
ATOM     23  O   LIG d   1      -4.523  58.593 119.937  0.00  0.00    -0.241 OA
ATOM     24  O   LIG d   1      -4.265  60.060 118.374  0.00  0.00    -0.241 OA
ENDBRANCH   3  22
TORSDOF 7
ENDMDL
MODEL 2
REMARK VINA RESULT:      -5.2      1.879      5.053
REMARK  7 active torsions:
REMARK  status: ('A' for Active; 'I' for Inactive)
REMARK    1  A    between atoms: C_2  and  C_3 
REMARK    2  A    between atoms: C_3  and  O_6 
REMARK    3  A    between atoms: C_3  and  C_4 
REMARK    4  A    between atoms: C_7  and  O_6 
REMARK    5  A    between atoms: C_9  and  C_10 
REMARK    6  A    between atoms: N_15  and  C_14 
REMARK    7  A    between atoms: N_20  and  C_19 
REMARK       I    between atoms: C_22  and  N_20 
ROOT
ATOM      1  C   LIG d   1       0.040  60.724 121.681  0.00  0.00     0.161 C 
ATOM      2  C   LIG d   1       1.364  61.015 122.052  0.00  0.00     0.016 C 
ATOM      3  C   LIG d   1       2.488  60.652 121.275  0.00  0.00     0.038 C 
ATOM      4  C   LIG d   1       2.355  60.104 119.991  0.00  0.00     0.028 C 
ATOM      5  C   LIG d   1       1.054  59.333 119.792  0.00  0.00    -0.047 C 
ATOM      6  C   LIG d   1      -0.129  60.225 120.231  0.00  0.00     0.091 C 
ENDROOT
BRANCH   1   7
ATOM      7  O   LIG d   1      -0.797  61.873 121.917  0.00  0.00    -0.368 OA
BRANCH   7   8
ATOM      8  C   LIG d   1      -1.648  61.812 123.088  0.00  0.00     0.119 C 
BRANCH   8   9
ATOM      9  C   LIG d   1      -0.892  62.493 124.246  0.00  0.00     0.028 C 
ATOM     10  C   LIG d   1      -1.266  63.977 124.398  0.00  0.00     0.006 C 
ENDBRANCH   8   9
BRANCH   8  11
ATOM     11  C   LIG d   1      -1.867  60.366 123.543  0.00  0.00     0.028 C 
ATOM     12  C   LIG d   1      -3.287  59.857 123.248  0.00  0.00     0.006 C 
ENDBRANCH   8  11
ENDBRANCH   7   8
ENDBRANCH   1   7
BRANCH   6  13
ATOM     13  N   LIG d   1      -1.434  59.517 120.148  0.00  0.00    -0.311 N 
ATOM     14  C   LIG d   1      -2.449  59.937 119.395  0.00  0.00     0.210 C 
ATOM     15  C   LIG d   1      -3.711  59.071 119.471  0.00  0.00     0.109 C 
ATOM     16  O   LIG d   1      -2.414  60.926 118.647  0.00  0.00    -0.276 OA
ATOM     17  H   LIG d   1      -1.538  58.688 120.699  0.00  0.00     0.149 HD
ENDBRANCH   6  13
BRANCH   5  18
ATOM     18  N   LIG d   1       0.984  58.935 118.374  0.00  0.00     0.381 N 
ATOM     19  H   LIG d   1       1.744  58.322 118.156  0.00  0.00    -0.090 HD
ATOM     20  H   LIG d   1       1.068  59.757 117.801  0.00  0.00    -0.090 HD
ATOM     21  H   LIG d   1       0.117  58.480 118.190  0.00  0.00    -0.090 HD
ENDBRANCH   5  18
BRANCH   3  22
ATOM     22  C   LIG d   1       3.763  60.802 121.799  0.00  0.00     0.382 C 
ATOM     23  O   LIG d   1       4.318  61.927 121.786  0.00  0.00    -0.241 OA
ATOM     24  O   LIG d   1       4.382  59.817 122.245  0.00  0.00    -0.241 OA
ENDBRANCH   3  22
TORSDOF 7
ENDMDL
MODEL 3
REMARK VINA RESULT:      -4.8      2.534      4.277
REMARK  7 active torsions:
REMARK  status: ('A' for Active; 'I' for Inactive)
REMARK    1  A    between atoms: C_2  and  C_3 
REMARK    2  A    between atoms: C_3  and  O_6 
REMARK    3  A    between atoms: C_3  and  C_4 
REMARK    4  A    between atoms: C_7  and  O_6 
REMARK    5  A    between atoms: C_9  and  C_10 
REMARK    6  A    between atoms: N_15  and  C_14 
REMARK    7  A    between atoms: N_20  and  C_19 
REMARK       I    between atoms: C_22  and  N_20 
ROOT
ATOM      1  C   LIG d   1       0.405  59.193 121.324  0.00  0.00     0.161 C 
ATOM      2  C   LIG d   1       0.352  59.306 119.925  0.00  0.00     0.016 C 
ATOM      3  C   LIG d   1      -0.697  59.958 119.236  0.00  0.00     0.038 C 
ATOM      4  C   LIG d   1      -1.694  60.677 119.912  0.00  0.00     0.028 C 
ATOM      5  C   LIG d   1      -1.959  60.165 121.324  0.00  0.00    -0.047 C 
ATOM      6  C   LIG d   1      -0.616  60.068 122.083  0.00  0.00     0.091 C 
ENDROOT
BRANCH   1   7
ATOM      7  O   LIG d   1       1.742  59.469 121.786  0.00  0.00    -0.368 OA
BRANCH   7   8
ATOM      8  C   LIG d   1       2.209  60.829 121.612  0.00  0.00     0.119 C 
BRANCH   8   9
ATOM      9  C   LIG d   1       3.628  60.758 121.015  0.00  0.00     0.028 C 
ATOM     10  C   LIG d   1       3.633  60.949 119.489  0.00  0.00     0.006 C 
ENDBRANCH   8   9
BRANCH   8  11
ATOM     11  C   LIG d   1       2.371  61.540 122.958  0.00  0.00     0.028 C 
ATOM     12  C   LIG d   1       3.806  62.033 123.203  0.00  0.00     0.006 C 
ENDBRANCH   8  11
ENDBRANCH   7   8
ENDBRANCH   1   7
BRANCH   6  13
ATOM     13  N   LIG d   1      -0.774  59.495 123.445  0.00  0.00    -0.311 N 
ATOM     14  C   LIG d   1      -0.918  60.238 124.541  0.00  0.00     0.210 C 
ATOM     15  C   LIG d   1      -1.046  59.447 125.846  0.00  0.00     0.109 C 
ATOM     16  O   LIG d   1      -0.983  61.477 124.552  0.00  0.00    -0.276 OA
ATOM     17  H   LIG d   1      -0.764  58.497 123.524  0.00  0.00     0.149 HD
ENDBRANCH   6  13
BRANCH   5  18
ATOM     18  N   LIG d   1      -2.917  61.088 121.960  0.00  0.00     0.381 N 
ATOM     19  H   LIG d   1      -2.652  61.249 122.911  0.00  0.00    -0.090 HD
ATOM     20  H   LIG d   1      -3.829  60.665 121.955  0.00  0.00    -0.090 HD
ATOM     21  H   LIG d   1      -2.941  61.951 121.463  0.00  0.00    -0.090 HD
ENDBRANCH   5  18
BRANCH   3  22
ATOM     22  C   LIG d   1      -0.777  59.860 117.855  0.00  0.00     0.382 C 
ATOM     23  O   LIG d   1       0.259  59.651 117.180  0.00  0.00    -0.241 OA
ATOM     24  O   LIG d   1      -1.866  60.021 117.273  0.00  0.00    -0.241 OA
ENDBRANCH   3  22
TORSDOF 7
ENDMDL
MODEL 4
REMARK VINA RESULT:      -4.8     13.609     15.986
REMARK  7 active torsions:
REMARK  status: ('A' for Active; 'I' for Inactive)
REMARK    1  A    between atoms: C_2  and  C_3 
REMARK    2  A    between atoms: C_3  and  O_6 
REMARK    3  A    between atoms: C_3  and  C_4 
REMARK    4  A    between atoms: C_7  and  O_6 
REMARK    5  A    between atoms: C_9  and  C_10 
REMARK    6  A    between atoms: N_15  and  C_14 
REMARK    7  A    between atoms: N_20  and  C_19 
REMARK       I    between atoms: C_22  and  N_20 
ROOT
ATOM      1  C   LIG d   1     -13.775  67.184 122.273  0.00  0.00     0.161 C 
ATOM      2  C   LIG d   1     -12.741  67.018 123.210  0.00  0.00     0.016 C 
ATOM      3  C   LIG d   1     -11.825  65.941 123.174  0.00  0.00     0.038 C 
ATOM      4  C   LIG d   1     -11.788  65.035 122.105  0.00  0.00     0.028 C 
ATOM      5  C   LIG d   1     -13.131  64.870 121.403  0.00  0.00    -0.047 C 
ATOM      6  C   LIG d   1     -13.681  66.267 121.036  0.00  0.00     0.091 C 
ENDROOT
BRANCH   1   7
ATOM      7  O   LIG d   1     -13.850  68.566 121.868  0.00  0.00    -0.368 OA
BRANCH   7   8
ATOM      8  C   LIG d   1     -14.867  69.366 122.519  0.00  0.00     0.119 C 
BRANCH   8   9
ATOM      9  C   LIG d   1     -15.950  69.681 121.470  0.00  0.00     0.028 C 
ATOM     10  C   LIG d   1     -17.236  68.866 121.692  0.00  0.00     0.006 C 
ENDBRANCH   8   9
BRANCH   8  11
ATOM     11  C   LIG d   1     -14.313  70.727 122.951  0.00  0.00     0.028 C 
ATOM     12  C   LIG d   1     -15.328  71.867 122.774  0.00  0.00     0.006 C 
ENDBRANCH   8  11
ENDBRANCH   7   8
ENDBRANCH   1   7
BRANCH   6  13
ATOM     13  N   LIG d   1     -15.032  66.201 120.421  0.00  0.00    -0.311 N 
ATOM     14  C   LIG d   1     -15.324  66.729 119.233  0.00  0.00     0.210 C 
ATOM     15  C   LIG d   1     -16.782  66.566 118.794  0.00  0.00     0.109 C 
ATOM     16  O   LIG d   1     -14.505  67.288 118.488  0.00  0.00    -0.276 OA
ATOM     17  H   LIG d   1     -15.749  65.738 120.944  0.00  0.00     0.149 HD
ENDBRANCH   6  13
BRANCH   5  18
ATOM     18  N   LIG d   1     -12.917  64.005 120.227  0.00  0.00     0.381 N 
ATOM     19  H   LIG d   1     -13.490  63.189 120.298  0.00  0.00    -0.090 HD
ATOM     20  H   LIG d   1     -11.955  63.715 120.208  0.00  0.00    -0.090 HD
ATOM     21  H   LIG d   1     -13.138  64.504 119.393  0.00  0.00    -0.090 HD
ENDBRANCH   5  18
BRANCH   3  22
ATOM     22  C   LIG d   1     -10.959  65.741 124.238  0.00  0.00     0.382 C 
ATOM     23  O   LIG d   1      -9.991  64.951 124.119  0.00  0.00    -0.241 OA
ATOM     24  O   LIG d   1     -11.158  66.306 125.330  0.00  0.00    -0.241 OA
ENDBRANCH   3  22
TORSDOF 7
ENDMDL
MODEL 5
REMARK VINA RESULT:      -4.7     18.509     20.793
REMARK  7 active torsions:
REMARK  status: ('A' for Active; 'I' for Inactive)
REMARK    1  A    between atoms: C_2  and  C_3 
REMARK    2  A    between atoms: C_3  and  O_6 
REMARK    3  A    between atoms: C_3  and  C_4 
REMARK    4  A    between atoms: C_7  and  O_6 
REMARK    5  A    between atoms: C_9  and  C_10 
REMARK    6  A    between atoms: N_15  and  C_14 
REMARK    7  A    between atoms: N_20  and  C_19 
REMARK       I    between atoms: C_22  and  N_20 
ROOT
ATOM      1  C   LIG d   1      -9.333  78.358 118.805  0.00  0.00     0.161 C 
ATOM      2  C   LIG d   1      -8.963  77.293 117.968  0.00  0.00     0.016 C 
ATOM      3  C   LIG d   1      -9.065  75.934 118.346  0.00  0.00     0.038 C 
ATOM      4  C   LIG d   1      -9.690  75.542 119.539  0.00  0.00     0.028 C 
ATOM      5  C   LIG d   1      -9.620  76.599 120.636  0.00  0.00    -0.047 C 
ATOM      6  C   LIG d   1     -10.120  77.946 120.067  0.00  0.00     0.091 C 
ENDROOT
BRANCH   1   7
ATOM      7  O   LIG d   1     -10.073  79.338 118.050  0.00  0.00    -0.368 OA
BRANCH   7   8
ATOM      8  C   LIG d   1      -9.311  80.463 117.546  0.00  0.00     0.119 C 
BRANCH   8   9
ATOM      9  C   LIG d   1      -8.127  80.687 118.506  0.00  0.00     0.028 C 
ATOM     10  C   LIG d   1      -6.767  80.492 117.815  0.00  0.00     0.006 C 
ENDBRANCH   8   9
BRANCH   8  11
ATOM     11  C   LIG d   1     -10.127  81.758 117.600  0.00  0.00     0.028 C 
ATOM     12  C   LIG d   1     -10.171  82.377 119.006  0.00  0.00     0.006 C 
ENDBRANCH   8  11
ENDBRANCH   7   8
ENDBRANCH   1   7
BRANCH   6  13
ATOM     13  N   LIG d   1     -10.006  79.055 121.050  0.00  0.00    -0.311 N 
ATOM     14  C   LIG d   1     -10.963  79.362 121.924  0.00  0.00     0.210 C 
ATOM     15  C   LIG d   1     -10.650  80.553 122.834  0.00  0.00     0.109 C 
ATOM     16  O   LIG d   1     -12.029  78.740 122.052  0.00  0.00    -0.276 OA
ATOM     17  H   LIG d   1      -9.161  79.592 121.036  0.00  0.00     0.149 HD
ENDBRANCH   6  13
BRANCH   5  18
ATOM     18  N   LIG d   1     -10.427  76.116 121.772  0.00  0.00     0.381 N 
ATOM     19  H   LIG d   1     -10.899  76.886 122.204  0.00  0.00    -0.090 HD
ATOM     20  H   LIG d   1      -9.815  75.700 122.452  0.00  0.00    -0.090 HD
ATOM     21  H   LIG d   1     -11.092  75.444 121.458  0.00  0.00    -0.090 HD
ENDBRANCH   5  18
BRANCH   3  22
ATOM     22  C   LIG d   1      -8.503  74.953 117.544  0.00  0.00     0.382 C 
ATOM     23  O   LIG d   1      -9.178  73.948 117.216  0.00  0.00    -0.241 OA
ATOM     24  O   LIG d   1      -7.314  75.040 117.180  0.00  0.00    -0.241 OA
ENDBRANCH   3  22
TORSDOF 7
ENDMDL
MODEL 6
REMARK VINA RESULT:      -4.5      2.895      4.538
REMARK  7 active torsions:
REMARK  status: ('A' for Active; 'I' for Inactive)
REMARK    1  A    between atoms: C_2  and  C_3 
REMARK    2  A    between atoms: C_3  and  O_6 
REMARK    3  A    between atoms: C_3  and  C_4 
REMARK    4  A    between atoms: C_7  and  O_6 
REMARK    5  A    between atoms: C_9  and  C_10 
REMARK    6  A    between atoms: N_15  and  C_14 
REMARK    7  A    between atoms: N_20  and  C_19 
REMARK       I    between atoms: C_22  and  N_20 
ROOT
ATOM      1  C   LIG d   1      -0.286  58.198 120.798  0.00  0.00     0.161 C 
ATOM      2  C   LIG d   1      -1.554  58.396 120.227  0.00  0.00     0.016 C 
ATOM      3  C   LIG d   1      -1.791  59.269 119.141  0.00  0.00     0.038 C 
ATOM      4  C   LIG d   1      -0.742  59.892 118.449  0.00  0.00     0.028 C 
ATOM      5  C   LIG d   1       0.500  60.117 119.305  0.00  0.00    -0.047 C 
ATOM      6  C   LIG d   1       0.888  58.784 119.986  0.00  0.00     0.091 C 
ENDROOT
BRANCH   1   7
ATOM      7  O   LIG d   1      -0.074  56.793 121.042  0.00  0.00    -0.368 OA
BRANCH   7   8
ATOM      8  C   LIG d   1      -0.510  55.891 119.995  0.00  0.00     0.119 C 
BRANCH   8   9
ATOM      9  C   LIG d   1      -1.169  54.676 120.676  0.00  0.00     0.028 C 
ATOM     10  C   LIG d   1      -0.785  54.556 122.161  0.00  0.00     0.006 C 
ENDBRANCH   8   9
BRANCH   8  11
ATOM     11  C   LIG d   1       0.680  55.324 119.216  0.00  0.00     0.028 C 
ATOM     12  C   LIG d   1       0.828  55.946 117.818  0.00  0.00     0.006 C 
ENDBRANCH   8  11
ENDBRANCH   7   8
ENDBRANCH   1   7
BRANCH   6  13
ATOM     13  N   LIG d   1       2.043  58.934 120.909  0.00  0.00    -0.311 N 
ATOM     14  C   LIG d   1       3.176  58.245 120.783  0.00  0.00     0.210 C 
ATOM     15  C   LIG d   1       4.233  58.537 121.853  0.00  0.00     0.109 C 
ATOM     16  O   LIG d   1       3.419  57.444 119.868  0.00  0.00    -0.276 OA
ATOM     17  H   LIG d   1       1.944  59.587 121.661  0.00  0.00     0.149 HD
ENDBRANCH   6  13
BRANCH   5  18
ATOM     18  N   LIG d   1       1.559  60.646 118.425  0.00  0.00     0.381 N 
ATOM     19  H   LIG d   1       1.296  60.523 117.468  0.00  0.00    -0.090 HD
ATOM     20  H   LIG d   1       2.405  60.131 118.589  0.00  0.00    -0.090 HD
ATOM     21  H   LIG d   1       1.708  61.613 118.615  0.00  0.00    -0.090 HD
ENDBRANCH   5  18
BRANCH   3  22
ATOM     22  C   LIG d   1      -3.093  59.556 118.761  0.00  0.00     0.382 C 
ATOM     23  O   LIG d   1      -3.318  60.479 117.942  0.00  0.00    -0.241 OA
ATOM     24  O   LIG d   1      -4.049  58.933 119.261  0.00  0.00    -0.241 OA
ENDBRANCH   3  22
TORSDOF 7
ENDMDL
MODEL 7
REMARK VINA RESULT:      -4.5      2.820      4.714
REMARK  7 active torsions:
REMARK  status: ('A' for Active; 'I' for Inactive)
REMARK    1  A    between atoms: C_2  and  C_3 
REMARK    2  A    between atoms: C_3  and  O_6 
REMARK    3  A    between atoms: C_3  and  C_4 
REMARK    4  A    between atoms: C_7  and  O_6 
REMARK    5  A    between atoms: C_9  and  C_10 
REMARK    6  A    between atoms: N_15  and  C_14 
REMARK    7  A    between atoms: N_20  and  C_19 
REMARK       I    between atoms: C_22  and  N_20 
ROOT
ATOM      1  C   LIG d   1      -1.381  61.189 122.311  0.00  0.00     0.161 C 
ATOM      2  C   LIG d   1      -0.295  61.078 121.427  0.00  0.00     0.016 C 
ATOM      3  C   LIG d   1      -0.385  60.463 120.157  0.00  0.00     0.038 C 
ATOM      4  C   LIG d   1      -1.612  60.047 119.620  0.00  0.00     0.028 C 
ATOM      5  C   LIG d   1      -2.645  59.680 120.681  0.00  0.00    -0.047 C 
ATOM      6  C   LIG d   1      -2.753  60.840 121.697  0.00  0.00     0.091 C 
ENDROOT
BRANCH   1   7
ATOM      7  O   LIG d   1      -1.411  62.510 122.886  0.00  0.00    -0.368 OA
BRANCH   7   8
ATOM      8  C   LIG d   1      -0.488  62.751 123.977  0.00  0.00     0.119 C 
BRANCH   8   9
ATOM      9  C   LIG d   1      -0.840  61.764 125.107  0.00  0.00     0.028 C 
ATOM     10  C   LIG d   1      -2.088  62.195 125.895  0.00  0.00     0.006 C 
ENDBRANCH   8   9
BRANCH   8  11
ATOM     11  C   LIG d   1      -0.689  64.145 124.579  0.00  0.00     0.028 C 
ATOM     12  C   LIG d   1       0.498  64.597 125.444  0.00  0.00     0.006 C 
ENDBRANCH   8  11
ENDBRANCH   7   8
ENDBRANCH   1   7
BRANCH   6  13
ATOM     13  N   LIG d   1      -3.681  60.529 122.816  0.00  0.00    -0.311 N 
ATOM     14  C   LIG d   1      -3.444  59.582 123.722  0.00  0.00     0.210 C 
ATOM     15  C   LIG d   1      -4.539  59.411 124.779  0.00  0.00     0.109 C 
ATOM     16  O   LIG d   1      -2.416  58.890 123.770  0.00  0.00    -0.276 OA
ATOM     17  H   LIG d   1      -4.525  61.064 122.871  0.00  0.00     0.149 HD
ENDBRANCH   6  13
BRANCH   5  18
ATOM     18  N   LIG d   1      -3.916  59.399 119.987  0.00  0.00     0.381 N 
ATOM     19  H   LIG d   1      -3.752  58.780 119.218  0.00  0.00    -0.090 HD
ATOM     20  H   LIG d   1      -4.287  60.260 119.625  0.00  0.00    -0.090 HD
ATOM     21  H   LIG d   1      -4.566  58.989 120.620  0.00  0.00    -0.090 HD
ENDBRANCH   5  18
BRANCH   3  22
ATOM     22  C   LIG d   1       0.769  60.222 119.427  0.00  0.00     0.382 C 
ATOM     23  O   LIG d   1       0.819  60.532 118.213  0.00  0.00    -0.241 OA
ATOM     24  O   LIG d   1       1.745  59.657 119.957  0.00  0.00    -0.241 OA
ENDBRANCH   3  22
TORSDOF 7
ENDMDL
MODEL 8
REMARK VINA RESULT:      -4.5      2.279      4.293
REMARK  7 active torsions:
REMARK  status: ('A' for Active; 'I' for Inactive)
REMARK    1  A    between atoms: C_2  and  C_3 
REMARK    2  A    between atoms: C_3  and  O_6 
REMARK    3  A    between atoms: C_3  and  C_4 
REMARK    4  A    between atoms: C_7  and  O_6 
REMARK    5  A    between atoms: C_9  and  C_10 
REMARK    6  A    between atoms: N_15  and  C_14 
REMARK    7  A    between atoms: N_20  and  C_19 
REMARK       I    between atoms: C_22  and  N_20 
ROOT
ATOM      1  C   LIG d   1      -0.319  58.887 121.630  0.00  0.00     0.161 C 
ATOM      2  C   LIG d   1      -1.270  58.731 120.608  0.00  0.00     0.016 C 
ATOM      3  C   LIG d   1      -2.430  59.531 120.495  0.00  0.00     0.038 C 
ATOM      4  C   LIG d   1      -2.642  60.648 121.316  0.00  0.00     0.028 C 
ATOM      5  C   LIG d   1      -1.964  60.537 122.678  0.00  0.00    -0.047 C 
ATOM      6  C   LIG d   1      -0.477  60.172 122.469  0.00  0.00     0.091 C 
ENDROOT
BRANCH   1   7
ATOM      7  O   LIG d   1       1.010  58.810 121.077  0.00  0.00    -0.368 OA
BRANCH   7   8
ATOM      8  C   LIG d   1       1.559  60.048 120.562  0.00  0.00     0.119 C 
BRANCH   8   9
ATOM      9  C   LIG d   1       1.672  59.904 119.032  0.00  0.00     0.028 C 
ATOM     10  C   LIG d   1       0.524  60.609 118.290  0.00  0.00     0.006 C 
ENDBRANCH   8   9
BRANCH   8  11
ATOM     11  C   LIG d   1       2.992  60.270 121.056  0.00  0.00     0.028 C 
ATOM     12  C   LIG d   1       3.959  60.653 119.924  0.00  0.00     0.006 C 
ENDBRANCH   8  11
ENDBRANCH   7   8
ENDBRANCH   1   7
BRANCH   6  13
ATOM     13  N   LIG d   1       0.241  59.961 123.754  0.00  0.00    -0.311 N 
ATOM     14  C   LIG d   1       0.984  60.898 124.340  0.00  0.00     0.210 C 
ATOM     15  C   LIG d   1       1.653  60.467 125.649  0.00  0.00     0.109 C 
ATOM     16  O   LIG d   1       1.126  62.056 123.918  0.00  0.00    -0.276 OA
ATOM     17  H   LIG d   1       0.155  59.060 124.182  0.00  0.00     0.149 HD
ENDBRANCH   6  13
BRANCH   5  18
ATOM     18  N   LIG d   1      -2.152  61.823 123.375  0.00  0.00     0.381 N 
ATOM     19  H   LIG d   1      -2.581  61.667 124.265  0.00  0.00    -0.090 HD
ATOM     20  H   LIG d   1      -2.762  62.404 122.828  0.00  0.00    -0.090 HD
ATOM     21  H   LIG d   1      -1.273  62.276 123.498  0.00  0.00    -0.090 HD
ENDBRANCH   5  18
BRANCH   3  22
ATOM     22  C   LIG d   1      -3.413  59.191 119.578  0.00  0.00     0.382 C 
ATOM     23  O   LIG d   1      -3.211  59.360 118.351  0.00  0.00    -0.241 OA
ATOM     24  O   LIG d   1      -4.515  58.759 119.964  0.00  0.00    -0.241 OA
ENDBRANCH   3  22
TORSDOF 7
ENDMDL
MODEL 9
REMARK VINA RESULT:      -4.4     18.765     21.163
REMARK  7 active torsions:
REMARK  status: ('A' for Active; 'I' for Inactive)
REMARK    1  A    between atoms: C_2  and  C_3 
REMARK    2  A    between atoms: C_3  and  O_6 
REMARK    3  A    between atoms: C_3  and  C_4 
REMARK    4  A    between atoms: C_7  and  O_6 
REMARK    5  A    between atoms: C_9  and  C_10 
REMARK    6  A    between atoms: N_15  and  C_14 
REMARK    7  A    between atoms: N_20  and  C_19 
REMARK       I    between atoms: C_22  and  N_20 
ROOT
ATOM      1  C   LIG d   1      -9.436  78.686 120.766  0.00  0.00     0.161 C 
ATOM      2  C   LIG d   1      -9.518  79.789 121.633  0.00  0.00     0.016 C 
ATOM      3  C   LIG d   1      -9.649  81.123 121.184  0.00  0.00     0.038 C 
ATOM      4  C   LIG d   1      -9.862  81.433 119.833  0.00  0.00     0.028 C 
ATOM      5  C   LIG d   1      -9.282  80.398 118.875  0.00  0.00    -0.047 C 
ATOM      6  C   LIG d   1      -9.778  78.995 119.294  0.00  0.00     0.091 C 
ENDROOT
BRANCH   1   7
ATOM      7  O   LIG d   1     -10.265  77.615 121.259  0.00  0.00    -0.368 OA
BRANCH   7   8
ATOM      8  C   LIG d   1      -9.568  76.451 121.766  0.00  0.00     0.119 C 
BRANCH   8   9
ATOM      9  C   LIG d   1     -10.403  75.211 121.391  0.00  0.00     0.028 C 
ATOM     10  C   LIG d   1      -9.636  74.240 120.478  0.00  0.00     0.006 C 
ENDBRANCH   8   9
BRANCH   8  11
ATOM     11  C   LIG d   1      -9.514  76.455 123.296  0.00  0.00     0.028 C 
ATOM     12  C   LIG d   1      -8.627  75.336 123.865  0.00  0.00     0.006 C 
ENDBRANCH   8  11
ENDBRANCH   7   8
ENDBRANCH   1   7
BRANCH   6  13
ATOM     13  N   LIG d   1      -9.190  77.914 118.460  0.00  0.00    -0.311 N 
ATOM     14  C   LIG d   1      -9.890  76.876 118.005  0.00  0.00     0.210 C 
ATOM     15  C   LIG d   1      -9.087  75.866 117.180  0.00  0.00     0.109 C 
ATOM     16  O   LIG d   1     -11.107  76.713 118.179  0.00  0.00    -0.276 OA
ATOM     17  H   LIG d   1      -8.215  77.983 118.244  0.00  0.00     0.149 HD
ENDBRANCH   6  13
BRANCH   5  18
ATOM     18  N   LIG d   1      -9.695  80.773 117.510  0.00  0.00     0.381 N 
ATOM     19  H   LIG d   1      -9.601  79.986 116.899  0.00  0.00    -0.090 HD
ATOM     20  H   LIG d   1      -9.090  81.504 117.177  0.00  0.00    -0.090 HD
ATOM     21  H   LIG d   1     -10.639  81.090 117.514  0.00  0.00    -0.090 HD
ENDBRANCH   5  18
BRANCH   3  22
ATOM     22  C   LIG d   1      -9.529  82.167 122.089  0.00  0.00     0.382 C 
ATOM     23  O   LIG d   1     -10.093  83.264 121.859  0.00  0.00    -0.241 OA
ATOM     24  O   LIG d   1      -8.825  82.041 123.109  0.00  0.00    -0.241 OA
ENDBRANCH   3  22
TORSDOF 7
ENDMDL
