MODEL 1
REMARK VINA RESULT:      -4.6      0.000      0.000
REMARK  7 active torsions:
REMARK  status: ('A' for Active; 'I' for Inactive)
REMARK    1  A    between atoms: C_2  and  C_3 
REMARK    2  A    between atoms: C_3  and  O_6 
REMARK    3  A    between atoms: C_3  and  C_4 
REMARK    4  A    between atoms: C_7  and  O_6 
REMARK    5  A    between atoms: C_9  and  C_10 
REMARK    6  A    between atoms: N_15  and  C_14 
REMARK    7  A    between atoms: N_20  and  C_19 
REMARK       I    between atoms: C_22  and  N_20 
ROOT
ATOM      1  C   LIG d   1       0.810  59.565 120.730  0.00  0.00     0.161 C 
ATOM      2  C   LIG d   1       2.077  59.803 121.286  0.00  0.00     0.016 C 
ATOM      3  C   LIG d   1       3.281  59.701 120.551  0.00  0.00     0.038 C 
ATOM      4  C   LIG d   1       3.287  59.500 119.163  0.00  0.00     0.028 C 
ATOM      5  C   LIG d   1       2.059  58.754 118.653  0.00  0.00    -0.047 C 
ATOM      6  C   LIG d   1       0.789  59.453 119.191  0.00  0.00     0.091 C 
ENDROOT
BRANCH   1   7
ATOM      7  O   LIG d   1      -0.116  60.578 121.171  0.00  0.00    -0.368 OA
BRANCH   7   8
ATOM      8  C   LIG d   1      -0.853  60.283 122.383  0.00  0.00     0.119 C 
BRANCH   8   9
ATOM      9  C   LIG d   1      -2.292  59.915 121.971  0.00  0.00     0.028 C 
ATOM     10  C   LIG d   1      -2.547  58.399 122.022  0.00  0.00     0.006 C 
ENDBRANCH   8   9
BRANCH   8  11
ATOM     11  C   LIG d   1      -0.991  61.526 123.268  0.00  0.00     0.028 C 
ATOM     12  C   LIG d   1       0.271  61.808 124.099  0.00  0.00     0.006 C 
ENDBRANCH   8  11
ENDBRANCH   7   8
ENDBRANCH   1   7
BRANCH   6  13
ATOM     13  N   LIG d   1      -0.457  58.738 118.809  0.00  0.00    -0.311 N 
ATOM     14  C   LIG d   1      -1.530  59.350 118.312  0.00  0.00     0.210 C 
ATOM     15  C   LIG d   1      -2.715  58.429 118.003  0.00  0.00     0.109 C 
ATOM     16  O   LIG d   1      -1.603  60.564 118.067  0.00  0.00    -0.276 OA
ATOM     17  H   LIG d   1      -0.473  57.746 118.945  0.00  0.00     0.149 HD
ENDBRANCH   6  13
BRANCH   5  18
ATOM     18  N   LIG d   1       2.128  58.735 117.180  0.00  0.00     0.381 N 
ATOM     19  H   LIG d   1       1.565  57.989 116.824  0.00  0.00    -0.090 HD
ATOM     20  H   LIG d   1       3.080  58.574 116.901  0.00  0.00    -0.090 HD
ATOM     21  H   LIG d   1       1.810  59.605 116.812  0.00  0.00    -0.090 HD
ENDBRANCH   5  18
BRANCH   3  22
ATOM     22  C   LIG d   1       4.498  59.761 121.213  0.00  0.00     0.382 C 
ATOM     23  O   LIG d   1       4.797  60.779 121.883  0.00  0.00    -0.241 OA
ATOM     24  O   LIG d   1       5.318  58.830 121.113  0.00  0.00    -0.241 OA
ENDBRANCH   3  22
TORSDOF 7
ENDMDL
MODEL 2
REMARK VINA RESULT:      -4.5      1.704      5.067
REMARK  7 active torsions:
REMARK  status: ('A' for Active; 'I' for Inactive)
REMARK    1  A    between atoms: C_2  and  C_3 
REMARK    2  A    between atoms: C_3  and  O_6 
REMARK    3  A    between atoms: C_3  and  C_4 
REMARK    4  A    between atoms: C_7  and  O_6 
REMARK    5  A    between atoms: C_9  and  C_10 
REMARK    6  A    between atoms: N_15  and  C_14 
REMARK    7  A    between atoms: N_20  and  C_19 
REMARK       I    between atoms: C_22  and  N_20 
ROOT
ATOM      1  C   LIG d   1      -0.474  59.525 120.394  0.00  0.00     0.161 C 
ATOM      2  C   LIG d   1      -1.649  59.336 119.647  0.00  0.00     0.016 C 
ATOM      3  C   LIG d   1      -1.653  58.946 118.288  0.00  0.00     0.038 C 
ATOM      4  C   LIG d   1      -0.477  58.570 117.622  0.00  0.00     0.028 C 
ATOM      5  C   LIG d   1       0.777  59.228 118.186  0.00  0.00    -0.047 C 
ATOM      6  C   LIG d   1       0.813  59.011 119.716  0.00  0.00     0.091 C 
ENDROOT
BRANCH   1   7
ATOM      7  O   LIG d   1      -0.625  58.931 121.699  0.00  0.00    -0.368 OA
BRANCH   7   8
ATOM      8  C   LIG d   1      -1.215  59.774 122.719  0.00  0.00     0.119 C 
BRANCH   8   9
ATOM      9  C   LIG d   1      -0.408  61.086 122.759  0.00  0.00     0.028 C 
ATOM     10  C   LIG d   1       0.845  60.977 123.643  0.00  0.00     0.006 C 
ENDBRANCH   8   9
BRANCH   8  11
ATOM     11  C   LIG d   1      -1.057  59.157 124.112  0.00  0.00     0.028 C 
ATOM     12  C   LIG d   1      -2.396  58.724 124.728  0.00  0.00     0.006 C 
ENDBRANCH   8  11
ENDBRANCH   7   8
ENDBRANCH   1   7
BRANCH   6  13
ATOM     13  N   LIG d   1       1.964  59.696 120.359  0.00  0.00    -0.311 N 
ATOM     14  C   LIG d   1       2.877  59.062 121.094  0.00  0.00     0.210 C 
ATOM     15  C   LIG d   1       3.970  59.960 121.682  0.00  0.00     0.109 C 
ATOM     16  O   LIG d   1       2.903  57.837 121.288  0.00  0.00    -0.276 OA
ATOM     17  H   LIG d   1       2.038  60.685 120.227  0.00  0.00     0.149 HD
ENDBRANCH   6  13
BRANCH   5  18
ATOM     18  N   LIG d   1       1.939  58.643 117.491  0.00  0.00     0.381 N 
ATOM     19  H   LIG d   1       2.437  58.039 118.114  0.00  0.00    -0.090 HD
ATOM     20  H   LIG d   1       2.557  59.384 117.210  0.00  0.00    -0.090 HD
ATOM     21  H   LIG d   1       1.636  58.132 116.691  0.00  0.00    -0.090 HD
ENDBRANCH   5  18
BRANCH   3  22
ATOM     22  C   LIG d   1      -2.839  58.969 117.570  0.00  0.00     0.382 C 
ATOM     23  O   LIG d   1      -3.410  57.894 117.269  0.00  0.00    -0.241 OA
ATOM     24  O   LIG d   1      -3.321  60.050 117.181  0.00  0.00    -0.241 OA
ENDBRANCH   3  22
TORSDOF 7
ENDMDL
MODEL 3
REMARK VINA RESULT:      -4.5     20.249     22.328
REMARK  7 active torsions:
REMARK  status: ('A' for Active; 'I' for Inactive)
REMARK    1  A    between atoms: C_2  and  C_3 
REMARK    2  A    between atoms: C_3  and  O_6 
REMARK    3  A    between atoms: C_3  and  C_4 
REMARK    4  A    between atoms: C_7  and  O_6 
REMARK    5  A    between atoms: C_9  and  C_10 
REMARK    6  A    between atoms: N_15  and  C_14 
REMARK    7  A    between atoms: N_20  and  C_19 
REMARK       I    between atoms: C_22  and  N_20 
ROOT
ATOM      1  C   LIG d   1      -8.116  78.994 118.415  0.00  0.00     0.161 C 
ATOM      2  C   LIG d   1      -8.620  77.747 118.010  0.00  0.00     0.016 C 
ATOM      3  C   LIG d   1      -9.854  77.223 118.459  0.00  0.00     0.038 C 
ATOM      4  C   LIG d   1     -10.745  77.982 119.232  0.00  0.00     0.028 C 
ATOM      5  C   LIG d   1     -10.056  79.048 120.078  0.00  0.00    -0.047 C 
ATOM      6  C   LIG d   1      -9.126  79.884 119.171  0.00  0.00     0.091 C 
ENDROOT
BRANCH   1   7
ATOM      7  O   LIG d   1      -7.581  79.698 117.278  0.00  0.00    -0.368 OA
BRANCH   7   8
ATOM      8  C   LIG d   1      -6.137  79.809 117.218  0.00  0.00     0.119 C 
BRANCH   8   9
ATOM      9  C   LIG d   1      -5.562  78.992 118.392  0.00  0.00     0.028 C 
ATOM     10  C   LIG d   1      -4.676  77.828 117.918  0.00  0.00     0.006 C 
ENDBRANCH   8   9
BRANCH   8  11
ATOM     11  C   LIG d   1      -5.678  81.249 117.463  0.00  0.00     0.028 C 
ATOM     12  C   LIG d   1      -4.889  81.409 118.772  0.00  0.00     0.006 C 
ENDBRANCH   8  11
ENDBRANCH   7   8
ENDBRANCH   1   7
BRANCH   6  13
ATOM     13  N   LIG d   1      -8.349  80.896 119.934  0.00  0.00    -0.311 N 
ATOM     14  C   LIG d   1      -8.500  82.210 119.774  0.00  0.00     0.210 C 
ATOM     15  C   LIG d   1      -7.587  83.076 120.647  0.00  0.00     0.109 C 
ATOM     16  O   LIG d   1      -9.327  82.739 119.016  0.00  0.00    -0.276 OA
ATOM     17  H   LIG d   1      -7.679  80.553 120.594  0.00  0.00     0.149 HD
ENDBRANCH   6  13
BRANCH   5  18
ATOM     18  N   LIG d   1     -11.110  79.852 120.724  0.00  0.00     0.381 N 
ATOM     19  H   LIG d   1     -11.783  79.248 121.152  0.00  0.00    -0.090 HD
ATOM     20  H   LIG d   1     -11.577  80.400 120.023  0.00  0.00    -0.090 HD
ATOM     21  H   LIG d   1     -10.708  80.452 121.411  0.00  0.00    -0.090 HD
ENDBRANCH   5  18
BRANCH   3  22
ATOM     22  C   LIG d   1     -10.189  75.909 118.167  0.00  0.00     0.382 C 
ATOM     23  O   LIG d   1     -11.369  75.618 117.856  0.00  0.00    -0.241 OA
ATOM     24  O   LIG d   1      -9.336  75.005 118.253  0.00  0.00    -0.241 OA
ENDBRANCH   3  22
TORSDOF 7
ENDMDL
MODEL 4
REMARK VINA RESULT:      -4.5      3.189      5.405
REMARK  7 active torsions:
REMARK  status: ('A' for Active; 'I' for Inactive)
REMARK    1  A    between atoms: C_2  and  C_3 
REMARK    2  A    between atoms: C_3  and  O_6 
REMARK    3  A    between atoms: C_3  and  C_4 
REMARK    4  A    between atoms: C_7  and  O_6 
REMARK    5  A    between atoms: C_9  and  C_10 
REMARK    6  A    between atoms: N_15  and  C_14 
REMARK    7  A    between atoms: N_20  and  C_19 
REMARK       I    between atoms: C_22  and  N_20 
ROOT
ATOM      1  C   LIG d   1       0.179  57.117 120.005  0.00  0.00     0.161 C 
ATOM      2  C   LIG d   1      -0.637  58.253 120.135  0.00  0.00     0.016 C 
ATOM      3  C   LIG d   1      -0.421  59.452 119.418  0.00  0.00     0.038 C 
ATOM      4  C   LIG d   1       0.542  59.546 118.403  0.00  0.00     0.028 C 
ATOM      5  C   LIG d   1       1.715  58.590 118.591  0.00  0.00    -0.047 C 
ATOM      6  C   LIG d   1       1.167  57.163 118.821  0.00  0.00     0.091 C 
ENDROOT
BRANCH   1   7
ATOM      7  O   LIG d   1      -0.640  55.933 119.929  0.00  0.00    -0.368 OA
BRANCH   7   8
ATOM      8  C   LIG d   1      -1.952  56.103 119.338  0.00  0.00     0.119 C 
BRANCH   8   9
ATOM      9  C   LIG d   1      -2.945  55.268 120.170  0.00  0.00     0.028 C 
ATOM     10  C   LIG d   1      -3.739  56.125 121.169  0.00  0.00     0.006 C 
ENDBRANCH   8   9
BRANCH   8  11
ATOM     11  C   LIG d   1      -2.008  55.512 117.926  0.00  0.00     0.028 C 
ATOM     12  C   LIG d   1      -1.505  54.061 117.867  0.00  0.00     0.006 C 
ENDBRANCH   8  11
ENDBRANCH   7   8
ENDBRANCH   1   7
BRANCH   6  13
ATOM     13  N   LIG d   1       2.247  56.179 119.097  0.00  0.00    -0.311 N 
ATOM     14  C   LIG d   1       2.495  55.126 118.320  0.00  0.00     0.210 C 
ATOM     15  C   LIG d   1       3.640  54.227 118.797  0.00  0.00     0.109 C 
ATOM     16  O   LIG d   1       1.898  54.869 117.264  0.00  0.00    -0.276 OA
ATOM     17  H   LIG d   1       2.801  56.328 119.918  0.00  0.00     0.149 HD
ENDBRANCH   6  13
BRANCH   5  18
ATOM     18  N   LIG d   1       2.571  58.694 117.394  0.00  0.00     0.381 N 
ATOM     19  H   LIG d   1       3.230  59.438 117.513  0.00  0.00    -0.090 HD
ATOM     20  H   LIG d   1       1.995  58.907 116.599  0.00  0.00    -0.090 HD
ATOM     21  H   LIG d   1       3.053  57.836 117.243  0.00  0.00    -0.090 HD
ENDBRANCH   5  18
BRANCH   3  22
ATOM     22  C   LIG d   1      -1.149  60.587 119.743  0.00  0.00     0.382 C 
ATOM     23  O   LIG d   1      -1.511  61.379 118.840  0.00  0.00    -0.241 OA
ATOM     24  O   LIG d   1      -1.409  60.852 120.932  0.00  0.00    -0.241 OA
ENDBRANCH   3  22
TORSDOF 7
ENDMDL
MODEL 5
REMARK VINA RESULT:      -4.4     13.138     15.479
REMARK  7 active torsions:
REMARK  status: ('A' for Active; 'I' for Inactive)
REMARK    1  A    between atoms: C_2  and  C_3 
REMARK    2  A    between atoms: C_3  and  O_6 
REMARK    3  A    between atoms: C_3  and  C_4 
REMARK    4  A    between atoms: C_7  and  O_6 
REMARK    5  A    between atoms: C_9  and  C_10 
REMARK    6  A    between atoms: N_15  and  C_14 
REMARK    7  A    between atoms: N_20  and  C_19 
REMARK       I    between atoms: C_22  and  N_20 
ROOT
ATOM      1  C   LIG d   1     -13.534  65.169 121.463  0.00  0.00     0.161 C 
ATOM      2  C   LIG d   1     -12.533  64.906 122.412  0.00  0.00     0.016 C 
ATOM      3  C   LIG d   1     -11.631  63.821 122.311  0.00  0.00     0.038 C 
ATOM      4  C   LIG d   1     -11.572  63.010 121.169  0.00  0.00     0.028 C 
ATOM      5  C   LIG d   1     -12.895  62.928 120.415  0.00  0.00    -0.047 C 
ATOM      6  C   LIG d   1     -13.413  64.360 120.154  0.00  0.00     0.091 C 
ENDROOT
BRANCH   1   7
ATOM      7  O   LIG d   1     -13.577  66.581 121.177  0.00  0.00    -0.368 OA
BRANCH   7   8
ATOM      8  C   LIG d   1     -14.563  67.350 121.909  0.00  0.00     0.119 C 
BRANCH   8   9
ATOM      9  C   LIG d   1     -15.837  67.411 121.044  0.00  0.00     0.028 C 
ATOM     10  C   LIG d   1     -16.959  66.510 121.588  0.00  0.00     0.006 C 
ENDBRANCH   8   9
BRANCH   8  11
ATOM     11  C   LIG d   1     -14.119  68.806 122.080  0.00  0.00     0.028 C 
ATOM     12  C   LIG d   1     -15.107  69.635 122.916  0.00  0.00     0.006 C 
ENDBRANCH   8  11
ENDBRANCH   7   8
ENDBRANCH   1   7
BRANCH   6  13
ATOM     13  N   LIG d   1     -14.745  64.370 119.495  0.00  0.00    -0.311 N 
ATOM     14  C   LIG d   1     -14.961  64.882 118.284  0.00  0.00     0.210 C 
ATOM     15  C   LIG d   1     -16.412  64.807 117.799  0.00  0.00     0.109 C 
ATOM     16  O   LIG d   1     -14.081  65.361 117.552  0.00  0.00    -0.276 OA
ATOM     17  H   LIG d   1     -15.510  63.973 120.005  0.00  0.00     0.149 HD
ENDBRANCH   6  13
BRANCH   5  18
ATOM     18  N   LIG d   1     -12.656  62.165 119.176  0.00  0.00     0.381 N 
ATOM     19  H   LIG d   1     -13.097  62.624 118.404  0.00  0.00    -0.090 HD
ATOM     20  H   LIG d   1     -13.062  61.251 119.273  0.00  0.00    -0.090 HD
ATOM     21  H   LIG d   1     -11.677  62.085 119.008  0.00  0.00    -0.090 HD
ENDBRANCH   5  18
BRANCH   3  22
ATOM     22  C   LIG d   1     -10.802  63.516 123.380  0.00  0.00     0.382 C 
ATOM     23  O   LIG d   1     -10.826  62.367 123.884  0.00  0.00    -0.241 OA
ATOM     24  O   LIG d   1     -10.062  64.387 123.875  0.00  0.00    -0.241 OA
ENDBRANCH   3  22
TORSDOF 7
ENDMDL
MODEL 6
REMARK VINA RESULT:      -4.4     19.929     21.870
REMARK  7 active torsions:
REMARK  status: ('A' for Active; 'I' for Inactive)
REMARK    1  A    between atoms: C_2  and  C_3 
REMARK    2  A    between atoms: C_3  and  O_6 
REMARK    3  A    between atoms: C_3  and  C_4 
REMARK    4  A    between atoms: C_7  and  O_6 
REMARK    5  A    between atoms: C_9  and  C_10 
REMARK    6  A    between atoms: N_15  and  C_14 
REMARK    7  A    between atoms: N_20  and  C_19 
REMARK       I    between atoms: C_22  and  N_20 
ROOT
ATOM      1  C   LIG d   1      -8.855  79.563 118.303  0.00  0.00     0.161 C 
ATOM      2  C   LIG d   1      -9.833  78.568 118.467  0.00  0.00     0.016 C 
ATOM      3  C   LIG d   1      -9.572  77.187 118.309  0.00  0.00     0.038 C 
ATOM      4  C   LIG d   1      -8.272  76.695 118.123  0.00  0.00     0.028 C 
ATOM      5  C   LIG d   1      -7.337  77.693 117.450  0.00  0.00    -0.047 C 
ATOM      6  C   LIG d   1      -7.407  79.038 118.209  0.00  0.00     0.091 C 
ENDROOT
BRANCH   1   7
ATOM      7  O   LIG d   1      -8.967  80.538 119.359  0.00  0.00    -0.368 OA
BRANCH   7   8
ATOM      8  C   LIG d   1      -8.278  80.222 120.593  0.00  0.00     0.119 C 
BRANCH   8   9
ATOM      9  C   LIG d   1      -9.343  80.106 121.701  0.00  0.00     0.028 C 
ATOM     10  C   LIG d   1     -10.674  80.767 121.307  0.00  0.00     0.006 C 
ENDBRANCH   8   9
BRANCH   8  11
ATOM     11  C   LIG d   1      -7.363  81.370 121.029  0.00  0.00     0.028 C 
ATOM     12  C   LIG d   1      -7.503  82.615 120.140  0.00  0.00     0.006 C 
ENDBRANCH   8  11
ENDBRANCH   7   8
ENDBRANCH   1   7
BRANCH   6  13
ATOM     13  N   LIG d   1      -6.586  80.096 117.566  0.00  0.00    -0.311 N 
ATOM     14  C   LIG d   1      -5.358  80.417 117.969  0.00  0.00     0.210 C 
ATOM     15  C   LIG d   1      -4.694  81.551 117.180  0.00  0.00     0.109 C 
ATOM     16  O   LIG d   1      -4.743  79.850 118.884  0.00  0.00    -0.276 OA
ATOM     17  H   LIG d   1      -6.995  80.586 116.795  0.00  0.00     0.149 HD
ENDBRANCH   6  13
BRANCH   5  18
ATOM     18  N   LIG d   1      -5.985  77.103 117.444  0.00  0.00     0.381 N 
ATOM     19  H   LIG d   1      -5.728  76.835 118.372  0.00  0.00    -0.090 HD
ATOM     20  H   LIG d   1      -5.330  77.794 117.123  0.00  0.00    -0.090 HD
ATOM     21  H   LIG d   1      -5.962  76.309 116.842  0.00  0.00    -0.090 HD
ENDBRANCH   5  18
BRANCH   3  22
ATOM     22  C   LIG d   1     -10.626  76.286 118.297  0.00  0.00     0.382 C 
ATOM     23  O   LIG d   1     -11.809  76.704 118.288  0.00  0.00    -0.241 OA
ATOM     24  O   LIG d   1     -10.409  75.060 118.341  0.00  0.00    -0.241 OA
ENDBRANCH   3  22
TORSDOF 7
ENDMDL
MODEL 7
REMARK VINA RESULT:      -4.3     32.147     33.716
REMARK  7 active torsions:
REMARK  status: ('A' for Active; 'I' for Inactive)
REMARK    1  A    between atoms: C_2  and  C_3 
REMARK    2  A    between atoms: C_3  and  O_6 
REMARK    3  A    between atoms: C_3  and  C_4 
REMARK    4  A    between atoms: C_7  and  O_6 
REMARK    5  A    between atoms: C_9  and  C_10 
REMARK    6  A    between atoms: N_15  and  C_14 
REMARK    7  A    between atoms: N_20  and  C_19 
REMARK       I    between atoms: C_22  and  N_20 
ROOT
ATOM      1  C   LIG d   1      -4.582  92.080 120.645  0.00  0.00     0.161 C 
ATOM      2  C   LIG d   1      -3.762  91.213 119.903  0.00  0.00     0.016 C 
ATOM      3  C   LIG d   1      -4.141  90.658 118.659  0.00  0.00     0.038 C 
ATOM      4  C   LIG d   1      -5.312  91.055 117.996  0.00  0.00     0.028 C 
ATOM      5  C   LIG d   1      -6.407  91.542 118.939  0.00  0.00    -0.047 C 
ATOM      6  C   LIG d   1      -5.815  92.612 119.885  0.00  0.00     0.091 C 
ENDROOT
BRANCH   1   7
ATOM      7  O   LIG d   1      -3.797  93.176 121.156  0.00  0.00    -0.368 OA
BRANCH   7   8
ATOM      8  C   LIG d   1      -3.551  94.268 120.236  0.00  0.00     0.119 C 
BRANCH   8   9
ATOM      9  C   LIG d   1      -2.026  94.375 120.042  0.00  0.00     0.028 C 
ATOM     10  C   LIG d   1      -1.587  93.985 118.621  0.00  0.00     0.006 C 
ENDBRANCH   8   9
BRANCH   8  11
ATOM     11  C   LIG d   1      -3.979  95.610 120.837  0.00  0.00     0.028 C 
ATOM     12  C   LIG d   1      -4.459  96.612 119.775  0.00  0.00     0.006 C 
ENDBRANCH   8  11
ENDBRANCH   7   8
ENDBRANCH   1   7
BRANCH   6  13
ATOM     13  N   LIG d   1      -6.798  93.081 120.896  0.00  0.00    -0.311 N 
ATOM     14  C   LIG d   1      -7.541  94.176 120.744  0.00  0.00     0.210 C 
ATOM     15  C   LIG d   1      -8.477  94.491 121.915  0.00  0.00     0.109 C 
ATOM     16  O   LIG d   1      -7.537  94.899 119.736  0.00  0.00    -0.276 OA
ATOM     17  H   LIG d   1      -6.889  92.536 121.731  0.00  0.00     0.149 HD
ENDBRANCH   6  13
BRANCH   5  18
ATOM     18  N   LIG d   1      -7.515  92.053 118.110  0.00  0.00     0.381 N 
ATOM     19  H   LIG d   1      -8.224  91.353 118.025  0.00  0.00    -0.090 HD
ATOM     20  H   LIG d   1      -7.164  92.260 117.191  0.00  0.00    -0.090 HD
ATOM     21  H   LIG d   1      -7.897  92.876 118.521  0.00  0.00    -0.090 HD
ENDBRANCH   5  18
BRANCH   3  22
ATOM     22  C   LIG d   1      -3.363  89.664 118.085  0.00  0.00     0.382 C 
ATOM     23  O   LIG d   1      -2.148  89.570 118.380  0.00  0.00    -0.241 OA
ATOM     24  O   LIG d   1      -3.851  88.889 117.241  0.00  0.00    -0.241 OA
ENDBRANCH   3  22
TORSDOF 7
ENDMDL
MODEL 8
REMARK VINA RESULT:      -4.3     35.354     37.195
REMARK  7 active torsions:
REMARK  status: ('A' for Active; 'I' for Inactive)
REMARK    1  A    between atoms: C_2  and  C_3 
REMARK    2  A    between atoms: C_3  and  O_6 
REMARK    3  A    between atoms: C_3  and  C_4 
REMARK    4  A    between atoms: C_7  and  O_6 
REMARK    5  A    between atoms: C_9  and  C_10 
REMARK    6  A    between atoms: N_15  and  C_14 
REMARK    7  A    between atoms: N_20  and  C_19 
REMARK       I    between atoms: C_22  and  N_20 
ROOT
ATOM      1  C   LIG d   1      -6.556  95.530 120.706  0.00  0.00     0.161 C 
ATOM      2  C   LIG d   1      -7.618  94.611 120.729  0.00  0.00     0.016 C 
ATOM      3  C   LIG d   1      -8.910  94.902 120.234  0.00  0.00     0.038 C 
ATOM      4  C   LIG d   1      -9.188  96.089 119.541  0.00  0.00     0.028 C 
ATOM      5  C   LIG d   1      -8.283  97.250 119.940  0.00  0.00    -0.047 C 
ATOM      6  C   LIG d   1      -6.810  96.791 119.854  0.00  0.00     0.091 C 
ENDROOT
BRANCH   1   7
ATOM      7  O   LIG d   1      -5.348  94.870 120.278  0.00  0.00    -0.368 OA
BRANCH   7   8
ATOM      8  C   LIG d   1      -4.486  94.373 121.331  0.00  0.00     0.119 C 
BRANCH   8   9
ATOM      9  C   LIG d   1      -3.032  94.678 120.921  0.00  0.00     0.028 C 
ATOM     10  C   LIG d   1      -2.948  95.677 119.755  0.00  0.00     0.006 C 
ENDBRANCH   8   9
BRANCH   8  11
ATOM     11  C   LIG d   1      -4.564  92.848 121.443  0.00  0.00     0.028 C 
ATOM     12  C   LIG d   1      -4.580  92.151 120.073  0.00  0.00     0.006 C 
ENDBRANCH   8  11
ENDBRANCH   7   8
ENDBRANCH   1   7
BRANCH   6  13
ATOM     13  N   LIG d   1      -5.861  97.840 120.309  0.00  0.00    -0.311 N 
ATOM     14  C   LIG d   1      -5.233  98.671 119.479  0.00  0.00     0.210 C 
ATOM     15  C   LIG d   1      -4.283  99.664 120.154  0.00  0.00     0.109 C 
ATOM     16  O   LIG d   1      -5.397  98.701 118.250  0.00  0.00    -0.276 OA
ATOM     17  H   LIG d   1      -5.693  97.907 121.294  0.00  0.00     0.149 HD
ENDBRANCH   6  13
BRANCH   5  18
ATOM     18  N   LIG d   1      -8.589  98.382 119.046  0.00  0.00     0.381 N 
ATOM     19  H   LIG d   1      -9.406  98.177 118.506  0.00  0.00    -0.090 HD
ATOM     20  H   LIG d   1      -7.819  98.515 118.414  0.00  0.00    -0.090 HD
ATOM     21  H   LIG d   1      -8.736  99.210 119.581  0.00  0.00    -0.090 HD
ENDBRANCH   5  18
BRANCH   3  22
ATOM     22  C   LIG d   1      -9.951  94.016 120.466  0.00  0.00     0.382 C 
ATOM     23  O   LIG d   1     -10.555  93.492 119.500  0.00  0.00    -0.241 OA
ATOM     24  O   LIG d   1     -10.322  93.768 121.629  0.00  0.00    -0.241 OA
ENDBRANCH   3  22
TORSDOF 7
ENDMDL
MODEL 9
REMARK VINA RESULT:      -4.2     20.639     22.831
REMARK  7 active torsions:
REMARK  status: ('A' for Active; 'I' for Inactive)
REMARK    1  A    between atoms: C_2  and  C_3 
REMARK    2  A    between atoms: C_3  and  O_6 
REMARK    3  A    between atoms: C_3  and  C_4 
REMARK    4  A    between atoms: C_7  and  O_6 
REMARK    5  A    between atoms: C_9  and  C_10 
REMARK    6  A    between atoms: N_15  and  C_14 
REMARK    7  A    between atoms: N_20  and  C_19 
REMARK       I    between atoms: C_22  and  N_20 
ROOT
ATOM      1  C   LIG d   1     -10.738  78.453 120.281  0.00  0.00     0.161 C 
ATOM      2  C   LIG d   1     -11.551  77.846 121.252  0.00  0.00     0.016 C 
ATOM      3  C   LIG d   1     -12.205  78.565 122.280  0.00  0.00     0.038 C 
ATOM      4  C   LIG d   1     -12.211  79.967 122.315  0.00  0.00     0.028 C 
ATOM      5  C   LIG d   1     -10.991  80.595 121.650  0.00  0.00    -0.047 C 
ATOM      6  C   LIG d   1     -10.824  79.993 120.236  0.00  0.00     0.091 C 
ENDROOT
BRANCH   1   7
ATOM      7  O   LIG d   1     -11.031  77.897 118.983  0.00  0.00    -0.368 OA
BRANCH   7   8
ATOM      8  C   LIG d   1      -9.946  77.188 118.334  0.00  0.00     0.119 C 
BRANCH   8   9
ATOM      9  C   LIG d   1     -10.454  75.773 117.998  0.00  0.00     0.028 C 
ATOM     10  C   LIG d   1      -9.652  74.675 118.717  0.00  0.00     0.006 C 
ENDBRANCH   8   9
BRANCH   8  11
ATOM     11  C   LIG d   1      -8.767  76.980 119.289  0.00  0.00     0.028 C 
ATOM     12  C   LIG d   1      -7.461  77.598 118.766  0.00  0.00     0.006 C 
ENDBRANCH   8  11
ENDBRANCH   7   8
ENDBRANCH   1   7
BRANCH   6  13
ATOM     13  N   LIG d   1      -9.604  80.491 119.548  0.00  0.00    -0.311 N 
ATOM     14  C   LIG d   1      -9.586  80.870 118.272  0.00  0.00     0.210 C 
ATOM     15  C   LIG d   1      -8.220  81.332 117.754  0.00  0.00     0.109 C 
ATOM     16  O   LIG d   1     -10.577  80.897 117.528  0.00  0.00    -0.276 OA
ATOM     17  H   LIG d   1      -8.761  80.531 120.087  0.00  0.00     0.149 HD
ENDBRANCH   6  13
BRANCH   5  18
ATOM     18  N   LIG d   1     -11.194  82.056 121.636  0.00  0.00     0.381 N 
ATOM     19  H   LIG d   1     -12.172  82.262 121.595  0.00  0.00    -0.090 HD
ATOM     20  H   LIG d   1     -10.757  82.437 120.815  0.00  0.00    -0.090 HD
ATOM     21  H   LIG d   1     -10.795  82.464 122.452  0.00  0.00    -0.090 HD
ENDBRANCH   5  18
BRANCH   3  22
ATOM     22  C   LIG d   1     -12.828  77.877 123.310  0.00  0.00     0.382 C 
ATOM     23  O   LIG d   1     -13.025  76.642 123.211  0.00  0.00    -0.241 OA
ATOM     24  O   LIG d   1     -13.237  78.484 124.318  0.00  0.00    -0.241 OA
ENDBRANCH   3  22
TORSDOF 7
ENDMDL
