MODEL 1
REMARK VINA RESULT:      -5.8      0.000      0.000
REMARK  7 active torsions:
REMARK  status: ('A' for Active; 'I' for Inactive)
REMARK    1  A    between atoms: C_2  and  C_3 
REMARK    2  A    between atoms: C_3  and  O_6 
REMARK    3  A    between atoms: C_3  and  C_4 
REMARK    4  A    between atoms: C_7  and  O_6 
REMARK    5  A    between atoms: C_9  and  C_10 
REMARK    6  A    between atoms: N_15  and  C_14 
REMARK    7  A    between atoms: N_20  and  C_19 
REMARK       I    between atoms: C_22  and  N_20 
ROOT
ATOM      1  C   LIG d   1      -1.660  60.354 119.350  0.00  0.00     0.161 C 
ATOM      2  C   LIG d   1      -1.592  61.251 120.429  0.00  0.00     0.016 C 
ATOM      3  C   LIG d   1      -0.420  61.961 120.778  0.00  0.00     0.038 C 
ATOM      4  C   LIG d   1       0.728  61.937 119.973  0.00  0.00     0.028 C 
ATOM      5  C   LIG d   1       0.870  60.657 119.157  0.00  0.00    -0.047 C 
ATOM      6  C   LIG d   1      -0.450  60.400 118.394  0.00  0.00     0.091 C 
ENDROOT
BRANCH   1   7
ATOM      7  O   LIG d   1      -2.884  60.563 118.618  0.00  0.00    -0.368 OA
BRANCH   7   8
ATOM      8  C   LIG d   1      -4.031  59.795 119.062  0.00  0.00     0.119 C 
BRANCH   8   9
ATOM      9  C   LIG d   1      -3.527  58.389 119.442  0.00  0.00     0.028 C 
ATOM     10  C   LIG d   1      -3.950  57.319 118.422  0.00  0.00     0.006 C 
ENDBRANCH   8   9
BRANCH   8  11
ATOM     11  C   LIG d   1      -5.028  59.574 117.921  0.00  0.00     0.028 C 
ATOM     12  C   LIG d   1      -6.091  60.680 117.836  0.00  0.00     0.006 C 
ENDBRANCH   8  11
ENDBRANCH   7   8
ENDBRANCH   1   7
BRANCH   6  13
ATOM     13  N   LIG d   1      -0.427  59.121 117.636  0.00  0.00    -0.311 N 
ATOM     14  C   LIG d   1      -0.189  57.939 118.201  0.00  0.00     0.210 C 
ATOM     15  C   LIG d   1      -0.191  56.749 117.236  0.00  0.00     0.109 C 
ATOM     16  O   LIG d   1      -0.009  57.758 119.415  0.00  0.00    -0.276 OA
ATOM     17  H   LIG d   1      -0.594  59.172 116.650  0.00  0.00     0.149 HD
ENDBRANCH   6  13
BRANCH   5  18
ATOM     18  N   LIG d   1       2.031  60.824 118.263  0.00  0.00     0.381 N 
ATOM     19  H   LIG d   1       2.851  61.012 118.805  0.00  0.00    -0.090 HD
ATOM     20  H   LIG d   1       1.866  61.609 117.658  0.00  0.00    -0.090 HD
ATOM     21  H   LIG d   1       2.165  59.999 117.720  0.00  0.00    -0.090 HD
ENDBRANCH   5  18
BRANCH   3  22
ATOM     22  C   LIG d   1      -0.377  62.675 121.966  0.00  0.00     0.382 C 
ATOM     23  O   LIG d   1      -1.349  63.395 122.300  0.00  0.00    -0.241 OA
ATOM     24  O   LIG d   1       0.639  62.644 122.685  0.00  0.00    -0.241 OA
ENDBRANCH   3  22
TORSDOF 7
ENDMDL
MODEL 2
REMARK VINA RESULT:      -5.7      2.867      3.969
REMARK  7 active torsions:
REMARK  status: ('A' for Active; 'I' for Inactive)
REMARK    1  A    between atoms: C_2  and  C_3 
REMARK    2  A    between atoms: C_3  and  O_6 
REMARK    3  A    between atoms: C_3  and  C_4 
REMARK    4  A    between atoms: C_7  and  O_6 
REMARK    5  A    between atoms: C_9  and  C_10 
REMARK    6  A    between atoms: N_15  and  C_14 
REMARK    7  A    between atoms: N_20  and  C_19 
REMARK       I    between atoms: C_22  and  N_20 
ROOT
ATOM      1  C   LIG d   1      -2.098  60.453 119.686  0.00  0.00     0.161 C 
ATOM      2  C   LIG d   1      -0.945  60.833 118.980  0.00  0.00     0.016 C 
ATOM      3  C   LIG d   1       0.013  61.741 119.487  0.00  0.00     0.038 C 
ATOM      4  C   LIG d   1      -0.042  62.219 120.805  0.00  0.00     0.028 C 
ATOM      5  C   LIG d   1      -1.455  62.258 121.376  0.00  0.00    -0.047 C 
ATOM      6  C   LIG d   1      -2.119  60.877 121.169  0.00  0.00     0.091 C 
ENDROOT
BRANCH   1   7
ATOM      7  O   LIG d   1      -2.296  59.030 119.569  0.00  0.00    -0.368 OA
BRANCH   7   8
ATOM      8  C   LIG d   1      -3.473  58.608 118.837  0.00  0.00     0.119 C 
BRANCH   8   9
ATOM      9  C   LIG d   1      -3.081  57.372 118.004  0.00  0.00     0.028 C 
ATOM     10  C   LIG d   1      -4.185  56.301 117.988  0.00  0.00     0.006 C 
ENDBRANCH   8   9
BRANCH   8  11
ATOM     11  C   LIG d   1      -3.903  59.665 117.816  0.00  0.00     0.028 C 
ATOM     12  C   LIG d   1      -5.346  60.148 118.031  0.00  0.00     0.006 C 
ENDBRANCH   8  11
ENDBRANCH   7   8
ENDBRANCH   1   7
BRANCH   6  13
ATOM     13  N   LIG d   1      -3.533  60.854 121.624  0.00  0.00    -0.311 N 
ATOM     14  C   LIG d   1      -3.904  60.471 122.845  0.00  0.00     0.210 C 
ATOM     15  C   LIG d   1      -5.414  60.504 123.101  0.00  0.00     0.109 C 
ATOM     16  O   LIG d   1      -3.124  60.139 123.750  0.00  0.00    -0.276 OA
ATOM     17  H   LIG d   1      -4.230  61.138 120.964  0.00  0.00     0.149 HD
ENDBRANCH   6  13
BRANCH   5  18
ATOM     18  N   LIG d   1      -1.351  62.643 122.796  0.00  0.00     0.381 N 
ATOM     19  H   LIG d   1      -1.569  61.858 123.377  0.00  0.00    -0.090 HD
ATOM     20  H   LIG d   1      -2.018  63.370 122.986  0.00  0.00    -0.090 HD
ATOM     21  H   LIG d   1      -0.430  62.966 122.995  0.00  0.00    -0.090 HD
ENDBRANCH   5  18
BRANCH   3  22
ATOM     22  C   LIG d   1       1.019  62.212 118.657  0.00  0.00     0.382 C 
ATOM     23  O   LIG d   1       0.956  63.376 118.193  0.00  0.00    -0.241 OA
ATOM     24  O   LIG d   1       1.967  61.473 118.331  0.00  0.00    -0.241 OA
ENDBRANCH   3  22
TORSDOF 7
ENDMDL
MODEL 3
REMARK VINA RESULT:      -5.5     20.203     22.191
REMARK  7 active torsions:
REMARK  status: ('A' for Active; 'I' for Inactive)
REMARK    1  A    between atoms: C_2  and  C_3 
REMARK    2  A    between atoms: C_3  and  O_6 
REMARK    3  A    between atoms: C_3  and  C_4 
REMARK    4  A    between atoms: C_7  and  O_6 
REMARK    5  A    between atoms: C_9  and  C_10 
REMARK    6  A    between atoms: N_15  and  C_14 
REMARK    7  A    between atoms: N_20  and  C_19 
REMARK       I    between atoms: C_22  and  N_20 
ROOT
ATOM      1  C   LIG d   1      -8.421  80.863 121.027  0.00  0.00     0.161 C 
ATOM      2  C   LIG d   1      -8.175  82.109 121.627  0.00  0.00     0.016 C 
ATOM      3  C   LIG d   1      -8.761  83.316 121.182  0.00  0.00     0.038 C 
ATOM      4  C   LIG d   1      -9.757  83.337 120.195  0.00  0.00     0.028 C 
ATOM      5  C   LIG d   1      -9.667  82.169 119.218  0.00  0.00    -0.047 C 
ATOM      6  C   LIG d   1      -9.590  80.849 120.020  0.00  0.00     0.091 C 
ENDROOT
BRANCH   1   7
ATOM      7  O   LIG d   1      -8.625  79.863 122.045  0.00  0.00    -0.368 OA
BRANCH   7   8
ATOM      8  C   LIG d   1      -7.451  79.115 122.447  0.00  0.00     0.119 C 
BRANCH   8   9
ATOM      9  C   LIG d   1      -6.777  78.587 121.166  0.00  0.00     0.028 C 
ATOM     10  C   LIG d   1      -5.273  78.907 121.120  0.00  0.00     0.006 C 
ENDBRANCH   8   9
BRANCH   8  11
ATOM     11  C   LIG d   1      -7.833  77.866 123.248  0.00  0.00     0.028 C 
ATOM     12  C   LIG d   1      -8.697  76.883 122.442  0.00  0.00     0.006 C 
ENDBRANCH   8  11
ENDBRANCH   7   8
ENDBRANCH   1   7
BRANCH   6  13
ATOM     13  N   LIG d   1      -9.415  79.662 119.144  0.00  0.00    -0.311 N 
ATOM     14  C   LIG d   1     -10.070  78.516 119.322  0.00  0.00     0.210 C 
ATOM     15  C   LIG d   1      -9.727  77.413 118.316  0.00  0.00     0.109 C 
ATOM     16  O   LIG d   1     -10.926  78.320 120.197  0.00  0.00    -0.276 OA
ATOM     17  H   LIG d   1      -8.762  79.745 118.389  0.00  0.00     0.149 HD
ENDBRANCH   6  13
BRANCH   5  18
ATOM     18  N   LIG d   1     -10.843  82.238 118.330  0.00  0.00     0.381 N 
ATOM     19  H   LIG d   1     -10.950  83.170 117.982  0.00  0.00    -0.090 HD
ATOM     20  H   LIG d   1     -11.664  82.003 118.860  0.00  0.00    -0.090 HD
ATOM     21  H   LIG d   1     -10.735  81.602 117.571  0.00  0.00    -0.090 HD
ENDBRANCH   5  18
BRANCH   3  22
ATOM     22  C   LIG d   1      -8.321  84.525 121.699  0.00  0.00     0.382 C 
ATOM     23  O   LIG d   1      -7.127  84.655 122.062  0.00  0.00    -0.241 OA
ATOM     24  O   LIG d   1      -9.114  85.474 121.848  0.00  0.00    -0.241 OA
ENDBRANCH   3  22
TORSDOF 7
ENDMDL
MODEL 4
REMARK VINA RESULT:      -5.4     20.004     22.373
REMARK  7 active torsions:
REMARK  status: ('A' for Active; 'I' for Inactive)
REMARK    1  A    between atoms: C_2  and  C_3 
REMARK    2  A    between atoms: C_3  and  O_6 
REMARK    3  A    between atoms: C_3  and  C_4 
REMARK    4  A    between atoms: C_7  and  O_6 
REMARK    5  A    between atoms: C_9  and  C_10 
REMARK    6  A    between atoms: N_15  and  C_14 
REMARK    7  A    between atoms: N_20  and  C_19 
REMARK       I    between atoms: C_22  and  N_20 
ROOT
ATOM      1  C   LIG d   1      -9.239  79.889 121.179  0.00  0.00     0.161 C 
ATOM      2  C   LIG d   1      -9.021  78.744 120.396  0.00  0.00     0.016 C 
ATOM      3  C   LIG d   1      -9.314  78.679 119.014  0.00  0.00     0.038 C 
ATOM      4  C   LIG d   1      -9.706  79.812 118.285  0.00  0.00     0.028 C 
ATOM      5  C   LIG d   1     -10.422  80.858 119.132  0.00  0.00    -0.047 C 
ATOM      6  C   LIG d   1      -9.562  81.168 120.379  0.00  0.00     0.091 C 
ENDROOT
BRANCH   1   7
ATOM      7  O   LIG d   1      -8.108  80.112 122.044  0.00  0.00    -0.368 OA
BRANCH   7   8
ATOM      8  C   LIG d   1      -6.887  80.548 121.398  0.00  0.00     0.119 C 
BRANCH   8   9
ATOM      9  C   LIG d   1      -5.761  79.597 121.846  0.00  0.00     0.028 C 
ATOM     10  C   LIG d   1      -5.329  78.632 120.729  0.00  0.00     0.006 C 
ENDBRANCH   8   9
BRANCH   8  11
ATOM     11  C   LIG d   1      -6.464  81.937 121.887  0.00  0.00     0.028 C 
ATOM     12  C   LIG d   1      -4.995  81.987 122.338  0.00  0.00     0.006 C 
ENDBRANCH   8  11
ENDBRANCH   7   8
ENDBRANCH   1   7
BRANCH   6  13
ATOM     13  N   LIG d   1     -10.229  82.121 121.304  0.00  0.00    -0.311 N 
ATOM     14  C   LIG d   1     -10.030  83.438 121.269  0.00  0.00     0.210 C 
ATOM     15  C   LIG d   1     -10.801  84.237 122.325  0.00  0.00     0.109 C 
ATOM     16  O   LIG d   1      -9.314  84.023 120.443  0.00  0.00    -0.276 OA
ATOM     17  H   LIG d   1     -10.851  81.735 121.987  0.00  0.00     0.149 HD
ENDBRANCH   6  13
BRANCH   5  18
ATOM     18  N   LIG d   1     -10.651  82.040 118.280  0.00  0.00     0.381 N 
ATOM     19  H   LIG d   1     -11.604  82.059 117.975  0.00  0.00    -0.090 HD
ATOM     20  H   LIG d   1     -10.062  81.975 117.468  0.00  0.00    -0.090 HD
ATOM     21  H   LIG d   1     -10.441  82.872 118.786  0.00  0.00    -0.090 HD
ENDBRANCH   5  18
BRANCH   3  22
ATOM     22  C   LIG d   1      -9.253  77.460 118.355  0.00  0.00     0.382 C 
ATOM     23  O   LIG d   1      -8.140  76.929 118.122  0.00  0.00    -0.241 OA
ATOM     24  O   LIG d   1     -10.293  76.908 117.951  0.00  0.00    -0.241 OA
ENDBRANCH   3  22
TORSDOF 7
ENDMDL
MODEL 5
REMARK VINA RESULT:      -5.4      1.788      4.867
REMARK  7 active torsions:
REMARK  status: ('A' for Active; 'I' for Inactive)
REMARK    1  A    between atoms: C_2  and  C_3 
REMARK    2  A    between atoms: C_3  and  O_6 
REMARK    3  A    between atoms: C_3  and  C_4 
REMARK    4  A    between atoms: C_7  and  O_6 
REMARK    5  A    between atoms: C_9  and  C_10 
REMARK    6  A    between atoms: N_15  and  C_14 
REMARK    7  A    between atoms: N_20  and  C_19 
REMARK       I    between atoms: C_22  and  N_20 
ROOT
ATOM      1  C   LIG d   1      -0.928  59.508 117.457  0.00  0.00     0.161 C 
ATOM      2  C   LIG d   1      -0.984  58.125 117.216  0.00  0.00     0.016 C 
ATOM      3  C   LIG d   1      -0.086  57.198 117.793  0.00  0.00     0.038 C 
ATOM      4  C   LIG d   1       0.841  57.576 118.775  0.00  0.00     0.028 C 
ATOM      5  C   LIG d   1       1.268  59.037 118.675  0.00  0.00    -0.047 C 
ATOM      6  C   LIG d   1       0.005  59.926 118.613  0.00  0.00     0.091 C 
ENDROOT
BRANCH   1   7
ATOM      7  O   LIG d   1      -2.258  60.019 117.677  0.00  0.00    -0.368 OA
BRANCH   7   8
ATOM      8  C   LIG d   1      -3.050  59.326 118.673  0.00  0.00     0.119 C 
BRANCH   8   9
ATOM      9  C   LIG d   1      -4.409  58.987 118.029  0.00  0.00     0.028 C 
ATOM     10  C   LIG d   1      -5.346  60.205 117.962  0.00  0.00     0.006 C 
ENDBRANCH   8   9
BRANCH   8  11
ATOM     11  C   LIG d   1      -3.379  60.240 119.857  0.00  0.00     0.028 C 
ATOM     12  C   LIG d   1      -2.883  59.678 121.199  0.00  0.00     0.006 C 
ENDBRANCH   8  11
ENDBRANCH   7   8
ENDBRANCH   1   7
BRANCH   6  13
ATOM     13  N   LIG d   1       0.333  61.364 118.429  0.00  0.00    -0.311 N 
ATOM     14  C   LIG d   1       0.356  62.244 119.428  0.00  0.00     0.210 C 
ATOM     15  C   LIG d   1       0.698  63.679 119.018  0.00  0.00     0.109 C 
ATOM     16  O   LIG d   1       0.157  61.966 120.620  0.00  0.00    -0.276 OA
ATOM     17  H   LIG d   1       0.538  61.669 117.498  0.00  0.00     0.149 HD
ENDBRANCH   6  13
BRANCH   5  18
ATOM     18  N   LIG d   1       2.126  59.331 119.839  0.00  0.00     0.381 N 
ATOM     19  H   LIG d   1       1.887  58.724 120.597  0.00  0.00    -0.090 HD
ATOM     20  H   LIG d   1       1.964  60.279 120.130  0.00  0.00    -0.090 HD
ATOM     21  H   LIG d   1       3.084  59.209 119.595  0.00  0.00    -0.090 HD
ENDBRANCH   5  18
BRANCH   3  22
ATOM     22  C   LIG d   1      -0.083  55.881 117.357  0.00  0.00     0.382 C 
ATOM     23  O   LIG d   1      -1.168  55.277 117.180  0.00  0.00    -0.241 OA
ATOM     24  O   LIG d   1       0.992  55.277 117.180  0.00  0.00    -0.241 OA
ENDBRANCH   3  22
TORSDOF 7
ENDMDL
MODEL 6
REMARK VINA RESULT:      -5.1      2.528      4.506
REMARK  7 active torsions:
REMARK  status: ('A' for Active; 'I' for Inactive)
REMARK    1  A    between atoms: C_2  and  C_3 
REMARK    2  A    between atoms: C_3  and  O_6 
REMARK    3  A    between atoms: C_3  and  C_4 
REMARK    4  A    between atoms: C_7  and  O_6 
REMARK    5  A    between atoms: C_9  and  C_10 
REMARK    6  A    between atoms: N_15  and  C_14 
REMARK    7  A    between atoms: N_20  and  C_19 
REMARK       I    between atoms: C_22  and  N_20 
ROOT
ATOM      1  C   LIG d   1      -0.168  58.824 118.036  0.00  0.00     0.161 C 
ATOM      2  C   LIG d   1       0.654  59.930 118.310  0.00  0.00     0.016 C 
ATOM      3  C   LIG d   1       0.232  61.042 119.073  0.00  0.00     0.038 C 
ATOM      4  C   LIG d   1      -0.999  61.056 119.747  0.00  0.00     0.028 C 
ATOM      5  C   LIG d   1      -2.060  60.182 119.087  0.00  0.00    -0.047 C 
ATOM      6  C   LIG d   1      -1.474  58.770 118.855  0.00  0.00     0.091 C 
ENDROOT
BRANCH   1   7
ATOM      7  O   LIG d   1       0.582  57.604 118.208  0.00  0.00    -0.368 OA
BRANCH   7   8
ATOM      8  C   LIG d   1       0.631  57.071 119.554  0.00  0.00     0.119 C 
BRANCH   8   9
ATOM      9  C   LIG d   1       2.111  57.031 119.983  0.00  0.00     0.028 C 
ATOM     10  C   LIG d   1       2.423  55.841 120.905  0.00  0.00     0.006 C 
ENDBRANCH   8   9
BRANCH   8  11
ATOM     11  C   LIG d   1       0.158  55.615 119.594  0.00  0.00     0.028 C 
ATOM     12  C   LIG d   1      -0.106  55.035 118.195  0.00  0.00     0.006 C 
ENDBRANCH   8  11
ENDBRANCH   7   8
ENDBRANCH   1   7
BRANCH   6  13
ATOM     13  N   LIG d   1      -2.419  57.875 118.136  0.00  0.00    -0.311 N 
ATOM     14  C   LIG d   1      -3.248  57.036 118.755  0.00  0.00     0.210 C 
ATOM     15  C   LIG d   1      -4.124  56.190 117.825  0.00  0.00     0.109 C 
ATOM     16  O   LIG d   1      -3.365  56.936 119.985  0.00  0.00    -0.276 OA
ATOM     17  H   LIG d   1      -2.413  57.915 117.136  0.00  0.00     0.149 HD
ENDBRANCH   6  13
BRANCH   5  18
ATOM     18  N   LIG d   1      -3.245  60.179 119.965  0.00  0.00     0.381 N 
ATOM     19  H   LIG d   1      -3.952  60.775 119.582  0.00  0.00    -0.090 HD
ATOM     20  H   LIG d   1      -2.983  60.539 120.866  0.00  0.00    -0.090 HD
ATOM     21  H   LIG d   1      -3.597  59.252 120.060  0.00  0.00    -0.090 HD
ENDBRANCH   5  18
BRANCH   3  22
ATOM     22  C   LIG d   1       1.029  62.175 119.136  0.00  0.00     0.382 C 
ATOM     23  O   LIG d   1       1.702  62.411 120.169  0.00  0.00    -0.241 OA
ATOM     24  O   LIG d   1       1.050  62.986 118.192  0.00  0.00    -0.241 OA
ENDBRANCH   3  22
TORSDOF 7
ENDMDL
MODEL 7
REMARK VINA RESULT:      -5.1     20.747     22.556
REMARK  7 active torsions:
REMARK  status: ('A' for Active; 'I' for Inactive)
REMARK    1  A    between atoms: C_2  and  C_3 
REMARK    2  A    between atoms: C_3  and  O_6 
REMARK    3  A    between atoms: C_3  and  C_4 
REMARK    4  A    between atoms: C_7  and  O_6 
REMARK    5  A    between atoms: C_9  and  C_10 
REMARK    6  A    between atoms: N_15  and  C_14 
REMARK    7  A    between atoms: N_20  and  C_19 
REMARK       I    between atoms: C_22  and  N_20 
ROOT
ATOM      1  C   LIG d   1      -9.200  80.777 121.444  0.00  0.00     0.161 C 
ATOM      2  C   LIG d   1      -9.441  82.081 121.907  0.00  0.00     0.016 C 
ATOM      3  C   LIG d   1      -9.933  83.120 121.085  0.00  0.00     0.038 C 
ATOM      4  C   LIG d   1     -10.365  82.885 119.771  0.00  0.00     0.028 C 
ATOM      5  C   LIG d   1      -9.669  81.701 119.108  0.00  0.00    -0.047 C 
ATOM      6  C   LIG d   1      -9.770  80.473 120.042  0.00  0.00     0.091 C 
ENDROOT
BRANCH   1   7
ATOM      7  O   LIG d   1      -9.692  79.819 122.402  0.00  0.00    -0.368 OA
BRANCH   7   8
ATOM      8  C   LIG d   1     -11.088  79.452 122.278  0.00  0.00     0.119 C 
BRANCH   8   9
ATOM      9  C   LIG d   1     -11.826  80.011 123.509  0.00  0.00     0.028 C 
ATOM     10  C   LIG d   1     -10.911  80.122 124.741  0.00  0.00     0.006 C 
ENDBRANCH   8   9
BRANCH   8  11
ATOM     11  C   LIG d   1     -11.273  77.933 122.349  0.00  0.00     0.028 C 
ATOM     12  C   LIG d   1      -9.954  77.183 122.594  0.00  0.00     0.006 C 
ENDBRANCH   8  11
ENDBRANCH   7   8
ENDBRANCH   1   7
BRANCH   6  13
ATOM     13  N   LIG d   1      -9.042  79.293 119.507  0.00  0.00    -0.311 N 
ATOM     14  C   LIG d   1      -9.652  78.232 118.981  0.00  0.00     0.210 C 
ATOM     15  C   LIG d   1      -8.715  77.117 118.507  0.00  0.00     0.109 C 
ATOM     16  O   LIG d   1     -10.878  78.122 118.834  0.00  0.00    -0.276 OA
ATOM     17  H   LIG d   1      -8.042  79.312 119.559  0.00  0.00     0.149 HD
ENDBRANCH   6  13
BRANCH   5  18
ATOM     18  N   LIG d   1     -10.311  81.484 117.798  0.00  0.00     0.381 N 
ATOM     19  H   LIG d   1      -9.743  80.878 117.239  0.00  0.00    -0.090 HD
ATOM     20  H   LIG d   1     -10.390  82.367 117.325  0.00  0.00    -0.090 HD
ATOM     21  H   LIG d   1     -11.214  81.084 117.922  0.00  0.00    -0.090 HD
ENDBRANCH   5  18
BRANCH   3  22
ATOM     22  C   LIG d   1      -9.961  84.421 121.565  0.00  0.00     0.382 C 
ATOM     23  O   LIG d   1     -11.060  84.981 121.796  0.00  0.00    -0.241 OA
ATOM     24  O   LIG d   1      -8.902  85.057 121.726  0.00  0.00    -0.241 OA
ENDBRANCH   3  22
TORSDOF 7
ENDMDL
MODEL 8
REMARK VINA RESULT:      -5.1      2.834      4.023
REMARK  7 active torsions:
REMARK  status: ('A' for Active; 'I' for Inactive)
REMARK    1  A    between atoms: C_2  and  C_3 
REMARK    2  A    between atoms: C_3  and  O_6 
REMARK    3  A    between atoms: C_3  and  C_4 
REMARK    4  A    between atoms: C_7  and  O_6 
REMARK    5  A    between atoms: C_9  and  C_10 
REMARK    6  A    between atoms: N_15  and  C_14 
REMARK    7  A    between atoms: N_20  and  C_19 
REMARK       I    between atoms: C_22  and  N_20 
ROOT
ATOM      1  C   LIG d   1      -2.120  60.384 119.622  0.00  0.00     0.161 C 
ATOM      2  C   LIG d   1      -1.044  60.868 118.860  0.00  0.00     0.016 C 
ATOM      3  C   LIG d   1       0.194  61.257 119.422  0.00  0.00     0.038 C 
ATOM      4  C   LIG d   1       0.493  61.044 120.776  0.00  0.00     0.028 C 
ATOM      5  C   LIG d   1      -0.740  61.026 121.674  0.00  0.00    -0.047 C 
ATOM      6  C   LIG d   1      -1.774  60.039 121.085  0.00  0.00     0.091 C 
ENDROOT
BRANCH   1   7
ATOM      7  O   LIG d   1      -2.709  59.244 118.965  0.00  0.00    -0.368 OA
BRANCH   7   8
ATOM      8  C   LIG d   1      -2.104  57.959 119.252  0.00  0.00     0.119 C 
BRANCH   8   9
ATOM      9  C   LIG d   1      -1.494  57.431 117.940  0.00  0.00     0.028 C 
ATOM     10  C   LIG d   1       0.042  57.514 117.932  0.00  0.00     0.006 C 
ENDBRANCH   8   9
BRANCH   8  11
ATOM     11  C   LIG d   1      -3.159  56.924 119.655  0.00  0.00     0.028 C 
ATOM     12  C   LIG d   1      -4.194  56.667 118.548  0.00  0.00     0.006 C 
ENDBRANCH   8  11
ENDBRANCH   7   8
ENDBRANCH   1   7
BRANCH   6  13
ATOM     13  N   LIG d   1      -3.045  60.024 121.856  0.00  0.00    -0.311 N 
ATOM     14  C   LIG d   1      -3.316  59.129 122.805  0.00  0.00     0.210 C 
ATOM     15  C   LIG d   1      -4.691  59.280 123.462  0.00  0.00     0.109 C 
ATOM     16  O   LIG d   1      -2.535  58.244 123.186  0.00  0.00    -0.276 OA
ATOM     17  H   LIG d   1      -3.722  60.726 121.633  0.00  0.00     0.149 HD
ENDBRANCH   6  13
BRANCH   5  18
ATOM     18  N   LIG d   1      -0.297  60.658 123.032  0.00  0.00     0.381 N 
ATOM     19  H   LIG d   1      -1.059  60.752 123.673  0.00  0.00    -0.090 HD
ATOM     20  H   LIG d   1       0.435  61.285 123.316  0.00  0.00    -0.090 HD
ATOM     21  H   LIG d   1       0.039  59.720 123.038  0.00  0.00    -0.090 HD
ENDBRANCH   5  18
BRANCH   3  22
ATOM     22  C   LIG d   1       1.134  61.904 118.634  0.00  0.00     0.382 C 
ATOM     23  O   LIG d   1       0.987  63.118 118.353  0.00  0.00    -0.241 OA
ATOM     24  O   LIG d   1       2.102  61.278 118.164  0.00  0.00    -0.241 OA
ENDBRANCH   3  22
TORSDOF 7
ENDMDL
MODEL 9
REMARK VINA RESULT:      -5.0      2.392      5.118
REMARK  7 active torsions:
REMARK  status: ('A' for Active; 'I' for Inactive)
REMARK    1  A    between atoms: C_2  and  C_3 
REMARK    2  A    between atoms: C_3  and  O_6 
REMARK    3  A    between atoms: C_3  and  C_4 
REMARK    4  A    between atoms: C_7  and  O_6 
REMARK    5  A    between atoms: C_9  and  C_10 
REMARK    6  A    between atoms: N_15  and  C_14 
REMARK    7  A    between atoms: N_20  and  C_19 
REMARK       I    between atoms: C_22  and  N_20 
ROOT
ATOM      1  C   LIG d   1      -2.858  59.838 119.206  0.00  0.00     0.161 C 
ATOM      2  C   LIG d   1      -3.623  58.672 119.032  0.00  0.00     0.016 C 
ATOM      3  C   LIG d   1      -3.074  57.436 118.622  0.00  0.00     0.038 C 
ATOM      4  C   LIG d   1      -1.690  57.241 118.503  0.00  0.00     0.028 C 
ATOM      5  C   LIG d   1      -0.925  58.520 118.180  0.00  0.00    -0.047 C 
ATOM      6  C   LIG d   1      -1.331  59.617 119.190  0.00  0.00     0.091 C 
ENDROOT
BRANCH   1   7
ATOM      7  O   LIG d   1      -3.254  60.505 120.421  0.00  0.00    -0.368 OA
BRANCH   7   8
ATOM      8  C   LIG d   1      -2.708  59.968 121.651  0.00  0.00     0.119 C 
BRANCH   8   9
ATOM      9  C   LIG d   1      -3.861  59.282 122.409  0.00  0.00     0.028 C 
ATOM     10  C   LIG d   1      -4.703  60.279 123.223  0.00  0.00     0.006 C 
ENDBRANCH   8   9
BRANCH   8  11
ATOM     11  C   LIG d   1      -2.220  61.085 122.578  0.00  0.00     0.028 C 
ATOM     12  C   LIG d   1      -2.003  62.417 121.844  0.00  0.00     0.006 C 
ENDBRANCH   8  11
ENDBRANCH   7   8
ENDBRANCH   1   7
BRANCH   6  13
ATOM     13  N   LIG d   1      -0.691  60.925 118.893  0.00  0.00    -0.311 N 
ATOM     14  C   LIG d   1       0.462  61.316 119.433  0.00  0.00     0.210 C 
ATOM     15  C   LIG d   1       0.936  62.710 119.008  0.00  0.00     0.109 C 
ATOM     16  O   LIG d   1       1.154  60.629 120.199  0.00  0.00    -0.276 OA
ATOM     17  H   LIG d   1      -1.169  61.533 118.257  0.00  0.00     0.149 HD
ENDBRANCH   6  13
BRANCH   5  18
ATOM     18  N   LIG d   1       0.515  58.200 118.221  0.00  0.00     0.381 N 
ATOM     19  H   LIG d   1       1.044  59.037 118.358  0.00  0.00    -0.090 HD
ATOM     20  H   LIG d   1       0.784  57.797 117.341  0.00  0.00    -0.090 HD
ATOM     21  H   LIG d   1       0.700  57.556 118.959  0.00  0.00    -0.090 HD
ENDBRANCH   5  18
BRANCH   3  22
ATOM     22  C   LIG d   1      -3.918  56.387 118.286  0.00  0.00     0.382 C 
ATOM     23  O   LIG d   1      -5.062  56.316 118.796  0.00  0.00    -0.241 OA
ATOM     24  O   LIG d   1      -3.532  55.488 117.515  0.00  0.00    -0.241 OA
ENDBRANCH   3  22
TORSDOF 7
ENDMDL
