MODEL 1
REMARK VINA RESULT:      -5.1      0.000      0.000
REMARK  7 active torsions:
REMARK  status: ('A' for Active; 'I' for Inactive)
REMARK    1  A    between atoms: C_2  and  C_3 
REMARK    2  A    between atoms: C_3  and  O_6 
REMARK    3  A    between atoms: C_3  and  C_4 
REMARK    4  A    between atoms: C_7  and  O_6 
REMARK    5  A    between atoms: C_9  and  C_10 
REMARK    6  A    between atoms: N_15  and  C_14 
REMARK    7  A    between atoms: N_20  and  C_19 
REMARK       I    between atoms: C_22  and  N_20 
ROOT
ATOM      1  C   LIG d   1     -14.988  74.729 120.303  0.00  0.00     0.161 C 
ATOM      2  C   LIG d   1     -14.752  73.494 119.676  0.00  0.00     0.016 C 
ATOM      3  C   LIG d   1     -15.754  72.760 119.002  0.00  0.00     0.038 C 
ATOM      4  C   LIG d   1     -17.035  73.286 118.778  0.00  0.00     0.028 C 
ATOM      5  C   LIG d   1     -17.463  74.307 119.828  0.00  0.00    -0.047 C 
ATOM      6  C   LIG d   1     -16.351  75.372 119.974  0.00  0.00     0.091 C 
ENDROOT
BRANCH   1   7
ATOM      7  O   LIG d   1     -13.916  75.644 119.999  0.00  0.00    -0.368 OA
BRANCH   7   8
ATOM      8  C   LIG d   1     -13.245  76.241 121.136  0.00  0.00     0.119 C 
BRANCH   8   9
ATOM      9  C   LIG d   1     -11.762  76.416 120.758  0.00  0.00     0.028 C 
ATOM     10  C   LIG d   1     -11.581  77.004 119.348  0.00  0.00     0.006 C 
ENDBRANCH   8   9
BRANCH   8  11
ATOM     11  C   LIG d   1     -13.248  75.298 122.342  0.00  0.00     0.028 C 
ATOM     12  C   LIG d   1     -11.975  74.440 122.431  0.00  0.00     0.006 C 
ENDBRANCH   8  11
ENDBRANCH   7   8
ENDBRANCH   1   7
BRANCH   6  13
ATOM     13  N   LIG d   1     -16.652  76.361 121.041  0.00  0.00    -0.311 N 
ATOM     14  C   LIG d   1     -17.314  77.496 120.823  0.00  0.00     0.210 C 
ATOM     15  C   LIG d   1     -17.499  78.384 122.057  0.00  0.00     0.109 C 
ATOM     16  O   LIG d   1     -17.795  77.836 119.731  0.00  0.00    -0.276 OA
ATOM     17  H   LIG d   1     -16.326  76.150 121.964  0.00  0.00     0.149 HD
ENDBRANCH   6  13
BRANCH   5  18
ATOM     18  N   LIG d   1     -18.754  74.874 119.397  0.00  0.00     0.381 N 
ATOM     19  H   LIG d   1     -19.150  75.417 120.139  0.00  0.00    -0.090 HD
ATOM     20  H   LIG d   1     -19.386  74.122 119.186  0.00  0.00    -0.090 HD
ATOM     21  H   LIG d   1     -18.624  75.446 118.591  0.00  0.00    -0.090 HD
ENDBRANCH   5  18
BRANCH   3  22
ATOM     22  C   LIG d   1     -15.491  71.466 118.579  0.00  0.00     0.382 C 
ATOM     23  O   LIG d   1     -15.109  70.602 119.404  0.00  0.00    -0.241 OA
ATOM     24  O   LIG d   1     -15.587  71.164 117.374  0.00  0.00    -0.241 OA
ENDBRANCH   3  22
TORSDOF 7
ENDMDL
MODEL 2
REMARK VINA RESULT:      -4.9      6.692     10.156
REMARK  7 active torsions:
REMARK  status: ('A' for Active; 'I' for Inactive)
REMARK    1  A    between atoms: C_2  and  C_3 
REMARK    2  A    between atoms: C_3  and  O_6 
REMARK    3  A    between atoms: C_3  and  C_4 
REMARK    4  A    between atoms: C_7  and  O_6 
REMARK    5  A    between atoms: C_9  and  C_10 
REMARK    6  A    between atoms: N_15  and  C_14 
REMARK    7  A    between atoms: N_20  and  C_19 
REMARK       I    between atoms: C_22  and  N_20 
ROOT
ATOM      1  C   LIG d   1      -9.569  81.774 120.101  0.00  0.00     0.161 C 
ATOM      2  C   LIG d   1      -9.485  83.084 120.604  0.00  0.00     0.016 C 
ATOM      3  C   LIG d   1     -10.297  83.567 121.655  0.00  0.00     0.038 C 
ATOM      4  C   LIG d   1     -11.150  82.723 122.382  0.00  0.00     0.028 C 
ATOM      5  C   LIG d   1     -11.636  81.520 121.581  0.00  0.00    -0.047 C 
ATOM      6  C   LIG d   1     -10.416  80.807 120.955  0.00  0.00     0.091 C 
ENDROOT
BRANCH   1   7
ATOM      7  O   LIG d   1      -8.245  81.240 119.904  0.00  0.00    -0.368 OA
BRANCH   7   8
ATOM      8  C   LIG d   1      -7.457  81.860 118.858  0.00  0.00     0.119 C 
BRANCH   8   9
ATOM      9  C   LIG d   1      -7.579  80.978 117.601  0.00  0.00     0.028 C 
ATOM     10  C   LIG d   1      -7.773  79.491 117.945  0.00  0.00     0.006 C 
ENDBRANCH   8   9
BRANCH   8  11
ATOM     11  C   LIG d   1      -5.966  81.861 119.210  0.00  0.00     0.028 C 
ATOM     12  C   LIG d   1      -5.704  82.162 120.694  0.00  0.00     0.006 C 
ENDBRANCH   8  11
ENDBRANCH   7   8
ENDBRANCH   1   7
BRANCH   6  13
ATOM     13  N   LIG d   1     -10.809  79.667 120.086  0.00  0.00    -0.311 N 
ATOM     14  C   LIG d   1     -10.871  78.407 120.513  0.00  0.00     0.210 C 
ATOM     15  C   LIG d   1     -11.279  77.383 119.449  0.00  0.00     0.109 C 
ATOM     16  O   LIG d   1     -10.657  78.045 121.680  0.00  0.00    -0.276 OA
ATOM     17  H   LIG d   1     -11.030  79.876 119.132  0.00  0.00     0.149 HD
ENDBRANCH   6  13
BRANCH   5  18
ATOM     18  N   LIG d   1     -12.403  80.655 122.498  0.00  0.00     0.381 N 
ATOM     19  H   LIG d   1     -12.133  79.700 122.368  0.00  0.00    -0.090 HD
ATOM     20  H   LIG d   1     -13.381  80.739 122.283  0.00  0.00    -0.090 HD
ATOM     21  H   LIG d   1     -12.238  80.928 123.442  0.00  0.00    -0.090 HD
ENDBRANCH   5  18
BRANCH   3  22
ATOM     22  C   LIG d   1     -10.289  84.919 121.963  0.00  0.00     0.382 C 
ATOM     23  O   LIG d   1     -11.369  85.517 122.188  0.00  0.00    -0.241 OA
ATOM     24  O   LIG d   1      -9.220  85.558 121.976  0.00  0.00    -0.241 OA
ENDBRANCH   3  22
TORSDOF 7
ENDMDL
MODEL 3
REMARK VINA RESULT:      -4.8      6.235      9.494
REMARK  7 active torsions:
REMARK  status: ('A' for Active; 'I' for Inactive)
REMARK    1  A    between atoms: C_2  and  C_3 
REMARK    2  A    between atoms: C_3  and  O_6 
REMARK    3  A    between atoms: C_3  and  C_4 
REMARK    4  A    between atoms: C_7  and  O_6 
REMARK    5  A    between atoms: C_9  and  C_10 
REMARK    6  A    between atoms: N_15  and  C_14 
REMARK    7  A    between atoms: N_20  and  C_19 
REMARK       I    between atoms: C_22  and  N_20 
ROOT
ATOM      1  C   LIG d   1      -9.926  79.614 119.465  0.00  0.00     0.161 C 
ATOM      2  C   LIG d   1     -10.605  80.149 120.573  0.00  0.00     0.016 C 
ATOM      3  C   LIG d   1     -10.488  81.498 120.980  0.00  0.00     0.038 C 
ATOM      4  C   LIG d   1      -9.797  82.447 120.212  0.00  0.00     0.028 C 
ATOM      5  C   LIG d   1      -8.683  81.844 119.363  0.00  0.00    -0.047 C 
ATOM      6  C   LIG d   1      -9.256  80.661 118.550  0.00  0.00     0.091 C 
ENDROOT
BRANCH   1   7
ATOM      7  O   LIG d   1     -10.820  78.780 118.701  0.00  0.00    -0.368 OA
BRANCH   7   8
ATOM      8  C   LIG d   1     -10.636  77.350 118.846  0.00  0.00     0.119 C 
BRANCH   8   9
ATOM      9  C   LIG d   1     -11.789  76.822 119.721  0.00  0.00     0.028 C 
ATOM     10  C   LIG d   1     -11.308  76.349 121.103  0.00  0.00     0.006 C 
ENDBRANCH   8   9
BRANCH   8  11
ATOM     11  C   LIG d   1      -9.357  77.029 119.624  0.00  0.00     0.028 C 
ATOM     12  C   LIG d   1      -8.431  76.057 118.874  0.00  0.00     0.006 C 
ENDBRANCH   8  11
ENDBRANCH   7   8
ENDBRANCH   1   7
BRANCH   6  13
ATOM     13  N   LIG d   1      -8.213  79.961 117.756  0.00  0.00    -0.311 N 
ATOM     14  C   LIG d   1      -7.082  79.493 118.281  0.00  0.00     0.210 C 
ATOM     15  C   LIG d   1      -6.134  78.822 117.282  0.00  0.00     0.109 C 
ATOM     16  O   LIG d   1      -6.789  79.541 119.485  0.00  0.00    -0.276 OA
ATOM     17  H   LIG d   1      -8.384  79.851 116.775  0.00  0.00     0.149 HD
ENDBRANCH   6  13
BRANCH   5  18
ATOM     18  N   LIG d   1      -8.139  82.920 118.512  0.00  0.00     0.381 N 
ATOM     19  H   LIG d   1      -8.558  82.879 117.604  0.00  0.00    -0.090 HD
ATOM     20  H   LIG d   1      -7.149  82.784 118.409  0.00  0.00    -0.090 HD
ATOM     21  H   LIG d   1      -8.318  83.807 118.928  0.00  0.00    -0.090 HD
ENDBRANCH   5  18
BRANCH   3  22
ATOM     22  C   LIG d   1     -11.033  81.901 122.189  0.00  0.00     0.382 C 
ATOM     23  O   LIG d   1     -11.513  83.054 122.308  0.00  0.00    -0.241 OA
ATOM     24  O   LIG d   1     -11.012  81.141 123.176  0.00  0.00    -0.241 OA
ENDBRANCH   3  22
TORSDOF 7
ENDMDL
MODEL 4
REMARK VINA RESULT:      -4.7      6.581      9.931
REMARK  7 active torsions:
REMARK  status: ('A' for Active; 'I' for Inactive)
REMARK    1  A    between atoms: C_2  and  C_3 
REMARK    2  A    between atoms: C_3  and  O_6 
REMARK    3  A    between atoms: C_3  and  C_4 
REMARK    4  A    between atoms: C_7  and  O_6 
REMARK    5  A    between atoms: C_9  and  C_10 
REMARK    6  A    between atoms: N_15  and  C_14 
REMARK    7  A    between atoms: N_20  and  C_19 
REMARK       I    between atoms: C_22  and  N_20 
ROOT
ATOM      1  C   LIG d   1      -9.551  81.701 120.132  0.00  0.00     0.161 C 
ATOM      2  C   LIG d   1      -9.456  83.014 120.623  0.00  0.00     0.016 C 
ATOM      3  C   LIG d   1     -10.282  83.521 121.652  0.00  0.00     0.038 C 
ATOM      4  C   LIG d   1     -11.163  82.698 122.370  0.00  0.00     0.028 C 
ATOM      5  C   LIG d   1     -11.652  81.494 121.572  0.00  0.00    -0.047 C 
ATOM      6  C   LIG d   1     -10.431  80.756 120.978  0.00  0.00     0.091 C 
ENDROOT
BRANCH   1   7
ATOM      7  O   LIG d   1      -8.232  81.144 119.968  0.00  0.00    -0.368 OA
BRANCH   7   8
ATOM      8  C   LIG d   1      -7.570  80.705 121.179  0.00  0.00     0.119 C 
BRANCH   8   9
ATOM      9  C   LIG d   1      -6.238  81.473 121.283  0.00  0.00     0.028 C 
ATOM     10  C   LIG d   1      -5.842  82.144 119.957  0.00  0.00     0.006 C 
ENDBRANCH   8   9
BRANCH   8  11
ATOM     11  C   LIG d   1      -7.181  79.227 121.098  0.00  0.00     0.028 C 
ATOM     12  C   LIG d   1      -7.290  78.660 119.673  0.00  0.00     0.006 C 
ENDBRANCH   8  11
ENDBRANCH   7   8
ENDBRANCH   1   7
BRANCH   6  13
ATOM     13  N   LIG d   1     -10.824  79.613 120.113  0.00  0.00    -0.311 N 
ATOM     14  C   LIG d   1     -10.887  78.355 120.545  0.00  0.00     0.210 C 
ATOM     15  C   LIG d   1     -11.295  77.327 119.484  0.00  0.00     0.109 C 
ATOM     16  O   LIG d   1     -10.674  77.996 121.713  0.00  0.00    -0.276 OA
ATOM     17  H   LIG d   1     -11.044  79.819 119.158  0.00  0.00     0.149 HD
ENDBRANCH   6  13
BRANCH   5  18
ATOM     18  N   LIG d   1     -12.451  80.651 122.482  0.00  0.00     0.381 N 
ATOM     19  H   LIG d   1     -11.929  79.835 122.733  0.00  0.00    -0.090 HD
ATOM     20  H   LIG d   1     -13.285  80.358 122.005  0.00  0.00    -0.090 HD
ATOM     21  H   LIG d   1     -12.690  81.165 123.301  0.00  0.00    -0.090 HD
ENDBRANCH   5  18
BRANCH   3  22
ATOM     22  C   LIG d   1     -10.259  84.876 121.947  0.00  0.00     0.382 C 
ATOM     23  O   LIG d   1     -11.331  85.485 122.181  0.00  0.00    -0.241 OA
ATOM     24  O   LIG d   1      -9.185  85.507 121.937  0.00  0.00    -0.241 OA
ENDBRANCH   3  22
TORSDOF 7
ENDMDL
MODEL 5
REMARK VINA RESULT:      -4.7     19.035     20.981
REMARK  7 active torsions:
REMARK  status: ('A' for Active; 'I' for Inactive)
REMARK    1  A    between atoms: C_2  and  C_3 
REMARK    2  A    between atoms: C_3  and  O_6 
REMARK    3  A    between atoms: C_3  and  C_4 
REMARK    4  A    between atoms: C_7  and  O_6 
REMARK    5  A    between atoms: C_9  and  C_10 
REMARK    6  A    between atoms: N_15  and  C_14 
REMARK    7  A    between atoms: N_20  and  C_19 
REMARK       I    between atoms: C_22  and  N_20 
ROOT
ATOM      1  C   LIG d   1      -5.207  93.046 119.303  0.00  0.00     0.161 C 
ATOM      2  C   LIG d   1      -3.977  92.544 118.845  0.00  0.00     0.016 C 
ATOM      3  C   LIG d   1      -3.866  91.493 117.907  0.00  0.00     0.038 C 
ATOM      4  C   LIG d   1      -4.987  90.970 117.244  0.00  0.00     0.028 C 
ATOM      5  C   LIG d   1      -6.278  91.098 118.044  0.00  0.00    -0.047 C 
ATOM      6  C   LIG d   1      -6.438  92.563 118.508  0.00  0.00     0.091 C 
ENDROOT
BRANCH   1   7
ATOM      7  O   LIG d   1      -5.165  94.486 119.336  0.00  0.00    -0.368 OA
BRANCH   7   8
ATOM      8  C   LIG d   1      -5.023  95.090 120.645  0.00  0.00     0.119 C 
BRANCH   8   9
ATOM      9  C   LIG d   1      -6.371  95.745 121.002  0.00  0.00     0.028 C 
ATOM     10  C   LIG d   1      -6.939  96.586 119.846  0.00  0.00     0.006 C 
ENDBRANCH   8   9
BRANCH   8  11
ATOM     11  C   LIG d   1      -4.007  96.236 120.623  0.00  0.00     0.028 C 
ATOM     12  C   LIG d   1      -2.680  95.844 119.955  0.00  0.00     0.006 C 
ENDBRANCH   8  11
ENDBRANCH   7   8
ENDBRANCH   1   7
BRANCH   6  13
ATOM     13  N   LIG d   1      -7.634  92.758 119.369  0.00  0.00    -0.311 N 
ATOM     14  C   LIG d   1      -8.700  93.463 118.994  0.00  0.00     0.210 C 
ATOM     15  C   LIG d   1      -9.815  93.556 120.041  0.00  0.00     0.109 C 
ATOM     16  O   LIG d   1      -8.842  93.993 117.882  0.00  0.00    -0.276 OA
ATOM     17  H   LIG d   1      -7.616  92.336 120.276  0.00  0.00     0.149 HD
ENDBRANCH   6  13
BRANCH   5  18
ATOM     18  N   LIG d   1      -7.384  90.640 117.181  0.00  0.00     0.381 N 
ATOM     19  H   LIG d   1      -7.919  89.942 117.658  0.00  0.00    -0.090 HD
ATOM     20  H   LIG d   1      -6.999  90.229 116.349  0.00  0.00    -0.090 HD
ATOM     21  H   LIG d   1      -7.969  91.410 116.940  0.00  0.00    -0.090 HD
ENDBRANCH   5  18
BRANCH   3  22
ATOM     22  C   LIG d   1      -2.627  90.926 117.652  0.00  0.00     0.382 C 
ATOM     23  O   LIG d   1      -2.530  89.690 117.460  0.00  0.00    -0.241 OA
ATOM     24  O   LIG d   1      -1.598  91.628 117.657  0.00  0.00    -0.241 OA
ENDBRANCH   3  22
TORSDOF 7
ENDMDL
MODEL 6
REMARK VINA RESULT:      -4.6      1.400      2.171
REMARK  7 active torsions:
REMARK  status: ('A' for Active; 'I' for Inactive)
REMARK    1  A    between atoms: C_2  and  C_3 
REMARK    2  A    between atoms: C_3  and  O_6 
REMARK    3  A    between atoms: C_3  and  C_4 
REMARK    4  A    between atoms: C_7  and  O_6 
REMARK    5  A    between atoms: C_9  and  C_10 
REMARK    6  A    between atoms: N_15  and  C_14 
REMARK    7  A    between atoms: N_20  and  C_19 
REMARK       I    between atoms: C_22  and  N_20 
ROOT
ATOM      1  C   LIG d   1     -15.727  73.784 121.624  0.00  0.00     0.161 C 
ATOM      2  C   LIG d   1     -15.292  72.779 120.744  0.00  0.00     0.016 C 
ATOM      3  C   LIG d   1     -15.813  72.607 119.441  0.00  0.00     0.038 C 
ATOM      4  C   LIG d   1     -16.704  73.529 118.871  0.00  0.00     0.028 C 
ATOM      5  C   LIG d   1     -17.550  74.270 119.901  0.00  0.00    -0.047 C 
ATOM      6  C   LIG d   1     -16.618  74.867 120.980  0.00  0.00     0.091 C 
ENDROOT
BRANCH   1   7
ATOM      7  O   LIG d   1     -14.591  74.391 122.273  0.00  0.00    -0.368 OA
BRANCH   7   8
ATOM      8  C   LIG d   1     -13.309  74.197 121.626  0.00  0.00     0.119 C 
BRANCH   8   9
ATOM      9  C   LIG d   1     -12.306  73.757 122.710  0.00  0.00     0.028 C 
ATOM     10  C   LIG d   1     -12.202  72.227 122.826  0.00  0.00     0.006 C 
ENDBRANCH   8   9
BRANCH   8  11
ATOM     11  C   LIG d   1     -12.758  75.515 121.075  0.00  0.00     0.028 C 
ATOM     12  C   LIG d   1     -11.376  75.869 121.647  0.00  0.00     0.006 C 
ENDBRANCH   8  11
ENDBRANCH   7   8
ENDBRANCH   1   7
BRANCH   6  13
ATOM     13  N   LIG d   1     -17.371  75.537 122.072  0.00  0.00    -0.311 N 
ATOM     14  C   LIG d   1     -17.227  76.826 122.377  0.00  0.00     0.210 C 
ATOM     15  C   LIG d   1     -18.084  77.311 123.551  0.00  0.00     0.109 C 
ATOM     16  O   LIG d   1     -16.495  77.620 121.768  0.00  0.00    -0.276 OA
ATOM     17  H   LIG d   1     -18.010  74.974 122.597  0.00  0.00     0.149 HD
ENDBRANCH   6  13
BRANCH   5  18
ATOM     18  N   LIG d   1     -18.332  75.293 119.182  0.00  0.00     0.381 N 
ATOM     19  H   LIG d   1     -18.470  75.009 118.233  0.00  0.00    -0.090 HD
ATOM     20  H   LIG d   1     -17.816  76.156 119.181  0.00  0.00    -0.090 HD
ATOM     21  H   LIG d   1     -19.213  75.425 119.628  0.00  0.00    -0.090 HD
ENDBRANCH   5  18
BRANCH   3  22
ATOM     22  C   LIG d   1     -15.473  71.480 118.709  0.00  0.00     0.382 C 
ATOM     23  O   LIG d   1     -15.525  71.508 117.455  0.00  0.00    -0.241 OA
ATOM     24  O   LIG d   1     -15.158  70.422 119.286  0.00  0.00    -0.241 OA
ENDBRANCH   3  22
TORSDOF 7
ENDMDL
MODEL 7
REMARK VINA RESULT:      -4.6      7.731     10.270
REMARK  7 active torsions:
REMARK  status: ('A' for Active; 'I' for Inactive)
REMARK    1  A    between atoms: C_2  and  C_3 
REMARK    2  A    between atoms: C_3  and  O_6 
REMARK    3  A    between atoms: C_3  and  C_4 
REMARK    4  A    between atoms: C_7  and  O_6 
REMARK    5  A    between atoms: C_9  and  C_10 
REMARK    6  A    between atoms: N_15  and  C_14 
REMARK    7  A    between atoms: N_20  and  C_19 
REMARK       I    between atoms: C_22  and  N_20 
ROOT
ATOM      1  C   LIG d   1     -13.042  65.886 122.366  0.00  0.00     0.161 C 
ATOM      2  C   LIG d   1     -11.803  65.787 123.021  0.00  0.00     0.016 C 
ATOM      3  C   LIG d   1     -10.723  65.017 122.530  0.00  0.00     0.038 C 
ATOM      4  C   LIG d   1     -10.759  64.411 121.266  0.00  0.00     0.028 C 
ATOM      5  C   LIG d   1     -12.169  64.066 120.799  0.00  0.00    -0.047 C 
ATOM      6  C   LIG d   1     -13.062  65.321 120.931  0.00  0.00     0.091 C 
ENDROOT
BRANCH   1   7
ATOM      7  O   LIG d   1     -13.490  67.256 122.372  0.00  0.00    -0.368 OA
BRANCH   7   8
ATOM      8  C   LIG d   1     -12.902  68.123 121.371  0.00  0.00     0.119 C 
BRANCH   8   9
ATOM      9  C   LIG d   1     -11.930  69.074 122.096  0.00  0.00     0.028 C 
ATOM     10  C   LIG d   1     -12.602  70.391 122.518  0.00  0.00     0.006 C 
ENDBRANCH   8   9
BRANCH   8  11
ATOM     11  C   LIG d   1     -13.956  69.031 120.732  0.00  0.00     0.028 C 
ATOM     12  C   LIG d   1     -15.393  68.550 120.989  0.00  0.00     0.006 C 
ENDBRANCH   8  11
ENDBRANCH   7   8
ENDBRANCH   1   7
BRANCH   6  13
ATOM     13  N   LIG d   1     -14.479  65.049 120.574  0.00  0.00    -0.311 N 
ATOM     14  C   LIG d   1     -14.984  65.264 119.360  0.00  0.00     0.210 C 
ATOM     15  C   LIG d   1     -16.473  64.934 119.212  0.00  0.00     0.109 C 
ATOM     16  O   LIG d   1     -14.333  65.665 118.384  0.00  0.00    -0.276 OA
ATOM     17  H   LIG d   1     -15.071  64.692 121.298  0.00  0.00     0.149 HD
ENDBRANCH   6  13
BRANCH   5  18
ATOM     18  N   LIG d   1     -12.071  63.568 119.414  0.00  0.00     0.381 N 
ATOM     19  H   LIG d   1     -12.832  63.926 118.871  0.00  0.00    -0.090 HD
ATOM     20  H   LIG d   1     -12.135  62.566 119.424  0.00  0.00    -0.090 HD
ATOM     21  H   LIG d   1     -11.205  63.850 119.011  0.00  0.00    -0.090 HD
ENDBRANCH   5  18
BRANCH   3  22
ATOM     22  C   LIG d   1      -9.606  64.815 123.326  0.00  0.00     0.382 C 
ATOM     23  O   LIG d   1      -9.015  63.709 123.308  0.00  0.00    -0.241 OA
ATOM     24  O   LIG d   1      -9.208  65.710 124.095  0.00  0.00    -0.241 OA
ENDBRANCH   3  22
TORSDOF 7
ENDMDL
MODEL 8
REMARK VINA RESULT:      -4.5      2.391      5.571
REMARK  7 active torsions:
REMARK  status: ('A' for Active; 'I' for Inactive)
REMARK    1  A    between atoms: C_2  and  C_3 
REMARK    2  A    between atoms: C_3  and  O_6 
REMARK    3  A    between atoms: C_3  and  C_4 
REMARK    4  A    between atoms: C_7  and  O_6 
REMARK    5  A    between atoms: C_9  and  C_10 
REMARK    6  A    between atoms: N_15  and  C_14 
REMARK    7  A    between atoms: N_20  and  C_19 
REMARK       I    between atoms: C_22  and  N_20 
ROOT
ATOM      1  C   LIG d   1     -17.321  74.909 119.916  0.00  0.00     0.161 C 
ATOM      2  C   LIG d   1     -16.063  75.442 120.241  0.00  0.00     0.016 C 
ATOM      3  C   LIG d   1     -14.842  74.796 119.937  0.00  0.00     0.038 C 
ATOM      4  C   LIG d   1     -14.793  73.637 119.149  0.00  0.00     0.028 C 
ATOM      5  C   LIG d   1     -16.062  72.794 119.231  0.00  0.00    -0.047 C 
ATOM      6  C   LIG d   1     -17.284  73.700 118.958  0.00  0.00     0.091 C 
ENDROOT
BRANCH   1   7
ATOM      7  O   LIG d   1     -18.168  75.946 119.382  0.00  0.00    -0.368 OA
BRANCH   7   8
ATOM      8  C   LIG d   1     -18.859  76.768 120.354  0.00  0.00     0.119 C 
BRANCH   8   9
ATOM      9  C   LIG d   1     -20.027  75.935 120.918  0.00  0.00     0.028 C 
ATOM     10  C   LIG d   1     -21.106  75.645 119.861  0.00  0.00     0.006 C 
ENDBRANCH   8   9
BRANCH   8  11
ATOM     11  C   LIG d   1     -19.513  77.984 119.690  0.00  0.00     0.028 C 
ATOM     12  C   LIG d   1     -19.377  79.265 120.529  0.00  0.00     0.006 C 
ENDBRANCH   8  11
ENDBRANCH   7   8
ENDBRANCH   1   7
BRANCH   6  13
ATOM     13  N   LIG d   1     -18.572  72.972 119.102  0.00  0.00    -0.311 N 
ATOM     14  C   LIG d   1     -18.971  72.405 120.239  0.00  0.00     0.210 C 
ATOM     15  C   LIG d   1     -20.322  71.688 120.165  0.00  0.00     0.109 C 
ATOM     16  O   LIG d   1     -18.349  72.456 121.311  0.00  0.00    -0.276 OA
ATOM     17  H   LIG d   1     -19.154  72.910 118.289  0.00  0.00     0.149 HD
ENDBRANCH   6  13
BRANCH   5  18
ATOM     18  N   LIG d   1     -15.929  71.693 118.258  0.00  0.00     0.381 N 
ATOM     19  H   LIG d   1     -15.638  72.057 117.372  0.00  0.00    -0.090 HD
ATOM     20  H   LIG d   1     -16.825  71.254 118.140  0.00  0.00    -0.090 HD
ATOM     21  H   LIG d   1     -15.265  71.027 118.585  0.00  0.00    -0.090 HD
ENDBRANCH   5  18
BRANCH   3  22
ATOM     22  C   LIG d   1     -13.656  75.289 120.459  0.00  0.00     0.382 C 
ATOM     23  O   LIG d   1     -13.274  74.927 121.598  0.00  0.00    -0.241 OA
ATOM     24  O   LIG d   1     -12.985  76.123 119.823  0.00  0.00    -0.241 OA
ENDBRANCH   3  22
TORSDOF 7
ENDMDL
MODEL 9
REMARK VINA RESULT:      -4.4     19.332     21.285
REMARK  7 active torsions:
REMARK  status: ('A' for Active; 'I' for Inactive)
REMARK    1  A    between atoms: C_2  and  C_3 
REMARK    2  A    between atoms: C_3  and  O_6 
REMARK    3  A    between atoms: C_3  and  C_4 
REMARK    4  A    between atoms: C_7  and  O_6 
REMARK    5  A    between atoms: C_9  and  C_10 
REMARK    6  A    between atoms: N_15  and  C_14 
REMARK    7  A    between atoms: N_20  and  C_19 
REMARK       I    between atoms: C_22  and  N_20 
ROOT
ATOM      1  C   LIG d   1      -4.630  93.062 119.495  0.00  0.00     0.161 C 
ATOM      2  C   LIG d   1      -3.706  92.167 118.931  0.00  0.00     0.016 C 
ATOM      3  C   LIG d   1      -4.037  91.247 117.909  0.00  0.00     0.038 C 
ATOM      4  C   LIG d   1      -5.286  91.265 117.272  0.00  0.00     0.028 C 
ATOM      5  C   LIG d   1      -6.407  91.809 118.151  0.00  0.00    -0.047 C 
ATOM      6  C   LIG d   1      -5.969  93.172 118.736  0.00  0.00     0.091 C 
ENDROOT
BRANCH   1   7
ATOM      7  O   LIG d   1      -4.027  94.363 119.637  0.00  0.00    -0.368 OA
BRANCH   7   8
ATOM      8  C   LIG d   1      -2.598  94.379 119.878  0.00  0.00     0.119 C 
BRANCH   8   9
ATOM      9  C   LIG d   1      -2.367  95.048 121.247  0.00  0.00     0.028 C 
ATOM     10  C   LIG d   1      -0.875  95.272 121.547  0.00  0.00     0.006 C 
ENDBRANCH   8   9
BRANCH   8  11
ATOM     11  C   LIG d   1      -1.872  95.269 118.865  0.00  0.00     0.028 C 
ATOM     12  C   LIG d   1      -1.182  94.465 117.752  0.00  0.00     0.006 C 
ENDBRANCH   8  11
ENDBRANCH   7   8
ENDBRANCH   1   7
BRANCH   6  13
ATOM     13  N   LIG d   1      -6.974  93.735 119.675  0.00  0.00    -0.311 N 
ATOM     14  C   LIG d   1      -7.972  94.529 119.292  0.00  0.00     0.210 C 
ATOM     15  C   LIG d   1      -8.883  95.015 120.424  0.00  0.00     0.109 C 
ATOM     16  O   LIG d   1      -8.209  94.851 118.118  0.00  0.00    -0.276 OA
ATOM     17  H   LIG d   1      -6.875  93.499 120.643  0.00  0.00     0.149 HD
ENDBRANCH   6  13
BRANCH   5  18
ATOM     18  N   LIG d   1      -7.622  91.900 117.320  0.00  0.00     0.381 N 
ATOM     19  H   LIG d   1      -7.944  90.982 117.089  0.00  0.00    -0.090 HD
ATOM     20  H   LIG d   1      -7.396  92.379 116.465  0.00  0.00    -0.090 HD
ATOM     21  H   LIG d   1      -8.333  92.397 117.809  0.00  0.00    -0.090 HD
ENDBRANCH   5  18
BRANCH   3  22
ATOM     22  C   LIG d   1      -3.124  90.270 117.542  0.00  0.00     0.382 C 
ATOM     23  O   LIG d   1      -3.498  89.080 117.412  0.00  0.00    -0.241 OA
ATOM     24  O   LIG d   1      -1.922  90.556 117.383  0.00  0.00    -0.241 OA
ENDBRANCH   3  22
TORSDOF 7
ENDMDL
