MODEL 1
REMARK VINA RESULT:      -5.1      0.000      0.000
REMARK  7 active torsions:
REMARK  status: ('A' for Active; 'I' for Inactive)
REMARK    1  A    between atoms: C_2  and  C_3 
REMARK    2  A    between atoms: C_3  and  O_6 
REMARK    3  A    between atoms: C_3  and  C_4 
REMARK    4  A    between atoms: C_7  and  O_6 
REMARK    5  A    between atoms: C_9  and  C_10 
REMARK    6  A    between atoms: N_15  and  C_14 
REMARK    7  A    between atoms: N_20  and  C_19 
REMARK       I    between atoms: C_22  and  N_20 
ROOT
ATOM      1  C   LIG d   1      -1.203  60.189 118.650  0.00  0.00     0.161 C 
ATOM      2  C   LIG d   1       0.114  59.870 118.282  0.00  0.00     0.016 C 
ATOM      3  C   LIG d   1       1.122  59.531 119.215  0.00  0.00     0.038 C 
ATOM      4  C   LIG d   1       0.839  59.340 120.575  0.00  0.00     0.028 C 
ATOM      5  C   LIG d   1      -0.363  60.141 121.063  0.00  0.00    -0.047 C 
ATOM      6  C   LIG d   1      -1.558  59.877 120.119  0.00  0.00     0.091 C 
ENDROOT
BRANCH   1   7
ATOM      7  O   LIG d   1      -2.130  59.535 117.761  0.00  0.00    -0.368 OA
BRANCH   7   8
ATOM      8  C   LIG d   1      -2.631  58.247 118.197  0.00  0.00     0.119 C 
BRANCH   8   9
ATOM      9  C   LIG d   1      -2.147  57.194 117.181  0.00  0.00     0.028 C 
ATOM     10  C   LIG d   1      -0.853  56.495 117.631  0.00  0.00     0.006 C 
ENDBRANCH   8   9
BRANCH   8  11
ATOM     11  C   LIG d   1      -4.161  58.195 118.138  0.00  0.00     0.028 C 
ATOM     12  C   LIG d   1      -4.782  59.502 117.621  0.00  0.00     0.006 C 
ENDBRANCH   8  11
ENDBRANCH   7   8
ENDBRANCH   1   7
BRANCH   6  13
ATOM     13  N   LIG d   1      -2.752  60.688 120.475  0.00  0.00    -0.311 N 
ATOM     14  C   LIG d   1      -3.753  60.229 121.223  0.00  0.00     0.210 C 
ATOM     15  C   LIG d   1      -4.896  61.222 121.454  0.00  0.00     0.109 C 
ATOM     16  O   LIG d   1      -3.789  59.104 121.745  0.00  0.00    -0.276 OA
ATOM     17  H   LIG d   1      -2.791  61.623 120.120  0.00  0.00     0.149 HD
ENDBRANCH   6  13
BRANCH   5  18
ATOM     18  N   LIG d   1      -0.629  59.742 122.458  0.00  0.00     0.381 N 
ATOM     19  H   LIG d   1      -1.240  60.406 122.889  0.00  0.00    -0.090 HD
ATOM     20  H   LIG d   1       0.239  59.736 122.965  0.00  0.00    -0.090 HD
ATOM     21  H   LIG d   1      -1.042  58.836 122.481  0.00  0.00    -0.090 HD
ENDBRANCH   5  18
BRANCH   3  22
ATOM     22  C   LIG d   1       2.438  59.419 118.793  0.00  0.00     0.382 C 
ATOM     23  O   LIG d   1       2.927  60.284 118.027  0.00  0.00    -0.241 OA
ATOM     24  O   LIG d   1       3.130  58.441 119.135  0.00  0.00    -0.241 OA
ENDBRANCH   3  22
TORSDOF 7
ENDMDL
MODEL 2
REMARK VINA RESULT:      -4.8      2.534      5.259
REMARK  7 active torsions:
REMARK  status: ('A' for Active; 'I' for Inactive)
REMARK    1  A    between atoms: C_2  and  C_3 
REMARK    2  A    between atoms: C_3  and  O_6 
REMARK    3  A    between atoms: C_3  and  C_4 
REMARK    4  A    between atoms: C_7  and  O_6 
REMARK    5  A    between atoms: C_9  and  C_10 
REMARK    6  A    between atoms: N_15  and  C_14 
REMARK    7  A    between atoms: N_20  and  C_19 
REMARK       I    between atoms: C_22  and  N_20 
ROOT
ATOM      1  C   LIG d   1      -1.681  58.300 118.003  0.00  0.00     0.161 C 
ATOM      2  C   LIG d   1      -2.743  57.386 118.105  0.00  0.00     0.016 C 
ATOM      3  C   LIG d   1      -2.687  56.212 118.892  0.00  0.00     0.038 C 
ATOM      4  C   LIG d   1      -1.613  55.949 119.756  0.00  0.00     0.028 C 
ATOM      5  C   LIG d   1      -0.303  56.585 119.304  0.00  0.00    -0.047 C 
ATOM      6  C   LIG d   1      -0.544  58.087 119.025  0.00  0.00     0.091 C 
ENDROOT
BRANCH   1   7
ATOM      7  O   LIG d   1      -2.186  59.647 118.090  0.00  0.00    -0.368 OA
BRANCH   7   8
ATOM      8  C   LIG d   1      -2.686  60.058 119.386  0.00  0.00     0.119 C 
BRANCH   8   9
ATOM      9  C   LIG d   1      -4.135  60.544 119.190  0.00  0.00     0.028 C 
ATOM     10  C   LIG d   1      -4.789  59.948 117.932  0.00  0.00     0.006 C 
ENDBRANCH   8   9
BRANCH   8  11
ATOM     11  C   LIG d   1      -1.920  61.273 119.919  0.00  0.00     0.028 C 
ATOM     12  C   LIG d   1      -1.333  61.039 121.320  0.00  0.00     0.006 C 
ENDBRANCH   8  11
ENDBRANCH   7   8
ENDBRANCH   1   7
BRANCH   6  13
ATOM     13  N   LIG d   1       0.668  58.767 118.497  0.00  0.00    -0.311 N 
ATOM     14  C   LIG d   1       1.581  59.346 119.275  0.00  0.00     0.210 C 
ATOM     15  C   LIG d   1       2.742  60.008 118.527  0.00  0.00     0.109 C 
ATOM     16  O   LIG d   1       1.556  59.346 120.515  0.00  0.00    -0.276 OA
ATOM     17  H   LIG d   1       0.784  58.786 117.503  0.00  0.00     0.149 HD
ENDBRANCH   6  13
BRANCH   5  18
ATOM     18  N   LIG d   1       0.696  56.347 120.363  0.00  0.00     0.381 N 
ATOM     19  H   LIG d   1       1.542  55.998 119.958  0.00  0.00    -0.090 HD
ATOM     20  H   LIG d   1       0.340  55.654 120.996  0.00  0.00    -0.090 HD
ATOM     21  H   LIG d   1       0.880  57.194 120.854  0.00  0.00    -0.090 HD
ENDBRANCH   5  18
BRANCH   3  22
ATOM     22  C   LIG d   1      -3.696  55.267 118.789  0.00  0.00     0.382 C 
ATOM     23  O   LIG d   1      -3.613  54.351 117.936  0.00  0.00    -0.241 OA
ATOM     24  O   LIG d   1      -4.710  55.345 119.509  0.00  0.00    -0.241 OA
ENDBRANCH   3  22
TORSDOF 7
ENDMDL
MODEL 3
REMARK VINA RESULT:      -4.7      1.825      2.197
REMARK  7 active torsions:
REMARK  status: ('A' for Active; 'I' for Inactive)
REMARK    1  A    between atoms: C_2  and  C_3 
REMARK    2  A    between atoms: C_3  and  O_6 
REMARK    3  A    between atoms: C_3  and  C_4 
REMARK    4  A    between atoms: C_7  and  O_6 
REMARK    5  A    between atoms: C_9  and  C_10 
REMARK    6  A    between atoms: N_15  and  C_14 
REMARK    7  A    between atoms: N_20  and  C_19 
REMARK       I    between atoms: C_22  and  N_20 
ROOT
ATOM      1  C   LIG d   1      -2.626  59.149 118.143  0.00  0.00     0.161 C 
ATOM      2  C   LIG d   1      -1.322  58.804 117.751  0.00  0.00     0.016 C 
ATOM      3  C   LIG d   1      -0.165  59.218 118.451  0.00  0.00     0.038 C 
ATOM      4  C   LIG d   1      -0.242  59.884 119.683  0.00  0.00     0.028 C 
ATOM      5  C   LIG d   1      -1.524  60.690 119.857  0.00  0.00    -0.047 C 
ATOM      6  C   LIG d   1      -2.735  59.780 119.547  0.00  0.00     0.091 C 
ENDROOT
BRANCH   1   7
ATOM      7  O   LIG d   1      -3.486  57.997 118.044  0.00  0.00    -0.368 OA
BRANCH   7   8
ATOM      8  C   LIG d   1      -2.986  56.775 118.641  0.00  0.00     0.119 C 
BRANCH   8   9
ATOM      9  C   LIG d   1      -3.028  55.680 117.557  0.00  0.00     0.028 C 
ATOM     10  C   LIG d   1      -3.540  54.335 118.101  0.00  0.00     0.006 C 
ENDBRANCH   8   9
BRANCH   8  11
ATOM     11  C   LIG d   1      -3.912  56.279 119.755  0.00  0.00     0.028 C 
ATOM     12  C   LIG d   1      -3.325  56.495 121.158  0.00  0.00     0.006 C 
ENDBRANCH   8  11
ENDBRANCH   7   8
ENDBRANCH   1   7
BRANCH   6  13
ATOM     13  N   LIG d   1      -4.026  60.513 119.611  0.00  0.00    -0.311 N 
ATOM     14  C   LIG d   1      -4.796  60.548 120.698  0.00  0.00     0.210 C 
ATOM     15  C   LIG d   1      -6.095  61.345 120.545  0.00  0.00     0.109 C 
ATOM     16  O   LIG d   1      -4.510  60.022 121.784  0.00  0.00    -0.276 OA
ATOM     17  H   LIG d   1      -4.319  60.995 118.784  0.00  0.00     0.149 HD
ENDBRANCH   6  13
BRANCH   5  18
ATOM     18  N   LIG d   1      -1.536  61.217 121.235  0.00  0.00     0.381 N 
ATOM     19  H   LIG d   1      -2.472  61.449 121.501  0.00  0.00    -0.090 HD
ATOM     20  H   LIG d   1      -0.982  62.054 121.267  0.00  0.00    -0.090 HD
ATOM     21  H   LIG d   1      -1.163  60.539 121.863  0.00  0.00    -0.090 HD
ENDBRANCH   5  18
BRANCH   3  22
ATOM     22  C   LIG d   1       1.087  59.002 117.896  0.00  0.00     0.382 C 
ATOM     23  O   LIG d   1       1.346  57.907 117.340  0.00  0.00    -0.241 OA
ATOM     24  O   LIG d   1       1.976  59.870 117.984  0.00  0.00    -0.241 OA
ENDBRANCH   3  22
TORSDOF 7
ENDMDL
MODEL 4
REMARK VINA RESULT:      -4.6      1.812      2.697
REMARK  7 active torsions:
REMARK  status: ('A' for Active; 'I' for Inactive)
REMARK    1  A    between atoms: C_2  and  C_3 
REMARK    2  A    between atoms: C_3  and  O_6 
REMARK    3  A    between atoms: C_3  and  C_4 
REMARK    4  A    between atoms: C_7  and  O_6 
REMARK    5  A    between atoms: C_9  and  C_10 
REMARK    6  A    between atoms: N_15  and  C_14 
REMARK    7  A    between atoms: N_20  and  C_19 
REMARK       I    between atoms: C_22  and  N_20 
ROOT
ATOM      1  C   LIG d   1      -1.886  59.627 120.273  0.00  0.00     0.161 C 
ATOM      2  C   LIG d   1      -0.508  59.466 120.493  0.00  0.00     0.016 C 
ATOM      3  C   LIG d   1       0.194  60.111 121.538  0.00  0.00     0.038 C 
ATOM      4  C   LIG d   1      -0.468  60.848 122.531  0.00  0.00     0.028 C 
ATOM      5  C   LIG d   1      -1.787  61.450 122.061  0.00  0.00    -0.047 C 
ATOM      6  C   LIG d   1      -2.644  60.338 121.414  0.00  0.00     0.091 C 
ENDROOT
BRANCH   1   7
ATOM      7  O   LIG d   1      -2.488  58.348 119.993  0.00  0.00    -0.368 OA
BRANCH   7   8
ATOM      8  C   LIG d   1      -2.810  58.086 118.604  0.00  0.00     0.119 C 
BRANCH   8   9
ATOM      9  C   LIG d   1      -4.327  58.292 118.433  0.00  0.00     0.028 C 
ATOM     10  C   LIG d   1      -4.659  59.535 117.590  0.00  0.00     0.006 C 
ENDBRANCH   8   9
BRANCH   8  11
ATOM     11  C   LIG d   1      -2.557  56.619 118.241  0.00  0.00     0.028 C 
ATOM     12  C   LIG d   1      -3.720  55.698 118.639  0.00  0.00     0.006 C 
ENDBRANCH   8  11
ENDBRANCH   7   8
ENDBRANCH   1   7
BRANCH   6  13
ATOM     13  N   LIG d   1      -3.917  60.859 120.851  0.00  0.00    -0.311 N 
ATOM     14  C   LIG d   1      -5.070  60.853 121.517  0.00  0.00     0.210 C 
ATOM     15  C   LIG d   1      -6.266  61.418 120.745  0.00  0.00     0.109 C 
ATOM     16  O   LIG d   1      -5.209  60.463 122.686  0.00  0.00    -0.276 OA
ATOM     17  H   LIG d   1      -3.889  61.223 119.919  0.00  0.00     0.149 HD
ENDBRANCH   6  13
BRANCH   5  18
ATOM     18  N   LIG d   1      -2.435  62.072 123.231  0.00  0.00     0.381 N 
ATOM     19  H   LIG d   1      -2.339  63.067 123.183  0.00  0.00    -0.090 HD
ATOM     20  H   LIG d   1      -1.977  61.751 124.065  0.00  0.00    -0.090 HD
ATOM     21  H   LIG d   1      -3.400  61.826 123.257  0.00  0.00    -0.090 HD
ENDBRANCH   5  18
BRANCH   3  22
ATOM     22  C   LIG d   1       1.579  60.055 121.572  0.00  0.00     0.382 C 
ATOM     23  O   LIG d   1       2.198  60.463 122.584  0.00  0.00    -0.241 OA
ATOM     24  O   LIG d   1       2.219  59.643 120.586  0.00  0.00    -0.241 OA
ENDBRANCH   3  22
TORSDOF 7
ENDMDL
MODEL 5
REMARK VINA RESULT:      -4.5      2.819      5.292
REMARK  7 active torsions:
REMARK  status: ('A' for Active; 'I' for Inactive)
REMARK    1  A    between atoms: C_2  and  C_3 
REMARK    2  A    between atoms: C_3  and  O_6 
REMARK    3  A    between atoms: C_3  and  C_4 
REMARK    4  A    between atoms: C_7  and  O_6 
REMARK    5  A    between atoms: C_9  and  C_10 
REMARK    6  A    between atoms: N_15  and  C_14 
REMARK    7  A    between atoms: N_20  and  C_19 
REMARK       I    between atoms: C_22  and  N_20 
ROOT
ATOM      1  C   LIG d   1      -0.295  57.656 120.122  0.00  0.00     0.161 C 
ATOM      2  C   LIG d   1      -1.223  58.705 120.222  0.00  0.00     0.016 C 
ATOM      3  C   LIG d   1      -1.086  59.934 119.537  0.00  0.00     0.038 C 
ATOM      4  C   LIG d   1      -0.080  60.141 118.580  0.00  0.00     0.028 C 
ATOM      5  C   LIG d   1       1.168  59.298 118.821  0.00  0.00    -0.047 C 
ATOM      6  C   LIG d   1       0.749  57.821 118.998  0.00  0.00     0.091 C 
ENDROOT
BRANCH   1   7
ATOM      7  O   LIG d   1      -0.989  56.401 119.981  0.00  0.00    -0.368 OA
BRANCH   7   8
ATOM      8  C   LIG d   1      -1.451  56.074 118.647  0.00  0.00     0.119 C 
BRANCH   8   9
ATOM      9  C   LIG d   1      -2.990  56.015 118.691  0.00  0.00     0.028 C 
ATOM     10  C   LIG d   1      -3.644  57.190 117.945  0.00  0.00     0.006 C 
ENDBRANCH   8   9
BRANCH   8  11
ATOM     11  C   LIG d   1      -1.003  54.670 118.230  0.00  0.00     0.028 C 
ATOM     12  C   LIG d   1      -1.760  53.558 118.974  0.00  0.00     0.006 C 
ENDBRANCH   8  11
ENDBRANCH   7   8
ENDBRANCH   1   7
BRANCH   6  13
ATOM     13  N   LIG d   1       1.902  56.940 119.322  0.00  0.00    -0.311 N 
ATOM     14  C   LIG d   1       2.584  56.259 118.403  0.00  0.00     0.210 C 
ATOM     15  C   LIG d   1       3.723  55.395 118.953  0.00  0.00     0.109 C 
ATOM     16  O   LIG d   1       2.375  56.312 117.182  0.00  0.00    -0.276 OA
ATOM     17  H   LIG d   1       2.160  56.862 120.286  0.00  0.00     0.149 HD
ENDBRANCH   6  13
BRANCH   5  18
ATOM     18  N   LIG d   1       2.075  59.509 117.678  0.00  0.00     0.381 N 
ATOM     19  H   LIG d   1       1.908  58.813 116.980  0.00  0.00    -0.090 HD
ATOM     20  H   LIG d   1       3.024  59.416 117.995  0.00  0.00    -0.090 HD
ATOM     21  H   LIG d   1       1.934  60.417 117.293  0.00  0.00    -0.090 HD
ENDBRANCH   5  18
BRANCH   3  22
ATOM     22  C   LIG d   1      -1.937  60.987 119.836  0.00  0.00     0.382 C 
ATOM     23  O   LIG d   1      -1.658  61.772 120.774  0.00  0.00    -0.241 OA
ATOM     24  O   LIG d   1      -3.002  61.136 119.208  0.00  0.00    -0.241 OA
ENDBRANCH   3  22
TORSDOF 7
ENDMDL
MODEL 6
REMARK VINA RESULT:      -4.5      1.793      3.088
REMARK  7 active torsions:
REMARK  status: ('A' for Active; 'I' for Inactive)
REMARK    1  A    between atoms: C_2  and  C_3 
REMARK    2  A    between atoms: C_3  and  O_6 
REMARK    3  A    between atoms: C_3  and  C_4 
REMARK    4  A    between atoms: C_7  and  O_6 
REMARK    5  A    between atoms: C_9  and  C_10 
REMARK    6  A    between atoms: N_15  and  C_14 
REMARK    7  A    between atoms: N_20  and  C_19 
REMARK       I    between atoms: C_22  and  N_20 
ROOT
ATOM      1  C   LIG d   1      -1.664  60.442 120.363  0.00  0.00     0.161 C 
ATOM      2  C   LIG d   1      -0.858  60.129 119.255  0.00  0.00     0.016 C 
ATOM      3  C   LIG d   1       0.479  59.683 119.367  0.00  0.00     0.038 C 
ATOM      4  C   LIG d   1       1.056  59.374 120.607  0.00  0.00     0.028 C 
ATOM      5  C   LIG d   1       0.450  60.153 121.769  0.00  0.00    -0.047 C 
ATOM      6  C   LIG d   1      -1.088  60.004 121.726  0.00  0.00     0.091 C 
ENDROOT
BRANCH   1   7
ATOM      7  O   LIG d   1      -2.984  59.894 120.178  0.00  0.00    -0.368 OA
BRANCH   7   8
ATOM      8  C   LIG d   1      -4.004  60.823 119.737  0.00  0.00     0.119 C 
BRANCH   8   9
ATOM      9  C   LIG d   1      -4.793  61.269 120.983  0.00  0.00     0.028 C 
ATOM     10  C   LIG d   1      -6.312  61.281 120.743  0.00  0.00     0.006 C 
ENDBRANCH   8   9
BRANCH   8  11
ATOM     11  C   LIG d   1      -5.030  60.136 118.832  0.00  0.00     0.028 C 
ATOM     12  C   LIG d   1      -4.392  59.485 117.594  0.00  0.00     0.006 C 
ENDBRANCH   8  11
ENDBRANCH   7   8
ENDBRANCH   1   7
BRANCH   6  13
ATOM     13  N   LIG d   1      -1.765  60.805 122.779  0.00  0.00    -0.311 N 
ATOM     14  C   LIG d   1      -2.128  60.307 123.959  0.00  0.00     0.210 C 
ATOM     15  C   LIG d   1      -2.831  61.299 124.891  0.00  0.00     0.109 C 
ATOM     16  O   LIG d   1      -1.906  59.146 124.335  0.00  0.00    -0.276 OA
ATOM     17  H   LIG d   1      -1.955  61.766 122.569  0.00  0.00     0.149 HD
ENDBRANCH   6  13
BRANCH   5  18
ATOM     18  N   LIG d   1       1.047  59.634 123.014  0.00  0.00     0.381 N 
ATOM     19  H   LIG d   1       0.524  59.959 123.802  0.00  0.00    -0.090 HD
ATOM     20  H   LIG d   1       1.987  59.982 123.094  0.00  0.00    -0.090 HD
ATOM     21  H   LIG d   1       1.054  58.638 122.999  0.00  0.00    -0.090 HD
ENDBRANCH   5  18
BRANCH   3  22
ATOM     22  C   LIG d   1       1.266  59.581 118.230  0.00  0.00     0.382 C 
ATOM     23  O   LIG d   1       0.790  59.086 117.180  0.00  0.00    -0.241 OA
ATOM     24  O   LIG d   1       2.460  59.938 118.254  0.00  0.00    -0.241 OA
ENDBRANCH   3  22
TORSDOF 7
ENDMDL
MODEL 7
REMARK VINA RESULT:      -4.5     20.806     23.163
REMARK  7 active torsions:
REMARK  status: ('A' for Active; 'I' for Inactive)
REMARK    1  A    between atoms: C_2  and  C_3 
REMARK    2  A    between atoms: C_3  and  O_6 
REMARK    3  A    between atoms: C_3  and  C_4 
REMARK    4  A    between atoms: C_7  and  O_6 
REMARK    5  A    between atoms: C_9  and  C_10 
REMARK    6  A    between atoms: N_15  and  C_14 
REMARK    7  A    between atoms: N_20  and  C_19 
REMARK       I    between atoms: C_22  and  N_20 
ROOT
ATOM      1  C   LIG d   1      -9.906  80.631 120.706  0.00  0.00     0.161 C 
ATOM      2  C   LIG d   1      -9.668  79.376 120.121  0.00  0.00     0.016 C 
ATOM      3  C   LIG d   1      -9.348  79.203 118.755  0.00  0.00     0.038 C 
ATOM      4  C   LIG d   1      -9.094  80.293 117.909  0.00  0.00     0.028 C 
ATOM      5  C   LIG d   1      -9.815  81.568 118.331  0.00  0.00    -0.047 C 
ATOM      6  C   LIG d   1      -9.524  81.839 119.825  0.00  0.00     0.091 C 
ENDROOT
BRANCH   1   7
ATOM      7  O   LIG d   1      -9.238  80.711 121.981  0.00  0.00    -0.368 OA
BRANCH   7   8
ATOM      8  C   LIG d   1      -8.036  79.913 122.122  0.00  0.00     0.119 C 
BRANCH   8   9
ATOM      9  C   LIG d   1      -8.059  79.286 123.529  0.00  0.00     0.028 C 
ATOM     10  C   LIG d   1      -8.982  78.058 123.609  0.00  0.00     0.006 C 
ENDBRANCH   8   9
BRANCH   8  11
ATOM     11  C   LIG d   1      -6.780  80.788 122.088  0.00  0.00     0.028 C 
ATOM     12  C   LIG d   1      -6.089  80.786 120.715  0.00  0.00     0.006 C 
ENDBRANCH   8  11
ENDBRANCH   7   8
ENDBRANCH   1   7
BRANCH   6  13
ATOM     13  N   LIG d   1     -10.260  83.022 120.340  0.00  0.00    -0.311 N 
ATOM     14  C   LIG d   1      -9.732  83.901 121.191  0.00  0.00     0.210 C 
ATOM     15  C   LIG d   1     -10.669  85.037 121.612  0.00  0.00     0.109 C 
ATOM     16  O   LIG d   1      -8.566  83.865 121.611  0.00  0.00    -0.276 OA
ATOM     17  H   LIG d   1     -11.203  83.146 120.026  0.00  0.00     0.149 HD
ENDBRANCH   6  13
BRANCH   5  18
ATOM     18  N   LIG d   1      -9.354  82.655 117.446  0.00  0.00     0.381 N 
ATOM     19  H   LIG d   1      -8.489  82.397 117.015  0.00  0.00    -0.090 HD
ATOM     20  H   LIG d   1      -9.198  83.480 117.998  0.00  0.00    -0.090 HD
ATOM     21  H   LIG d   1     -10.039  82.839 116.747  0.00  0.00    -0.090 HD
ENDBRANCH   5  18
BRANCH   3  22
ATOM     22  C   LIG d   1      -9.318  77.927 118.213  0.00  0.00     0.382 C 
ATOM     23  O   LIG d   1      -8.252  77.478 117.726  0.00  0.00    -0.241 OA
ATOM     24  O   LIG d   1     -10.354  77.237 118.164  0.00  0.00    -0.241 OA
ENDBRANCH   3  22
TORSDOF 7
ENDMDL
MODEL 8
REMARK VINA RESULT:      -4.4     20.982     23.541
REMARK  7 active torsions:
REMARK  status: ('A' for Active; 'I' for Inactive)
REMARK    1  A    between atoms: C_2  and  C_3 
REMARK    2  A    between atoms: C_3  and  O_6 
REMARK    3  A    between atoms: C_3  and  C_4 
REMARK    4  A    between atoms: C_7  and  O_6 
REMARK    5  A    between atoms: C_9  and  C_10 
REMARK    6  A    between atoms: N_15  and  C_14 
REMARK    7  A    between atoms: N_20  and  C_19 
REMARK       I    between atoms: C_22  and  N_20 
ROOT
ATOM      1  C   LIG d   1      -9.954  80.636 120.684  0.00  0.00     0.161 C 
ATOM      2  C   LIG d   1      -9.729  79.379 120.098  0.00  0.00     0.016 C 
ATOM      3  C   LIG d   1      -9.324  79.209 118.754  0.00  0.00     0.038 C 
ATOM      4  C   LIG d   1      -8.968  80.298 117.943  0.00  0.00     0.028 C 
ATOM      5  C   LIG d   1      -9.662  81.597 118.335  0.00  0.00    -0.047 C 
ATOM      6  C   LIG d   1      -9.463  81.837 119.849  0.00  0.00     0.091 C 
ENDROOT
BRANCH   1   7
ATOM      7  O   LIG d   1      -9.371  80.671 122.002  0.00  0.00    -0.368 OA
BRANCH   7   8
ATOM      8  C   LIG d   1     -10.239  80.276 123.093  0.00  0.00     0.119 C 
BRANCH   8   9
ATOM      9  C   LIG d   1     -10.641  81.557 123.851  0.00  0.00     0.028 C 
ATOM     10  C   LIG d   1     -12.054  82.038 123.481  0.00  0.00     0.006 C 
ENDBRANCH   8   9
BRANCH   8  11
ATOM     11  C   LIG d   1      -9.492  79.417 124.117  0.00  0.00     0.028 C 
ATOM     12  C   LIG d   1      -9.005  78.082 123.533  0.00  0.00     0.006 C 
ENDBRANCH   8  11
ENDBRANCH   7   8
ENDBRANCH   1   7
BRANCH   6  13
ATOM     13  N   LIG d   1     -10.182  83.044 120.332  0.00  0.00    -0.311 N 
ATOM     14  C   LIG d   1      -9.664  83.906 121.205  0.00  0.00     0.210 C 
ATOM     15  C   LIG d   1     -10.582  85.073 121.584  0.00  0.00     0.109 C 
ATOM     16  O   LIG d   1      -8.519  83.833 121.676  0.00  0.00    -0.276 OA
ATOM     17  H   LIG d   1     -11.106  83.198 119.976  0.00  0.00     0.149 HD
ENDBRANCH   6  13
BRANCH   5  18
ATOM     18  N   LIG d   1      -9.097  82.674 117.500  0.00  0.00     0.381 N 
ATOM     19  H   LIG d   1      -9.578  82.711 116.624  0.00  0.00    -0.090 HD
ATOM     20  H   LIG d   1      -8.129  82.472 117.320  0.00  0.00    -0.090 HD
ATOM     21  H   LIG d   1      -9.179  83.549 117.970  0.00  0.00    -0.090 HD
ENDBRANCH   5  18
BRANCH   3  22
ATOM     22  C   LIG d   1      -9.311  77.940 118.195  0.00  0.00     0.382 C 
ATOM     23  O   LIG d   1      -8.255  77.489 117.689  0.00  0.00    -0.241 OA
ATOM     24  O   LIG d   1     -10.352  77.258 118.152  0.00  0.00    -0.241 OA
ENDBRANCH   3  22
TORSDOF 7
ENDMDL
MODEL 9
REMARK VINA RESULT:      -4.3      2.759      6.020
REMARK  7 active torsions:
REMARK  status: ('A' for Active; 'I' for Inactive)
REMARK    1  A    between atoms: C_2  and  C_3 
REMARK    2  A    between atoms: C_3  and  O_6 
REMARK    3  A    between atoms: C_3  and  C_4 
REMARK    4  A    between atoms: C_7  and  O_6 
REMARK    5  A    between atoms: C_9  and  C_10 
REMARK    6  A    between atoms: N_15  and  C_14 
REMARK    7  A    between atoms: N_20  and  C_19 
REMARK       I    between atoms: C_22  and  N_20 
ROOT
ATOM      1  C   LIG d   1      -1.108  58.459 118.788  0.00  0.00     0.161 C 
ATOM      2  C   LIG d   1      -2.290  59.215 118.727  0.00  0.00     0.016 C 
ATOM      3  C   LIG d   1      -3.521  58.699 118.260  0.00  0.00     0.038 C 
ATOM      4  C   LIG d   1      -3.689  57.339 117.961  0.00  0.00     0.028 C 
ATOM      5  C   LIG d   1      -2.400  56.650 117.527  0.00  0.00    -0.047 C 
ATOM      6  C   LIG d   1      -1.298  56.943 118.571  0.00  0.00     0.091 C 
ENDROOT
BRANCH   1   7
ATOM      7  O   LIG d   1      -0.434  58.705 120.037  0.00  0.00    -0.368 OA
BRANCH   7   8
ATOM      8  C   LIG d   1       0.579  59.741 120.021  0.00  0.00     0.119 C 
BRANCH   8   9
ATOM      9  C   LIG d   1       1.315  59.648 118.671  0.00  0.00     0.028 C 
ATOM     10  C   LIG d   1       2.637  58.869 118.775  0.00  0.00     0.006 C 
ENDBRANCH   8   9
BRANCH   8  11
ATOM     11  C   LIG d   1       1.652  59.488 121.085  0.00  0.00     0.028 C 
ATOM     12  C   LIG d   1       1.507  60.408 122.308  0.00  0.00     0.006 C 
ENDBRANCH   8  11
ENDBRANCH   7   8
ENDBRANCH   1   7
BRANCH   6  13
ATOM     13  N   LIG d   1       0.019  56.376 118.180  0.00  0.00    -0.311 N 
ATOM     14  C   LIG d   1       0.701  55.517 118.936  0.00  0.00     0.210 C 
ATOM     15  C   LIG d   1       2.046  55.072 118.354  0.00  0.00     0.109 C 
ATOM     16  O   LIG d   1       0.305  55.058 120.018  0.00  0.00    -0.276 OA
ATOM     17  H   LIG d   1       0.399  56.670 117.302  0.00  0.00     0.149 HD
ENDBRANCH   6  13
BRANCH   5  18
ATOM     18  N   LIG d   1      -2.691  55.211 117.381  0.00  0.00     0.381 N 
ATOM     19  H   LIG d   1      -1.837  54.704 117.260  0.00  0.00    -0.090 HD
ATOM     20  H   LIG d   1      -3.256  55.076 116.561  0.00  0.00    -0.090 HD
ATOM     21  H   LIG d   1      -3.173  54.877 118.185  0.00  0.00    -0.090 HD
ENDBRANCH   5  18
BRANCH   3  22
ATOM     22  C   LIG d   1      -4.590  59.557 118.050  0.00  0.00     0.382 C 
ATOM     23  O   LIG d   1      -5.662  59.116 117.568  0.00  0.00    -0.241 OA
ATOM     24  O   LIG d   1      -4.481  60.773 118.293  0.00  0.00    -0.241 OA
ENDBRANCH   3  22
TORSDOF 7
ENDMDL
