MODEL 1
REMARK VINA RESULT:      -5.7      0.000      0.000
REMARK  7 active torsions:
REMARK  status: ('A' for Active; 'I' for Inactive)
REMARK    1  A    between atoms: C_2  and  C_3 
REMARK    2  A    between atoms: C_3  and  O_6 
REMARK    3  A    between atoms: C_3  and  C_4 
REMARK    4  A    between atoms: C_7  and  O_6 
REMARK    5  A    between atoms: C_9  and  C_10 
REMARK    6  A    between atoms: N_15  and  C_14 
REMARK    7  A    between atoms: N_20  and  C_19 
REMARK       I    between atoms: C_22  and  N_20 
ROOT
ATOM      1  C   LIG d   1      -1.606  59.944 119.391  0.00  0.00     0.161 C 
ATOM      2  C   LIG d   1      -1.492  60.795 120.503  0.00  0.00     0.016 C 
ATOM      3  C   LIG d   1      -0.256  61.280 120.988  0.00  0.00     0.038 C 
ATOM      4  C   LIG d   1       0.946  61.069 120.297  0.00  0.00     0.028 C 
ATOM      5  C   LIG d   1       0.945  59.799 119.453  0.00  0.00    -0.047 C 
ATOM      6  C   LIG d   1      -0.315  59.793 118.558  0.00  0.00     0.091 C 
ENDROOT
BRANCH   1   7
ATOM      7  O   LIG d   1      -2.695  60.379 118.553  0.00  0.00    -0.368 OA
BRANCH   7   8
ATOM      8  C   LIG d   1      -3.871  59.534 118.546  0.00  0.00     0.119 C 
BRANCH   8   9
ATOM      9  C   LIG d   1      -5.079  60.418 118.910  0.00  0.00     0.028 C 
ATOM     10  C   LIG d   1      -5.212  60.635 120.427  0.00  0.00     0.006 C 
ENDBRANCH   8   9
BRANCH   8  11
ATOM     11  C   LIG d   1      -3.800  58.471 119.647  0.00  0.00     0.028 C 
ATOM     12  C   LIG d   1      -4.174  57.068 119.146  0.00  0.00     0.006 C 
ENDBRANCH   8  11
ENDBRANCH   7   8
ENDBRANCH   1   7
BRANCH   6  13
ATOM     13  N   LIG d   1      -0.439  58.545 117.761  0.00  0.00    -0.311 N 
ATOM     14  C   LIG d   1      -0.487  57.330 118.304  0.00  0.00     0.210 C 
ATOM     15  C   LIG d   1      -0.595  56.177 117.301  0.00  0.00     0.109 C 
ATOM     16  O   LIG d   1      -0.484  57.099 119.523  0.00  0.00    -0.276 OA
ATOM     17  H   LIG d   1      -0.479  58.642 116.765  0.00  0.00     0.149 HD
ENDBRANCH   6  13
BRANCH   5  18
ATOM     18  N   LIG d   1       2.202  59.774 118.682  0.00  0.00     0.381 N 
ATOM     19  H   LIG d   1       2.795  59.045 119.024  0.00  0.00    -0.090 HD
ATOM     20  H   LIG d   1       2.677  60.651 118.807  0.00  0.00    -0.090 HD
ATOM     21  H   LIG d   1       2.007  59.628 117.716  0.00  0.00    -0.090 HD
ENDBRANCH   5  18
BRANCH   3  22
ATOM     22  C   LIG d   1      -0.210  61.954 122.200  0.00  0.00     0.382 C 
ATOM     23  O   LIG d   1      -1.088  62.806 122.477  0.00  0.00    -0.241 OA
ATOM     24  O   LIG d   1       0.723  61.751 123.000  0.00  0.00    -0.241 OA
ENDBRANCH   3  22
TORSDOF 7
ENDMDL
MODEL 2
REMARK VINA RESULT:      -5.6      2.344      4.192
REMARK  7 active torsions:
REMARK  status: ('A' for Active; 'I' for Inactive)
REMARK    1  A    between atoms: C_2  and  C_3 
REMARK    2  A    between atoms: C_3  and  O_6 
REMARK    3  A    between atoms: C_3  and  C_4 
REMARK    4  A    between atoms: C_7  and  O_6 
REMARK    5  A    between atoms: C_9  and  C_10 
REMARK    6  A    between atoms: N_15  and  C_14 
REMARK    7  A    between atoms: N_20  and  C_19 
REMARK       I    between atoms: C_22  and  N_20 
ROOT
ATOM      1  C   LIG d   1      -1.074  59.281 118.260  0.00  0.00     0.161 C 
ATOM      2  C   LIG d   1       0.315  59.327 118.461  0.00  0.00     0.016 C 
ATOM      3  C   LIG d   1       0.937  60.179 119.402  0.00  0.00     0.038 C 
ATOM      4  C   LIG d   1       0.195  60.938 120.319  0.00  0.00     0.028 C 
ATOM      5  C   LIG d   1      -1.197  61.304 119.816  0.00  0.00    -0.047 C 
ATOM      6  C   LIG d   1      -1.907  60.021 119.328  0.00  0.00     0.091 C 
ENDROOT
BRANCH   1   7
ATOM      7  O   LIG d   1      -1.507  57.910 118.149  0.00  0.00    -0.368 OA
BRANCH   7   8
ATOM      8  C   LIG d   1      -1.370  57.100 119.342  0.00  0.00     0.119 C 
BRANCH   8   9
ATOM      9  C   LIG d   1      -0.755  55.752 118.918  0.00  0.00     0.028 C 
ATOM     10  C   LIG d   1      -0.462  55.689 117.409  0.00  0.00     0.006 C 
ENDBRANCH   8   9
BRANCH   8  11
ATOM     11  C   LIG d   1      -2.737  56.752 119.938  0.00  0.00     0.028 C 
ATOM     12  C   LIG d   1      -3.854  56.709 118.883  0.00  0.00     0.006 C 
ENDBRANCH   8  11
ENDBRANCH   7   8
ENDBRANCH   1   7
BRANCH   6  13
ATOM     13  N   LIG d   1      -3.244  60.301 118.742  0.00  0.00    -0.311 N 
ATOM     14  C   LIG d   1      -4.381  60.196 119.427  0.00  0.00     0.210 C 
ATOM     15  C   LIG d   1      -5.649  60.511 118.626  0.00  0.00     0.109 C 
ATOM     16  O   LIG d   1      -4.458  59.905 120.630  0.00  0.00    -0.276 OA
ATOM     17  H   LIG d   1      -3.271  60.574 117.779  0.00  0.00     0.149 HD
ENDBRANCH   6  13
BRANCH   5  18
ATOM     18  N   LIG d   1      -1.908  61.973 120.921  0.00  0.00     0.381 N 
ATOM     19  H   LIG d   1      -2.133  62.913 120.660  0.00  0.00    -0.090 HD
ATOM     20  H   LIG d   1      -1.305  62.006 121.724  0.00  0.00    -0.090 HD
ATOM     21  H   LIG d   1      -2.742  61.474 121.143  0.00  0.00    -0.090 HD
ENDBRANCH   5  18
BRANCH   3  22
ATOM     22  C   LIG d   1       2.318  60.307 119.406  0.00  0.00     0.382 C 
ATOM     23  O   LIG d   1       2.863  61.237 118.765  0.00  0.00    -0.241 OA
ATOM     24  O   LIG d   1       3.028  59.478 120.006  0.00  0.00    -0.241 OA
ENDBRANCH   3  22
TORSDOF 7
ENDMDL
MODEL 3
REMARK VINA RESULT:      -5.5      2.731      4.296
REMARK  7 active torsions:
REMARK  status: ('A' for Active; 'I' for Inactive)
REMARK    1  A    between atoms: C_2  and  C_3 
REMARK    2  A    between atoms: C_3  and  O_6 
REMARK    3  A    between atoms: C_3  and  C_4 
REMARK    4  A    between atoms: C_7  and  O_6 
REMARK    5  A    between atoms: C_9  and  C_10 
REMARK    6  A    between atoms: N_15  and  C_14 
REMARK    7  A    between atoms: N_20  and  C_19 
REMARK       I    between atoms: C_22  and  N_20 
ROOT
ATOM      1  C   LIG d   1      -1.034  61.121 119.688  0.00  0.00     0.161 C 
ATOM      2  C   LIG d   1       0.251  60.877 119.177  0.00  0.00     0.016 C 
ATOM      3  C   LIG d   1       1.329  60.416 119.968  0.00  0.00     0.038 C 
ATOM      4  C   LIG d   1       1.153  60.020 121.302  0.00  0.00     0.028 C 
ATOM      5  C   LIG d   1      -0.009  60.724 121.995  0.00  0.00    -0.047 C 
ATOM      6  C   LIG d   1      -1.274  60.589 121.117  0.00  0.00     0.091 C 
ENDROOT
BRANCH   1   7
ATOM      7  O   LIG d   1      -2.027  60.595 118.785  0.00  0.00    -0.368 OA
BRANCH   7   8
ATOM      8  C   LIG d   1      -2.308  59.178 118.901  0.00  0.00     0.119 C 
BRANCH   8   9
ATOM      9  C   LIG d   1      -1.930  58.521 117.560  0.00  0.00     0.028 C 
ATOM     10  C   LIG d   1      -0.674  57.640 117.671  0.00  0.00     0.006 C 
ENDBRANCH   8   9
BRANCH   8  11
ATOM     11  C   LIG d   1      -3.807  58.919 119.071  0.00  0.00     0.028 C 
ATOM     12  C   LIG d   1      -4.657  60.185 118.874  0.00  0.00     0.006 C 
ENDBRANCH   8  11
ENDBRANCH   7   8
ENDBRANCH   1   7
BRANCH   6  13
ATOM     13  N   LIG d   1      -2.437  61.322 121.681  0.00  0.00    -0.311 N 
ATOM     14  C   LIG d   1      -3.392  60.738 122.402  0.00  0.00     0.210 C 
ATOM     15  C   LIG d   1      -4.511  61.673 122.871  0.00  0.00     0.109 C 
ATOM     16  O   LIG d   1      -3.402  59.540 122.725  0.00  0.00    -0.276 OA
ATOM     17  H   LIG d   1      -2.491  62.304 121.494  0.00  0.00     0.149 HD
ENDBRANCH   6  13
BRANCH   5  18
ATOM     18  N   LIG d   1      -0.164  60.118 123.331  0.00  0.00     0.381 N 
ATOM     19  H   LIG d   1      -0.434  59.160 123.238  0.00  0.00    -0.090 HD
ATOM     20  H   LIG d   1      -0.891  60.604 123.825  0.00  0.00    -0.090 HD
ATOM     21  H   LIG d   1       0.692  60.183 123.836  0.00  0.00    -0.090 HD
ENDBRANCH   5  18
BRANCH   3  22
ATOM     22  C   LIG d   1       2.608  60.385 119.435  0.00  0.00     0.382 C 
ATOM     23  O   LIG d   1       3.437  59.535 119.842  0.00  0.00    -0.241 OA
ATOM     24  O   LIG d   1       2.959  61.225 118.584  0.00  0.00    -0.241 OA
ENDBRANCH   3  22
TORSDOF 7
ENDMDL
MODEL 4
REMARK VINA RESULT:      -5.3      1.888      5.108
REMARK  7 active torsions:
REMARK  status: ('A' for Active; 'I' for Inactive)
REMARK    1  A    between atoms: C_2  and  C_3 
REMARK    2  A    between atoms: C_3  and  O_6 
REMARK    3  A    between atoms: C_3  and  C_4 
REMARK    4  A    between atoms: C_7  and  O_6 
REMARK    5  A    between atoms: C_9  and  C_10 
REMARK    6  A    between atoms: N_15  and  C_14 
REMARK    7  A    between atoms: N_20  and  C_19 
REMARK       I    between atoms: C_22  and  N_20 
ROOT
ATOM      1  C   LIG d   1      -1.413  60.980 120.236  0.00  0.00     0.161 C 
ATOM      2  C   LIG d   1      -2.786  60.728 120.077  0.00  0.00     0.016 C 
ATOM      3  C   LIG d   1      -3.307  59.841 119.108  0.00  0.00     0.038 C 
ATOM      4  C   LIG d   1      -2.475  59.025 118.326  0.00  0.00     0.028 C 
ATOM      5  C   LIG d   1      -1.087  59.615 118.101  0.00  0.00    -0.047 C 
ATOM      6  C   LIG d   1      -0.485  60.016 119.467  0.00  0.00     0.091 C 
ENDROOT
BRANCH   1   7
ATOM      7  O   LIG d   1      -1.076  60.988 121.637  0.00  0.00    -0.368 OA
BRANCH   7   8
ATOM      8  C   LIG d   1      -0.654  62.261 122.185  0.00  0.00     0.119 C 
BRANCH   8   9
ATOM      9  C   LIG d   1       0.765  62.072 122.754  0.00  0.00     0.028 C 
ATOM     10  C   LIG d   1       1.103  60.594 123.011  0.00  0.00     0.006 C 
ENDBRANCH   8   9
BRANCH   8  11
ATOM     11  C   LIG d   1      -1.520  62.668 123.380  0.00  0.00     0.028 C 
ATOM     12  C   LIG d   1      -1.054  63.978 124.035  0.00  0.00     0.006 C 
ENDBRANCH   8  11
ENDBRANCH   7   8
ENDBRANCH   1   7
BRANCH   6  13
ATOM     13  N   LIG d   1       0.838  60.679 119.330  0.00  0.00    -0.311 N 
ATOM     14  C   LIG d   1       1.996  60.025 119.400  0.00  0.00     0.210 C 
ATOM     15  C   LIG d   1       3.244  60.902 119.253  0.00  0.00     0.109 C 
ATOM     16  O   LIG d   1       2.108  58.798 119.537  0.00  0.00    -0.276 OA
ATOM     17  H   LIG d   1       0.839  61.670 119.185  0.00  0.00     0.149 HD
ENDBRANCH   6  13
BRANCH   5  18
ATOM     18  N   LIG d   1      -0.283  58.603 117.390  0.00  0.00     0.381 N 
ATOM     19  H   LIG d   1       0.390  58.205 118.014  0.00  0.00    -0.090 HD
ATOM     20  H   LIG d   1       0.211  59.050 116.637  0.00  0.00    -0.090 HD
ATOM     21  H   LIG d   1      -0.876  57.888 117.029  0.00  0.00    -0.090 HD
ENDBRANCH   5  18
BRANCH   3  22
ATOM     22  C   LIG d   1      -4.675  59.792 118.885  0.00  0.00     0.382 C 
ATOM     23  O   LIG d   1      -5.339  60.855 118.829  0.00  0.00    -0.241 OA
ATOM     24  O   LIG d   1      -5.260  58.697 118.785  0.00  0.00    -0.241 OA
ENDBRANCH   3  22
TORSDOF 7
ENDMDL
MODEL 5
REMARK VINA RESULT:      -5.0      2.082      3.978
REMARK  7 active torsions:
REMARK  status: ('A' for Active; 'I' for Inactive)
REMARK    1  A    between atoms: C_2  and  C_3 
REMARK    2  A    between atoms: C_3  and  O_6 
REMARK    3  A    between atoms: C_3  and  C_4 
REMARK    4  A    between atoms: C_7  and  O_6 
REMARK    5  A    between atoms: C_9  and  C_10 
REMARK    6  A    between atoms: N_15  and  C_14 
REMARK    7  A    between atoms: N_20  and  C_19 
REMARK       I    between atoms: C_22  and  N_20 
ROOT
ATOM      1  C   LIG d   1      -0.589  61.228 121.338  0.00  0.00     0.161 C 
ATOM      2  C   LIG d   1       0.740  61.575 121.635  0.00  0.00     0.016 C 
ATOM      3  C   LIG d   1       1.842  61.186 120.839  0.00  0.00     0.038 C 
ATOM      4  C   LIG d   1       1.674  60.548 119.602  0.00  0.00     0.028 C 
ATOM      5  C   LIG d   1       0.388  59.734 119.509  0.00  0.00    -0.047 C 
ATOM      6  C   LIG d   1      -0.801  60.626 119.933  0.00  0.00     0.091 C 
ENDROOT
BRANCH   1   7
ATOM      7  O   LIG d   1      -1.446  62.370 121.530  0.00  0.00    -0.368 OA
BRANCH   7   8
ATOM      8  C   LIG d   1      -2.234  62.379 122.745  0.00  0.00     0.119 C 
BRANCH   8   9
ATOM      9  C   LIG d   1      -1.476  63.231 123.782  0.00  0.00     0.028 C 
ATOM     10  C   LIG d   1      -1.239  62.477 125.101  0.00  0.00     0.006 C 
ENDBRANCH   8   9
BRANCH   8  11
ATOM     11  C   LIG d   1      -2.326  60.980 123.360  0.00  0.00     0.028 C 
ATOM     12  C   LIG d   1      -3.713  60.341 123.183  0.00  0.00     0.006 C 
ENDBRANCH   8  11
ENDBRANCH   7   8
ENDBRANCH   1   7
BRANCH   6  13
ATOM     13  N   LIG d   1      -2.089  59.883 119.952  0.00  0.00    -0.311 N 
ATOM     14  C   LIG d   1      -2.888  59.774 118.892  0.00  0.00     0.210 C 
ATOM     15  C   LIG d   1      -4.177  58.982 119.133  0.00  0.00     0.109 C 
ATOM     16  O   LIG d   1      -2.636  60.230 117.767  0.00  0.00    -0.276 OA
ATOM     17  H   LIG d   1      -2.355  59.455 120.817  0.00  0.00     0.149 HD
ENDBRANCH   6  13
BRANCH   5  18
ATOM     18  N   LIG d   1       0.273  59.237 118.125  0.00  0.00     0.381 N 
ATOM     19  H   LIG d   1       0.056  59.996 117.510  0.00  0.00    -0.090 HD
ATOM     20  H   LIG d   1      -0.478  58.571 118.080  0.00  0.00    -0.090 HD
ATOM     21  H   LIG d   1       1.127  58.807 117.845  0.00  0.00    -0.090 HD
ENDBRANCH   5  18
BRANCH   3  22
ATOM     22  C   LIG d   1       3.132  61.402 121.300  0.00  0.00     0.382 C 
ATOM     23  O   LIG d   1       3.382  62.397 122.021  0.00  0.00    -0.241 OA
ATOM     24  O   LIG d   1       4.058  60.638 120.966  0.00  0.00    -0.241 OA
ENDBRANCH   3  22
TORSDOF 7
ENDMDL
MODEL 6
REMARK VINA RESULT:      -5.0     20.539     22.300
REMARK  7 active torsions:
REMARK  status: ('A' for Active; 'I' for Inactive)
REMARK    1  A    between atoms: C_2  and  C_3 
REMARK    2  A    between atoms: C_3  and  O_6 
REMARK    3  A    between atoms: C_3  and  C_4 
REMARK    4  A    between atoms: C_7  and  O_6 
REMARK    5  A    between atoms: C_9  and  C_10 
REMARK    6  A    between atoms: N_15  and  C_14 
REMARK    7  A    between atoms: N_20  and  C_19 
REMARK       I    between atoms: C_22  and  N_20 
ROOT
ATOM      1  C   LIG d   1      -9.720  80.264 120.915  0.00  0.00     0.161 C 
ATOM      2  C   LIG d   1      -9.897  81.516 121.527  0.00  0.00     0.016 C 
ATOM      3  C   LIG d   1      -9.565  82.741 120.903  0.00  0.00     0.038 C 
ATOM      4  C   LIG d   1      -9.172  82.805 119.558  0.00  0.00     0.028 C 
ATOM      5  C   LIG d   1      -8.498  81.530 119.062  0.00  0.00    -0.047 C 
ATOM      6  C   LIG d   1      -9.397  80.321 119.407  0.00  0.00     0.091 C 
ENDROOT
BRANCH   1   7
ATOM      7  O   LIG d   1     -10.878  79.438 121.148  0.00  0.00    -0.368 OA
BRANCH   7   8
ATOM      8  C   LIG d   1     -10.664  78.251 121.951  0.00  0.00     0.119 C 
BRANCH   8   9
ATOM      9  C   LIG d   1     -11.587  78.351 123.181  0.00  0.00     0.028 C 
ATOM     10  C   LIG d   1     -12.812  77.428 123.071  0.00  0.00     0.006 C 
ENDBRANCH   8   9
BRANCH   8  11
ATOM     11  C   LIG d   1      -9.240  78.210 122.516  0.00  0.00     0.028 C 
ATOM     12  C   LIG d   1      -8.464  76.956 122.084  0.00  0.00     0.006 C 
ENDBRANCH   8  11
ENDBRANCH   7   8
ENDBRANCH   1   7
BRANCH   6  13
ATOM     13  N   LIG d   1      -8.773  79.025 119.032  0.00  0.00    -0.311 N 
ATOM     14  C   LIG d   1      -9.466  77.980 118.585  0.00  0.00     0.210 C 
ATOM     15  C   LIG d   1      -8.630  76.734 118.274  0.00  0.00     0.109 C 
ATOM     16  O   LIG d   1     -10.690  77.976 118.386  0.00  0.00    -0.276 OA
ATOM     17  H   LIG d   1      -7.779  78.951 119.133  0.00  0.00     0.149 HD
ENDBRANCH   6  13
BRANCH   5  18
ATOM     18  N   LIG d   1      -8.266  81.683 117.614  0.00  0.00     0.381 N 
ATOM     19  H   LIG d   1      -8.755  80.967 117.115  0.00  0.00    -0.090 HD
ATOM     20  H   LIG d   1      -7.283  81.581 117.429  0.00  0.00    -0.090 HD
ATOM     21  H   LIG d   1      -8.576  82.580 117.311  0.00  0.00    -0.090 HD
ENDBRANCH   5  18
BRANCH   3  22
ATOM     22  C   LIG d   1      -9.587  83.915 121.640  0.00  0.00     0.382 C 
ATOM     23  O   LIG d   1     -10.508  84.749 121.464  0.00  0.00    -0.241 OA
ATOM     24  O   LIG d   1      -8.673  84.172 122.446  0.00  0.00    -0.241 OA
ENDBRANCH   3  22
TORSDOF 7
ENDMDL
MODEL 7
REMARK VINA RESULT:      -4.9     20.984     22.978
REMARK  7 active torsions:
REMARK  status: ('A' for Active; 'I' for Inactive)
REMARK    1  A    between atoms: C_2  and  C_3 
REMARK    2  A    between atoms: C_3  and  O_6 
REMARK    3  A    between atoms: C_3  and  C_4 
REMARK    4  A    between atoms: C_7  and  O_6 
REMARK    5  A    between atoms: C_9  and  C_10 
REMARK    6  A    between atoms: N_15  and  C_14 
REMARK    7  A    between atoms: N_20  and  C_19 
REMARK       I    between atoms: C_22  and  N_20 
ROOT
ATOM      1  C   LIG d   1      -9.840  80.795 119.450  0.00  0.00     0.161 C 
ATOM      2  C   LIG d   1      -9.044  79.838 118.799  0.00  0.00     0.016 C 
ATOM      3  C   LIG d   1      -7.633  79.912 118.737  0.00  0.00     0.038 C 
ATOM      4  C   LIG d   1      -6.909  80.874 119.456  0.00  0.00     0.028 C 
ATOM      5  C   LIG d   1      -7.693  82.156 119.713  0.00  0.00    -0.047 C 
ATOM      6  C   LIG d   1      -9.061  81.791 120.334  0.00  0.00     0.091 C 
ENDROOT
BRANCH   1   7
ATOM      7  O   LIG d   1     -10.864  80.136 120.221  0.00  0.00    -0.368 OA
BRANCH   7   8
ATOM      8  C   LIG d   1     -10.513  79.789 121.583  0.00  0.00     0.119 C 
BRANCH   8   9
ATOM      9  C   LIG d   1     -10.413  78.254 121.659  0.00  0.00     0.028 C 
ATOM     10  C   LIG d   1      -9.034  77.779 122.148  0.00  0.00     0.006 C 
ENDBRANCH   8   9
BRANCH   8  11
ATOM     11  C   LIG d   1     -11.628  80.172 122.561  0.00  0.00     0.028 C 
ATOM     12  C   LIG d   1     -11.092  80.688 123.905  0.00  0.00     0.006 C 
ENDBRANCH   8  11
ENDBRANCH   7   8
ENDBRANCH   1   7
BRANCH   6  13
ATOM     13  N   LIG d   1      -9.926  82.982 120.540  0.00  0.00    -0.311 N 
ATOM     14  C   LIG d   1      -9.962  83.675 121.677  0.00  0.00     0.210 C 
ATOM     15  C   LIG d   1     -10.938  84.856 121.684  0.00  0.00     0.109 C 
ATOM     16  O   LIG d   1      -9.254  83.443 122.669  0.00  0.00    -0.276 OA
ATOM     17  H   LIG d   1     -10.510  83.259 119.775  0.00  0.00     0.149 HD
ENDBRANCH   6  13
BRANCH   5  18
ATOM     18  N   LIG d   1      -6.871  83.014 120.587  0.00  0.00     0.381 N 
ATOM     19  H   LIG d   1      -7.464  83.570 121.170  0.00  0.00    -0.090 HD
ATOM     20  H   LIG d   1      -6.323  83.631 120.014  0.00  0.00    -0.090 HD
ATOM     21  H   LIG d   1      -6.272  82.452 121.150  0.00  0.00    -0.090 HD
ENDBRANCH   5  18
BRANCH   3  22
ATOM     22  C   LIG d   1      -6.935  79.039 117.916  0.00  0.00     0.382 C 
ATOM     23  O   LIG d   1      -7.192  77.811 117.944  0.00  0.00    -0.241 OA
ATOM     24  O   LIG d   1      -6.022  79.458 117.180  0.00  0.00    -0.241 OA
ENDBRANCH   3  22
TORSDOF 7
ENDMDL
MODEL 8
REMARK VINA RESULT:      -4.8     20.152     21.981
REMARK  7 active torsions:
REMARK  status: ('A' for Active; 'I' for Inactive)
REMARK    1  A    between atoms: C_2  and  C_3 
REMARK    2  A    between atoms: C_3  and  O_6 
REMARK    3  A    between atoms: C_3  and  C_4 
REMARK    4  A    between atoms: C_7  and  O_6 
REMARK    5  A    between atoms: C_9  and  C_10 
REMARK    6  A    between atoms: N_15  and  C_14 
REMARK    7  A    between atoms: N_20  and  C_19 
REMARK       I    between atoms: C_22  and  N_20 
ROOT
ATOM      1  C   LIG d   1      -8.501  80.811 119.088  0.00  0.00     0.161 C 
ATOM      2  C   LIG d   1      -8.739  81.955 119.869  0.00  0.00     0.016 C 
ATOM      3  C   LIG d   1      -9.556  81.953 121.022  0.00  0.00     0.038 C 
ATOM      4  C   LIG d   1     -10.073  80.766 121.563  0.00  0.00     0.028 C 
ATOM      5  C   LIG d   1     -10.275  79.666 120.526  0.00  0.00    -0.047 C 
ATOM      6  C   LIG d   1      -8.966  79.485 119.725  0.00  0.00     0.091 C 
ENDROOT
BRANCH   1   7
ATOM      7  O   LIG d   1      -7.104  80.738 118.742  0.00  0.00    -0.368 OA
BRANCH   7   8
ATOM      8  C   LIG d   1      -6.255  80.017 119.668  0.00  0.00     0.119 C 
BRANCH   8   9
ATOM      9  C   LIG d   1      -5.269  81.032 120.279  0.00  0.00     0.028 C 
ATOM     10  C   LIG d   1      -5.596  81.357 121.746  0.00  0.00     0.006 C 
ENDBRANCH   8   9
BRANCH   8  11
ATOM     11  C   LIG d   1      -5.381  78.992 118.939  0.00  0.00     0.028 C 
ATOM     12  C   LIG d   1      -5.682  78.913 117.434  0.00  0.00     0.006 C 
ENDBRANCH   8  11
ENDBRANCH   7   8
ENDBRANCH   1   7
BRANCH   6  13
ATOM     13  N   LIG d   1      -9.103  78.486 118.633  0.00  0.00    -0.311 N 
ATOM     14  C   LIG d   1      -8.722  77.215 118.751  0.00  0.00     0.210 C 
ATOM     15  C   LIG d   1      -8.934  76.358 117.498  0.00  0.00     0.109 C 
ATOM     16  O   LIG d   1      -8.259  76.708 119.783  0.00  0.00    -0.276 OA
ATOM     17  H   LIG d   1      -9.498  78.804 117.770  0.00  0.00     0.149 HD
ENDBRANCH   6  13
BRANCH   5  18
ATOM     18  N   LIG d   1     -10.686  78.445 121.246  0.00  0.00     0.381 N 
ATOM     19  H   LIG d   1     -10.613  77.653 120.638  0.00  0.00    -0.090 HD
ATOM     20  H   LIG d   1     -11.646  78.541 121.526  0.00  0.00    -0.090 HD
ATOM     21  H   LIG d   1     -10.109  78.312 122.047  0.00  0.00    -0.090 HD
ENDBRANCH   5  18
BRANCH   3  22
ATOM     22  C   LIG d   1      -9.897  83.154 121.625  0.00  0.00     0.382 C 
ATOM     23  O   LIG d   1     -10.238  83.175 122.833  0.00  0.00    -0.241 OA
ATOM     24  O   LIG d   1      -9.911  84.210 120.966  0.00  0.00    -0.241 OA
ENDBRANCH   3  22
TORSDOF 7
ENDMDL
MODEL 9
REMARK VINA RESULT:      -4.8     33.093     35.094
REMARK  7 active torsions:
REMARK  status: ('A' for Active; 'I' for Inactive)
REMARK    1  A    between atoms: C_2  and  C_3 
REMARK    2  A    between atoms: C_3  and  O_6 
REMARK    3  A    between atoms: C_3  and  C_4 
REMARK    4  A    between atoms: C_7  and  O_6 
REMARK    5  A    between atoms: C_9  and  C_10 
REMARK    6  A    between atoms: N_15  and  C_14 
REMARK    7  A    between atoms: N_20  and  C_19 
REMARK       I    between atoms: C_22  and  N_20 
ROOT
ATOM      1  C   LIG d   1      -5.246  94.217 119.412  0.00  0.00     0.161 C 
ATOM      2  C   LIG d   1      -3.952  93.952 118.935  0.00  0.00     0.016 C 
ATOM      3  C   LIG d   1      -3.619  92.799 118.186  0.00  0.00     0.038 C 
ATOM      4  C   LIG d   1      -4.597  91.902 117.732  0.00  0.00     0.028 C 
ATOM      5  C   LIG d   1      -5.840  91.862 118.616  0.00  0.00    -0.047 C 
ATOM      6  C   LIG d   1      -6.348  93.306 118.831  0.00  0.00     0.091 C 
ENDROOT
BRANCH   1   7
ATOM      7  O   LIG d   1      -5.574  95.603 119.191  0.00  0.00    -0.368 OA
BRANCH   7   8
ATOM      8  C   LIG d   1      -5.233  96.517 120.262  0.00  0.00     0.119 C 
BRANCH   8   9
ATOM      9  C   LIG d   1      -6.535  96.855 121.013  0.00  0.00     0.028 C 
ATOM     10  C   LIG d   1      -7.567  97.556 120.114  0.00  0.00     0.006 C 
ENDBRANCH   8   9
BRANCH   8  11
ATOM     11  C   LIG d   1      -4.722  97.853 119.713  0.00  0.00     0.028 C 
ATOM     12  C   LIG d   1      -4.185  97.741 118.278  0.00  0.00     0.006 C 
ENDBRANCH   8  11
ENDBRANCH   7   8
ENDBRANCH   1   7
BRANCH   6  13
ATOM     13  N   LIG d   1      -7.512  93.365 119.754  0.00  0.00    -0.311 N 
ATOM     14  C   LIG d   1      -8.628  94.040 119.484  0.00  0.00     0.210 C 
ATOM     15  C   LIG d   1      -9.697  93.987 120.579  0.00  0.00     0.109 C 
ATOM     16  O   LIG d   1      -8.846  94.652 118.427  0.00  0.00    -0.276 OA
ATOM     17  H   LIG d   1      -7.432  92.871 120.621  0.00  0.00     0.149 HD
ENDBRANCH   6  13
BRANCH   5  18
ATOM     18  N   LIG d   1      -6.830  90.993 117.953  0.00  0.00     0.381 N 
ATOM     19  H   LIG d   1      -6.922  90.136 118.461  0.00  0.00    -0.090 HD
ATOM     20  H   LIG d   1      -6.506  90.778 117.027  0.00  0.00    -0.090 HD
ATOM     21  H   LIG d   1      -7.711  91.456 117.905  0.00  0.00    -0.090 HD
ENDBRANCH   5  18
BRANCH   3  22
ATOM     22  C   LIG d   1      -2.289  92.513 117.919  0.00  0.00     0.382 C 
ATOM     23  O   LIG d   1      -1.545  93.396 117.427  0.00  0.00    -0.241 OA
ATOM     24  O   LIG d   1      -1.835  91.371 118.122  0.00  0.00    -0.241 OA
ENDBRANCH   3  22
TORSDOF 7
ENDMDL
