MODEL 1
REMARK VINA RESULT:      -5.6      0.000      0.000
REMARK  7 active torsions:
REMARK  status: ('A' for Active; 'I' for Inactive)
REMARK    1  A    between atoms: C_2  and  C_3 
REMARK    2  A    between atoms: C_3  and  O_6 
REMARK    3  A    between atoms: C_3  and  C_4 
REMARK    4  A    between atoms: C_7  and  O_6 
REMARK    5  A    between atoms: C_9  and  C_10 
REMARK    6  A    between atoms: N_15  and  C_14 
REMARK    7  A    between atoms: N_20  and  C_19 
REMARK       I    between atoms: C_22  and  N_20 
ROOT
ATOM      1  C   LIG d   1      -0.915  59.757 120.314  0.00  0.00     0.161 C 
ATOM      2  C   LIG d   1      -1.775  59.392 119.266  0.00  0.00     0.016 C 
ATOM      3  C   LIG d   1      -3.167  59.635 119.281  0.00  0.00     0.038 C 
ATOM      4  C   LIG d   1      -3.775  60.401 120.287  0.00  0.00     0.028 C 
ATOM      5  C   LIG d   1      -3.030  60.356 121.616  0.00  0.00    -0.047 C 
ATOM      6  C   LIG d   1      -1.542  60.693 121.369  0.00  0.00     0.091 C 
ENDROOT
BRANCH   1   7
ATOM      7  O   LIG d   1       0.289  60.343 119.778  0.00  0.00    -0.368 OA
BRANCH   7   8
ATOM      8  C   LIG d   1       1.383  59.428 119.523  0.00  0.00     0.119 C 
BRANCH   8   9
ATOM      9  C   LIG d   1       2.680  60.116 119.992  0.00  0.00     0.028 C 
ATOM     10  C   LIG d   1       2.625  60.522 121.474  0.00  0.00     0.006 C 
ENDBRANCH   8   9
BRANCH   8  11
ATOM     11  C   LIG d   1       1.571  59.190 118.022  0.00  0.00     0.028 C 
ATOM     12  C   LIG d   1       1.233  57.751 117.600  0.00  0.00     0.006 C 
ENDBRANCH   8  11
ENDBRANCH   7   8
ENDBRANCH   1   7
BRANCH   6  13
ATOM     13  N   LIG d   1      -0.724  60.588 122.606  0.00  0.00    -0.311 N 
ATOM     14  C   LIG d   1      -0.509  61.611 123.431  0.00  0.00     0.210 C 
ATOM     15  C   LIG d   1       0.379  61.293 124.638  0.00  0.00     0.109 C 
ATOM     16  O   LIG d   1      -0.995  62.744 123.295  0.00  0.00    -0.276 OA
ATOM     17  H   LIG d   1      -0.317  59.697 122.810  0.00  0.00     0.149 HD
ENDBRANCH   6  13
BRANCH   5  18
ATOM     18  N   LIG d   1      -3.693  61.304 122.531  0.00  0.00     0.381 N 
ATOM     19  H   LIG d   1      -4.234  61.961 122.005  0.00  0.00    -0.090 HD
ATOM     20  H   LIG d   1      -2.990  61.811 123.040  0.00  0.00    -0.090 HD
ATOM     21  H   LIG d   1      -4.282  60.811 123.166  0.00  0.00    -0.090 HD
ENDBRANCH   5  18
BRANCH   3  22
ATOM     22  C   LIG d   1      -3.974  59.075 118.302  0.00  0.00     0.382 C 
ATOM     23  O   LIG d   1      -4.415  57.909 118.444  0.00  0.00    -0.241 OA
ATOM     24  O   LIG d   1      -4.229  59.704 117.257  0.00  0.00    -0.241 OA
ENDBRANCH   3  22
TORSDOF 7
ENDMDL
MODEL 2
REMARK VINA RESULT:      -5.5      1.633      4.698
REMARK  7 active torsions:
REMARK  status: ('A' for Active; 'I' for Inactive)
REMARK    1  A    between atoms: C_2  and  C_3 
REMARK    2  A    between atoms: C_3  and  O_6 
REMARK    3  A    between atoms: C_3  and  C_4 
REMARK    4  A    between atoms: C_7  and  O_6 
REMARK    5  A    between atoms: C_9  and  C_10 
REMARK    6  A    between atoms: N_15  and  C_14 
REMARK    7  A    between atoms: N_20  and  C_19 
REMARK       I    between atoms: C_22  and  N_20 
ROOT
ATOM      1  C   LIG d   1      -1.511  60.669 119.903  0.00  0.00     0.161 C 
ATOM      2  C   LIG d   1      -0.591  60.766 120.960  0.00  0.00     0.016 C 
ATOM      3  C   LIG d   1      -0.939  60.565 122.315  0.00  0.00     0.038 C 
ATOM      4  C   LIG d   1      -2.208  60.102 122.694  0.00  0.00     0.028 C 
ATOM      5  C   LIG d   1      -3.309  60.477 121.707  0.00  0.00    -0.047 C 
ATOM      6  C   LIG d   1      -2.874  60.056 120.285  0.00  0.00     0.091 C 
ENDROOT
BRANCH   1   7
ATOM      7  O   LIG d   1      -0.922  59.938 118.809  0.00  0.00    -0.368 OA
BRANCH   7   8
ATOM      8  C   LIG d   1      -0.074  58.821 119.172  0.00  0.00     0.119 C 
BRANCH   8   9
ATOM      9  C   LIG d   1       1.238  58.957 118.374  0.00  0.00     0.028 C 
ATOM     10  C   LIG d   1       2.408  59.443 119.246  0.00  0.00     0.006 C 
ENDBRANCH   8   9
BRANCH   8  11
ATOM     11  C   LIG d   1      -0.684  57.489 118.725  0.00  0.00     0.028 C 
ATOM     12  C   LIG d   1       0.244  56.690 117.797  0.00  0.00     0.006 C 
ENDBRANCH   8  11
ENDBRANCH   7   8
ENDBRANCH   1   7
BRANCH   6  13
ATOM     13  N   LIG d   1      -3.857  60.462 119.248  0.00  0.00    -0.311 N 
ATOM     14  C   LIG d   1      -4.531  59.593 118.496  0.00  0.00     0.210 C 
ATOM     15  C   LIG d   1      -5.480  60.224 117.472  0.00  0.00     0.109 C 
ATOM     16  O   LIG d   1      -4.456  58.360 118.601  0.00  0.00    -0.276 OA
ATOM     17  H   LIG d   1      -4.003  61.444 119.117  0.00  0.00     0.149 HD
ENDBRANCH   6  13
BRANCH   5  18
ATOM     18  N   LIG d   1      -4.550  59.816 122.152  0.00  0.00     0.381 N 
ATOM     19  H   LIG d   1      -5.223  59.826 121.412  0.00  0.00    -0.090 HD
ATOM     20  H   LIG d   1      -4.930  60.326 122.930  0.00  0.00    -0.090 HD
ATOM     21  H   LIG d   1      -4.358  58.876 122.423  0.00  0.00    -0.090 HD
ENDBRANCH   5  18
BRANCH   3  22
ATOM     22  C   LIG d   1      -0.024  60.867 123.312  0.00  0.00     0.382 C 
ATOM     23  O   LIG d   1      -0.398  60.929 124.508  0.00  0.00    -0.241 OA
ATOM     24  O   LIG d   1       1.161  61.122 123.026  0.00  0.00    -0.241 OA
ENDBRANCH   3  22
TORSDOF 7
ENDMDL
MODEL 3
REMARK VINA RESULT:      -5.1      1.964      4.482
REMARK  7 active torsions:
REMARK  status: ('A' for Active; 'I' for Inactive)
REMARK    1  A    between atoms: C_2  and  C_3 
REMARK    2  A    between atoms: C_3  and  O_6 
REMARK    3  A    between atoms: C_3  and  C_4 
REMARK    4  A    between atoms: C_7  and  O_6 
REMARK    5  A    between atoms: C_9  and  C_10 
REMARK    6  A    between atoms: N_15  and  C_14 
REMARK    7  A    between atoms: N_20  and  C_19 
REMARK       I    between atoms: C_22  and  N_20 
ROOT
ATOM      1  C   LIG d   1      -1.789  60.702 121.188  0.00  0.00     0.161 C 
ATOM      2  C   LIG d   1      -2.902  60.312 120.425  0.00  0.00     0.016 C 
ATOM      3  C   LIG d   1      -2.823  59.410 119.339  0.00  0.00     0.038 C 
ATOM      4  C   LIG d   1      -1.643  58.716 119.036  0.00  0.00     0.028 C 
ATOM      5  C   LIG d   1      -0.379  59.457 119.459  0.00  0.00    -0.047 C 
ATOM      6  C   LIG d   1      -0.513  59.870 120.943  0.00  0.00     0.091 C 
ENDROOT
BRANCH   1   7
ATOM      7  O   LIG d   1      -2.129  60.695 122.589  0.00  0.00    -0.368 OA
BRANCH   7   8
ATOM      8  C   LIG d   1      -3.330  61.418 122.956  0.00  0.00     0.119 C 
BRANCH   8   9
ATOM      9  C   LIG d   1      -2.891  62.711 123.670  0.00  0.00     0.028 C 
ATOM     10  C   LIG d   1      -1.364  62.804 123.831  0.00  0.00     0.006 C 
ENDBRANCH   8   9
BRANCH   8  11
ATOM     11  C   LIG d   1      -4.152  60.643 123.991  0.00  0.00     0.028 C 
ATOM     12  C   LIG d   1      -5.130  59.646 123.349  0.00  0.00     0.006 C 
ENDBRANCH   8  11
ENDBRANCH   7   8
ENDBRANCH   1   7
BRANCH   6  13
ATOM     13  N   LIG d   1       0.646  60.674 121.413  0.00  0.00    -0.311 N 
ATOM     14  C   LIG d   1       1.705  60.145 122.024  0.00  0.00     0.210 C 
ATOM     15  C   LIG d   1       2.778  61.154 122.446  0.00  0.00     0.109 C 
ATOM     16  O   LIG d   1       1.873  58.933 122.227  0.00  0.00    -0.276 OA
ATOM     17  H   LIG d   1       0.607  61.663 121.261  0.00  0.00     0.149 HD
ENDBRANCH   6  13
BRANCH   5  18
ATOM     18  N   LIG d   1       0.767  58.562 119.210  0.00  0.00     0.381 N 
ATOM     19  H   LIG d   1       0.999  58.572 118.236  0.00  0.00    -0.090 HD
ATOM     20  H   LIG d   1       0.509  57.624 119.463  0.00  0.00    -0.090 HD
ATOM     21  H   LIG d   1       1.552  58.855 119.748  0.00  0.00    -0.090 HD
ENDBRANCH   5  18
BRANCH   3  22
ATOM     22  C   LIG d   1      -3.926  59.225 118.519  0.00  0.00     0.382 C 
ATOM     23  O   LIG d   1      -4.328  60.162 117.788  0.00  0.00    -0.241 OA
ATOM     24  O   LIG d   1      -4.550  58.147 118.533  0.00  0.00    -0.241 OA
ENDBRANCH   3  22
TORSDOF 7
ENDMDL
MODEL 4
REMARK VINA RESULT:      -4.8      1.805      2.412
REMARK  7 active torsions:
REMARK  status: ('A' for Active; 'I' for Inactive)
REMARK    1  A    between atoms: C_2  and  C_3 
REMARK    2  A    between atoms: C_3  and  O_6 
REMARK    3  A    between atoms: C_3  and  C_4 
REMARK    4  A    between atoms: C_7  and  O_6 
REMARK    5  A    between atoms: C_9  and  C_10 
REMARK    6  A    between atoms: N_15  and  C_14 
REMARK    7  A    between atoms: N_20  and  C_19 
REMARK       I    between atoms: C_22  and  N_20 
ROOT
ATOM      1  C   LIG d   1      -0.754  58.392 120.282  0.00  0.00     0.161 C 
ATOM      2  C   LIG d   1      -1.751  58.400 119.292  0.00  0.00     0.016 C 
ATOM      3  C   LIG d   1      -2.819  59.325 119.270  0.00  0.00     0.038 C 
ATOM      4  C   LIG d   1      -2.880  60.408 120.160  0.00  0.00     0.028 C 
ATOM      5  C   LIG d   1      -2.172  60.144 121.485  0.00  0.00    -0.047 C 
ATOM      6  C   LIG d   1      -0.742  59.634 121.197  0.00  0.00     0.091 C 
ENDROOT
BRANCH   1   7
ATOM      7  O   LIG d   1       0.539  58.205 119.673  0.00  0.00    -0.368 OA
BRANCH   7   8
ATOM      8  C   LIG d   1       0.687  58.714 118.325  0.00  0.00     0.119 C 
BRANCH   8   9
ATOM      9  C   LIG d   1       1.337  57.602 117.479  0.00  0.00     0.028 C 
ATOM     10  C   LIG d   1       2.056  56.552 118.342  0.00  0.00     0.006 C 
ENDBRANCH   8   9
BRANCH   8  11
ATOM     11  C   LIG d   1       1.672  59.887 118.277  0.00  0.00     0.028 C 
ATOM     12  C   LIG d   1       2.557  59.973 119.531  0.00  0.00     0.006 C 
ENDBRANCH   8  11
ENDBRANCH   7   8
ENDBRANCH   1   7
BRANCH   6  13
ATOM     13  N   LIG d   1      -0.009  59.271 122.438  0.00  0.00    -0.311 N 
ATOM     14  C   LIG d   1      -0.438  58.352 123.301  0.00  0.00     0.210 C 
ATOM     15  C   LIG d   1       0.458  58.146 124.526  0.00  0.00     0.109 C 
ATOM     16  O   LIG d   1      -1.460  57.665 123.153  0.00  0.00    -0.276 OA
ATOM     17  H   LIG d   1       0.847  59.758 122.621  0.00  0.00     0.149 HD
ENDBRANCH   6  13
BRANCH   5  18
ATOM     18  N   LIG d   1      -2.194  61.399 122.260  0.00  0.00     0.381 N 
ATOM     19  H   LIG d   1      -1.763  62.131 121.731  0.00  0.00    -0.090 HD
ATOM     20  H   LIG d   1      -1.666  61.268 123.105  0.00  0.00    -0.090 HD
ATOM     21  H   LIG d   1      -3.133  61.647 122.481  0.00  0.00    -0.090 HD
ENDBRANCH   5  18
BRANCH   3  22
ATOM     22  C   LIG d   1      -3.864  59.149 118.376  0.00  0.00     0.382 C 
ATOM     23  O   LIG d   1      -4.576  58.118 118.440  0.00  0.00    -0.241 OA
ATOM     24  O   LIG d   1      -4.075  59.986 117.478  0.00  0.00    -0.241 OA
ENDBRANCH   3  22
TORSDOF 7
ENDMDL
MODEL 5
REMARK VINA RESULT:      -4.8     21.979     23.767
REMARK  7 active torsions:
REMARK  status: ('A' for Active; 'I' for Inactive)
REMARK    1  A    between atoms: C_2  and  C_3 
REMARK    2  A    between atoms: C_3  and  O_6 
REMARK    3  A    between atoms: C_3  and  C_4 
REMARK    4  A    between atoms: C_7  and  O_6 
REMARK    5  A    between atoms: C_9  and  C_10 
REMARK    6  A    between atoms: N_15  and  C_14 
REMARK    7  A    between atoms: N_20  and  C_19 
REMARK       I    between atoms: C_22  and  N_20 
ROOT
ATOM      1  C   LIG d   1      -9.289  81.763 120.901  0.00  0.00     0.161 C 
ATOM      2  C   LIG d   1      -9.920  82.926 121.372  0.00  0.00     0.016 C 
ATOM      3  C   LIG d   1     -10.602  83.836 120.532  0.00  0.00     0.038 C 
ATOM      4  C   LIG d   1     -10.829  83.565 119.174  0.00  0.00     0.028 C 
ATOM      5  C   LIG d   1      -9.777  82.651 118.555  0.00  0.00    -0.047 C 
ATOM      6  C   LIG d   1      -9.621  81.393 119.441  0.00  0.00     0.091 C 
ENDROOT
BRANCH   1   7
ATOM      7  O   LIG d   1      -9.585  80.657 121.778  0.00  0.00    -0.368 OA
BRANCH   7   8
ATOM      8  C   LIG d   1     -10.921  80.105 121.679  0.00  0.00     0.119 C 
BRANCH   8   9
ATOM      9  C   LIG d   1     -11.636  80.382 123.015  0.00  0.00     0.028 C 
ATOM     10  C   LIG d   1     -10.650  80.585 124.178  0.00  0.00     0.006 C 
ENDBRANCH   8   9
BRANCH   8  11
ATOM     11  C   LIG d   1     -10.885  78.580 121.547  0.00  0.00     0.028 C 
ATOM     12  C   LIG d   1      -9.488  77.992 121.803  0.00  0.00     0.006 C 
ENDBRANCH   8  11
ENDBRANCH   7   8
ENDBRANCH   1   7
BRANCH   6  13
ATOM     13  N   LIG d   1      -8.551  80.485 118.952  0.00  0.00    -0.311 N 
ATOM     14  C   LIG d   1      -8.789  79.274 118.450  0.00  0.00     0.210 C 
ATOM     15  C   LIG d   1      -7.542  78.494 118.024  0.00  0.00     0.109 C 
ATOM     16  O   LIG d   1      -9.918  78.785 118.289  0.00  0.00    -0.276 OA
ATOM     17  H   LIG d   1      -7.608  80.814 119.017  0.00  0.00     0.149 HD
ENDBRANCH   6  13
BRANCH   5  18
ATOM     18  N   LIG d   1     -10.210  82.340 117.180  0.00  0.00     0.381 N 
ATOM     19  H   LIG d   1     -10.870  81.588 117.195  0.00  0.00    -0.090 HD
ATOM     20  H   LIG d   1      -9.411  82.048 116.646  0.00  0.00    -0.090 HD
ATOM     21  H   LIG d   1     -10.622  83.145 116.762  0.00  0.00    -0.090 HD
ENDBRANCH   5  18
BRANCH   3  22
ATOM     22  C   LIG d   1     -11.030  85.053 121.041  0.00  0.00     0.382 C 
ATOM     23  O   LIG d   1     -12.252  85.255 121.238  0.00  0.00    -0.241 OA
ATOM     24  O   LIG d   1     -10.213  85.967 121.263  0.00  0.00    -0.241 OA
ENDBRANCH   3  22
TORSDOF 7
ENDMDL
MODEL 6
REMARK VINA RESULT:      -4.7     22.276     23.616
REMARK  7 active torsions:
REMARK  status: ('A' for Active; 'I' for Inactive)
REMARK    1  A    between atoms: C_2  and  C_3 
REMARK    2  A    between atoms: C_3  and  O_6 
REMARK    3  A    between atoms: C_3  and  C_4 
REMARK    4  A    between atoms: C_7  and  O_6 
REMARK    5  A    between atoms: C_9  and  C_10 
REMARK    6  A    between atoms: N_15  and  C_14 
REMARK    7  A    between atoms: N_20  and  C_19 
REMARK       I    between atoms: C_22  and  N_20 
ROOT
ATOM      1  C   LIG d   1      -8.020  82.404 119.912  0.00  0.00     0.161 C 
ATOM      2  C   LIG d   1      -8.151  81.070 119.492  0.00  0.00     0.016 C 
ATOM      3  C   LIG d   1      -9.274  80.584 118.783  0.00  0.00     0.038 C 
ATOM      4  C   LIG d   1     -10.279  81.440 118.309  0.00  0.00     0.028 C 
ATOM      5  C   LIG d   1     -10.438  82.707 119.144  0.00  0.00    -0.047 C 
ATOM      6  C   LIG d   1      -9.055  83.377 119.308  0.00  0.00     0.091 C 
ENDROOT
BRANCH   1   7
ATOM      7  O   LIG d   1      -6.682  82.870 119.648  0.00  0.00    -0.368 OA
BRANCH   7   8
ATOM      8  C   LIG d   1      -5.794  82.940 120.791  0.00  0.00     0.119 C 
BRANCH   8   9
ATOM      9  C   LIG d   1      -5.613  84.428 121.147  0.00  0.00     0.028 C 
ATOM     10  C   LIG d   1      -5.974  84.730 122.611  0.00  0.00     0.006 C 
ENDBRANCH   8   9
BRANCH   8  11
ATOM     11  C   LIG d   1      -4.393  82.433 120.440  0.00  0.00     0.028 C 
ATOM     12  C   LIG d   1      -4.386  80.965 119.985  0.00  0.00     0.006 C 
ENDBRANCH   8  11
ENDBRANCH   7   8
ENDBRANCH   1   7
BRANCH   6  13
ATOM     13  N   LIG d   1      -9.107  84.578 120.182  0.00  0.00    -0.311 N 
ATOM     14  C   LIG d   1      -9.536  84.549 121.442  0.00  0.00     0.210 C 
ATOM     15  C   LIG d   1      -9.527  85.903 122.160  0.00  0.00     0.109 C 
ATOM     16  O   LIG d   1      -9.893  83.526 122.045  0.00  0.00    -0.276 OA
ATOM     17  H   LIG d   1      -8.806  85.445 119.783  0.00  0.00     0.149 HD
ENDBRANCH   6  13
BRANCH   5  18
ATOM     18  N   LIG d   1     -11.421  83.570 118.461  0.00  0.00     0.381 N 
ATOM     19  H   LIG d   1     -10.966  84.388 118.109  0.00  0.00    -0.090 HD
ATOM     20  H   LIG d   1     -12.118  83.857 119.125  0.00  0.00    -0.090 HD
ATOM     21  H   LIG d   1     -11.850  83.071 117.712  0.00  0.00    -0.090 HD
ENDBRANCH   5  18
BRANCH   3  22
ATOM     22  C   LIG d   1      -9.417  79.221 118.574  0.00  0.00     0.382 C 
ATOM     23  O   LIG d   1      -8.416  78.522 118.286  0.00  0.00    -0.241 OA
ATOM     24  O   LIG d   1     -10.543  78.689 118.627  0.00  0.00    -0.241 OA
ENDBRANCH   3  22
TORSDOF 7
ENDMDL
MODEL 7
REMARK VINA RESULT:      -4.7      1.787      4.696
REMARK  7 active torsions:
REMARK  status: ('A' for Active; 'I' for Inactive)
REMARK    1  A    between atoms: C_2  and  C_3 
REMARK    2  A    between atoms: C_3  and  O_6 
REMARK    3  A    between atoms: C_3  and  C_4 
REMARK    4  A    between atoms: C_7  and  O_6 
REMARK    5  A    between atoms: C_9  and  C_10 
REMARK    6  A    between atoms: N_15  and  C_14 
REMARK    7  A    between atoms: N_20  and  C_19 
REMARK       I    between atoms: C_22  and  N_20 
ROOT
ATOM      1  C   LIG d   1      -1.091  60.228 120.946  0.00  0.00     0.161 C 
ATOM      2  C   LIG d   1      -0.629  61.113 121.934  0.00  0.00     0.016 C 
ATOM      3  C   LIG d   1      -1.418  61.543 123.025  0.00  0.00     0.038 C 
ATOM      4  C   LIG d   1      -2.682  60.994 123.287  0.00  0.00     0.028 C 
ATOM      5  C   LIG d   1      -3.388  60.474 122.039  0.00  0.00    -0.047 C 
ATOM      6  C   LIG d   1      -2.429  59.532 121.276  0.00  0.00     0.091 C 
ENDROOT
BRANCH   1   7
ATOM      7  O   LIG d   1      -0.076  59.248 120.654  0.00  0.00    -0.368 OA
BRANCH   7   8
ATOM      8  C   LIG d   1       0.990  59.677 119.772  0.00  0.00     0.119 C 
BRANCH   8   9
ATOM      9  C   LIG d   1       0.352  60.038 118.416  0.00  0.00     0.028 C 
ATOM     10  C   LIG d   1       0.208  58.817 117.492  0.00  0.00     0.006 C 
ENDBRANCH   8   9
BRANCH   8  11
ATOM     11  C   LIG d   1       1.961  58.531 119.471  0.00  0.00     0.028 C 
ATOM     12  C   LIG d   1       3.360  58.765 120.062  0.00  0.00     0.006 C 
ENDBRANCH   8  11
ENDBRANCH   7   8
ENDBRANCH   1   7
BRANCH   6  13
ATOM     13  N   LIG d   1      -3.010  59.046 119.998  0.00  0.00    -0.311 N 
ATOM     14  C   LIG d   1      -3.266  59.840 118.960  0.00  0.00     0.210 C 
ATOM     15  C   LIG d   1      -3.884  59.139 117.746  0.00  0.00     0.109 C 
ATOM     16  O   LIG d   1      -3.011  61.053 118.917  0.00  0.00    -0.276 OA
ATOM     17  H   LIG d   1      -3.219  58.069 119.934  0.00  0.00     0.149 HD
ENDBRANCH   6  13
BRANCH   5  18
ATOM     18  N   LIG d   1      -4.629  59.807 122.474  0.00  0.00     0.381 N 
ATOM     19  H   LIG d   1      -5.409  60.417 122.333  0.00  0.00    -0.090 HD
ATOM     20  H   LIG d   1      -4.562  59.603 123.455  0.00  0.00    -0.090 HD
ATOM     21  H   LIG d   1      -4.761  58.964 121.960  0.00  0.00    -0.090 HD
ENDBRANCH   5  18
BRANCH   3  22
ATOM     22  C   LIG d   1      -0.960  62.562 123.846  0.00  0.00     0.382 C 
ATOM     23  O   LIG d   1      -1.565  63.661 123.879  0.00  0.00    -0.241 OA
ATOM     24  O   LIG d   1       0.076  62.412 124.521  0.00  0.00    -0.241 OA
ENDBRANCH   3  22
TORSDOF 7
ENDMDL
MODEL 8
REMARK VINA RESULT:      -4.6     20.015     21.501
REMARK  7 active torsions:
REMARK  status: ('A' for Active; 'I' for Inactive)
REMARK    1  A    between atoms: C_2  and  C_3 
REMARK    2  A    between atoms: C_3  and  O_6 
REMARK    3  A    between atoms: C_3  and  C_4 
REMARK    4  A    between atoms: C_7  and  O_6 
REMARK    5  A    between atoms: C_9  and  C_10 
REMARK    6  A    between atoms: N_15  and  C_14 
REMARK    7  A    between atoms: N_20  and  C_19 
REMARK       I    between atoms: C_22  and  N_20 
ROOT
ATOM      1  C   LIG d   1      -8.535  79.820 120.233  0.00  0.00     0.161 C 
ATOM      2  C   LIG d   1      -8.095  78.598 120.769  0.00  0.00     0.016 C 
ATOM      3  C   LIG d   1      -8.920  77.741 121.533  0.00  0.00     0.038 C 
ATOM      4  C   LIG d   1     -10.294  77.977 121.686  0.00  0.00     0.028 C 
ATOM      5  C   LIG d   1     -10.670  79.452 121.589  0.00  0.00    -0.047 C 
ATOM      6  C   LIG d   1     -10.061  80.041 120.296  0.00  0.00     0.091 C 
ENDROOT
BRANCH   1   7
ATOM      7  O   LIG d   1      -8.065  79.957 118.878  0.00  0.00    -0.368 OA
BRANCH   7   8
ATOM      8  C   LIG d   1      -6.822  80.681 118.705  0.00  0.00     0.119 C 
BRANCH   8   9
ATOM      9  C   LIG d   1      -7.178  82.121 118.290  0.00  0.00     0.028 C 
ATOM     10  C   LIG d   1      -6.989  83.127 119.439  0.00  0.00     0.006 C 
ENDBRANCH   8   9
BRANCH   8  11
ATOM     11  C   LIG d   1      -6.004  80.114 117.541  0.00  0.00     0.028 C 
ATOM     12  C   LIG d   1      -6.155  78.592 117.392  0.00  0.00     0.006 C 
ENDBRANCH   8  11
ENDBRANCH   7   8
ENDBRANCH   1   7
BRANCH   6  13
ATOM     13  N   LIG d   1     -10.310  81.500 120.166  0.00  0.00    -0.311 N 
ATOM     14  C   LIG d   1     -10.615  82.092 119.013  0.00  0.00     0.210 C 
ATOM     15  C   LIG d   1     -10.812  83.609 119.096  0.00  0.00     0.109 C 
ATOM     16  O   LIG d   1     -10.772  81.500 117.934  0.00  0.00    -0.276 OA
ATOM     17  H   LIG d   1     -10.235  82.052 120.998  0.00  0.00     0.149 HD
ENDBRANCH   6  13
BRANCH   5  18
ATOM     18  N   LIG d   1     -12.142  79.540 121.628  0.00  0.00     0.381 N 
ATOM     19  H   LIG d   1     -12.454  79.576 122.578  0.00  0.00    -0.090 HD
ATOM     20  H   LIG d   1     -12.528  78.717 121.200  0.00  0.00    -0.090 HD
ATOM     21  H   LIG d   1     -12.447  80.353 121.140  0.00  0.00    -0.090 HD
ENDBRANCH   5  18
BRANCH   3  22
ATOM     22  C   LIG d   1      -8.361  76.653 122.187  0.00  0.00     0.382 C 
ATOM     23  O   LIG d   1      -8.057  75.622 121.540  0.00  0.00    -0.241 OA
ATOM     24  O   LIG d   1      -8.199  76.673 123.422  0.00  0.00    -0.241 OA
ENDBRANCH   3  22
TORSDOF 7
ENDMDL
MODEL 9
REMARK VINA RESULT:      -4.6     21.958     23.330
REMARK  7 active torsions:
REMARK  status: ('A' for Active; 'I' for Inactive)
REMARK    1  A    between atoms: C_2  and  C_3 
REMARK    2  A    between atoms: C_3  and  O_6 
REMARK    3  A    between atoms: C_3  and  C_4 
REMARK    4  A    between atoms: C_7  and  O_6 
REMARK    5  A    between atoms: C_9  and  C_10 
REMARK    6  A    between atoms: N_15  and  C_14 
REMARK    7  A    between atoms: N_20  and  C_19 
REMARK       I    between atoms: C_22  and  N_20 
ROOT
ATOM      1  C   LIG d   1      -8.695  81.962 120.938  0.00  0.00     0.161 C 
ATOM      2  C   LIG d   1      -9.053  80.613 120.776  0.00  0.00     0.016 C 
ATOM      3  C   LIG d   1      -9.891  80.151 119.735  0.00  0.00     0.038 C 
ATOM      4  C   LIG d   1     -10.308  80.989 118.690  0.00  0.00     0.028 C 
ATOM      5  C   LIG d   1     -10.387  82.459 119.089  0.00  0.00    -0.047 C 
ATOM      6  C   LIG d   1      -9.050  82.874 119.745  0.00  0.00     0.091 C 
ENDROOT
BRANCH   1   7
ATOM      7  O   LIG d   1      -7.290  82.061 121.244  0.00  0.00    -0.368 OA
BRANCH   7   8
ATOM      8  C   LIG d   1      -6.417  82.383 120.133  0.00  0.00     0.119 C 
BRANCH   8   9
ATOM      9  C   LIG d   1      -5.681  81.089 119.733  0.00  0.00     0.028 C 
ATOM     10  C   LIG d   1      -6.176  80.524 118.391  0.00  0.00     0.006 C 
ENDBRANCH   8   9
BRANCH   8  11
ATOM     11  C   LIG d   1      -5.317  83.361 120.555  0.00  0.00     0.028 C 
ATOM     12  C   LIG d   1      -3.959  82.674 120.772  0.00  0.00     0.006 C 
ENDBRANCH   8  11
ENDBRANCH   7   8
ENDBRANCH   1   7
BRANCH   6  13
ATOM     13  N   LIG d   1      -9.072  84.275 120.240  0.00  0.00    -0.311 N 
ATOM     14  C   LIG d   1      -9.947  84.721 121.139  0.00  0.00     0.210 C 
ATOM     15  C   LIG d   1      -9.808  86.204 121.497  0.00  0.00     0.109 C 
ATOM     16  O   LIG d   1     -10.805  84.022 121.698  0.00  0.00    -0.276 OA
ATOM     17  H   LIG d   1      -8.390  84.903 119.862  0.00  0.00     0.149 HD
ENDBRANCH   6  13
BRANCH   5  18
ATOM     18  N   LIG d   1     -10.699  83.234 117.873  0.00  0.00     0.381 N 
ATOM     19  H   LIG d   1     -10.374  84.175 117.978  0.00  0.00    -0.090 HD
ATOM     20  H   LIG d   1     -11.696  83.257 117.749  0.00  0.00    -0.090 HD
ATOM     21  H   LIG d   1     -10.268  82.813 117.080  0.00  0.00    -0.090 HD
ENDBRANCH   5  18
BRANCH   3  22
ATOM     22  C   LIG d   1     -10.353  78.844 119.754  0.00  0.00     0.382 C 
ATOM     23  O   LIG d   1     -10.145  78.120 120.758  0.00  0.00    -0.241 OA
ATOM     24  O   LIG d   1     -10.937  78.365 118.763  0.00  0.00    -0.241 OA
ENDBRANCH   3  22
TORSDOF 7
ENDMDL
