MODEL 1
REMARK VINA RESULT:      -5.1      0.000      0.000
REMARK  7 active torsions:
REMARK  status: ('A' for Active; 'I' for Inactive)
REMARK    1  A    between atoms: C_2  and  C_3 
REMARK    2  A    between atoms: C_3  and  O_6 
REMARK    3  A    between atoms: C_3  and  C_4 
REMARK    4  A    between atoms: C_7  and  O_6 
REMARK    5  A    between atoms: C_9  and  C_10 
REMARK    6  A    between atoms: N_15  and  C_14 
REMARK    7  A    between atoms: N_20  and  C_19 
REMARK       I    between atoms: C_22  and  N_20 
ROOT
ATOM      1  C   LIG d   1      -0.044  58.963 121.247  0.00  0.00     0.161 C 
ATOM      2  C   LIG d   1       1.234  58.498 121.601  0.00  0.00     0.016 C 
ATOM      3  C   LIG d   1       2.334  58.496 120.712  0.00  0.00     0.038 C 
ATOM      4  C   LIG d   1       2.268  59.101 119.449  0.00  0.00     0.028 C 
ATOM      5  C   LIG d   1       0.860  59.129 118.863  0.00  0.00    -0.047 C 
ATOM      6  C   LIG d   1      -0.107  59.729 119.910  0.00  0.00     0.091 C 
ENDROOT
BRANCH   1   7
ATOM      7  O   LIG d   1      -0.583  59.770 122.313  0.00  0.00    -0.368 OA
BRANCH   7   8
ATOM      8  C   LIG d   1      -0.261  61.182 122.268  0.00  0.00     0.119 C 
BRANCH   8   9
ATOM      9  C   LIG d   1       0.597  61.501 123.507  0.00  0.00     0.028 C 
ATOM     10  C   LIG d   1       2.100  61.551 123.183  0.00  0.00     0.006 C 
ENDBRANCH   8   9
BRANCH   8  11
ATOM     11  C   LIG d   1      -1.519  62.044 122.413  0.00  0.00     0.028 C 
ATOM     12  C   LIG d   1      -1.295  63.281 123.297  0.00  0.00     0.006 C 
ENDBRANCH   8  11
ENDBRANCH   7   8
ENDBRANCH   1   7
BRANCH   6  13
ATOM     13  N   LIG d   1      -1.520  59.716 119.450  0.00  0.00    -0.311 N 
ATOM     14  C   LIG d   1      -2.119  60.766 118.890  0.00  0.00     0.210 C 
ATOM     15  C   LIG d   1      -3.586  60.545 118.507  0.00  0.00     0.109 C 
ATOM     16  O   LIG d   1      -1.566  61.848 118.646  0.00  0.00    -0.276 OA
ATOM     17  H   LIG d   1      -2.034  58.867 119.581  0.00  0.00     0.149 HD
ENDBRANCH   6  13
BRANCH   5  18
ATOM     18  N   LIG d   1       0.913  59.908 117.612  0.00  0.00     0.381 N 
ATOM     19  H   LIG d   1       0.011  59.914 117.178  0.00  0.00    -0.090 HD
ATOM     20  H   LIG d   1       1.563  59.470 116.983  0.00  0.00    -0.090 HD
ATOM     21  H   LIG d   1       1.203  60.842 117.803  0.00  0.00    -0.090 HD
ENDBRANCH   5  18
BRANCH   3  22
ATOM     22  C   LIG d   1       3.505  57.846 121.071  0.00  0.00     0.382 C 
ATOM     23  O   LIG d   1       4.497  57.873 120.303  0.00  0.00    -0.241 OA
ATOM     24  O   LIG d   1       3.568  57.198 122.132  0.00  0.00    -0.241 OA
ENDBRANCH   3  22
TORSDOF 7
ENDMDL
MODEL 2
REMARK VINA RESULT:      -5.0      2.036      3.109
REMARK  7 active torsions:
REMARK  status: ('A' for Active; 'I' for Inactive)
REMARK    1  A    between atoms: C_2  and  C_3 
REMARK    2  A    between atoms: C_3  and  O_6 
REMARK    3  A    between atoms: C_3  and  C_4 
REMARK    4  A    between atoms: C_7  and  O_6 
REMARK    5  A    between atoms: C_9  and  C_10 
REMARK    6  A    between atoms: N_15  and  C_14 
REMARK    7  A    between atoms: N_20  and  C_19 
REMARK       I    between atoms: C_22  and  N_20 
ROOT
ATOM      1  C   LIG d   1       0.719  58.949 121.088  0.00  0.00     0.161 C 
ATOM      2  C   LIG d   1       1.546  58.567 120.018  0.00  0.00     0.016 C 
ATOM      3  C   LIG d   1       1.303  58.937 118.676  0.00  0.00     0.038 C 
ATOM      4  C   LIG d   1       0.294  59.848 118.329  0.00  0.00     0.028 C 
ATOM      5  C   LIG d   1      -0.874  59.860 119.310  0.00  0.00    -0.047 C 
ATOM      6  C   LIG d   1      -0.323  60.034 120.744  0.00  0.00     0.091 C 
ENDROOT
BRANCH   1   7
ATOM      7  O   LIG d   1       1.528  59.367 122.205  0.00  0.00    -0.368 OA
BRANCH   7   8
ATOM      8  C   LIG d   1       2.107  60.692 122.112  0.00  0.00     0.119 C 
BRANCH   8   9
ATOM      9  C   LIG d   1       3.636  60.538 122.214  0.00  0.00     0.028 C 
ATOM     10  C   LIG d   1       4.381  61.356 121.145  0.00  0.00     0.006 C 
ENDBRANCH   8   9
BRANCH   8  11
ATOM     11  C   LIG d   1       1.707  61.561 123.309  0.00  0.00     0.028 C 
ATOM     12  C   LIG d   1       1.061  60.750 124.444  0.00  0.00     0.006 C 
ENDBRANCH   8  11
ENDBRANCH   7   8
ENDBRANCH   1   7
BRANCH   6  13
ATOM     13  N   LIG d   1      -1.393  59.972 121.774  0.00  0.00    -0.311 N 
ATOM     14  C   LIG d   1      -1.949  61.052 122.319  0.00  0.00     0.210 C 
ATOM     15  C   LIG d   1      -3.020  60.765 123.376  0.00  0.00     0.109 C 
ATOM     16  O   LIG d   1      -1.679  62.221 122.004  0.00  0.00    -0.276 OA
ATOM     17  H   LIG d   1      -1.694  59.062 122.065  0.00  0.00     0.149 HD
ENDBRANCH   6  13
BRANCH   5  18
ATOM     18  N   LIG d   1      -1.785  60.948 118.905  0.00  0.00     0.381 N 
ATOM     19  H   LIG d   1      -1.253  61.741 118.607  0.00  0.00    -0.090 HD
ATOM     20  H   LIG d   1      -2.339  61.220 119.698  0.00  0.00    -0.090 HD
ATOM     21  H   LIG d   1      -2.377  60.639 118.166  0.00  0.00    -0.090 HD
ENDBRANCH   5  18
BRANCH   3  22
ATOM     22  C   LIG d   1       2.050  58.364 117.659  0.00  0.00     0.382 C 
ATOM     23  O   LIG d   1       3.036  58.977 117.183  0.00  0.00    -0.241 OA
ATOM     24  O   LIG d   1       1.725  57.261 117.180  0.00  0.00    -0.241 OA
ENDBRANCH   3  22
TORSDOF 7
ENDMDL
MODEL 3
REMARK VINA RESULT:      -4.6      2.150      5.014
REMARK  7 active torsions:
REMARK  status: ('A' for Active; 'I' for Inactive)
REMARK    1  A    between atoms: C_2  and  C_3 
REMARK    2  A    between atoms: C_3  and  O_6 
REMARK    3  A    between atoms: C_3  and  C_4 
REMARK    4  A    between atoms: C_7  and  O_6 
REMARK    5  A    between atoms: C_9  and  C_10 
REMARK    6  A    between atoms: N_15  and  C_14 
REMARK    7  A    between atoms: N_20  and  C_19 
REMARK       I    between atoms: C_22  and  N_20 
ROOT
ATOM      1  C   LIG d   1       1.415  59.481 120.639  0.00  0.00     0.161 C 
ATOM      2  C   LIG d   1       0.170  59.894 120.135  0.00  0.00     0.016 C 
ATOM      3  C   LIG d   1      -0.162  59.863 118.761  0.00  0.00     0.038 C 
ATOM      4  C   LIG d   1       0.680  59.272 117.808  0.00  0.00     0.028 C 
ATOM      5  C   LIG d   1       2.154  59.302 118.200  0.00  0.00    -0.047 C 
ATOM      6  C   LIG d   1       2.305  58.730 119.628  0.00  0.00     0.091 C 
ENDROOT
BRANCH   1   7
ATOM      7  O   LIG d   1       1.222  58.686 121.825  0.00  0.00    -0.368 OA
BRANCH   7   8
ATOM      8  C   LIG d   1       1.535  59.332 123.084  0.00  0.00     0.119 C 
BRANCH   8   9
ATOM      9  C   LIG d   1       0.200  59.700 123.759  0.00  0.00     0.028 C 
ATOM     10  C   LIG d   1      -0.812  58.543 123.730  0.00  0.00     0.006 C 
ENDBRANCH   8   9
BRANCH   8  11
ATOM     11  C   LIG d   1       2.259  60.663 122.862  0.00  0.00     0.028 C 
ATOM     12  C   LIG d   1       1.984  61.683 123.979  0.00  0.00     0.006 C 
ENDBRANCH   8  11
ENDBRANCH   7   8
ENDBRANCH   1   7
BRANCH   6  13
ATOM     13  N   LIG d   1       3.705  58.800 120.121  0.00  0.00    -0.311 N 
ATOM     14  C   LIG d   1       4.546  57.767 120.093  0.00  0.00     0.210 C 
ATOM     15  C   LIG d   1       5.936  58.049 120.670  0.00  0.00     0.109 C 
ATOM     16  O   LIG d   1       4.282  56.654 119.615  0.00  0.00    -0.276 OA
ATOM     17  H   LIG d   1       4.013  59.676 120.497  0.00  0.00     0.149 HD
ENDBRANCH   6  13
BRANCH   5  18
ATOM     18  N   LIG d   1       2.900  58.532 117.186  0.00  0.00     0.381 N 
ATOM     19  H   LIG d   1       3.784  58.968 117.014  0.00  0.00    -0.090 HD
ATOM     20  H   LIG d   1       2.377  58.531 116.329  0.00  0.00    -0.090 HD
ATOM     21  H   LIG d   1       3.038  57.597 117.502  0.00  0.00    -0.090 HD
ENDBRANCH   5  18
BRANCH   3  22
ATOM     22  C   LIG d   1      -1.332  60.465 118.323  0.00  0.00     0.382 C 
ATOM     23  O   LIG d   1      -1.639  61.611 118.732  0.00  0.00    -0.241 OA
ATOM     24  O   LIG d   1      -2.106  59.859 117.559  0.00  0.00    -0.241 OA
ENDBRANCH   3  22
TORSDOF 7
ENDMDL
MODEL 4
REMARK VINA RESULT:      -4.6      2.629      5.324
REMARK  7 active torsions:
REMARK  status: ('A' for Active; 'I' for Inactive)
REMARK    1  A    between atoms: C_2  and  C_3 
REMARK    2  A    between atoms: C_3  and  O_6 
REMARK    3  A    between atoms: C_3  and  C_4 
REMARK    4  A    between atoms: C_7  and  O_6 
REMARK    5  A    between atoms: C_9  and  C_10 
REMARK    6  A    between atoms: N_15  and  C_14 
REMARK    7  A    between atoms: N_20  and  C_19 
REMARK       I    between atoms: C_22  and  N_20 
ROOT
ATOM      1  C   LIG d   1       1.334  58.823 120.732  0.00  0.00     0.161 C 
ATOM      2  C   LIG d   1       0.159  59.472 120.318  0.00  0.00     0.016 C 
ATOM      3  C   LIG d   1      -0.114  59.801 118.970  0.00  0.00     0.038 C 
ATOM      4  C   LIG d   1       0.706  59.365 117.919  0.00  0.00     0.028 C 
ATOM      5  C   LIG d   1       2.157  59.145 118.334  0.00  0.00    -0.047 C 
ATOM      6  C   LIG d   1       2.189  58.240 119.587  0.00  0.00     0.091 C 
ENDROOT
BRANCH   1   7
ATOM      7  O   LIG d   1       1.013  57.795 121.690  0.00  0.00    -0.368 OA
BRANCH   7   8
ATOM      8  C   LIG d   1       1.562  57.969 123.019  0.00  0.00     0.119 C 
BRANCH   8   9
ATOM      9  C   LIG d   1       2.524  56.793 123.280  0.00  0.00     0.028 C 
ATOM     10  C   LIG d   1       2.166  55.548 122.452  0.00  0.00     0.006 C 
ENDBRANCH   8   9
BRANCH   8  11
ATOM     11  C   LIG d   1       0.475  57.849 124.092  0.00  0.00     0.028 C 
ATOM     12  C   LIG d   1      -0.924  58.207 123.565  0.00  0.00     0.006 C 
ENDBRANCH   8  11
ENDBRANCH   7   8
ENDBRANCH   1   7
BRANCH   6  13
ATOM     13  N   LIG d   1       3.567  58.044 120.109  0.00  0.00    -0.311 N 
ATOM     14  C   LIG d   1       4.318  56.984 119.816  0.00  0.00     0.210 C 
ATOM     15  C   LIG d   1       5.700  56.968 120.476  0.00  0.00     0.109 C 
ATOM     16  O   LIG d   1       3.983  56.071 119.046  0.00  0.00    -0.276 OA
ATOM     17  H   LIG d   1       3.929  58.752 120.717  0.00  0.00     0.149 HD
ENDBRANCH   6  13
BRANCH   5  18
ATOM     18  N   LIG d   1       2.867  58.561 117.181  0.00  0.00     0.381 N 
ATOM     19  H   LIG d   1       3.697  59.087 116.993  0.00  0.00    -0.090 HD
ATOM     20  H   LIG d   1       2.272  58.612 116.373  0.00  0.00    -0.090 HD
ATOM     21  H   LIG d   1       3.102  57.612 117.370  0.00  0.00    -0.090 HD
ENDBRANCH   5  18
BRANCH   3  22
ATOM     22  C   LIG d   1      -1.199  60.610 118.667  0.00  0.00     0.382 C 
ATOM     23  O   LIG d   1      -2.051  60.227 117.829  0.00  0.00    -0.241 OA
ATOM     24  O   LIG d   1      -1.313  61.736 119.187  0.00  0.00    -0.241 OA
ENDBRANCH   3  22
TORSDOF 7
ENDMDL
MODEL 5
REMARK VINA RESULT:      -4.5     12.946     15.672
REMARK  7 active torsions:
REMARK  status: ('A' for Active; 'I' for Inactive)
REMARK    1  A    between atoms: C_2  and  C_3 
REMARK    2  A    between atoms: C_3  and  O_6 
REMARK    3  A    between atoms: C_3  and  C_4 
REMARK    4  A    between atoms: C_7  and  O_6 
REMARK    5  A    between atoms: C_9  and  C_10 
REMARK    6  A    between atoms: N_15  and  C_14 
REMARK    7  A    between atoms: N_20  and  C_19 
REMARK       I    between atoms: C_22  and  N_20 
ROOT
ATOM      1  C   LIG d   1     -13.180  67.448 121.881  0.00  0.00     0.161 C 
ATOM      2  C   LIG d   1     -12.124  67.275 122.791  0.00  0.00     0.016 C 
ATOM      3  C   LIG d   1     -11.182  66.225 122.697  0.00  0.00     0.038 C 
ATOM      4  C   LIG d   1     -11.141  65.360 121.594  0.00  0.00     0.028 C 
ATOM      5  C   LIG d   1     -12.494  65.186 120.911  0.00  0.00    -0.047 C 
ATOM      6  C   LIG d   1     -13.087  66.581 120.608  0.00  0.00     0.091 C 
ENDROOT
BRANCH   1   7
ATOM      7  O   LIG d   1     -13.299  68.841 121.530  0.00  0.00    -0.368 OA
BRANCH   7   8
ATOM      8  C   LIG d   1     -14.484  69.521 122.012  0.00  0.00     0.119 C 
BRANCH   8   9
ATOM      9  C   LIG d   1     -15.277  70.000 120.781  0.00  0.00     0.028 C 
ATOM     10  C   LIG d   1     -15.983  71.344 121.024  0.00  0.00     0.006 C 
ENDBRANCH   8   9
BRANCH   8  11
ATOM     11  C   LIG d   1     -14.121  70.795 122.782  0.00  0.00     0.028 C 
ATOM     12  C   LIG d   1     -12.607  70.955 122.989  0.00  0.00     0.006 C 
ENDBRANCH   8  11
ENDBRANCH   7   8
ENDBRANCH   1   7
BRANCH   6  13
ATOM     13  N   LIG d   1     -14.448  66.502 120.016  0.00  0.00    -0.311 N 
ATOM     14  C   LIG d   1     -14.761  67.015 118.828  0.00  0.00     0.210 C 
ATOM     15  C   LIG d   1     -16.226  66.841 118.414  0.00  0.00     0.109 C 
ATOM     16  O   LIG d   1     -13.958  67.571 118.063  0.00  0.00    -0.276 OA
ATOM     17  H   LIG d   1     -15.154  66.041 120.556  0.00  0.00     0.149 HD
ENDBRANCH   6  13
BRANCH   5  18
ATOM     18  N   LIG d   1     -12.280  64.372 119.700  0.00  0.00     0.381 N 
ATOM     19  H   LIG d   1     -12.968  64.603 119.011  0.00  0.00    -0.090 HD
ATOM     20  H   LIG d   1     -12.385  63.402 119.937  0.00  0.00    -0.090 HD
ATOM     21  H   LIG d   1     -11.367  64.536 119.336  0.00  0.00    -0.090 HD
ENDBRANCH   5  18
BRANCH   3  22
ATOM     22  C   LIG d   1     -10.290  66.008 123.737  0.00  0.00     0.382 C 
ATOM     23  O   LIG d   1      -9.467  66.901 124.053  0.00  0.00    -0.241 OA
ATOM     24  O   LIG d   1     -10.269  64.915 124.333  0.00  0.00    -0.241 OA
ENDBRANCH   3  22
TORSDOF 7
ENDMDL
MODEL 6
REMARK VINA RESULT:      -4.5      1.992      4.682
REMARK  7 active torsions:
REMARK  status: ('A' for Active; 'I' for Inactive)
REMARK    1  A    between atoms: C_2  and  C_3 
REMARK    2  A    between atoms: C_3  and  O_6 
REMARK    3  A    between atoms: C_3  and  C_4 
REMARK    4  A    between atoms: C_7  and  O_6 
REMARK    5  A    between atoms: C_9  and  C_10 
REMARK    6  A    between atoms: N_15  and  C_14 
REMARK    7  A    between atoms: N_20  and  C_19 
REMARK       I    between atoms: C_22  and  N_20 
ROOT
ATOM      1  C   LIG d   1      -0.002  60.099 120.611  0.00  0.00     0.161 C 
ATOM      2  C   LIG d   1       0.971  60.581 121.503  0.00  0.00     0.016 C 
ATOM      3  C   LIG d   1       0.660  61.178 122.746  0.00  0.00     0.038 C 
ATOM      4  C   LIG d   1      -0.648  61.196 123.253  0.00  0.00     0.028 C 
ATOM      5  C   LIG d   1      -1.719  61.176 122.168  0.00  0.00    -0.047 C 
ATOM      6  C   LIG d   1      -1.427  60.009 121.196  0.00  0.00     0.091 C 
ENDROOT
BRANCH   1   7
ATOM      7  O   LIG d   1       0.406  58.819 120.088  0.00  0.00    -0.368 OA
BRANCH   7   8
ATOM      8  C   LIG d   1       1.690  58.785 119.418  0.00  0.00     0.119 C 
BRANCH   8   9
ATOM      9  C   LIG d   1       1.432  58.437 117.939  0.00  0.00     0.028 C 
ATOM     10  C   LIG d   1       0.369  59.346 117.299  0.00  0.00     0.006 C 
ENDBRANCH   8   9
BRANCH   8  11
ATOM     11  C   LIG d   1       2.568  57.651 119.954  0.00  0.00     0.028 C 
ATOM     12  C   LIG d   1       2.879  56.585 118.892  0.00  0.00     0.006 C 
ENDBRANCH   8  11
ENDBRANCH   7   8
ENDBRANCH   1   7
BRANCH   6  13
ATOM     13  N   LIG d   1      -2.379  59.970 120.056  0.00  0.00    -0.311 N 
ATOM     14  C   LIG d   1      -2.389  60.872 119.077  0.00  0.00     0.210 C 
ATOM     15  C   LIG d   1      -3.466  60.657 118.009  0.00  0.00     0.109 C 
ATOM     16  O   LIG d   1      -1.586  61.812 118.974  0.00  0.00    -0.276 OA
ATOM     17  H   LIG d   1      -3.045  59.222 120.044  0.00  0.00     0.149 HD
ENDBRANCH   6  13
BRANCH   5  18
ATOM     18  N   LIG d   1      -3.028  61.058 122.836  0.00  0.00     0.381 N 
ATOM     19  H   LIG d   1      -3.235  61.905 123.327  0.00  0.00    -0.090 HD
ATOM     20  H   LIG d   1      -2.986  60.309 123.504  0.00  0.00    -0.090 HD
ATOM     21  H   LIG d   1      -3.739  60.874 122.163  0.00  0.00    -0.090 HD
ENDBRANCH   5  18
BRANCH   3  22
ATOM     22  C   LIG d   1       1.659  61.800 123.479  0.00  0.00     0.382 C 
ATOM     23  O   LIG d   1       2.860  61.665 123.142  0.00  0.00    -0.241 OA
ATOM     24  O   LIG d   1       1.378  62.459 124.498  0.00  0.00    -0.241 OA
ENDBRANCH   3  22
TORSDOF 7
ENDMDL
MODEL 7
REMARK VINA RESULT:      -4.5      2.538      5.203
REMARK  7 active torsions:
REMARK  status: ('A' for Active; 'I' for Inactive)
REMARK    1  A    between atoms: C_2  and  C_3 
REMARK    2  A    between atoms: C_3  and  O_6 
REMARK    3  A    between atoms: C_3  and  C_4 
REMARK    4  A    between atoms: C_7  and  O_6 
REMARK    5  A    between atoms: C_9  and  C_10 
REMARK    6  A    between atoms: N_15  and  C_14 
REMARK    7  A    between atoms: N_20  and  C_19 
REMARK       I    between atoms: C_22  and  N_20 
ROOT
ATOM      1  C   LIG d   1      -1.510  61.511 121.807  0.00  0.00     0.161 C 
ATOM      2  C   LIG d   1      -2.274  61.170 120.679  0.00  0.00     0.016 C 
ATOM      3  C   LIG d   1      -1.795  60.345 119.635  0.00  0.00     0.038 C 
ATOM      4  C   LIG d   1      -0.564  59.678 119.723  0.00  0.00     0.028 C 
ATOM      5  C   LIG d   1       0.450  60.393 120.609  0.00  0.00    -0.047 C 
ATOM      6  C   LIG d   1      -0.206  60.703 121.974  0.00  0.00     0.091 C 
ENDROOT
BRANCH   1   7
ATOM      7  O   LIG d   1      -2.319  61.407 122.995  0.00  0.00    -0.368 OA
BRANCH   7   8
ATOM      8  C   LIG d   1      -2.403  60.091 123.596  0.00  0.00     0.119 C 
BRANCH   8   9
ATOM      9  C   LIG d   1      -3.882  59.660 123.564  0.00  0.00     0.028 C 
ATOM     10  C   LIG d   1      -4.200  58.575 124.605  0.00  0.00     0.006 C 
ENDBRANCH   8   9
BRANCH   8  11
ATOM     11  C   LIG d   1      -2.024  60.130 125.079  0.00  0.00     0.028 C 
ATOM     12  C   LIG d   1      -1.783  61.558 125.595  0.00  0.00     0.006 C 
ENDBRANCH   8  11
ENDBRANCH   7   8
ENDBRANCH   1   7
BRANCH   6  13
ATOM     13  N   LIG d   1       0.691  61.477 122.871  0.00  0.00    -0.311 N 
ATOM     14  C   LIG d   1       1.465  60.914 123.798  0.00  0.00     0.210 C 
ATOM     15  C   LIG d   1       2.297  61.895 124.629  0.00  0.00     0.109 C 
ATOM     16  O   LIG d   1       1.565  59.692 123.988  0.00  0.00    -0.276 OA
ATOM     17  H   LIG d   1       0.696  62.472 122.764  0.00  0.00     0.149 HD
ENDBRANCH   6  13
BRANCH   5  18
ATOM     18  N   LIG d   1       1.635  59.522 120.723  0.00  0.00     0.381 N 
ATOM     19  H   LIG d   1       2.252  59.878 121.426  0.00  0.00    -0.090 HD
ATOM     20  H   LIG d   1       2.125  59.522 119.845  0.00  0.00    -0.090 HD
ATOM     21  H   LIG d   1       1.356  58.594 120.954  0.00  0.00    -0.090 HD
ENDBRANCH   5  18
BRANCH   3  22
ATOM     22  C   LIG d   1      -2.534  60.212 118.470  0.00  0.00     0.382 C 
ATOM     23  O   LIG d   1      -1.976  59.831 117.413  0.00  0.00    -0.241 OA
ATOM     24  O   LIG d   1      -3.743  60.512 118.451  0.00  0.00    -0.241 OA
ENDBRANCH   3  22
TORSDOF 7
ENDMDL
MODEL 8
REMARK VINA RESULT:      -4.4      2.461      5.183
REMARK  7 active torsions:
REMARK  status: ('A' for Active; 'I' for Inactive)
REMARK    1  A    between atoms: C_2  and  C_3 
REMARK    2  A    between atoms: C_3  and  O_6 
REMARK    3  A    between atoms: C_3  and  C_4 
REMARK    4  A    between atoms: C_7  and  O_6 
REMARK    5  A    between atoms: C_9  and  C_10 
REMARK    6  A    between atoms: N_15  and  C_14 
REMARK    7  A    between atoms: N_20  and  C_19 
REMARK       I    between atoms: C_22  and  N_20 
ROOT
ATOM      1  C   LIG d   1       0.193  59.288 121.588  0.00  0.00     0.161 C 
ATOM      2  C   LIG d   1      -0.090  59.414 120.218  0.00  0.00     0.016 C 
ATOM      3  C   LIG d   1      -1.052  60.313 119.702  0.00  0.00     0.038 C 
ATOM      4  C   LIG d   1      -1.692  61.261 120.514  0.00  0.00     0.028 C 
ATOM      5  C   LIG d   1      -1.809  60.828 121.972  0.00  0.00    -0.047 C 
ATOM      6  C   LIG d   1      -0.416  60.391 122.479  0.00  0.00     0.091 C 
ENDROOT
BRANCH   1   7
ATOM      7  O   LIG d   1       1.618  59.212 121.788  0.00  0.00    -0.368 OA
BRANCH   7   8
ATOM      8  C   LIG d   1       2.407  60.244 121.146  0.00  0.00     0.119 C 
BRANCH   8   9
ATOM      9  C   LIG d   1       3.548  59.546 120.380  0.00  0.00     0.028 C 
ATOM     10  C   LIG d   1       3.387  59.658 118.855  0.00  0.00     0.006 C 
ENDBRANCH   8   9
BRANCH   8  11
ATOM     11  C   LIG d   1       3.099  61.139 122.177  0.00  0.00     0.028 C 
ATOM     12  C   LIG d   1       3.246  60.464 123.550  0.00  0.00     0.006 C 
ENDBRANCH   8  11
ENDBRANCH   7   8
ENDBRANCH   1   7
BRANCH   6  13
ATOM     13  N   LIG d   1      -0.456  59.873 123.872  0.00  0.00    -0.311 N 
ATOM     14  C   LIG d   1      -0.201  60.625 124.941  0.00  0.00     0.210 C 
ATOM     15  C   LIG d   1      -0.278  59.889 126.282  0.00  0.00     0.109 C 
ATOM     16  O   LIG d   1       0.051  61.839 124.908  0.00  0.00    -0.276 OA
ATOM     17  H   LIG d   1      -0.683  58.905 123.992  0.00  0.00     0.149 HD
ENDBRANCH   6  13
BRANCH   5  18
ATOM     18  N   LIG d   1      -2.370  61.963 122.730  0.00  0.00     0.381 N 
ATOM     19  H   LIG d   1      -2.964  62.506 122.136  0.00  0.00    -0.090 HD
ATOM     20  H   LIG d   1      -1.616  62.549 123.042  0.00  0.00    -0.090 HD
ATOM     21  H   LIG d   1      -2.887  61.628 123.513  0.00  0.00    -0.090 HD
ENDBRANCH   5  18
BRANCH   3  22
ATOM     22  C   LIG d   1      -1.411  60.242 118.364  0.00  0.00     0.382 C 
ATOM     23  O   LIG d   1      -0.566  59.888 117.507  0.00  0.00    -0.241 OA
ATOM     24  O   LIG d   1      -2.555  60.571 117.999  0.00  0.00    -0.241 OA
ENDBRANCH   3  22
TORSDOF 7
ENDMDL
MODEL 9
REMARK VINA RESULT:      -4.3     30.878     33.555
REMARK  7 active torsions:
REMARK  status: ('A' for Active; 'I' for Inactive)
REMARK    1  A    between atoms: C_2  and  C_3 
REMARK    2  A    between atoms: C_3  and  O_6 
REMARK    3  A    between atoms: C_3  and  C_4 
REMARK    4  A    between atoms: C_7  and  O_6 
REMARK    5  A    between atoms: C_9  and  C_10 
REMARK    6  A    between atoms: N_15  and  C_14 
REMARK    7  A    between atoms: N_20  and  C_19 
REMARK       I    between atoms: C_22  and  N_20 
ROOT
ATOM      1  C   LIG d   1      -4.882  92.662 120.084  0.00  0.00     0.161 C 
ATOM      2  C   LIG d   1      -3.825  91.779 119.804  0.00  0.00     0.016 C 
ATOM      3  C   LIG d   1      -3.849  90.850 118.738  0.00  0.00     0.038 C 
ATOM      4  C   LIG d   1      -4.876  90.845 117.782  0.00  0.00     0.028 C 
ATOM      5  C   LIG d   1      -6.203  91.375 118.315  0.00  0.00    -0.047 C 
ATOM      6  C   LIG d   1      -5.962  92.747 118.985  0.00  0.00     0.091 C 
ENDROOT
BRANCH   1   7
ATOM      7  O   LIG d   1      -4.359  93.973 120.375  0.00  0.00    -0.368 OA
BRANCH   7   8
ATOM      8  C   LIG d   1      -4.082  94.818 119.231  0.00  0.00     0.119 C 
BRANCH   8   9
ATOM      9  C   LIG d   1      -2.556  95.018 119.162  0.00  0.00     0.028 C 
ATOM     10  C   LIG d   1      -1.928  94.323 117.942  0.00  0.00     0.006 C 
ENDBRANCH   8   9
BRANCH   8  11
ATOM     11  C   LIG d   1      -4.667  96.221 119.420  0.00  0.00     0.028 C 
ATOM     12  C   LIG d   1      -3.635  97.333 119.178  0.00  0.00     0.006 C 
ENDBRANCH   8  11
ENDBRANCH   7   8
ENDBRANCH   1   7
BRANCH   6  13
ATOM     13  N   LIG d   1      -7.194  93.298 119.607  0.00  0.00    -0.311 N 
ATOM     14  C   LIG d   1      -8.024  94.129 118.979  0.00  0.00     0.210 C 
ATOM     15  C   LIG d   1      -9.225  94.594 119.809  0.00  0.00     0.109 C 
ATOM     16  O   LIG d   1      -7.897  94.499 117.802  0.00  0.00    -0.276 OA
ATOM     17  H   LIG d   1      -7.390  93.025 120.550  0.00  0.00     0.149 HD
ENDBRANCH   6  13
BRANCH   5  18
ATOM     18  N   LIG d   1      -7.143  91.443 117.180  0.00  0.00     0.381 N 
ATOM     19  H   LIG d   1      -7.169  92.375 116.817  0.00  0.00    -0.090 HD
ATOM     20  H   LIG d   1      -8.063  91.207 117.506  0.00  0.00    -0.090 HD
ATOM     21  H   LIG d   1      -6.862  90.808 116.466  0.00  0.00    -0.090 HD
ENDBRANCH   5  18
BRANCH   3  22
ATOM     22  C   LIG d   1      -2.857  89.886 118.645  0.00  0.00     0.382 C 
ATOM     23  O   LIG d   1      -1.783  90.147 118.052  0.00  0.00    -0.241 OA
ATOM     24  O   LIG d   1      -3.041  88.744 119.107  0.00  0.00    -0.241 OA
ENDBRANCH   3  22
TORSDOF 7
ENDMDL
