MODEL 1
REMARK VINA RESULT:      -4.8      0.000      0.000
REMARK  7 active torsions:
REMARK  status: ('A' for Active; 'I' for Inactive)
REMARK    1  A    between atoms: C_2  and  C_3 
REMARK    2  A    between atoms: C_3  and  O_6 
REMARK    3  A    between atoms: C_3  and  C_4 
REMARK    4  A    between atoms: C_7  and  O_6 
REMARK    5  A    between atoms: C_9  and  C_10 
REMARK    6  A    between atoms: N_15  and  C_14 
REMARK    7  A    between atoms: N_20  and  C_19 
REMARK       I    between atoms: C_22  and  N_20 
ROOT
ATOM      1  C   LIG d   1      -1.403  60.276 122.453  0.00  0.00     0.161 C 
ATOM      2  C   LIG d   1      -1.276  60.091 121.067  0.00  0.00     0.016 C 
ATOM      3  C   LIG d   1      -2.348  59.695 120.233  0.00  0.00     0.038 C 
ATOM      4  C   LIG d   1      -3.664  59.603 120.711  0.00  0.00     0.028 C 
ATOM      5  C   LIG d   1      -3.747  59.291 122.201  0.00  0.00    -0.047 C 
ATOM      6  C   LIG d   1      -2.856  60.289 122.974  0.00  0.00     0.091 C 
ENDROOT
BRANCH   1   7
ATOM      7  O   LIG d   1      -0.718  61.481 122.849  0.00  0.00    -0.368 OA
BRANCH   7   8
ATOM      8  C   LIG d   1       0.254  61.340 123.915  0.00  0.00     0.119 C 
BRANCH   8   9
ATOM      9  C   LIG d   1       0.633  62.758 124.386  0.00  0.00     0.028 C 
ATOM     10  C   LIG d   1      -0.503  63.772 124.167  0.00  0.00     0.006 C 
ENDBRANCH   8   9
BRANCH   8  11
ATOM     11  C   LIG d   1       1.557  60.722 123.402  0.00  0.00     0.028 C 
ATOM     12  C   LIG d   1       2.780  61.129 124.239  0.00  0.00     0.006 C 
ENDBRANCH   8  11
ENDBRANCH   7   8
ENDBRANCH   1   7
BRANCH   6  13
ATOM     13  N   LIG d   1      -2.814  60.002 124.431  0.00  0.00    -0.311 N 
ATOM     14  C   LIG d   1      -3.195  60.874 125.362  0.00  0.00     0.210 C 
ATOM     15  C   LIG d   1      -3.052  60.383 126.806  0.00  0.00     0.109 C 
ATOM     16  O   LIG d   1      -3.669  61.996 125.128  0.00  0.00    -0.276 OA
ATOM     17  H   LIG d   1      -2.472  59.102 124.709  0.00  0.00     0.149 HD
ENDBRANCH   6  13
BRANCH   5  18
ATOM     18  N   LIG d   1      -5.168  59.361 122.592  0.00  0.00     0.381 N 
ATOM     19  H   LIG d   1      -5.263  59.905 123.426  0.00  0.00    -0.090 HD
ATOM     20  H   LIG d   1      -5.499  58.432 122.782  0.00  0.00    -0.090 HD
ATOM     21  H   LIG d   1      -5.704  59.769 121.858  0.00  0.00    -0.090 HD
ENDBRANCH   5  18
BRANCH   3  22
ATOM     22  C   LIG d   1      -2.100  59.346 118.914  0.00  0.00     0.382 C 
ATOM     23  O   LIG d   1      -3.044  59.305 118.089  0.00  0.00    -0.241 OA
ATOM     24  O   LIG d   1      -0.952  59.030 118.549  0.00  0.00    -0.241 OA
ENDBRANCH   3  22
TORSDOF 7
ENDMDL
MODEL 2
REMARK VINA RESULT:      -4.8      1.549      2.258
REMARK  7 active torsions:
REMARK  status: ('A' for Active; 'I' for Inactive)
REMARK    1  A    between atoms: C_2  and  C_3 
REMARK    2  A    between atoms: C_3  and  O_6 
REMARK    3  A    between atoms: C_3  and  C_4 
REMARK    4  A    between atoms: C_7  and  O_6 
REMARK    5  A    between atoms: C_9  and  C_10 
REMARK    6  A    between atoms: N_15  and  C_14 
REMARK    7  A    between atoms: N_20  and  C_19 
REMARK       I    between atoms: C_22  and  N_20 
ROOT
ATOM      1  C   LIG d   1      -1.149  59.634 121.716  0.00  0.00     0.161 C 
ATOM      2  C   LIG d   1      -0.739  59.395 120.394  0.00  0.00     0.016 C 
ATOM      3  C   LIG d   1      -1.632  59.336 119.300  0.00  0.00     0.038 C 
ATOM      4  C   LIG d   1      -2.990  59.664 119.433  0.00  0.00     0.028 C 
ATOM      5  C   LIG d   1      -3.538  59.418 120.835  0.00  0.00    -0.047 C 
ATOM      6  C   LIG d   1      -2.611  60.105 121.864  0.00  0.00     0.091 C 
ENDROOT
BRANCH   1   7
ATOM      7  O   LIG d   1      -0.255  60.575 122.343  0.00  0.00    -0.368 OA
BRANCH   7   8
ATOM      8  C   LIG d   1       0.477  60.088 123.495  0.00  0.00     0.119 C 
BRANCH   8   9
ATOM      9  C   LIG d   1       1.972  60.362 123.244  0.00  0.00     0.028 C 
ATOM     10  C   LIG d   1       2.546  59.495 122.110  0.00  0.00     0.006 C 
ENDBRANCH   8   9
BRANCH   8  11
ATOM     11  C   LIG d   1       0.360  58.566 123.627  0.00  0.00     0.028 C 
ATOM     12  C   LIG d   1      -0.197  58.127 124.990  0.00  0.00     0.006 C 
ENDBRANCH   8  11
ENDBRANCH   7   8
ENDBRANCH   1   7
BRANCH   6  13
ATOM     13  N   LIG d   1      -3.028  59.843 123.266  0.00  0.00    -0.311 N 
ATOM     14  C   LIG d   1      -3.070  60.785 124.206  0.00  0.00     0.210 C 
ATOM     15  C   LIG d   1      -3.510  60.297 125.591  0.00  0.00     0.109 C 
ATOM     16  O   LIG d   1      -2.817  61.984 124.018  0.00  0.00    -0.276 OA
ATOM     17  H   LIG d   1      -3.281  58.902 123.498  0.00  0.00     0.149 HD
ENDBRANCH   6  13
BRANCH   5  18
ATOM     18  N   LIG d   1      -4.921  59.930 120.869  0.00  0.00     0.381 N 
ATOM     19  H   LIG d   1      -5.401  59.666 120.032  0.00  0.00    -0.090 HD
ATOM     20  H   LIG d   1      -4.894  60.934 120.914  0.00  0.00    -0.090 HD
ATOM     21  H   LIG d   1      -5.399  59.567 121.663  0.00  0.00    -0.090 HD
ENDBRANCH   5  18
BRANCH   3  22
ATOM     22  C   LIG d   1      -1.177  58.905 118.063  0.00  0.00     0.382 C 
ATOM     23  O   LIG d   1       0.052  58.910 117.811  0.00  0.00    -0.241 OA
ATOM     24  O   LIG d   1      -1.983  58.555 117.180  0.00  0.00    -0.241 OA
ENDBRANCH   3  22
TORSDOF 7
ENDMDL
MODEL 3
REMARK VINA RESULT:      -4.7     20.098     22.051
REMARK  7 active torsions:
REMARK  status: ('A' for Active; 'I' for Inactive)
REMARK    1  A    between atoms: C_2  and  C_3 
REMARK    2  A    between atoms: C_3  and  O_6 
REMARK    3  A    between atoms: C_3  and  C_4 
REMARK    4  A    between atoms: C_7  and  O_6 
REMARK    5  A    between atoms: C_9  and  C_10 
REMARK    6  A    between atoms: N_15  and  C_14 
REMARK    7  A    between atoms: N_20  and  C_19 
REMARK       I    between atoms: C_22  and  N_20 
ROOT
ATOM      1  C   LIG d   1      -8.687  80.523 120.615  0.00  0.00     0.161 C 
ATOM      2  C   LIG d   1      -9.179  79.234 120.349  0.00  0.00     0.016 C 
ATOM      3  C   LIG d   1     -10.393  78.740 120.878  0.00  0.00     0.038 C 
ATOM      4  C   LIG d   1     -11.279  79.561 121.592  0.00  0.00     0.028 C 
ATOM      5  C   LIG d   1     -10.590  80.716 122.309  0.00  0.00    -0.047 C 
ATOM      6  C   LIG d   1      -9.694  81.470 121.300  0.00  0.00     0.091 C 
ENDROOT
BRANCH   1   7
ATOM      7  O   LIG d   1      -8.189  81.116 119.399  0.00  0.00    -0.368 OA
BRANCH   7   8
ATOM      8  C   LIG d   1      -8.570  80.458 118.166  0.00  0.00     0.119 C 
BRANCH   8   9
ATOM      9  C   LIG d   1      -7.277  79.976 117.480  0.00  0.00     0.028 C 
ATOM     10  C   LIG d   1      -7.219  78.445 117.347  0.00  0.00     0.006 C 
ENDBRANCH   8   9
BRANCH   8  11
ATOM     11  C   LIG d   1      -9.208  81.443 117.182  0.00  0.00     0.028 C 
ATOM     12  C   LIG d   1     -10.580  81.951 117.653  0.00  0.00     0.006 C 
ENDBRANCH   8  11
ENDBRANCH   7   8
ENDBRANCH   1   7
BRANCH   6  13
ATOM     13  N   LIG d   1      -8.917  82.565 121.939  0.00  0.00    -0.311 N 
ATOM     14  C   LIG d   1      -9.328  83.832 121.973  0.00  0.00     0.210 C 
ATOM     15  C   LIG d   1      -8.367  84.804 122.664  0.00  0.00     0.109 C 
ATOM     16  O   LIG d   1     -10.412  84.236 121.526  0.00  0.00    -0.276 OA
ATOM     17  H   LIG d   1      -8.040  82.320 122.355  0.00  0.00     0.149 HD
ENDBRANCH   6  13
BRANCH   5  18
ATOM     18  N   LIG d   1     -11.642  81.567 122.897  0.00  0.00     0.381 N 
ATOM     19  H   LIG d   1     -11.287  82.491 123.043  0.00  0.00    -0.090 HD
ATOM     20  H   LIG d   1     -11.908  81.187 123.788  0.00  0.00    -0.090 HD
ATOM     21  H   LIG d   1     -12.432  81.599 122.291  0.00  0.00    -0.090 HD
ENDBRANCH   5  18
BRANCH   3  22
ATOM     22  C   LIG d   1     -10.713  77.399 120.728  0.00  0.00     0.382 C 
ATOM     23  O   LIG d   1     -10.339  76.566 121.587  0.00  0.00    -0.241 OA
ATOM     24  O   LIG d   1     -11.333  77.006 119.722  0.00  0.00    -0.241 OA
ENDBRANCH   3  22
TORSDOF 7
ENDMDL
MODEL 4
REMARK VINA RESULT:      -4.6      3.676      4.938
REMARK  7 active torsions:
REMARK  status: ('A' for Active; 'I' for Inactive)
REMARK    1  A    between atoms: C_2  and  C_3 
REMARK    2  A    between atoms: C_3  and  O_6 
REMARK    3  A    between atoms: C_3  and  C_4 
REMARK    4  A    between atoms: C_7  and  O_6 
REMARK    5  A    between atoms: C_9  and  C_10 
REMARK    6  A    between atoms: N_15  and  C_14 
REMARK    7  A    between atoms: N_20  and  C_19 
REMARK       I    between atoms: C_22  and  N_20 
ROOT
ATOM      1  C   LIG d   1       0.765  58.208 120.659  0.00  0.00     0.161 C 
ATOM      2  C   LIG d   1       1.977  57.699 120.164  0.00  0.00     0.016 C 
ATOM      3  C   LIG d   1       2.235  57.506 118.787  0.00  0.00     0.038 C 
ATOM      4  C   LIG d   1       1.349  57.954 117.797  0.00  0.00     0.028 C 
ATOM      5  C   LIG d   1      -0.102  58.012 118.263  0.00  0.00    -0.047 C 
ATOM      6  C   LIG d   1      -0.171  58.806 119.588  0.00  0.00     0.091 C 
ENDROOT
BRANCH   1   7
ATOM      7  O   LIG d   1       1.028  59.178 121.692  0.00  0.00    -0.368 OA
BRANCH   7   8
ATOM      8  C   LIG d   1       0.931  58.699 123.056  0.00  0.00     0.119 C 
BRANCH   8   9
ATOM      9  C   LIG d   1       0.045  59.692 123.833  0.00  0.00     0.028 C 
ATOM     10  C   LIG d   1      -0.396  60.885 122.970  0.00  0.00     0.006 C 
ENDBRANCH   8   9
BRANCH   8  11
ATOM     11  C   LIG d   1       2.292  58.736 123.758  0.00  0.00     0.028 C 
ATOM     12  C   LIG d   1       3.206  59.852 123.228  0.00  0.00     0.006 C 
ENDBRANCH   8  11
ENDBRANCH   7   8
ENDBRANCH   1   7
BRANCH   6  13
ATOM     13  N   LIG d   1      -1.543  58.839 120.158  0.00  0.00    -0.311 N 
ATOM     14  C   LIG d   1      -2.376  59.867 120.004  0.00  0.00     0.210 C 
ATOM     15  C   LIG d   1      -3.737  59.706 120.690  0.00  0.00     0.109 C 
ATOM     16  O   LIG d   1      -2.130  60.884 119.338  0.00  0.00    -0.276 OA
ATOM     17  H   LIG d   1      -1.837  58.042 120.687  0.00  0.00     0.149 HD
ENDBRANCH   6  13
BRANCH   5  18
ATOM     18  N   LIG d   1      -0.894  58.625 117.180  0.00  0.00     0.381 N 
ATOM     19  H   LIG d   1      -1.829  58.268 117.201  0.00  0.00    -0.090 HD
ATOM     20  H   LIG d   1      -0.482  58.379 116.297  0.00  0.00    -0.090 HD
ATOM     21  H   LIG d   1      -0.907  59.616 117.285  0.00  0.00    -0.090 HD
ENDBRANCH   5  18
BRANCH   3  22
ATOM     22  C   LIG d   1       3.374  56.822 118.391  0.00  0.00     0.382 C 
ATOM     23  O   LIG d   1       3.277  55.664 117.917  0.00  0.00    -0.241 OA
ATOM     24  O   LIG d   1       4.501  57.330 118.543  0.00  0.00    -0.241 OA
ENDBRANCH   3  22
TORSDOF 7
ENDMDL
MODEL 5
REMARK VINA RESULT:      -4.5      2.244      4.237
REMARK  7 active torsions:
REMARK  status: ('A' for Active; 'I' for Inactive)
REMARK    1  A    between atoms: C_2  and  C_3 
REMARK    2  A    between atoms: C_3  and  O_6 
REMARK    3  A    between atoms: C_3  and  C_4 
REMARK    4  A    between atoms: C_7  and  O_6 
REMARK    5  A    between atoms: C_9  and  C_10 
REMARK    6  A    between atoms: N_15  and  C_14 
REMARK    7  A    between atoms: N_20  and  C_19 
REMARK       I    between atoms: C_22  and  N_20 
ROOT
ATOM      1  C   LIG d   1      -1.602  60.342 121.164  0.00  0.00     0.161 C 
ATOM      2  C   LIG d   1      -1.951  59.867 119.889  0.00  0.00     0.016 C 
ATOM      3  C   LIG d   1      -1.235  58.853 119.213  0.00  0.00     0.038 C 
ATOM      4  C   LIG d   1      -0.204  58.133 119.835  0.00  0.00     0.028 C 
ATOM      5  C   LIG d   1       0.508  58.920 120.931  0.00  0.00    -0.047 C 
ATOM      6  C   LIG d   1      -0.548  59.492 121.904  0.00  0.00     0.091 C 
ENDROOT
BRANCH   1   7
ATOM      7  O   LIG d   1      -2.787  60.486 121.972  0.00  0.00    -0.368 OA
BRANCH   7   8
ATOM      8  C   LIG d   1      -3.191  59.317 122.725  0.00  0.00     0.119 C 
BRANCH   8   9
ATOM      9  C   LIG d   1      -4.554  58.857 122.171  0.00  0.00     0.028 C 
ATOM     10  C   LIG d   1      -5.546  58.485 123.286  0.00  0.00     0.006 C 
ENDBRANCH   8   9
BRANCH   8  11
ATOM     11  C   LIG d   1      -3.447  59.661 124.196  0.00  0.00     0.028 C 
ATOM     12  C   LIG d   1      -3.150  61.133 124.523  0.00  0.00     0.006 C 
ENDBRANCH   8  11
ENDBRANCH   7   8
ENDBRANCH   1   7
BRANCH   6  13
ATOM     13  N   LIG d   1       0.057  60.346 122.959  0.00  0.00    -0.311 N 
ATOM     14  C   LIG d   1       0.373  59.898 124.173  0.00  0.00     0.210 C 
ATOM     15  C   LIG d   1       0.968  60.949 125.116  0.00  0.00     0.109 C 
ATOM     16  O   LIG d   1       0.246  58.723 124.549  0.00  0.00    -0.276 OA
ATOM     17  H   LIG d   1       0.224  61.306 122.730  0.00  0.00     0.149 HD
ENDBRANCH   6  13
BRANCH   5  18
ATOM     18  N   LIG d   1       1.463  58.007 121.587  0.00  0.00     0.381 N 
ATOM     19  H   LIG d   1       2.390  58.193 121.258  0.00  0.00    -0.090 HD
ATOM     20  H   LIG d   1       1.227  57.060 121.344  0.00  0.00    -0.090 HD
ATOM     21  H   LIG d   1       1.424  58.124 122.575  0.00  0.00    -0.090 HD
ENDBRANCH   5  18
BRANCH   3  22
ATOM     22  C   LIG d   1      -1.523  58.576 117.885  0.00  0.00     0.382 C 
ATOM     23  O   LIG d   1      -2.627  58.919 117.399  0.00  0.00    -0.241 OA
ATOM     24  O   LIG d   1      -0.710  57.949 117.180  0.00  0.00    -0.241 OA
ENDBRANCH   3  22
TORSDOF 7
ENDMDL
MODEL 6
REMARK VINA RESULT:      -4.4     23.021     24.399
REMARK  7 active torsions:
REMARK  status: ('A' for Active; 'I' for Inactive)
REMARK    1  A    between atoms: C_2  and  C_3 
REMARK    2  A    between atoms: C_3  and  O_6 
REMARK    3  A    between atoms: C_3  and  C_4 
REMARK    4  A    between atoms: C_7  and  O_6 
REMARK    5  A    between atoms: C_9  and  C_10 
REMARK    6  A    between atoms: N_15  and  C_14 
REMARK    7  A    between atoms: N_20  and  C_19 
REMARK       I    between atoms: C_22  and  N_20 
ROOT
ATOM      1  C   LIG d   1     -18.502  77.170 120.718  0.00  0.00     0.161 C 
ATOM      2  C   LIG d   1     -19.645  76.476 120.288  0.00  0.00     0.016 C 
ATOM      3  C   LIG d   1     -20.888  77.102 120.040  0.00  0.00     0.038 C 
ATOM      4  C   LIG d   1     -21.032  78.498 120.060  0.00  0.00     0.028 C 
ATOM      5  C   LIG d   1     -20.036  79.196 120.980  0.00  0.00    -0.047 C 
ATOM      6  C   LIG d   1     -18.610  78.707 120.639  0.00  0.00     0.091 C 
ENDROOT
BRANCH   1   7
ATOM      7  O   LIG d   1     -17.348  76.711 119.988  0.00  0.00    -0.368 OA
BRANCH   7   8
ATOM      8  C   LIG d   1     -16.485  75.775 120.681  0.00  0.00     0.119 C 
BRANCH   8   9
ATOM      9  C   LIG d   1     -17.227  74.426 120.748  0.00  0.00     0.028 C 
ATOM     10  C   LIG d   1     -17.360  73.759 119.369  0.00  0.00     0.006 C 
ENDBRANCH   8   9
BRANCH   8  11
ATOM     11  C   LIG d   1     -16.268  76.192 122.138  0.00  0.00     0.028 C 
ATOM     12  C   LIG d   1     -14.900  76.853 122.371  0.00  0.00     0.006 C 
ENDBRANCH   8  11
ENDBRANCH   7   8
ENDBRANCH   1   7
BRANCH   6  13
ATOM     13  N   LIG d   1     -17.583  79.279 121.548  0.00  0.00    -0.311 N 
ATOM     14  C   LIG d   1     -16.926  80.409 121.294  0.00  0.00     0.210 C 
ATOM     15  C   LIG d   1     -15.894  80.810 122.353  0.00  0.00     0.109 C 
ATOM     16  O   LIG d   1     -17.123  81.135 120.308  0.00  0.00    -0.276 OA
ATOM     17  H   LIG d   1     -17.382  78.770 122.387  0.00  0.00     0.149 HD
ENDBRANCH   6  13
BRANCH   5  18
ATOM     18  N   LIG d   1     -20.208  80.650 120.799  0.00  0.00     0.381 N 
ATOM     19  H   LIG d   1     -20.689  80.831 119.940  0.00  0.00    -0.090 HD
ATOM     20  H   LIG d   1     -19.301  81.081 120.749  0.00  0.00    -0.090 HD
ATOM     21  H   LIG d   1     -20.722  81.031 121.563  0.00  0.00    -0.090 HD
ENDBRANCH   5  18
BRANCH   3  22
ATOM     22  C   LIG d   1     -22.014  76.327 119.807  0.00  0.00     0.382 C 
ATOM     23  O   LIG d   1     -21.888  75.135 119.436  0.00  0.00    -0.241 OA
ATOM     24  O   LIG d   1     -23.153  76.817 119.920  0.00  0.00    -0.241 OA
ENDBRANCH   3  22
TORSDOF 7
ENDMDL
MODEL 7
REMARK VINA RESULT:      -4.4     12.661     14.897
REMARK  7 active torsions:
REMARK  status: ('A' for Active; 'I' for Inactive)
REMARK    1  A    between atoms: C_2  and  C_3 
REMARK    2  A    between atoms: C_3  and  O_6 
REMARK    3  A    between atoms: C_3  and  C_4 
REMARK    4  A    between atoms: C_7  and  O_6 
REMARK    5  A    between atoms: C_9  and  C_10 
REMARK    6  A    between atoms: N_15  and  C_14 
REMARK    7  A    between atoms: N_20  and  C_19 
REMARK       I    between atoms: C_22  and  N_20 
ROOT
ATOM      1  C   LIG d   1     -13.891  66.038 120.838  0.00  0.00     0.161 C 
ATOM      2  C   LIG d   1     -12.833  65.435 121.539  0.00  0.00     0.016 C 
ATOM      3  C   LIG d   1     -12.215  66.018 122.669  0.00  0.00     0.038 C 
ATOM      4  C   LIG d   1     -12.717  67.182 123.270  0.00  0.00     0.028 C 
ATOM      5  C   LIG d   1     -13.465  68.090 122.301  0.00  0.00    -0.047 C 
ATOM      6  C   LIG d   1     -14.524  67.255 121.546  0.00  0.00     0.091 C 
ENDROOT
BRANCH   1   7
ATOM      7  O   LIG d   1     -14.899  65.055 120.534  0.00  0.00    -0.368 OA
BRANCH   7   8
ATOM      8  C   LIG d   1     -14.903  64.545 119.178  0.00  0.00     0.119 C 
BRANCH   8   9
ATOM      9  C   LIG d   1     -15.996  65.305 118.401  0.00  0.00     0.028 C 
ATOM     10  C   LIG d   1     -15.411  66.339 117.424  0.00  0.00     0.006 C 
ENDBRANCH   8   9
BRANCH   8  11
ATOM     11  C   LIG d   1     -15.325  63.073 119.137  0.00  0.00     0.028 C 
ATOM     12  C   LIG d   1     -16.559  62.832 118.253  0.00  0.00     0.006 C 
ENDBRANCH   8  11
ENDBRANCH   7   8
ENDBRANCH   1   7
BRANCH   6  13
ATOM     13  N   LIG d   1     -15.245  68.048 120.517  0.00  0.00    -0.311 N 
ATOM     14  C   LIG d   1     -16.425  68.628 120.732  0.00  0.00     0.210 C 
ATOM     15  C   LIG d   1     -17.002  69.383 119.530  0.00  0.00     0.109 C 
ATOM     16  O   LIG d   1     -17.032  68.617 121.813  0.00  0.00    -0.276 OA
ATOM     17  H   LIG d   1     -14.809  68.135 119.620  0.00  0.00     0.149 HD
ENDBRANCH   6  13
BRANCH   5  18
ATOM     18  N   LIG d   1     -14.051  69.194 123.085  0.00  0.00     0.381 N 
ATOM     19  H   LIG d   1     -14.966  68.937 123.400  0.00  0.00    -0.090 HD
ATOM     20  H   LIG d   1     -14.136  70.003 122.495  0.00  0.00    -0.090 HD
ATOM     21  H   LIG d   1     -13.470  69.403 123.867  0.00  0.00    -0.090 HD
ENDBRANCH   5  18
BRANCH   3  22
ATOM     22  C   LIG d   1     -11.057  65.457 123.185  0.00  0.00     0.382 C 
ATOM     23  O   LIG d   1     -10.437  66.037 124.109  0.00  0.00    -0.241 OA
ATOM     24  O   LIG d   1     -10.601  64.400 122.709  0.00  0.00    -0.241 OA
ENDBRANCH   3  22
TORSDOF 7
ENDMDL
MODEL 8
REMARK VINA RESULT:      -4.4     32.840     35.162
REMARK  7 active torsions:
REMARK  status: ('A' for Active; 'I' for Inactive)
REMARK    1  A    between atoms: C_2  and  C_3 
REMARK    2  A    between atoms: C_3  and  O_6 
REMARK    3  A    between atoms: C_3  and  C_4 
REMARK    4  A    between atoms: C_7  and  O_6 
REMARK    5  A    between atoms: C_9  and  C_10 
REMARK    6  A    between atoms: N_15  and  C_14 
REMARK    7  A    between atoms: N_20  and  C_19 
REMARK       I    between atoms: C_22  and  N_20 
ROOT
ATOM      1  C   LIG d   1      -6.317  95.133 120.257  0.00  0.00     0.161 C 
ATOM      2  C   LIG d   1      -7.720  95.071 120.204  0.00  0.00     0.016 C 
ATOM      3  C   LIG d   1      -8.502  95.871 119.338  0.00  0.00     0.038 C 
ATOM      4  C   LIG d   1      -7.921  96.684 118.354  0.00  0.00     0.028 C 
ATOM      5  C   LIG d   1      -6.516  97.157 118.710  0.00  0.00    -0.047 C 
ATOM      6  C   LIG d   1      -5.661  95.934 119.112  0.00  0.00     0.091 C 
ENDROOT
BRANCH   1   7
ATOM      7  O   LIG d   1      -5.771  93.800 120.313  0.00  0.00    -0.368 OA
BRANCH   7   8
ATOM      8  C   LIG d   1      -6.577  92.755 119.715  0.00  0.00     0.119 C 
BRANCH   8   9
ATOM      9  C   LIG d   1      -6.529  91.537 120.657  0.00  0.00     0.028 C 
ATOM     10  C   LIG d   1      -7.605  91.600 121.754  0.00  0.00     0.006 C 
ENDBRANCH   8   9
BRANCH   8  11
ATOM     11  C   LIG d   1      -5.971  92.271 118.394  0.00  0.00     0.028 C 
ATOM     12  C   LIG d   1      -6.090  90.750 118.207  0.00  0.00     0.006 C 
ENDBRANCH   8  11
ENDBRANCH   7   8
ENDBRANCH   1   7
BRANCH   6  13
ATOM     13  N   LIG d   1      -4.296  96.317 119.556  0.00  0.00    -0.311 N 
ATOM     14  C   LIG d   1      -3.193  95.675 119.174  0.00  0.00     0.210 C 
ATOM     15  C   LIG d   1      -1.890  96.222 119.765  0.00  0.00     0.109 C 
ATOM     16  O   LIG d   1      -3.168  94.726 118.377  0.00  0.00    -0.276 OA
ATOM     17  H   LIG d   1      -4.222  97.097 120.180  0.00  0.00     0.149 HD
ENDBRANCH   6  13
BRANCH   5  18
ATOM     18  N   LIG d   1      -5.979  97.878 117.540  0.00  0.00     0.381 N 
ATOM     19  H   LIG d   1      -6.099  98.864 117.666  0.00  0.00    -0.090 HD
ATOM     20  H   LIG d   1      -6.492  97.600 116.723  0.00  0.00    -0.090 HD
ATOM     21  H   LIG d   1      -5.013  97.666 117.423  0.00  0.00    -0.090 HD
ENDBRANCH   5  18
BRANCH   3  22
ATOM     22  C   LIG d   1      -9.881  95.891 119.481  0.00  0.00     0.382 C 
ATOM     23  O   LIG d   1     -10.520  94.814 119.555  0.00  0.00    -0.241 OA
ATOM     24  O   LIG d   1     -10.499  96.972 119.492  0.00  0.00    -0.241 OA
ENDBRANCH   3  22
TORSDOF 7
ENDMDL
MODEL 9
REMARK VINA RESULT:      -4.4     23.359     24.751
REMARK  7 active torsions:
REMARK  status: ('A' for Active; 'I' for Inactive)
REMARK    1  A    between atoms: C_2  and  C_3 
REMARK    2  A    between atoms: C_3  and  O_6 
REMARK    3  A    between atoms: C_3  and  C_4 
REMARK    4  A    between atoms: C_7  and  O_6 
REMARK    5  A    between atoms: C_9  and  C_10 
REMARK    6  A    between atoms: N_15  and  C_14 
REMARK    7  A    between atoms: N_20  and  C_19 
REMARK       I    between atoms: C_22  and  N_20 
ROOT
ATOM      1  C   LIG d   1     -18.840  77.431 120.849  0.00  0.00     0.161 C 
ATOM      2  C   LIG d   1     -20.048  76.854 120.422  0.00  0.00     0.016 C 
ATOM      3  C   LIG d   1     -21.203  77.607 120.109  0.00  0.00     0.038 C 
ATOM      4  C   LIG d   1     -21.182  79.009 120.057  0.00  0.00     0.028 C 
ATOM      5  C   LIG d   1     -20.131  79.633 120.968  0.00  0.00    -0.047 C 
ATOM      6  C   LIG d   1     -18.765  78.964 120.691  0.00  0.00     0.091 C 
ENDROOT
BRANCH   1   7
ATOM      7  O   LIG d   1     -17.733  76.803 120.173  0.00  0.00    -0.368 OA
BRANCH   7   8
ATOM      8  C   LIG d   1     -17.180  75.627 120.813  0.00  0.00     0.119 C 
BRANCH   8   9
ATOM      9  C   LIG d   1     -15.690  75.906 121.088  0.00  0.00     0.028 C 
ATOM     10  C   LIG d   1     -15.475  76.748 122.357  0.00  0.00     0.006 C 
ENDBRANCH   8   9
BRANCH   8  11
ATOM     11  C   LIG d   1     -17.200  74.419 119.871  0.00  0.00     0.028 C 
ATOM     12  C   LIG d   1     -18.488  73.591 119.991  0.00  0.00     0.006 C 
ENDBRANCH   8  11
ENDBRANCH   7   8
ENDBRANCH   1   7
BRANCH   6  13
ATOM     13  N   LIG d   1     -17.697  79.458 121.599  0.00  0.00    -0.311 N 
ATOM     14  C   LIG d   1     -16.929  80.511 121.324  0.00  0.00     0.210 C 
ATOM     15  C   LIG d   1     -15.876  80.838 122.387  0.00  0.00     0.109 C 
ATOM     16  O   LIG d   1     -17.042  81.224 120.315  0.00  0.00    -0.276 OA
ATOM     17  H   LIG d   1     -17.559  78.957 122.455  0.00  0.00     0.149 HD
ENDBRANCH   6  13
BRANCH   5  18
ATOM     18  N   LIG d   1     -20.126  81.086 120.713  0.00  0.00     0.381 N 
ATOM     19  H   LIG d   1     -20.999  81.483 120.996  0.00  0.00    -0.090 HD
ATOM     20  H   LIG d   1     -20.014  81.242 119.726  0.00  0.00    -0.090 HD
ATOM     21  H   LIG d   1     -19.379  81.518 121.211  0.00  0.00    -0.090 HD
ENDBRANCH   5  18
BRANCH   3  22
ATOM     22  C   LIG d   1     -22.407  76.957 119.883  0.00  0.00     0.382 C 
ATOM     23  O   LIG d   1     -23.431  77.620 119.589  0.00  0.00    -0.241 OA
ATOM     24  O   LIG d   1     -22.491  75.721 120.012  0.00  0.00    -0.241 OA
ENDBRANCH   3  22
TORSDOF 7
ENDMDL
