MODEL 1
REMARK VINA RESULT:      -5.2      0.000      0.000
REMARK  7 active torsions:
REMARK  status: ('A' for Active; 'I' for Inactive)
REMARK    1  A    between atoms: C_2  and  C_3 
REMARK    2  A    between atoms: C_3  and  O_6 
REMARK    3  A    between atoms: C_3  and  C_4 
REMARK    4  A    between atoms: C_7  and  O_6 
REMARK    5  A    between atoms: C_9  and  C_10 
REMARK    6  A    between atoms: N_15  and  C_14 
REMARK    7  A    between atoms: N_20  and  C_19 
REMARK       I    between atoms: C_22  and  N_20 
ROOT
ATOM      1  C   LIG d   1      -1.042  60.607 122.310  0.00  0.00     0.161 C 
ATOM      2  C   LIG d   1      -1.882  60.669 123.434  0.00  0.00     0.016 C 
ATOM      3  C   LIG d   1      -3.250  60.312 123.403  0.00  0.00     0.038 C 
ATOM      4  C   LIG d   1      -3.837  59.721 122.275  0.00  0.00     0.028 C 
ATOM      5  C   LIG d   1      -3.157  60.107 120.966  0.00  0.00    -0.047 C 
ATOM      6  C   LIG d   1      -1.637  59.859 121.098  0.00  0.00     0.091 C 
ENDROOT
BRANCH   1   7
ATOM      7  O   LIG d   1       0.227  60.032 122.679  0.00  0.00    -0.368 OA
BRANCH   7   8
ATOM      8  C   LIG d   1       1.353  60.942 122.715  0.00  0.00     0.119 C 
BRANCH   8   9
ATOM      9  C   LIG d   1       2.488  60.306 121.888  0.00  0.00     0.028 C 
ATOM     10  C   LIG d   1       2.169  58.862 121.467  0.00  0.00     0.006 C 
ENDBRANCH   8   9
BRANCH   8  11
ATOM     11  C   LIG d   1       1.914  61.081 124.133  0.00  0.00     0.028 C 
ATOM     12  C   LIG d   1       1.552  62.423 124.788  0.00  0.00     0.006 C 
ENDBRANCH   8  11
ENDBRANCH   7   8
ENDBRANCH   1   7
BRANCH   6  13
ATOM     13  N   LIG d   1      -0.885  60.290 119.890  0.00  0.00    -0.311 N 
ATOM     14  C   LIG d   1      -0.556  59.465 118.898  0.00  0.00     0.210 C 
ATOM     15  C   LIG d   1       0.236  60.109 117.757  0.00  0.00     0.109 C 
ATOM     16  O   LIG d   1      -0.873  58.267 118.841  0.00  0.00    -0.276 OA
ATOM     17  H   LIG d   1      -0.616  61.253 119.840  0.00  0.00     0.149 HD
ENDBRANCH   6  13
BRANCH   5  18
ATOM     18  N   LIG d   1      -3.781  59.315 119.889  0.00  0.00     0.381 N 
ATOM     19  H   LIG d   1      -4.763  59.227 120.058  0.00  0.00    -0.090 HD
ATOM     20  H   LIG d   1      -3.377  58.395 119.887  0.00  0.00    -0.090 HD
ATOM     21  H   LIG d   1      -3.626  59.755 119.009  0.00  0.00    -0.090 HD
ENDBRANCH   5  18
BRANCH   3  22
ATOM     22  C   LIG d   1      -4.055  60.583 124.499  0.00  0.00     0.382 C 
ATOM     23  O   LIG d   1      -3.630  61.317 125.424  0.00  0.00    -0.241 OA
ATOM     24  O   LIG d   1      -5.185  60.067 124.596  0.00  0.00    -0.241 OA
ENDBRANCH   3  22
TORSDOF 7
ENDMDL
MODEL 2
REMARK VINA RESULT:      -4.8      1.735      4.724
REMARK  7 active torsions:
REMARK  status: ('A' for Active; 'I' for Inactive)
REMARK    1  A    between atoms: C_2  and  C_3 
REMARK    2  A    between atoms: C_3  and  O_6 
REMARK    3  A    between atoms: C_3  and  C_4 
REMARK    4  A    between atoms: C_7  and  O_6 
REMARK    5  A    between atoms: C_9  and  C_10 
REMARK    6  A    between atoms: N_15  and  C_14 
REMARK    7  A    between atoms: N_20  and  C_19 
REMARK       I    between atoms: C_22  and  N_20 
ROOT
ATOM      1  C   LIG d   1      -0.318  58.861 122.166  0.00  0.00     0.161 C 
ATOM      2  C   LIG d   1       0.103  59.028 120.837  0.00  0.00     0.016 C 
ATOM      3  C   LIG d   1      -0.714  59.584 119.825  0.00  0.00     0.038 C 
ATOM      4  C   LIG d   1      -1.964  60.152 120.111  0.00  0.00     0.028 C 
ATOM      5  C   LIG d   1      -2.636  59.551 121.341  0.00  0.00    -0.047 C 
ATOM      6  C   LIG d   1      -1.638  59.578 122.521  0.00  0.00     0.091 C 
ENDROOT
BRANCH   1   7
ATOM      7  O   LIG d   1       0.731  59.269 123.067  0.00  0.00    -0.368 OA
BRANCH   7   8
ATOM      8  C   LIG d   1       1.420  60.498 122.727  0.00  0.00     0.119 C 
BRANCH   8   9
ATOM      9  C   LIG d   1       2.932  60.209 122.775  0.00  0.00     0.028 C 
ATOM     10  C   LIG d   1       3.645  60.594 121.468  0.00  0.00     0.006 C 
ENDBRANCH   8   9
BRANCH   8  11
ATOM     11  C   LIG d   1       1.180  61.581 123.784  0.00  0.00     0.028 C 
ATOM     12  C   LIG d   1      -0.013  62.488 123.447  0.00  0.00     0.006 C 
ENDBRANCH   8  11
ENDBRANCH   7   8
ENDBRANCH   1   7
BRANCH   6  13
ATOM     13  N   LIG d   1      -2.187  58.931 123.741  0.00  0.00    -0.311 N 
ATOM     14  C   LIG d   1      -2.799  59.603 124.715  0.00  0.00     0.210 C 
ATOM     15  C   LIG d   1      -3.271  58.746 125.894  0.00  0.00     0.109 C 
ATOM     16  O   LIG d   1      -3.023  60.823 124.700  0.00  0.00    -0.276 OA
ATOM     17  H   LIG d   1      -2.076  57.939 123.821  0.00  0.00     0.149 HD
ENDBRANCH   6  13
BRANCH   5  18
ATOM     18  N   LIG d   1      -3.862  60.328 121.603  0.00  0.00     0.381 N 
ATOM     19  H   LIG d   1      -3.776  61.242 121.204  0.00  0.00    -0.090 HD
ATOM     20  H   LIG d   1      -3.978  60.427 122.596  0.00  0.00    -0.090 HD
ATOM     21  H   LIG d   1      -4.652  59.861 121.214  0.00  0.00    -0.090 HD
ENDBRANCH   5  18
BRANCH   3  22
ATOM     22  C   LIG d   1      -0.298  59.537 118.503  0.00  0.00     0.382 C 
ATOM     23  O   LIG d   1       0.083  58.451 118.004  0.00  0.00    -0.241 OA
ATOM     24  O   LIG d   1      -0.256  60.576 117.817  0.00  0.00    -0.241 OA
ENDBRANCH   3  22
TORSDOF 7
ENDMDL
MODEL 3
REMARK VINA RESULT:      -4.6      2.578      5.306
REMARK  7 active torsions:
REMARK  status: ('A' for Active; 'I' for Inactive)
REMARK    1  A    between atoms: C_2  and  C_3 
REMARK    2  A    between atoms: C_3  and  O_6 
REMARK    3  A    between atoms: C_3  and  C_4 
REMARK    4  A    between atoms: C_7  and  O_6 
REMARK    5  A    between atoms: C_9  and  C_10 
REMARK    6  A    between atoms: N_15  and  C_14 
REMARK    7  A    between atoms: N_20  and  C_19 
REMARK       I    between atoms: C_22  and  N_20 
ROOT
ATOM      1  C   LIG d   1       1.423  59.657 121.936  0.00  0.00     0.161 C 
ATOM      2  C   LIG d   1       1.201  59.379 120.577  0.00  0.00     0.016 C 
ATOM      3  C   LIG d   1       0.013  59.730 119.896  0.00  0.00     0.038 C 
ATOM      4  C   LIG d   1      -0.979  60.522 120.494  0.00  0.00     0.028 C 
ATOM      5  C   LIG d   1      -1.022  60.394 122.013  0.00  0.00    -0.047 C 
ATOM      6  C   LIG d   1       0.400  60.618 122.576  0.00  0.00     0.091 C 
ENDROOT
BRANCH   1   7
ATOM      7  O   LIG d   1       2.763  60.156 122.120  0.00  0.00    -0.368 OA
BRANCH   7   8
ATOM      8  C   LIG d   1       3.741  59.732 121.139  0.00  0.00     0.119 C 
BRANCH   8   9
ATOM      9  C   LIG d   1       4.510  58.539 121.738  0.00  0.00     0.028 C 
ATOM     10  C   LIG d   1       4.518  57.317 120.804  0.00  0.00     0.006 C 
ENDBRANCH   8   9
BRANCH   8  11
ATOM     11  C   LIG d   1       4.796  60.817 120.900  0.00  0.00     0.028 C 
ATOM     12  C   LIG d   1       4.758  61.380 119.471  0.00  0.00     0.006 C 
ENDBRANCH   8  11
ENDBRANCH   7   8
ENDBRANCH   1   7
BRANCH   6  13
ATOM     13  N   LIG d   1       0.462  60.427 124.049  0.00  0.00    -0.311 N 
ATOM     14  C   LIG d   1       0.331  61.423 124.923  0.00  0.00     0.210 C 
ATOM     15  C   LIG d   1       0.448  61.012 126.394  0.00  0.00     0.109 C 
ATOM     16  O   LIG d   1       0.096  62.603 124.621  0.00  0.00    -0.276 OA
ATOM     17  H   LIG d   1       0.619  59.496 124.382  0.00  0.00     0.149 HD
ENDBRANCH   6  13
BRANCH   5  18
ATOM     18  N   LIG d   1      -2.004  61.374 122.514  0.00  0.00     0.381 N 
ATOM     19  H   LIG d   1      -2.372  61.906 121.751  0.00  0.00    -0.090 HD
ATOM     20  H   LIG d   1      -1.541  62.005 123.144  0.00  0.00    -0.090 HD
ATOM     21  H   LIG d   1      -2.744  60.904 122.988  0.00  0.00    -0.090 HD
ENDBRANCH   5  18
BRANCH   3  22
ATOM     22  C   LIG d   1      -0.210  59.253 118.613  0.00  0.00     0.382 C 
ATOM     23  O   LIG d   1      -0.570  58.063 118.441  0.00  0.00    -0.241 OA
ATOM     24  O   LIG d   1      -0.014  59.984 117.624  0.00  0.00    -0.241 OA
ENDBRANCH   3  22
TORSDOF 7
ENDMDL
MODEL 4
REMARK VINA RESULT:      -4.4     11.318     14.063
REMARK  7 active torsions:
REMARK  status: ('A' for Active; 'I' for Inactive)
REMARK    1  A    between atoms: C_2  and  C_3 
REMARK    2  A    between atoms: C_3  and  O_6 
REMARK    3  A    between atoms: C_3  and  C_4 
REMARK    4  A    between atoms: C_7  and  O_6 
REMARK    5  A    between atoms: C_9  and  C_10 
REMARK    6  A    between atoms: N_15  and  C_14 
REMARK    7  A    between atoms: N_20  and  C_19 
REMARK       I    between atoms: C_22  and  N_20 
ROOT
ATOM      1  C   LIG d   1     -13.537  65.879 122.436  0.00  0.00     0.161 C 
ATOM      2  C   LIG d   1     -12.275  65.808 123.049  0.00  0.00     0.016 C 
ATOM      3  C   LIG d   1     -11.253  64.927 122.626  0.00  0.00     0.038 C 
ATOM      4  C   LIG d   1     -11.372  64.160 121.457  0.00  0.00     0.028 C 
ATOM      5  C   LIG d   1     -12.816  63.826 121.096  0.00  0.00    -0.047 C 
ATOM      6  C   LIG d   1     -13.646  65.130 121.091  0.00  0.00     0.091 C 
ENDROOT
BRANCH   1   7
ATOM      7  O   LIG d   1     -13.923  67.258 122.273  0.00  0.00    -0.368 OA
BRANCH   7   8
ATOM      8  C   LIG d   1     -13.652  67.849 120.979  0.00  0.00     0.119 C 
BRANCH   8   9
ATOM      9  C   LIG d   1     -12.570  68.928 121.179  0.00  0.00     0.028 C 
ATOM     10  C   LIG d   1     -12.967  69.966 122.243  0.00  0.00     0.006 C 
ENDBRANCH   8   9
BRANCH   8  11
ATOM     11  C   LIG d   1     -14.875  68.596 120.439  0.00  0.00     0.028 C 
ATOM     12  C   LIG d   1     -16.155  68.297 121.235  0.00  0.00     0.006 C 
ENDBRANCH   8  11
ENDBRANCH   7   8
ENDBRANCH   1   7
BRANCH   6  13
ATOM     13  N   LIG d   1     -15.088  64.883 120.829  0.00  0.00    -0.311 N 
ATOM     14  C   LIG d   1     -15.637  64.963 119.619  0.00  0.00     0.210 C 
ATOM     15  C   LIG d   1     -17.144  64.690 119.573  0.00  0.00     0.109 C 
ATOM     16  O   LIG d   1     -15.014  65.201 118.573  0.00  0.00    -0.276 OA
ATOM     17  H   LIG d   1     -15.661  64.653 121.617  0.00  0.00     0.149 HD
ENDBRANCH   6  13
BRANCH   5  18
ATOM     18  N   LIG d   1     -12.802  63.144 119.788  0.00  0.00     0.381 N 
ATOM     19  H   LIG d   1     -12.414  63.752 119.094  0.00  0.00    -0.090 HD
ATOM     20  H   LIG d   1     -13.747  62.927 119.525  0.00  0.00    -0.090 HD
ATOM     21  H   LIG d   1     -12.264  62.308 119.845  0.00  0.00    -0.090 HD
ENDBRANCH   5  18
BRANCH   3  22
ATOM     22  C   LIG d   1     -10.111  64.777 123.398  0.00  0.00     0.382 C 
ATOM     23  O   LIG d   1      -9.712  65.725 124.117  0.00  0.00    -0.241 OA
ATOM     24  O   LIG d   1      -9.451  63.722 123.352  0.00  0.00    -0.241 OA
ENDBRANCH   3  22
TORSDOF 7
ENDMDL
MODEL 5
REMARK VINA RESULT:      -4.4     18.353     20.620
REMARK  7 active torsions:
REMARK  status: ('A' for Active; 'I' for Inactive)
REMARK    1  A    between atoms: C_2  and  C_3 
REMARK    2  A    between atoms: C_3  and  O_6 
REMARK    3  A    between atoms: C_3  and  C_4 
REMARK    4  A    between atoms: C_7  and  O_6 
REMARK    5  A    between atoms: C_9  and  C_10 
REMARK    6  A    between atoms: N_15  and  C_14 
REMARK    7  A    between atoms: N_20  and  C_19 
REMARK       I    between atoms: C_22  and  N_20 
ROOT
ATOM      1  C   LIG d   1     -16.972  71.918 119.409  0.00  0.00     0.161 C 
ATOM      2  C   LIG d   1     -16.596  73.271 119.417  0.00  0.00     0.016 C 
ATOM      3  C   LIG d   1     -17.463  74.317 119.809  0.00  0.00     0.038 C 
ATOM      4  C   LIG d   1     -18.724  74.064 120.368  0.00  0.00     0.028 C 
ATOM      5  C   LIG d   1     -19.337  72.746 119.909  0.00  0.00    -0.047 C 
ATOM      6  C   LIG d   1     -18.307  71.613 120.121  0.00  0.00     0.091 C 
ENDROOT
BRANCH   1   7
ATOM      7  O   LIG d   1     -15.913  71.113 119.965  0.00  0.00    -0.368 OA
BRANCH   7   8
ATOM      8  C   LIG d   1     -16.076  70.712 121.348  0.00  0.00     0.119 C 
BRANCH   8   9
ATOM      9  C   LIG d   1     -14.968  71.406 122.164  0.00  0.00     0.028 C 
ATOM     10  C   LIG d   1     -15.454  72.704 122.830  0.00  0.00     0.006 C 
ENDBRANCH   8   9
BRANCH   8  11
ATOM     11  C   LIG d   1     -15.831  69.211 121.525  0.00  0.00     0.028 C 
ATOM     12  C   LIG d   1     -15.646  68.475 120.189  0.00  0.00     0.006 C 
ENDBRANCH   8  11
ENDBRANCH   7   8
ENDBRANCH   1   7
BRANCH   6  13
ATOM     13  N   LIG d   1     -18.795  70.302 119.620  0.00  0.00    -0.311 N 
ATOM     14  C   LIG d   1     -19.426  69.413 120.385  0.00  0.00     0.210 C 
ATOM     15  C   LIG d   1     -19.827  68.116 119.675  0.00  0.00     0.109 C 
ATOM     16  O   LIG d   1     -19.720  69.589 121.577  0.00  0.00    -0.276 OA
ATOM     17  H   LIG d   1     -18.626  70.090 118.656  0.00  0.00     0.149 HD
ENDBRANCH   6  13
BRANCH   5  18
ATOM     18  N   LIG d   1     -20.583  72.544 120.672  0.00  0.00     0.381 N 
ATOM     19  H   LIG d   1     -20.420  72.727 121.642  0.00  0.00    -0.090 HD
ATOM     20  H   LIG d   1     -20.872  71.586 120.576  0.00  0.00    -0.090 HD
ATOM     21  H   LIG d   1     -21.296  73.149 120.327  0.00  0.00    -0.090 HD
ENDBRANCH   5  18
BRANCH   3  22
ATOM     22  C   LIG d   1     -17.084  75.636 119.606  0.00  0.00     0.382 C 
ATOM     23  O   LIG d   1     -15.872  75.925 119.466  0.00  0.00    -0.241 OA
ATOM     24  O   LIG d   1     -17.936  76.544 119.605  0.00  0.00    -0.241 OA
ENDBRANCH   3  22
TORSDOF 7
ENDMDL
MODEL 6
REMARK VINA RESULT:      -4.4      2.986      5.837
REMARK  7 active torsions:
REMARK  status: ('A' for Active; 'I' for Inactive)
REMARK    1  A    between atoms: C_2  and  C_3 
REMARK    2  A    between atoms: C_3  and  O_6 
REMARK    3  A    between atoms: C_3  and  C_4 
REMARK    4  A    between atoms: C_7  and  O_6 
REMARK    5  A    between atoms: C_9  and  C_10 
REMARK    6  A    between atoms: N_15  and  C_14 
REMARK    7  A    between atoms: N_20  and  C_19 
REMARK       I    between atoms: C_22  and  N_20 
ROOT
ATOM      1  C   LIG d   1       1.047  60.128 121.899  0.00  0.00     0.161 C 
ATOM      2  C   LIG d   1       0.304  59.670 120.798  0.00  0.00     0.016 C 
ATOM      3  C   LIG d   1       0.894  59.135 119.630  0.00  0.00     0.038 C 
ATOM      4  C   LIG d   1       2.271  58.880 119.544  0.00  0.00     0.028 C 
ATOM      5  C   LIG d   1       3.112  59.791 120.432  0.00  0.00    -0.047 C 
ATOM      6  C   LIG d   1       2.544  59.755 121.869  0.00  0.00     0.091 C 
ENDROOT
BRANCH   1   7
ATOM      7  O   LIG d   1       0.441  59.668 123.123  0.00  0.00    -0.368 OA
BRANCH   7   8
ATOM      8  C   LIG d   1      -0.113  60.692 123.984  0.00  0.00     0.119 C 
BRANCH   8   9
ATOM      9  C   LIG d   1      -1.558  60.280 124.325  0.00  0.00     0.028 C 
ATOM     10  C   LIG d   1      -2.507  60.423 123.123  0.00  0.00     0.006 C 
ENDBRANCH   8   9
BRANCH   8  11
ATOM     11  C   LIG d   1      -0.235  62.031 123.251  0.00  0.00     0.028 C 
ATOM     12  C   LIG d   1       0.221  63.223 124.106  0.00  0.00     0.006 C 
ENDBRANCH   8  11
ENDBRANCH   7   8
ENDBRANCH   1   7
BRANCH   6  13
ATOM     13  N   LIG d   1       3.257  60.684 122.784  0.00  0.00    -0.311 N 
ATOM     14  C   LIG d   1       3.788  60.306 123.945  0.00  0.00     0.210 C 
ATOM     15  C   LIG d   1       4.462  61.427 124.744  0.00  0.00     0.109 C 
ATOM     16  O   LIG d   1       3.793  59.143 124.375  0.00  0.00    -0.276 OA
ATOM     17  H   LIG d   1       3.327  61.641 122.498  0.00  0.00     0.149 HD
ENDBRANCH   6  13
BRANCH   5  18
ATOM     18  N   LIG d   1       4.509  59.326 120.350  0.00  0.00     0.381 N 
ATOM     19  H   LIG d   1       4.794  58.952 121.233  0.00  0.00    -0.090 HD
ATOM     20  H   LIG d   1       5.100  60.110 120.134  0.00  0.00    -0.090 HD
ATOM     21  H   LIG d   1       4.597  58.631 119.643  0.00  0.00    -0.090 HD
ENDBRANCH   5  18
BRANCH   3  22
ATOM     22  C   LIG d   1       0.108  58.885 118.515  0.00  0.00     0.382 C 
ATOM     23  O   LIG d   1      -0.434  57.763 118.368  0.00  0.00    -0.241 OA
ATOM     24  O   LIG d   1      -0.031  59.754 117.633  0.00  0.00    -0.241 OA
ENDBRANCH   3  22
TORSDOF 7
ENDMDL
MODEL 7
REMARK VINA RESULT:      -4.3      2.522      5.385
REMARK  7 active torsions:
REMARK  status: ('A' for Active; 'I' for Inactive)
REMARK    1  A    between atoms: C_2  and  C_3 
REMARK    2  A    between atoms: C_3  and  O_6 
REMARK    3  A    between atoms: C_3  and  C_4 
REMARK    4  A    between atoms: C_7  and  O_6 
REMARK    5  A    between atoms: C_9  and  C_10 
REMARK    6  A    between atoms: N_15  and  C_14 
REMARK    7  A    between atoms: N_20  and  C_19 
REMARK       I    between atoms: C_22  and  N_20 
ROOT
ATOM      1  C   LIG d   1       1.068  58.405 121.166  0.00  0.00     0.161 C 
ATOM      2  C   LIG d   1       1.192  57.375 120.219  0.00  0.00     0.016 C 
ATOM      3  C   LIG d   1       0.579  57.411 118.946  0.00  0.00     0.038 C 
ATOM      4  C   LIG d   1      -0.081  58.555 118.472  0.00  0.00     0.028 C 
ATOM      5  C   LIG d   1      -0.661  59.423 119.583  0.00  0.00    -0.047 C 
ATOM      6  C   LIG d   1       0.445  59.709 120.625  0.00  0.00     0.091 C 
ENDROOT
BRANCH   1   7
ATOM      7  O   LIG d   1       2.350  58.674 121.767  0.00  0.00    -0.368 OA
BRANCH   7   8
ATOM      8  C   LIG d   1       3.376  59.179 120.878  0.00  0.00     0.119 C 
BRANCH   8   9
ATOM      9  C   LIG d   1       4.594  58.242 120.996  0.00  0.00     0.028 C 
ATOM     10  C   LIG d   1       4.500  57.309 122.215  0.00  0.00     0.006 C 
ENDBRANCH   8   9
BRANCH   8  11
ATOM     11  C   LIG d   1       3.878  60.554 121.331  0.00  0.00     0.028 C 
ATOM     12  C   LIG d   1       4.840  61.199 120.321  0.00  0.00     0.006 C 
ENDBRANCH   8  11
ENDBRANCH   7   8
ENDBRANCH   1   7
BRANCH   6  13
ATOM     13  N   LIG d   1      -0.060  60.483 121.789  0.00  0.00    -0.311 N 
ATOM     14  C   LIG d   1      -1.015  60.040 122.605  0.00  0.00     0.210 C 
ATOM     15  C   LIG d   1      -1.402  61.004 123.731  0.00  0.00     0.109 C 
ATOM     16  O   LIG d   1      -1.556  58.927 122.523  0.00  0.00    -0.276 OA
ATOM     17  H   LIG d   1       0.346  61.384 121.949  0.00  0.00     0.149 HD
ENDBRANCH   6  13
BRANCH   5  18
ATOM     18  N   LIG d   1      -1.197  60.647 118.958  0.00  0.00     0.381 N 
ATOM     19  H   LIG d   1      -1.417  61.320 119.665  0.00  0.00    -0.090 HD
ATOM     20  H   LIG d   1      -2.042  60.418 118.467  0.00  0.00    -0.090 HD
ATOM     21  H   LIG d   1      -0.528  61.027 118.325  0.00  0.00    -0.090 HD
ENDBRANCH   5  18
BRANCH   3  22
ATOM     22  C   LIG d   1       0.588  56.278 118.146  0.00  0.00     0.382 C 
ATOM     23  O   LIG d   1      -0.493  55.728 117.825  0.00  0.00    -0.241 OA
ATOM     24  O   LIG d   1       1.666  55.772 117.780  0.00  0.00    -0.241 OA
ENDBRANCH   3  22
TORSDOF 7
ENDMDL
MODEL 8
REMARK VINA RESULT:      -4.3     33.671     34.985
REMARK  7 active torsions:
REMARK  status: ('A' for Active; 'I' for Inactive)
REMARK    1  A    between atoms: C_2  and  C_3 
REMARK    2  A    between atoms: C_3  and  O_6 
REMARK    3  A    between atoms: C_3  and  C_4 
REMARK    4  A    between atoms: C_7  and  O_6 
REMARK    5  A    between atoms: C_9  and  C_10 
REMARK    6  A    between atoms: N_15  and  C_14 
REMARK    7  A    between atoms: N_20  and  C_19 
REMARK       I    between atoms: C_22  and  N_20 
ROOT
ATOM      1  C   LIG d   1      -5.345  94.473 119.588  0.00  0.00     0.161 C 
ATOM      2  C   LIG d   1      -4.115  93.956 119.148  0.00  0.00     0.016 C 
ATOM      3  C   LIG d   1      -4.000  92.794 118.351  0.00  0.00     0.038 C 
ATOM      4  C   LIG d   1      -5.124  92.152 117.810  0.00  0.00     0.028 C 
ATOM      5  C   LIG d   1      -6.389  92.342 118.641  0.00  0.00    -0.047 C 
ATOM      6  C   LIG d   1      -6.586  93.850 118.916  0.00  0.00     0.091 C 
ENDROOT
BRANCH   1   7
ATOM      7  O   LIG d   1      -5.357  95.906 119.431  0.00  0.00    -0.368 OA
BRANCH   7   8
ATOM      8  C   LIG d   1      -5.509  96.679 120.647  0.00  0.00     0.119 C 
BRANCH   8   9
ATOM      9  C   LIG d   1      -6.815  97.487 120.521  0.00  0.00     0.028 C 
ATOM     10  C   LIG d   1      -7.212  97.738 119.056  0.00  0.00     0.006 C 
ENDBRANCH   8   9
BRANCH   8  11
ATOM     11  C   LIG d   1      -4.398  97.724 120.786  0.00  0.00     0.028 C 
ATOM     12  C   LIG d   1      -3.284  97.552 119.741  0.00  0.00     0.006 C 
ENDBRANCH   8  11
ENDBRANCH   7   8
ENDBRANCH   1   7
BRANCH   6  13
ATOM     13  N   LIG d   1      -7.755  94.118 119.794  0.00  0.00    -0.311 N 
ATOM     14  C   LIG d   1      -8.956  94.460 119.331  0.00  0.00     0.210 C 
ATOM     15  C   LIG d   1     -10.017  94.710 120.408  0.00  0.00     0.109 C 
ATOM     16  O   LIG d   1      -9.253  94.549 118.130  0.00  0.00    -0.276 OA
ATOM     17  H   LIG d   1      -7.612  94.038 120.781  0.00  0.00     0.149 HD
ENDBRANCH   6  13
BRANCH   5  18
ATOM     18  N   LIG d   1      -7.508  91.739 117.893  0.00  0.00     0.381 N 
ATOM     19  H   LIG d   1      -7.566  92.148 116.982  0.00  0.00    -0.090 HD
ATOM     20  H   LIG d   1      -8.366  91.932 118.380  0.00  0.00    -0.090 HD
ATOM     21  H   LIG d   1      -7.375  90.754 117.815  0.00  0.00    -0.090 HD
ENDBRANCH   5  18
BRANCH   3  22
ATOM     22  C   LIG d   1      -2.750  92.240 118.120  0.00  0.00     0.382 C 
ATOM     23  O   LIG d   1      -2.637  91.004 117.933  0.00  0.00    -0.241 OA
ATOM     24  O   LIG d   1      -1.729  92.953 118.142  0.00  0.00    -0.241 OA
ENDBRANCH   3  22
TORSDOF 7
ENDMDL
MODEL 9
REMARK VINA RESULT:      -4.2     23.016     24.149
REMARK  7 active torsions:
REMARK  status: ('A' for Active; 'I' for Inactive)
REMARK    1  A    between atoms: C_2  and  C_3 
REMARK    2  A    between atoms: C_3  and  O_6 
REMARK    3  A    between atoms: C_3  and  C_4 
REMARK    4  A    between atoms: C_7  and  O_6 
REMARK    5  A    between atoms: C_9  and  C_10 
REMARK    6  A    between atoms: N_15  and  C_14 
REMARK    7  A    between atoms: N_20  and  C_19 
REMARK       I    between atoms: C_22  and  N_20 
ROOT
ATOM      1  C   LIG d   1      -7.252  82.566 120.817  0.00  0.00     0.161 C 
ATOM      2  C   LIG d   1      -7.535  81.783 119.686  0.00  0.00     0.016 C 
ATOM      3  C   LIG d   1      -8.831  81.651 119.136  0.00  0.00     0.038 C 
ATOM      4  C   LIG d   1      -9.913  82.418 119.594  0.00  0.00     0.028 C 
ATOM      5  C   LIG d   1      -9.781  82.841 121.053  0.00  0.00    -0.047 C 
ATOM      6  C   LIG d   1      -8.398  83.498 121.263  0.00  0.00     0.091 C 
ENDROOT
BRANCH   1   7
ATOM      7  O   LIG d   1      -6.046  83.325 120.596  0.00  0.00    -0.368 OA
BRANCH   7   8
ATOM      8  C   LIG d   1      -4.884  82.911 121.356  0.00  0.00     0.119 C 
BRANCH   8   9
ATOM      9  C   LIG d   1      -4.148  84.187 121.808  0.00  0.00     0.028 C 
ATOM     10  C   LIG d   1      -5.043  85.436 121.742  0.00  0.00     0.006 C 
ENDBRANCH   8   9
BRANCH   8  11
ATOM     11  C   LIG d   1      -3.884  82.154 120.477  0.00  0.00     0.028 C 
ATOM     12  C   LIG d   1      -2.525  82.864 120.375  0.00  0.00     0.006 C 
ENDBRANCH   8  11
ENDBRANCH   7   8
ENDBRANCH   1   7
BRANCH   6  13
ATOM     13  N   LIG d   1      -8.154  83.865 122.682  0.00  0.00    -0.311 N 
ATOM     14  C   LIG d   1      -8.373  85.084 123.172  0.00  0.00     0.210 C 
ATOM     15  C   LIG d   1      -8.036  85.253 124.657  0.00  0.00     0.109 C 
ATOM     16  O   LIG d   1      -8.845  86.031 122.527  0.00  0.00    -0.276 OA
ATOM     17  H   LIG d   1      -7.800  83.147 123.284  0.00  0.00     0.149 HD
ENDBRANCH   6  13
BRANCH   5  18
ATOM     18  N   LIG d   1     -10.904  83.747 121.358  0.00  0.00     0.381 N 
ATOM     19  H   LIG d   1     -11.768  83.244 121.310  0.00  0.00    -0.090 HD
ATOM     20  H   LIG d   1     -10.927  84.479 120.670  0.00  0.00    -0.090 HD
ATOM     21  H   LIG d   1     -10.789  84.139 122.267  0.00  0.00    -0.090 HD
ENDBRANCH   5  18
BRANCH   3  22
ATOM     22  C   LIG d   1      -9.064  80.712 118.142  0.00  0.00     0.382 C 
ATOM     23  O   LIG d   1      -8.143  80.396 117.351  0.00  0.00    -0.241 OA
ATOM     24  O   LIG d   1     -10.195  80.211 117.999  0.00  0.00    -0.241 OA
ENDBRANCH   3  22
TORSDOF 7
ENDMDL
