MODEL 1
REMARK VINA RESULT:      -5.1      0.000      0.000
REMARK  7 active torsions:
REMARK  status: ('A' for Active; 'I' for Inactive)
REMARK    1  A    between atoms: C_2  and  C_3 
REMARK    2  A    between atoms: C_3  and  O_6 
REMARK    3  A    between atoms: C_3  and  C_4 
REMARK    4  A    between atoms: C_7  and  O_6 
REMARK    5  A    between atoms: C_9  and  C_10 
REMARK    6  A    between atoms: N_15  and  C_14 
REMARK    7  A    between atoms: N_20  and  C_19 
REMARK       I    between atoms: C_22  and  N_20 
ROOT
ATOM      1  C   LIG d   1      -1.667  59.912 118.611  0.00  0.00     0.161 C 
ATOM      2  C   LIG d   1      -2.726  59.000 118.752  0.00  0.00     0.016 C 
ATOM      3  C   LIG d   1      -2.555  57.597 118.713  0.00  0.00     0.038 C 
ATOM      4  C   LIG d   1      -1.283  57.005 118.681  0.00  0.00     0.028 C 
ATOM      5  C   LIG d   1      -0.222  57.886 118.030  0.00  0.00    -0.047 C 
ATOM      6  C   LIG d   1      -0.259  59.285 118.686  0.00  0.00     0.091 C 
ENDROOT
BRANCH   1   7
ATOM      7  O   LIG d   1      -1.798  60.967 119.583  0.00  0.00    -0.368 OA
BRANCH   7   8
ATOM      8  C   LIG d   1      -1.655  60.577 120.971  0.00  0.00     0.119 C 
BRANCH   8   9
ATOM      9  C   LIG d   1      -2.936  61.013 121.709  0.00  0.00     0.028 C 
ATOM     10  C   LIG d   1      -3.799  59.816 122.143  0.00  0.00     0.006 C 
ENDBRANCH   8   9
BRANCH   8  11
ATOM     11  C   LIG d   1      -0.516  61.342 121.651  0.00  0.00     0.028 C 
ATOM     12  C   LIG d   1      -0.940  61.984 122.981  0.00  0.00     0.006 C 
ENDBRANCH   8  11
ENDBRANCH   7   8
ENDBRANCH   1   7
BRANCH   6  13
ATOM     13  N   LIG d   1       0.691  60.235 118.051  0.00  0.00    -0.311 N 
ATOM     14  C   LIG d   1       1.886  60.528 118.560  0.00  0.00     0.210 C 
ATOM     15  C   LIG d   1       2.700  61.547 117.756  0.00  0.00     0.109 C 
ATOM     16  O   LIG d   1       2.363  60.016 119.584  0.00  0.00    -0.276 OA
ATOM     17  H   LIG d   1       0.398  60.672 117.199  0.00  0.00     0.149 HD
ENDBRANCH   6  13
BRANCH   5  18
ATOM     18  N   LIG d   1       1.079  57.208 118.188  0.00  0.00     0.381 N 
ATOM     19  H   LIG d   1       1.772  57.670 117.634  0.00  0.00    -0.090 HD
ATOM     20  H   LIG d   1       0.994  56.261 117.861  0.00  0.00    -0.090 HD
ATOM     21  H   LIG d   1       1.352  57.212 119.146  0.00  0.00    -0.090 HD
ENDBRANCH   5  18
BRANCH   3  22
ATOM     22  C   LIG d   1      -3.667  56.770 118.666  0.00  0.00     0.382 C 
ATOM     23  O   LIG d   1      -4.796  57.220 118.975  0.00  0.00    -0.241 OA
ATOM     24  O   LIG d   1      -3.548  55.568 118.361  0.00  0.00    -0.241 OA
ENDBRANCH   3  22
TORSDOF 7
ENDMDL
MODEL 2
REMARK VINA RESULT:      -4.9     21.291     23.491
REMARK  7 active torsions:
REMARK  status: ('A' for Active; 'I' for Inactive)
REMARK    1  A    between atoms: C_2  and  C_3 
REMARK    2  A    between atoms: C_3  and  O_6 
REMARK    3  A    between atoms: C_3  and  C_4 
REMARK    4  A    between atoms: C_7  and  O_6 
REMARK    5  A    between atoms: C_9  and  C_10 
REMARK    6  A    between atoms: N_15  and  C_14 
REMARK    7  A    between atoms: N_20  and  C_19 
REMARK       I    between atoms: C_22  and  N_20 
ROOT
ATOM      1  C   LIG d   1     -17.455  75.643 120.638  0.00  0.00     0.161 C 
ATOM      2  C   LIG d   1     -18.521  76.447 120.202  0.00  0.00     0.016 C 
ATOM      3  C   LIG d   1     -18.623  77.827 120.490  0.00  0.00     0.038 C 
ATOM      4  C   LIG d   1     -17.582  78.534 121.110  0.00  0.00     0.028 C 
ATOM      5  C   LIG d   1     -16.714  77.665 122.013  0.00  0.00    -0.047 C 
ATOM      6  C   LIG d   1     -16.256  76.420 121.220  0.00  0.00     0.091 C 
ENDROOT
BRANCH   1   7
ATOM      7  O   LIG d   1     -17.022  74.782 119.566  0.00  0.00    -0.368 OA
BRANCH   7   8
ATOM      8  C   LIG d   1     -17.675  73.491 119.482  0.00  0.00     0.119 C 
BRANCH   8   9
ATOM      9  C   LIG d   1     -17.182  72.645 120.672  0.00  0.00     0.028 C 
ATOM     10  C   LIG d   1     -18.299  72.359 121.690  0.00  0.00     0.006 C 
ENDBRANCH   8   9
BRANCH   8  11
ATOM     11  C   LIG d   1     -17.235  72.725 118.231  0.00  0.00     0.028 C 
ATOM     12  C   LIG d   1     -16.876  71.260 118.525  0.00  0.00     0.006 C 
ENDBRANCH   8  11
ENDBRANCH   7   8
ENDBRANCH   1   7
BRANCH   6  13
ATOM     13  N   LIG d   1     -15.470  75.474 122.055  0.00  0.00    -0.311 N 
ATOM     14  C   LIG d   1     -14.143  75.518 122.162  0.00  0.00     0.210 C 
ATOM     15  C   LIG d   1     -13.530  74.438 123.059  0.00  0.00     0.109 C 
ATOM     16  O   LIG d   1     -13.418  76.368 121.624  0.00  0.00    -0.276 OA
ATOM     17  H   LIG d   1     -15.981  74.770 122.551  0.00  0.00     0.149 HD
ENDBRANCH   6  13
BRANCH   5  18
ATOM     18  N   LIG d   1     -15.590  78.496 122.484  0.00  0.00     0.381 N 
ATOM     19  H   LIG d   1     -15.582  78.520 123.484  0.00  0.00    -0.090 HD
ATOM     20  H   LIG d   1     -15.715  79.434 122.147  0.00  0.00    -0.090 HD
ATOM     21  H   LIG d   1     -14.728  78.127 122.147  0.00  0.00    -0.090 HD
ENDBRANCH   5  18
BRANCH   3  22
ATOM     22  C   LIG d   1     -19.795  78.507 120.192  0.00  0.00     0.382 C 
ATOM     23  O   LIG d   1     -19.745  79.619 119.614  0.00  0.00    -0.241 OA
ATOM     24  O   LIG d   1     -20.899  78.042 120.533  0.00  0.00    -0.241 OA
ENDBRANCH   3  22
TORSDOF 7
ENDMDL
MODEL 3
REMARK VINA RESULT:      -4.8      2.462      4.527
REMARK  7 active torsions:
REMARK  status: ('A' for Active; 'I' for Inactive)
REMARK    1  A    between atoms: C_2  and  C_3 
REMARK    2  A    between atoms: C_3  and  O_6 
REMARK    3  A    between atoms: C_3  and  C_4 
REMARK    4  A    between atoms: C_7  and  O_6 
REMARK    5  A    between atoms: C_9  and  C_10 
REMARK    6  A    between atoms: N_15  and  C_14 
REMARK    7  A    between atoms: N_20  and  C_19 
REMARK       I    between atoms: C_22  and  N_20 
ROOT
ATOM      1  C   LIG d   1      -1.897  58.154 121.044  0.00  0.00     0.161 C 
ATOM      2  C   LIG d   1      -3.107  58.055 121.751  0.00  0.00     0.016 C 
ATOM      3  C   LIG d   1      -3.681  59.130 122.468  0.00  0.00     0.038 C 
ATOM      4  C   LIG d   1      -3.155  60.429 122.401  0.00  0.00     0.028 C 
ATOM      5  C   LIG d   1      -1.658  60.463 122.113  0.00  0.00    -0.047 C 
ATOM      6  C   LIG d   1      -1.367  59.593 120.869  0.00  0.00     0.091 C 
ENDROOT
BRANCH   1   7
ATOM      7  O   LIG d   1      -2.025  57.508 119.762  0.00  0.00    -0.368 OA
BRANCH   7   8
ATOM      8  C   LIG d   1      -3.304  57.658 119.097  0.00  0.00     0.119 C 
BRANCH   8   9
ATOM      9  C   LIG d   1      -3.677  56.290 118.495  0.00  0.00     0.028 C 
ATOM     10  C   LIG d   1      -2.812  55.147 119.055  0.00  0.00     0.006 C 
ENDBRANCH   8   9
BRANCH   8  11
ATOM     11  C   LIG d   1      -3.201  58.612 117.903  0.00  0.00     0.028 C 
ATOM     12  C   LIG d   1      -3.775  60.006 118.203  0.00  0.00     0.006 C 
ENDBRANCH   8  11
ENDBRANCH   7   8
ENDBRANCH   1   7
BRANCH   6  13
ATOM     13  N   LIG d   1       0.085  59.503 120.566  0.00  0.00    -0.311 N 
ATOM     14  C   LIG d   1       0.627  59.948 119.434  0.00  0.00     0.210 C 
ATOM     15  C   LIG d   1       2.140  59.740 119.316  0.00  0.00     0.109 C 
ATOM     16  O   LIG d   1       0.003  60.524 118.530  0.00  0.00    -0.276 OA
ATOM     17  H   LIG d   1       0.670  59.078 121.259  0.00  0.00     0.149 HD
ENDBRANCH   6  13
BRANCH   5  18
ATOM     18  N   LIG d   1      -1.271  61.875 121.934  0.00  0.00     0.381 N 
ATOM     19  H   LIG d   1      -0.853  62.000 121.033  0.00  0.00    -0.090 HD
ATOM     20  H   LIG d   1      -0.591  62.116 122.633  0.00  0.00    -0.090 HD
ATOM     21  H   LIG d   1      -2.071  62.462 122.022  0.00  0.00    -0.090 HD
ENDBRANCH   5  18
BRANCH   3  22
ATOM     22  C   LIG d   1      -4.770  58.902 123.295  0.00  0.00     0.382 C 
ATOM     23  O   LIG d   1      -5.172  59.806 124.066  0.00  0.00    -0.241 OA
ATOM     24  O   LIG d   1      -5.328  57.788 123.311  0.00  0.00    -0.241 OA
ENDBRANCH   3  22
TORSDOF 7
ENDMDL
MODEL 4
REMARK VINA RESULT:      -4.7      1.907      5.082
REMARK  7 active torsions:
REMARK  status: ('A' for Active; 'I' for Inactive)
REMARK    1  A    between atoms: C_2  and  C_3 
REMARK    2  A    between atoms: C_3  and  O_6 
REMARK    3  A    between atoms: C_3  and  C_4 
REMARK    4  A    between atoms: C_7  and  O_6 
REMARK    5  A    between atoms: C_9  and  C_10 
REMARK    6  A    between atoms: N_15  and  C_14 
REMARK    7  A    between atoms: N_20  and  C_19 
REMARK       I    between atoms: C_22  and  N_20 
ROOT
ATOM      1  C   LIG d   1      -0.023  59.165 121.012  0.00  0.00     0.161 C 
ATOM      2  C   LIG d   1       1.286  59.588 121.300  0.00  0.00     0.016 C 
ATOM      3  C   LIG d   1       2.201  60.015 120.311  0.00  0.00     0.038 C 
ATOM      4  C   LIG d   1       1.818  60.193 118.973  0.00  0.00     0.028 C 
ATOM      5  C   LIG d   1       0.656  59.300 118.552  0.00  0.00    -0.047 C 
ATOM      6  C   LIG d   1      -0.494  59.459 119.572  0.00  0.00     0.091 C 
ENDROOT
BRANCH   1   7
ATOM      7  O   LIG d   1      -0.941  59.735 121.966  0.00  0.00    -0.368 OA
BRANCH   7   8
ATOM      8  C   LIG d   1      -1.530  61.008 121.602  0.00  0.00     0.119 C 
BRANCH   8   9
ATOM      9  C   LIG d   1      -1.156  62.022 122.701  0.00  0.00     0.028 C 
ATOM     10  C   LIG d   1      -0.525  61.348 123.931  0.00  0.00     0.006 C 
ENDBRANCH   8   9
BRANCH   8  11
ATOM     11  C   LIG d   1      -3.060  60.939 121.618  0.00  0.00     0.028 C 
ATOM     12  C   LIG d   1      -3.590  59.615 122.190  0.00  0.00     0.006 C 
ENDBRANCH   8  11
ENDBRANCH   7   8
ENDBRANCH   1   7
BRANCH   6  13
ATOM     13  N   LIG d   1      -1.639  58.556 119.282  0.00  0.00    -0.311 N 
ATOM     14  C   LIG d   1      -2.711  58.932 118.586  0.00  0.00     0.210 C 
ATOM     15  C   LIG d   1      -3.784  57.852 118.418  0.00  0.00     0.109 C 
ATOM     16  O   LIG d   1      -2.860  60.047 118.064  0.00  0.00    -0.276 OA
ATOM     17  H   LIG d   1      -1.586  57.623 119.641  0.00  0.00     0.149 HD
ENDBRANCH   6  13
BRANCH   5  18
ATOM     18  N   LIG d   1       0.271  59.686 117.182  0.00  0.00     0.381 N 
ATOM     19  H   LIG d   1       1.086  59.748 116.605  0.00  0.00    -0.090 HD
ATOM     20  H   LIG d   1      -0.165  60.591 117.209  0.00  0.00    -0.090 HD
ATOM     21  H   LIG d   1      -0.363  59.016 116.804  0.00  0.00    -0.090 HD
ENDBRANCH   5  18
BRANCH   3  22
ATOM     22  C   LIG d   1       3.529  60.230 120.650  0.00  0.00     0.382 C 
ATOM     23  O   LIG d   1       4.150  59.374 121.324  0.00  0.00    -0.241 OA
ATOM     24  O   LIG d   1       4.099  61.290 120.328  0.00  0.00    -0.241 OA
ENDBRANCH   3  22
TORSDOF 7
ENDMDL
MODEL 5
REMARK VINA RESULT:      -4.6     21.953     24.169
REMARK  7 active torsions:
REMARK  status: ('A' for Active; 'I' for Inactive)
REMARK    1  A    between atoms: C_2  and  C_3 
REMARK    2  A    between atoms: C_3  and  O_6 
REMARK    3  A    between atoms: C_3  and  C_4 
REMARK    4  A    between atoms: C_7  and  O_6 
REMARK    5  A    between atoms: C_9  and  C_10 
REMARK    6  A    between atoms: N_15  and  C_14 
REMARK    7  A    between atoms: N_20  and  C_19 
REMARK       I    between atoms: C_22  and  N_20 
ROOT
ATOM      1  C   LIG d   1     -17.062  76.589 120.046  0.00  0.00     0.161 C 
ATOM      2  C   LIG d   1     -17.365  77.856 120.572  0.00  0.00     0.016 C 
ATOM      3  C   LIG d   1     -18.684  78.299 120.823  0.00  0.00     0.038 C 
ATOM      4  C   LIG d   1     -19.789  77.443 120.706  0.00  0.00     0.028 C 
ATOM      5  C   LIG d   1     -19.579  76.318 119.698  0.00  0.00    -0.047 C 
ATOM      6  C   LIG d   1     -18.247  75.601 120.016  0.00  0.00     0.091 C 
ENDROOT
BRANCH   1   7
ATOM      7  O   LIG d   1     -15.950  76.016 120.762  0.00  0.00    -0.368 OA
BRANCH   7   8
ATOM      8  C   LIG d   1     -15.685  76.567 122.075  0.00  0.00     0.119 C 
BRANCH   8   9
ATOM      9  C   LIG d   1     -14.160  76.743 122.204  0.00  0.00     0.028 C 
ATOM     10  C   LIG d   1     -13.445  75.428 122.560  0.00  0.00     0.006 C 
ENDBRANCH   8   9
BRANCH   8  11
ATOM     11  C   LIG d   1     -16.075  75.583 123.182  0.00  0.00     0.028 C 
ATOM     12  C   LIG d   1     -17.476  75.853 123.753  0.00  0.00     0.006 C 
ENDBRANCH   8  11
ENDBRANCH   7   8
ENDBRANCH   1   7
BRANCH   6  13
ATOM     13  N   LIG d   1     -17.924  74.540 119.027  0.00  0.00    -0.311 N 
ATOM     14  C   LIG d   1     -17.423  73.353 119.362  0.00  0.00     0.210 C 
ATOM     15  C   LIG d   1     -17.143  72.413 118.185  0.00  0.00     0.109 C 
ATOM     16  O   LIG d   1     -17.214  72.976 120.525  0.00  0.00    -0.276 OA
ATOM     17  H   LIG d   1     -18.092  74.750 118.062  0.00  0.00     0.149 HD
ENDBRANCH   6  13
BRANCH   5  18
ATOM     18  N   LIG d   1     -20.750  75.425 119.777  0.00  0.00     0.381 N 
ATOM     19  H   LIG d   1     -21.379  75.752 120.483  0.00  0.00    -0.090 HD
ATOM     20  H   LIG d   1     -20.440  74.504 120.034  0.00  0.00    -0.090 HD
ATOM     21  H   LIG d   1     -21.215  75.393 118.897  0.00  0.00    -0.090 HD
ENDBRANCH   5  18
BRANCH   3  22
ATOM     22  C   LIG d   1     -18.911  79.625 121.159  0.00  0.00     0.382 C 
ATOM     23  O   LIG d   1     -19.407  80.409 120.314  0.00  0.00    -0.241 OA
ATOM     24  O   LIG d   1     -18.584  80.058 122.280  0.00  0.00    -0.241 OA
ENDBRANCH   3  22
TORSDOF 7
ENDMDL
MODEL 6
REMARK VINA RESULT:      -4.5     19.020     20.980
REMARK  7 active torsions:
REMARK  status: ('A' for Active; 'I' for Inactive)
REMARK    1  A    between atoms: C_2  and  C_3 
REMARK    2  A    between atoms: C_3  and  O_6 
REMARK    3  A    between atoms: C_3  and  C_4 
REMARK    4  A    between atoms: C_7  and  O_6 
REMARK    5  A    between atoms: C_9  and  C_10 
REMARK    6  A    between atoms: N_15  and  C_14 
REMARK    7  A    between atoms: N_20  and  C_19 
REMARK       I    between atoms: C_22  and  N_20 
ROOT
ATOM      1  C   LIG d   1     -18.097  72.174 121.028  0.00  0.00     0.161 C 
ATOM      2  C   LIG d   1     -17.595  70.867 120.913  0.00  0.00     0.016 C 
ATOM      3  C   LIG d   1     -17.009  70.360 119.730  0.00  0.00     0.038 C 
ATOM      4  C   LIG d   1     -16.747  71.180 118.622  0.00  0.00     0.028 C 
ATOM      5  C   LIG d   1     -17.693  72.371 118.512  0.00  0.00    -0.047 C 
ATOM      6  C   LIG d   1     -17.719  73.117 119.866  0.00  0.00     0.091 C 
ENDROOT
BRANCH   1   7
ATOM      7  O   LIG d   1     -17.692  72.744 122.288  0.00  0.00    -0.368 OA
BRANCH   7   8
ATOM      8  C   LIG d   1     -16.294  73.110 122.401  0.00  0.00     0.119 C 
BRANCH   8   9
ATOM      9  C   LIG d   1     -15.701  72.312 123.579  0.00  0.00     0.028 C 
ATOM     10  C   LIG d   1     -14.568  71.371 123.138  0.00  0.00     0.006 C 
ENDBRANCH   8   9
BRANCH   8  11
ATOM     11  C   LIG d   1     -16.134  74.583 122.788  0.00  0.00     0.028 C 
ATOM     12  C   LIG d   1     -14.905  75.239 122.137  0.00  0.00     0.006 C 
ENDBRANCH   8  11
ENDBRANCH   7   8
ENDBRANCH   1   7
BRANCH   6  13
ATOM     13  N   LIG d   1     -18.685  74.247 119.871  0.00  0.00    -0.311 N 
ATOM     14  C   LIG d   1     -18.321  75.522 119.746  0.00  0.00     0.210 C 
ATOM     15  C   LIG d   1     -19.473  76.531 119.798  0.00  0.00     0.109 C 
ATOM     16  O   LIG d   1     -17.158  75.911 119.565  0.00  0.00    -0.276 OA
ATOM     17  H   LIG d   1     -19.653  74.019 119.982  0.00  0.00     0.149 HD
ENDBRANCH   6  13
BRANCH   5  18
ATOM     18  N   LIG d   1     -17.221  73.213 117.397  0.00  0.00     0.381 N 
ATOM     19  H   LIG d   1     -16.656  72.668 116.776  0.00  0.00    -0.090 HD
ATOM     20  H   LIG d   1     -16.655  73.956 117.768  0.00  0.00    -0.090 HD
ATOM     21  H   LIG d   1     -17.999  73.592 116.903  0.00  0.00    -0.090 HD
ENDBRANCH   5  18
BRANCH   3  22
ATOM     22  C   LIG d   1     -16.715  69.008 119.634  0.00  0.00     0.382 C 
ATOM     23  O   LIG d   1     -17.288  68.187 120.390  0.00  0.00    -0.241 OA
ATOM     24  O   LIG d   1     -15.852  68.605 118.831  0.00  0.00    -0.241 OA
ENDBRANCH   3  22
TORSDOF 7
ENDMDL
MODEL 7
REMARK VINA RESULT:      -4.4     13.108     15.258
REMARK  7 active torsions:
REMARK  status: ('A' for Active; 'I' for Inactive)
REMARK    1  A    between atoms: C_2  and  C_3 
REMARK    2  A    between atoms: C_3  and  O_6 
REMARK    3  A    between atoms: C_3  and  C_4 
REMARK    4  A    between atoms: C_7  and  O_6 
REMARK    5  A    between atoms: C_9  and  C_10 
REMARK    6  A    between atoms: N_15  and  C_14 
REMARK    7  A    between atoms: N_20  and  C_19 
REMARK       I    between atoms: C_22  and  N_20 
ROOT
ATOM      1  C   LIG d   1     -14.183  66.378 121.304  0.00  0.00     0.161 C 
ATOM      2  C   LIG d   1     -13.108  66.306 122.205  0.00  0.00     0.016 C 
ATOM      3  C   LIG d   1     -12.042  65.386 122.073  0.00  0.00     0.038 C 
ATOM      4  C   LIG d   1     -11.901  64.573 120.938  0.00  0.00     0.028 C 
ATOM      5  C   LIG d   1     -13.225  64.256 120.252  0.00  0.00    -0.047 C 
ATOM      6  C   LIG d   1     -13.989  65.575 120.001  0.00  0.00     0.091 C 
ENDROOT
BRANCH   1   7
ATOM      7  O   LIG d   1     -14.477  67.757 121.004  0.00  0.00    -0.368 OA
BRANCH   7   8
ATOM      8  C   LIG d   1     -15.614  68.331 121.695  0.00  0.00     0.119 C 
BRANCH   8   9
ATOM      9  C   LIG d   1     -16.762  68.453 120.674  0.00  0.00     0.028 C 
ATOM     10  C   LIG d   1     -16.264  68.854 119.276  0.00  0.00     0.006 C 
ENDBRANCH   8   9
BRANCH   8  11
ATOM     11  C   LIG d   1     -15.323  69.764 122.151  0.00  0.00     0.028 C 
ATOM     12  C   LIG d   1     -14.056  69.869 123.015  0.00  0.00     0.006 C 
ENDBRANCH   8  11
ENDBRANCH   7   8
ENDBRANCH   1   7
BRANCH   6  13
ATOM     13  N   LIG d   1     -15.333  65.348 119.408  0.00  0.00    -0.311 N 
ATOM     14  C   LIG d   1     -15.566  65.351 118.097  0.00  0.00     0.210 C 
ATOM     15  C   LIG d   1     -17.027  65.117 117.700  0.00  0.00     0.109 C 
ATOM     16  O   LIG d   1     -14.697  65.494 117.224  0.00  0.00    -0.276 OA
ATOM     17  H   LIG d   1     -16.091  65.193 120.044  0.00  0.00     0.149 HD
ENDBRANCH   6  13
BRANCH   5  18
ATOM     18  N   LIG d   1     -12.918  63.519 119.012  0.00  0.00     0.381 N 
ATOM     19  H   LIG d   1     -13.685  63.597 118.373  0.00  0.00    -0.090 HD
ATOM     20  H   LIG d   1     -12.791  62.547 119.233  0.00  0.00    -0.090 HD
ATOM     21  H   LIG d   1     -12.090  63.883 118.594  0.00  0.00    -0.090 HD
ENDBRANCH   5  18
BRANCH   3  22
ATOM     22  C   LIG d   1     -11.124  65.246 123.103  0.00  0.00     0.382 C 
ATOM     23  O   LIG d   1     -10.498  66.247 123.526  0.00  0.00    -0.241 OA
ATOM     24  O   LIG d   1     -10.881  64.123 123.583  0.00  0.00    -0.241 OA
ENDBRANCH   3  22
TORSDOF 7
ENDMDL
MODEL 8
REMARK VINA RESULT:      -4.4      2.451      3.526
REMARK  7 active torsions:
REMARK  status: ('A' for Active; 'I' for Inactive)
REMARK    1  A    between atoms: C_2  and  C_3 
REMARK    2  A    between atoms: C_3  and  O_6 
REMARK    3  A    between atoms: C_3  and  C_4 
REMARK    4  A    between atoms: C_7  and  O_6 
REMARK    5  A    between atoms: C_9  and  C_10 
REMARK    6  A    between atoms: N_15  and  C_14 
REMARK    7  A    between atoms: N_20  and  C_19 
REMARK       I    between atoms: C_22  and  N_20 
ROOT
ATOM      1  C   LIG d   1      -0.980  58.847 120.987  0.00  0.00     0.161 C 
ATOM      2  C   LIG d   1      -2.193  58.441 120.407  0.00  0.00     0.016 C 
ATOM      3  C   LIG d   1      -2.480  58.574 119.029  0.00  0.00     0.038 C 
ATOM      4  C   LIG d   1      -1.509  58.987 118.106  0.00  0.00     0.028 C 
ATOM      5  C   LIG d   1      -0.436  59.884 118.716  0.00  0.00    -0.047 C 
ATOM      6  C   LIG d   1       0.133  59.198 119.978  0.00  0.00     0.091 C 
ENDROOT
BRANCH   1   7
ATOM      7  O   LIG d   1      -0.520  57.843 121.912  0.00  0.00    -0.368 OA
BRANCH   7   8
ATOM      8  C   LIG d   1      -0.764  56.466 121.532  0.00  0.00     0.119 C 
BRANCH   8   9
ATOM      9  C   LIG d   1      -1.202  55.707 122.799  0.00  0.00     0.028 C 
ATOM     10  C   LIG d   1      -1.428  56.644 123.997  0.00  0.00     0.006 C 
ENDBRANCH   8   9
BRANCH   8  11
ATOM     11  C   LIG d   1       0.525  55.778 121.072  0.00  0.00     0.028 C 
ATOM     12  C   LIG d   1       0.568  55.548 119.553  0.00  0.00     0.006 C 
ENDBRANCH   8  11
ENDBRANCH   7   8
ENDBRANCH   1   7
BRANCH   6  13
ATOM     13  N   LIG d   1       1.129  60.046 120.684  0.00  0.00    -0.311 N 
ATOM     14  C   LIG d   1       2.443  59.953 120.485  0.00  0.00     0.210 C 
ATOM     15  C   LIG d   1       3.293  60.907 121.330  0.00  0.00     0.109 C 
ATOM     16  O   LIG d   1       2.983  59.194 119.666  0.00  0.00    -0.276 OA
ATOM     17  H   LIG d   1       0.776  60.711 121.343  0.00  0.00     0.149 HD
ENDBRANCH   6  13
BRANCH   5  18
ATOM     18  N   LIG d   1       0.584  60.127 117.679  0.00  0.00     0.381 N 
ATOM     19  H   LIG d   1       1.340  59.481 117.790  0.00  0.00    -0.090 HD
ATOM     20  H   LIG d   1       0.946  61.058 117.790  0.00  0.00    -0.090 HD
ATOM     21  H   LIG d   1       0.181  60.025 116.773  0.00  0.00    -0.090 HD
ENDBRANCH   5  18
BRANCH   3  22
ATOM     22  C   LIG d   1      -3.765  58.330 118.568  0.00  0.00     0.382 C 
ATOM     23  O   LIG d   1      -4.269  57.187 118.692  0.00  0.00    -0.241 OA
ATOM     24  O   LIG d   1      -4.410  59.225 117.990  0.00  0.00    -0.241 OA
ENDBRANCH   3  22
TORSDOF 7
ENDMDL
MODEL 9
REMARK VINA RESULT:      -4.3      2.037      2.631
REMARK  7 active torsions:
REMARK  status: ('A' for Active; 'I' for Inactive)
REMARK    1  A    between atoms: C_2  and  C_3 
REMARK    2  A    between atoms: C_3  and  O_6 
REMARK    3  A    between atoms: C_3  and  C_4 
REMARK    4  A    between atoms: C_7  and  O_6 
REMARK    5  A    between atoms: C_9  and  C_10 
REMARK    6  A    between atoms: N_15  and  C_14 
REMARK    7  A    between atoms: N_20  and  C_19 
REMARK       I    between atoms: C_22  and  N_20 
ROOT
ATOM      1  C   LIG d   1      -1.310  60.156 121.183  0.00  0.00     0.161 C 
ATOM      2  C   LIG d   1      -2.449  59.872 120.411  0.00  0.00     0.016 C 
ATOM      3  C   LIG d   1      -2.391  59.478 119.054  0.00  0.00     0.038 C 
ATOM      4  C   LIG d   1      -1.174  59.194 118.416  0.00  0.00     0.028 C 
ATOM      5  C   LIG d   1       0.010  59.953 119.004  0.00  0.00    -0.047 C 
ATOM      6  C   LIG d   1       0.029  59.744 120.536  0.00  0.00     0.091 C 
ENDROOT
BRANCH   1   7
ATOM      7  O   LIG d   1      -1.441  59.557 122.487  0.00  0.00    -0.368 OA
BRANCH   7   8
ATOM      8  C   LIG d   1      -1.467  60.472 123.610  0.00  0.00     0.119 C 
BRANCH   8   9
ATOM      9  C   LIG d   1      -2.656  60.073 124.505  0.00  0.00     0.028 C 
ATOM     10  C   LIG d   1      -4.007  60.210 123.783  0.00  0.00     0.006 C 
ENDBRANCH   8   9
BRANCH   8  11
ATOM     11  C   LIG d   1      -1.766  61.904 123.154  0.00  0.00     0.028 C 
ATOM     12  C   LIG d   1      -0.747  62.923 123.688  0.00  0.00     0.006 C 
ENDBRANCH   8  11
ENDBRANCH   7   8
ENDBRANCH   1   7
BRANCH   6  13
ATOM     13  N   LIG d   1       1.108  60.521 121.201  0.00  0.00    -0.311 N 
ATOM     14  C   LIG d   1       2.320  60.028 121.450  0.00  0.00     0.210 C 
ATOM     15  C   LIG d   1       3.276  60.991 122.162  0.00  0.00     0.109 C 
ATOM     16  O   LIG d   1       2.704  58.896 121.120  0.00  0.00    -0.276 OA
ATOM     17  H   LIG d   1       0.892  61.460 121.474  0.00  0.00     0.149 HD
ENDBRANCH   6  13
BRANCH   5  18
ATOM     18  N   LIG d   1       1.231  59.460 118.338  0.00  0.00     0.381 N 
ATOM     19  H   LIG d   1       2.034  59.696 118.886  0.00  0.00    -0.090 HD
ATOM     20  H   LIG d   1       1.316  59.909 117.443  0.00  0.00    -0.090 HD
ATOM     21  H   LIG d   1       1.179  58.473 118.220  0.00  0.00    -0.090 HD
ENDBRANCH   5  18
BRANCH   3  22
ATOM     22  C   LIG d   1      -3.558  59.404 118.310  0.00  0.00     0.382 C 
ATOM     23  O   LIG d   1      -3.973  60.414 117.692  0.00  0.00    -0.241 OA
ATOM     24  O   LIG d   1      -4.226  58.353 118.285  0.00  0.00    -0.241 OA
ENDBRANCH   3  22
TORSDOF 7
ENDMDL
