MODEL 1
REMARK VINA RESULT:      -4.9      0.000      0.000
REMARK  7 active torsions:
REMARK  status: ('A' for Active; 'I' for Inactive)
REMARK    1  A    between atoms: C_2  and  C_3 
REMARK    2  A    between atoms: C_3  and  O_6 
REMARK    3  A    between atoms: C_3  and  C_4 
REMARK    4  A    between atoms: C_7  and  O_6 
REMARK    5  A    between atoms: C_9  and  C_10 
REMARK    6  A    between atoms: N_15  and  C_14 
REMARK    7  A    between atoms: N_20  and  C_19 
REMARK       I    between atoms: C_22  and  N_20 
ROOT
ATOM      1  C   LIG d   1       0.624  60.503 122.236  0.00  0.00     0.161 C 
ATOM      2  C   LIG d   1       0.215  61.493 123.145  0.00  0.00     0.016 C 
ATOM      3  C   LIG d   1      -1.054  62.115 123.099  0.00  0.00     0.038 C 
ATOM      4  C   LIG d   1      -2.063  61.678 122.227  0.00  0.00     0.028 C 
ATOM      5  C   LIG d   1      -1.526  61.026 120.958  0.00  0.00    -0.047 C 
ATOM      6  C   LIG d   1      -0.503  59.934 121.349  0.00  0.00     0.091 C 
ENDROOT
BRANCH   1   7
ATOM      7  O   LIG d   1       1.291  59.438 122.942  0.00  0.00    -0.368 OA
BRANCH   7   8
ATOM      8  C   LIG d   1       2.692  59.246 122.630  0.00  0.00     0.119 C 
BRANCH   8   9
ATOM      9  C   LIG d   1       3.476  59.318 123.955  0.00  0.00     0.028 C 
ATOM     10  C   LIG d   1       4.008  60.731 124.247  0.00  0.00     0.006 C 
ENDBRANCH   8   9
BRANCH   8  11
ATOM     11  C   LIG d   1       3.235  60.395 121.775  0.00  0.00     0.028 C 
ATOM     12  C   LIG d   1       3.777  59.922 120.417  0.00  0.00     0.006 C 
ENDBRANCH   8  11
ENDBRANCH   7   8
ENDBRANCH   1   7
BRANCH   6  13
ATOM     13  N   LIG d   1       0.134  59.304 120.163  0.00  0.00    -0.311 N 
ATOM     14  C   LIG d   1       0.427  58.006 120.092  0.00  0.00     0.210 C 
ATOM     15  C   LIG d   1       1.099  57.566 118.787  0.00  0.00     0.109 C 
ATOM     16  O   LIG d   1       0.166  57.173 120.972  0.00  0.00    -0.276 OA
ATOM     17  H   LIG d   1       0.351  59.902 119.390  0.00  0.00     0.149 HD
ENDBRANCH   6  13
BRANCH   5  18
ATOM     18  N   LIG d   1      -2.679  60.494 120.207  0.00  0.00     0.381 N 
ATOM     19  H   LIG d   1      -2.615  60.769 119.248  0.00  0.00    -0.090 HD
ATOM     20  H   LIG d   1      -3.523  60.883 120.591  0.00  0.00    -0.090 HD
ATOM     21  H   LIG d   1      -2.702  59.501 120.275  0.00  0.00    -0.090 HD
ENDBRANCH   5  18
BRANCH   3  22
ATOM     22  C   LIG d   1      -1.311  63.214 123.904  0.00  0.00     0.382 C 
ATOM     23  O   LIG d   1      -0.614  64.252 123.790  0.00  0.00    -0.241 OA
ATOM     24  O   LIG d   1      -2.200  63.166 124.775  0.00  0.00    -0.241 OA
ENDBRANCH   3  22
TORSDOF 7
ENDMDL
MODEL 2
REMARK VINA RESULT:      -4.7     13.699     16.937
REMARK  7 active torsions:
REMARK  status: ('A' for Active; 'I' for Inactive)
REMARK    1  A    between atoms: C_2  and  C_3 
REMARK    2  A    between atoms: C_3  and  O_6 
REMARK    3  A    between atoms: C_3  and  C_4 
REMARK    4  A    between atoms: C_7  and  O_6 
REMARK    5  A    between atoms: C_9  and  C_10 
REMARK    6  A    between atoms: N_15  and  C_14 
REMARK    7  A    between atoms: N_20  and  C_19 
REMARK       I    between atoms: C_22  and  N_20 
ROOT
ATOM      1  C   LIG d   1     -13.870  68.343 121.574  0.00  0.00     0.161 C 
ATOM      2  C   LIG d   1     -12.828  68.414 122.513  0.00  0.00     0.016 C 
ATOM      3  C   LIG d   1     -11.767  67.481 122.570  0.00  0.00     0.038 C 
ATOM      4  C   LIG d   1     -11.595  66.493 121.589  0.00  0.00     0.028 C 
ATOM      5  C   LIG d   1     -12.897  66.073 120.917  0.00  0.00    -0.047 C 
ATOM      6  C   LIG d   1     -13.640  67.337 120.427  0.00  0.00     0.091 C 
ENDROOT
BRANCH   1   7
ATOM      7  O   LIG d   1     -14.141  69.655 121.044  0.00  0.00    -0.368 OA
BRANCH   7   8
ATOM      8  C   LIG d   1     -15.500  70.134 121.189  0.00  0.00     0.119 C 
BRANCH   8   9
ATOM      9  C   LIG d   1     -16.010  70.513 119.785  0.00  0.00     0.028 C 
ATOM     10  C   LIG d   1     -16.461  71.981 119.701  0.00  0.00     0.006 C 
ENDBRANCH   8   9
BRANCH   8  11
ATOM     11  C   LIG d   1     -15.551  71.430 122.002  0.00  0.00     0.028 C 
ATOM     12  C   LIG d   1     -15.193  71.220 123.482  0.00  0.00     0.006 C 
ENDBRANCH   8  11
ENDBRANCH   7   8
ENDBRANCH   1   7
BRANCH   6  13
ATOM     13  N   LIG d   1     -14.965  67.022 119.832  0.00  0.00    -0.311 N 
ATOM     14  C   LIG d   1     -15.163  66.865 118.524  0.00  0.00     0.210 C 
ATOM     15  C   LIG d   1     -16.610  66.564 118.121  0.00  0.00     0.109 C 
ATOM     16  O   LIG d   1     -14.272  66.915 117.663  0.00  0.00    -0.276 OA
ATOM     17  H   LIG d   1     -15.738  66.933 120.462  0.00  0.00     0.149 HD
ENDBRANCH   6  13
BRANCH   5  18
ATOM     18  N   LIG d   1     -12.556  65.143 119.824  0.00  0.00     0.381 N 
ATOM     19  H   LIG d   1     -12.194  65.655 119.044  0.00  0.00    -0.090 HD
ATOM     20  H   LIG d   1     -13.390  64.667 119.530  0.00  0.00    -0.090 HD
ATOM     21  H   LIG d   1     -11.880  64.481 120.138  0.00  0.00    -0.090 HD
ENDBRANCH   5  18
BRANCH   3  22
ATOM     22  C   LIG d   1     -10.886  67.506 123.641  0.00  0.00     0.382 C 
ATOM     23  O   LIG d   1      -9.845  66.806 123.613  0.00  0.00    -0.241 OA
ATOM     24  O   LIG d   1     -11.141  68.186 124.653  0.00  0.00    -0.241 OA
ENDBRANCH   3  22
TORSDOF 7
ENDMDL
MODEL 3
REMARK VINA RESULT:      -4.7     14.453     17.416
REMARK  7 active torsions:
REMARK  status: ('A' for Active; 'I' for Inactive)
REMARK    1  A    between atoms: C_2  and  C_3 
REMARK    2  A    between atoms: C_3  and  O_6 
REMARK    3  A    between atoms: C_3  and  C_4 
REMARK    4  A    between atoms: C_7  and  O_6 
REMARK    5  A    between atoms: C_9  and  C_10 
REMARK    6  A    between atoms: N_15  and  C_14 
REMARK    7  A    between atoms: N_20  and  C_19 
REMARK       I    between atoms: C_22  and  N_20 
ROOT
ATOM      1  C   LIG d   1     -14.425  68.513 120.852  0.00  0.00     0.161 C 
ATOM      2  C   LIG d   1     -13.748  68.965 121.997  0.00  0.00     0.016 C 
ATOM      3  C   LIG d   1     -12.626  68.305 122.549  0.00  0.00     0.038 C 
ATOM      4  C   LIG d   1     -12.009  67.225 121.902  0.00  0.00     0.028 C 
ATOM      5  C   LIG d   1     -12.958  66.427 121.015  0.00  0.00    -0.047 C 
ATOM      6  C   LIG d   1     -13.698  67.400 120.069  0.00  0.00     0.091 C 
ENDROOT
BRANCH   1   7
ATOM      7  O   LIG d   1     -14.717  69.627 119.985  0.00  0.00    -0.368 OA
BRANCH   7   8
ATOM      8  C   LIG d   1     -16.117  69.970 119.837  0.00  0.00     0.119 C 
BRANCH   8   9
ATOM      9  C   LIG d   1     -16.310  71.385 120.415  0.00  0.00     0.028 C 
ATOM     10  C   LIG d   1     -16.494  72.447 119.317  0.00  0.00     0.006 C 
ENDBRANCH   8   9
BRANCH   8  11
ATOM     11  C   LIG d   1     -17.006  69.059 120.689  0.00  0.00     0.028 C 
ATOM     12  C   LIG d   1     -18.012  68.255 119.851  0.00  0.00     0.006 C 
ENDBRANCH   8  11
ENDBRANCH   7   8
ENDBRANCH   1   7
BRANCH   6  13
ATOM     13  N   LIG d   1     -14.709  66.711 119.224  0.00  0.00    -0.311 N 
ATOM     14  C   LIG d   1     -14.811  66.892 117.909  0.00  0.00     0.210 C 
ATOM     15  C   LIG d   1     -15.934  66.100 117.233  0.00  0.00     0.109 C 
ATOM     16  O   LIG d   1     -14.058  67.609 117.233  0.00  0.00    -0.276 OA
ATOM     17  H   LIG d   1     -15.340  66.087 119.687  0.00  0.00     0.149 HD
ENDBRANCH   6  13
BRANCH   5  18
ATOM     18  N   LIG d   1     -12.156  65.419 120.296  0.00  0.00     0.381 N 
ATOM     19  H   LIG d   1     -11.511  64.987 120.927  0.00  0.00    -0.090 HD
ATOM     20  H   LIG d   1     -11.631  65.878 119.573  0.00  0.00    -0.090 HD
ATOM     21  H   LIG d   1     -12.753  64.729 119.896  0.00  0.00    -0.090 HD
ENDBRANCH   5  18
BRANCH   3  22
ATOM     22  C   LIG d   1     -12.135  68.701 123.784  0.00  0.00     0.382 C 
ATOM     23  O   LIG d   1     -12.228  69.901 124.140  0.00  0.00    -0.241 OA
ATOM     24  O   LIG d   1     -11.561  67.883 124.527  0.00  0.00    -0.241 OA
ENDBRANCH   3  22
TORSDOF 7
ENDMDL
MODEL 4
REMARK VINA RESULT:      -4.6     15.716     18.404
REMARK  7 active torsions:
REMARK  status: ('A' for Active; 'I' for Inactive)
REMARK    1  A    between atoms: C_2  and  C_3 
REMARK    2  A    between atoms: C_3  and  O_6 
REMARK    3  A    between atoms: C_3  and  C_4 
REMARK    4  A    between atoms: C_7  and  O_6 
REMARK    5  A    between atoms: C_9  and  C_10 
REMARK    6  A    between atoms: N_15  and  C_14 
REMARK    7  A    between atoms: N_20  and  C_19 
REMARK       I    between atoms: C_22  and  N_20 
ROOT
ATOM      1  C   LIG d   1     -15.304  69.270 120.514  0.00  0.00     0.161 C 
ATOM      2  C   LIG d   1     -14.673  69.970 121.555  0.00  0.00     0.016 C 
ATOM      3  C   LIG d   1     -13.480  69.533 122.175  0.00  0.00     0.038 C 
ATOM      4  C   LIG d   1     -12.750  68.438 121.690  0.00  0.00     0.028 C 
ATOM      5  C   LIG d   1     -13.611  67.410 120.964  0.00  0.00    -0.047 C 
ATOM      6  C   LIG d   1     -14.464  68.133 119.896  0.00  0.00     0.091 C 
ENDROOT
BRANCH   1   7
ATOM      7  O   LIG d   1     -15.726  70.193 119.490  0.00  0.00    -0.368 OA
BRANCH   7   8
ATOM      8  C   LIG d   1     -16.319  71.431 119.954  0.00  0.00     0.119 C 
BRANCH   8   9
ATOM      9  C   LIG d   1     -17.813  71.160 120.216  0.00  0.00     0.028 C 
ATOM     10  C   LIG d   1     -18.182  71.295 121.703  0.00  0.00     0.006 C 
ENDBRANCH   8   9
BRANCH   8  11
ATOM     11  C   LIG d   1     -16.287  72.507 118.864  0.00  0.00     0.028 C 
ATOM     12  C   LIG d   1     -16.911  73.835 119.320  0.00  0.00     0.006 C 
ENDBRANCH   8  11
ENDBRANCH   7   8
ENDBRANCH   1   7
BRANCH   6  13
ATOM     13  N   LIG d   1     -15.397  67.212 119.197  0.00  0.00    -0.311 N 
ATOM     14  C   LIG d   1     -15.264  66.864 117.918  0.00  0.00     0.210 C 
ATOM     15  C   LIG d   1     -16.347  65.920 117.389  0.00  0.00     0.109 C 
ATOM     16  O   LIG d   1     -14.333  67.223 117.181  0.00  0.00    -0.276 OA
ATOM     17  H   LIG d   1     -16.164  66.849 119.730  0.00  0.00     0.149 HD
ENDBRANCH   6  13
BRANCH   5  18
ATOM     18  N   LIG d   1     -12.707  66.394 120.392  0.00  0.00     0.381 N 
ATOM     19  H   LIG d   1     -12.044  66.835 119.786  0.00  0.00    -0.090 HD
ATOM     20  H   LIG d   1     -13.249  65.746 119.849  0.00  0.00    -0.090 HD
ATOM     21  H   LIG d   1     -12.231  65.911 121.122  0.00  0.00    -0.090 HD
ENDBRANCH   5  18
BRANCH   3  22
ATOM     22  C   LIG d   1     -13.026  70.172 123.319  0.00  0.00     0.382 C 
ATOM     23  O   LIG d   1     -13.137  71.417 123.428  0.00  0.00    -0.241 OA
ATOM     24  O   LIG d   1     -12.467  69.524 124.225  0.00  0.00    -0.241 OA
ENDBRANCH   3  22
TORSDOF 7
ENDMDL
MODEL 5
REMARK VINA RESULT:      -4.5     21.140     24.124
REMARK  7 active torsions:
REMARK  status: ('A' for Active; 'I' for Inactive)
REMARK    1  A    between atoms: C_2  and  C_3 
REMARK    2  A    between atoms: C_3  and  O_6 
REMARK    3  A    between atoms: C_3  and  C_4 
REMARK    4  A    between atoms: C_7  and  O_6 
REMARK    5  A    between atoms: C_9  and  C_10 
REMARK    6  A    between atoms: N_15  and  C_14 
REMARK    7  A    between atoms: N_20  and  C_19 
REMARK       I    between atoms: C_22  and  N_20 
ROOT
ATOM      1  C   LIG d   1      -7.019  82.762 119.850  0.00  0.00     0.161 C 
ATOM      2  C   LIG d   1      -6.538  81.519 119.405  0.00  0.00     0.016 C 
ATOM      3  C   LIG d   1      -7.259  80.672 118.532  0.00  0.00     0.038 C 
ATOM      4  C   LIG d   1      -8.452  81.082 117.920  0.00  0.00     0.028 C 
ATOM      5  C   LIG d   1      -9.224  82.118 118.730  0.00  0.00    -0.047 C 
ATOM      6  C   LIG d   1      -8.269  83.275 119.105  0.00  0.00     0.091 C 
ENDROOT
BRANCH   1   7
ATOM      7  O   LIG d   1      -5.964  83.742 119.793  0.00  0.00    -0.368 OA
BRANCH   7   8
ATOM      8  C   LIG d   1      -5.350  84.091 121.058  0.00  0.00     0.119 C 
BRANCH   8   9
ATOM      9  C   LIG d   1      -5.843  85.501 121.439  0.00  0.00     0.028 C 
ATOM     10  C   LIG d   1      -4.707  86.538 121.444  0.00  0.00     0.006 C 
ENDBRANCH   8   9
BRANCH   8  11
ATOM     11  C   LIG d   1      -3.829  84.216 120.923  0.00  0.00     0.028 C 
ATOM     12  C   LIG d   1      -3.168  82.923 120.420  0.00  0.00     0.006 C 
ENDBRANCH   8  11
ENDBRANCH   7   8
ENDBRANCH   1   7
BRANCH   6  13
ATOM     13  N   LIG d   1      -8.923  84.291 119.970  0.00  0.00    -0.311 N 
ATOM     14  C   LIG d   1      -9.390  84.026 121.189  0.00  0.00     0.210 C 
ATOM     15  C   LIG d   1     -10.045  85.212 121.903  0.00  0.00     0.109 C 
ATOM     16  O   LIG d   1      -9.295  82.928 121.759  0.00  0.00    -0.276 OA
ATOM     17  H   LIG d   1      -9.013  85.217 119.598  0.00  0.00     0.149 HD
ENDBRANCH   6  13
BRANCH   5  18
ATOM     18  N   LIG d   1     -10.372  82.558 117.914  0.00  0.00     0.381 N 
ATOM     19  H   LIG d   1     -10.438  83.556 117.932  0.00  0.00    -0.090 HD
ATOM     20  H   LIG d   1     -11.215  82.179 118.309  0.00  0.00    -0.090 HD
ATOM     21  H   LIG d   1     -10.264  82.241 116.976  0.00  0.00    -0.090 HD
ENDBRANCH   5  18
BRANCH   3  22
ATOM     22  C   LIG d   1      -6.805  79.384 118.294  0.00  0.00     0.382 C 
ATOM     23  O   LIG d   1      -6.939  78.500 119.175  0.00  0.00    -0.241 OA
ATOM     24  O   LIG d   1      -6.225  79.105 117.228  0.00  0.00    -0.241 OA
ENDBRANCH   3  22
TORSDOF 7
ENDMDL
MODEL 6
REMARK VINA RESULT:      -4.4     23.067     25.312
REMARK  7 active torsions:
REMARK  status: ('A' for Active; 'I' for Inactive)
REMARK    1  A    between atoms: C_2  and  C_3 
REMARK    2  A    between atoms: C_3  and  O_6 
REMARK    3  A    between atoms: C_3  and  C_4 
REMARK    4  A    between atoms: C_7  and  O_6 
REMARK    5  A    between atoms: C_9  and  C_10 
REMARK    6  A    between atoms: N_15  and  C_14 
REMARK    7  A    between atoms: N_20  and  C_19 
REMARK       I    between atoms: C_22  and  N_20 
ROOT
ATOM      1  C   LIG d   1      -7.139  83.558 120.671  0.00  0.00     0.161 C 
ATOM      2  C   LIG d   1      -7.137  82.568 119.674  0.00  0.00     0.016 C 
ATOM      3  C   LIG d   1      -8.316  82.023 119.116  0.00  0.00     0.038 C 
ATOM      4  C   LIG d   1      -9.585  82.543 119.411  0.00  0.00     0.028 C 
ATOM      5  C   LIG d   1      -9.666  83.198 120.786  0.00  0.00    -0.047 C 
ATOM      6  C   LIG d   1      -8.511  84.216 120.925  0.00  0.00     0.091 C 
ENDROOT
BRANCH   1   7
ATOM      7  O   LIG d   1      -6.151  84.562 120.364  0.00  0.00    -0.368 OA
BRANCH   7   8
ATOM      8  C   LIG d   1      -5.040  84.665 121.289  0.00  0.00     0.119 C 
BRANCH   8   9
ATOM      9  C   LIG d   1      -4.726  86.163 121.470  0.00  0.00     0.028 C 
ATOM     10  C   LIG d   1      -5.262  86.718 122.800  0.00  0.00     0.006 C 
ENDBRANCH   8   9
BRANCH   8  11
ATOM     11  C   LIG d   1      -3.766  84.053 120.699  0.00  0.00     0.028 C 
ATOM     12  C   LIG d   1      -2.652  85.089 120.481  0.00  0.00     0.006 C 
ENDBRANCH   8  11
ENDBRANCH   7   8
ENDBRANCH   1   7
BRANCH   6  13
ATOM     13  N   LIG d   1      -8.467  84.842 122.273  0.00  0.00    -0.311 N 
ATOM     14  C   LIG d   1      -9.001  86.031 122.547  0.00  0.00     0.210 C 
ATOM     15  C   LIG d   1      -8.826  86.500 123.995  0.00  0.00     0.109 C 
ATOM     16  O   LIG d   1      -9.632  86.727 121.737  0.00  0.00    -0.276 OA
ATOM     17  H   LIG d   1      -8.001  84.332 122.997  0.00  0.00     0.149 HD
ENDBRANCH   6  13
BRANCH   5  18
ATOM     18  N   LIG d   1     -11.000  83.817 120.906  0.00  0.00     0.381 N 
ATOM     19  H   LIG d   1     -11.329  84.092 120.002  0.00  0.00    -0.090 HD
ATOM     20  H   LIG d   1     -10.926  84.640 121.478  0.00  0.00    -0.090 HD
ATOM     21  H   LIG d   1     -11.638  83.173 121.319  0.00  0.00    -0.090 HD
ENDBRANCH   5  18
BRANCH   3  22
ATOM     22  C   LIG d   1      -8.235  80.919 118.281  0.00  0.00     0.382 C 
ATOM     23  O   LIG d   1      -9.099  80.013 118.355  0.00  0.00    -0.241 OA
ATOM     24  O   LIG d   1      -7.283  80.796 117.487  0.00  0.00    -0.241 OA
ENDBRANCH   3  22
TORSDOF 7
ENDMDL
MODEL 7
REMARK VINA RESULT:      -4.4      2.588      3.616
REMARK  7 active torsions:
REMARK  status: ('A' for Active; 'I' for Inactive)
REMARK    1  A    between atoms: C_2  and  C_3 
REMARK    2  A    between atoms: C_3  and  O_6 
REMARK    3  A    between atoms: C_3  and  C_4 
REMARK    4  A    between atoms: C_7  and  O_6 
REMARK    5  A    between atoms: C_9  and  C_10 
REMARK    6  A    between atoms: N_15  and  C_14 
REMARK    7  A    between atoms: N_20  and  C_19 
REMARK       I    between atoms: C_22  and  N_20 
ROOT
ATOM      1  C   LIG d   1       0.997  58.595 120.270  0.00  0.00     0.161 C 
ATOM      2  C   LIG d   1       0.320  59.826 120.234  0.00  0.00     0.016 C 
ATOM      3  C   LIG d   1      -0.525  60.280 121.272  0.00  0.00     0.038 C 
ATOM      4  C   LIG d   1      -0.633  59.596 122.492  0.00  0.00     0.028 C 
ATOM      5  C   LIG d   1      -0.365  58.100 122.374  0.00  0.00    -0.047 C 
ATOM      6  C   LIG d   1       0.979  57.887 121.641  0.00  0.00     0.091 C 
ENDROOT
BRANCH   1   7
ATOM      7  O   LIG d   1       2.353  58.770 119.814  0.00  0.00    -0.368 OA
BRANCH   7   8
ATOM      8  C   LIG d   1       3.126  59.793 120.488  0.00  0.00     0.119 C 
BRANCH   8   9
ATOM      9  C   LIG d   1       4.077  60.416 119.448  0.00  0.00     0.028 C 
ATOM     10  C   LIG d   1       3.401  60.619 118.082  0.00  0.00     0.006 C 
ENDBRANCH   8   9
BRANCH   8  11
ATOM     11  C   LIG d   1       4.037  59.187 121.560  0.00  0.00     0.028 C 
ATOM     12  C   LIG d   1       3.769  59.757 122.962  0.00  0.00     0.006 C 
ENDBRANCH   8  11
ENDBRANCH   7   8
ENDBRANCH   1   7
BRANCH   6  13
ATOM     13  N   LIG d   1       1.278  56.450 121.409  0.00  0.00    -0.311 N 
ATOM     14  C   LIG d   1       2.054  55.724 122.211  0.00  0.00     0.210 C 
ATOM     15  C   LIG d   1       2.247  54.267 121.779  0.00  0.00     0.109 C 
ATOM     16  O   LIG d   1       2.574  56.139 123.258  0.00  0.00    -0.276 OA
ATOM     17  H   LIG d   1       0.871  56.025 120.599  0.00  0.00     0.149 HD
ENDBRANCH   6  13
BRANCH   5  18
ATOM     18  N   LIG d   1      -0.374  57.537 123.738  0.00  0.00     0.381 N 
ATOM     19  H   LIG d   1      -1.131  57.929 124.261  0.00  0.00    -0.090 HD
ATOM     20  H   LIG d   1       0.486  57.780 124.196  0.00  0.00    -0.090 HD
ATOM     21  H   LIG d   1      -0.468  56.546 123.697  0.00  0.00    -0.090 HD
ENDBRANCH   5  18
BRANCH   3  22
ATOM     22  C   LIG d   1      -1.306  61.409 121.078  0.00  0.00     0.382 C 
ATOM     23  O   LIG d   1      -1.619  61.763 119.916  0.00  0.00    -0.241 OA
ATOM     24  O   LIG d   1      -1.663  62.104 122.048  0.00  0.00    -0.241 OA
ENDBRANCH   3  22
TORSDOF 7
ENDMDL
MODEL 8
REMARK VINA RESULT:      -4.3     31.796     34.752
REMARK  7 active torsions:
REMARK  status: ('A' for Active; 'I' for Inactive)
REMARK    1  A    between atoms: C_2  and  C_3 
REMARK    2  A    between atoms: C_3  and  O_6 
REMARK    3  A    between atoms: C_3  and  C_4 
REMARK    4  A    between atoms: C_7  and  O_6 
REMARK    5  A    between atoms: C_9  and  C_10 
REMARK    6  A    between atoms: N_15  and  C_14 
REMARK    7  A    between atoms: N_20  and  C_19 
REMARK       I    between atoms: C_22  and  N_20 
ROOT
ATOM      1  C   LIG d   1      -5.626  93.709 120.064  0.00  0.00     0.161 C 
ATOM      2  C   LIG d   1      -4.626  92.868 119.547  0.00  0.00     0.016 C 
ATOM      3  C   LIG d   1      -4.763  92.147 118.339  0.00  0.00     0.038 C 
ATOM      4  C   LIG d   1      -5.858  92.336 117.483  0.00  0.00     0.028 C 
ATOM      5  C   LIG d   1      -7.121  92.791 118.206  0.00  0.00    -0.047 C 
ATOM      6  C   LIG d   1      -6.781  94.015 119.088  0.00  0.00     0.091 C 
ENDROOT
BRANCH   1   7
ATOM      7  O   LIG d   1      -5.035  94.934 120.541  0.00  0.00    -0.368 OA
BRANCH   7   8
ATOM      8  C   LIG d   1      -4.580  95.860 119.524  0.00  0.00     0.119 C 
BRANCH   8   9
ATOM      9  C   LIG d   1      -3.060  96.035 119.704  0.00  0.00     0.028 C 
ATOM     10  C   LIG d   1      -2.264  95.546 118.482  0.00  0.00     0.006 C 
ENDBRANCH   8   9
BRANCH   8  11
ATOM     11  C   LIG d   1      -5.176  97.256 119.734  0.00  0.00     0.028 C 
ATOM     12  C   LIG d   1      -5.810  97.430 121.123  0.00  0.00     0.006 C 
ENDBRANCH   8  11
ENDBRANCH   7   8
ENDBRANCH   1   7
BRANCH   6  13
ATOM     13  N   LIG d   1      -7.943  94.472 119.895  0.00  0.00    -0.311 N 
ATOM     14  C   LIG d   1      -8.639  95.573 119.619  0.00  0.00     0.210 C 
ATOM     15  C   LIG d   1      -9.785  95.873 120.589  0.00  0.00     0.109 C 
ATOM     16  O   LIG d   1      -8.436  96.313 118.644  0.00  0.00    -0.276 OA
ATOM     17  H   LIG d   1      -8.196  93.913 120.686  0.00  0.00     0.149 HD
ENDBRANCH   6  13
BRANCH   5  18
ATOM     18  N   LIG d   1      -8.141  93.083 117.181  0.00  0.00     0.381 N 
ATOM     19  H   LIG d   1      -8.808  93.735 117.542  0.00  0.00    -0.090 HD
ATOM     20  H   LIG d   1      -8.623  92.232 116.951  0.00  0.00    -0.090 HD
ATOM     21  H   LIG d   1      -7.707  93.458 116.366  0.00  0.00    -0.090 HD
ENDBRANCH   5  18
BRANCH   3  22
ATOM     22  C   LIG d   1      -3.816  91.193 117.997  0.00  0.00     0.382 C 
ATOM     23  O   LIG d   1      -4.163  90.000 117.820  0.00  0.00    -0.241 OA
ATOM     24  O   LIG d   1      -2.613  91.502 117.906  0.00  0.00    -0.241 OA
ENDBRANCH   3  22
TORSDOF 7
ENDMDL
MODEL 9
REMARK VINA RESULT:      -4.2     21.728     23.698
REMARK  7 active torsions:
REMARK  status: ('A' for Active; 'I' for Inactive)
REMARK    1  A    between atoms: C_2  and  C_3 
REMARK    2  A    between atoms: C_3  and  O_6 
REMARK    3  A    between atoms: C_3  and  C_4 
REMARK    4  A    between atoms: C_7  and  O_6 
REMARK    5  A    between atoms: C_9  and  C_10 
REMARK    6  A    between atoms: N_15  and  C_14 
REMARK    7  A    between atoms: N_20  and  C_19 
REMARK       I    between atoms: C_22  and  N_20 
ROOT
ATOM      1  C   LIG d   1      -8.227  81.420 120.588  0.00  0.00     0.161 C 
ATOM      2  C   LIG d   1      -7.192  80.887 119.802  0.00  0.00     0.016 C 
ATOM      3  C   LIG d   1      -7.192  80.920 118.389  0.00  0.00     0.038 C 
ATOM      4  C   LIG d   1      -8.162  81.629 117.664  0.00  0.00     0.028 C 
ATOM      5  C   LIG d   1      -9.495  81.751 118.395  0.00  0.00    -0.047 C 
ATOM      6  C   LIG d   1      -9.239  82.294 119.819  0.00  0.00     0.091 C 
ENDROOT
BRANCH   1   7
ATOM      7  O   LIG d   1      -7.670  82.155 121.696  0.00  0.00    -0.368 OA
BRANCH   7   8
ATOM      8  C   LIG d   1      -7.180  83.485 121.397  0.00  0.00     0.119 C 
BRANCH   8   9
ATOM      9  C   LIG d   1      -5.694  83.533 121.803  0.00  0.00     0.028 C 
ATOM     10  C   LIG d   1      -4.752  83.496 120.588  0.00  0.00     0.006 C 
ENDBRANCH   8   9
BRANCH   8  11
ATOM     11  C   LIG d   1      -7.872  84.542 122.263  0.00  0.00     0.028 C 
ATOM     12  C   LIG d   1      -8.708  83.928 123.398  0.00  0.00     0.006 C 
ENDBRANCH   8  11
ENDBRANCH   7   8
ENDBRANCH   1   7
BRANCH   6  13
ATOM     13  N   LIG d   1     -10.481  82.365 120.631  0.00  0.00    -0.311 N 
ATOM     14  C   LIG d   1     -11.134  81.289 121.067  0.00  0.00     0.210 C 
ATOM     15  C   LIG d   1     -12.404  81.585 121.871  0.00  0.00     0.109 C 
ATOM     16  O   LIG d   1     -10.764  80.118 120.892  0.00  0.00    -0.276 OA
ATOM     17  H   LIG d   1     -10.835  83.277 120.846  0.00  0.00     0.149 HD
ENDBRANCH   6  13
BRANCH   5  18
ATOM     18  N   LIG d   1     -10.366  82.627 117.589  0.00  0.00     0.381 N 
ATOM     19  H   LIG d   1      -9.807  83.232 117.022  0.00  0.00    -0.090 HD
ATOM     20  H   LIG d   1     -10.917  83.195 118.208  0.00  0.00    -0.090 HD
ATOM     21  H   LIG d   1     -10.964  82.077 117.012  0.00  0.00    -0.090 HD
ENDBRANCH   5  18
BRANCH   3  22
ATOM     22  C   LIG d   1      -6.235  80.206 117.684  0.00  0.00     0.382 C 
ATOM     23  O   LIG d   1      -6.492  79.047 117.276  0.00  0.00    -0.241 OA
ATOM     24  O   LIG d   1      -5.103  80.688 117.490  0.00  0.00    -0.241 OA
ENDBRANCH   3  22
TORSDOF 7
ENDMDL
