MODEL 1
REMARK VINA RESULT:      -4.7      0.000      0.000
REMARK  7 active torsions:
REMARK  status: ('A' for Active; 'I' for Inactive)
REMARK    1  A    between atoms: C_2  and  C_3 
REMARK    2  A    between atoms: C_3  and  O_6 
REMARK    3  A    between atoms: C_3  and  C_4 
REMARK    4  A    between atoms: C_7  and  O_6 
REMARK    5  A    between atoms: C_9  and  C_10 
REMARK    6  A    between atoms: N_15  and  C_14 
REMARK    7  A    between atoms: N_20  and  C_19 
REMARK       I    between atoms: C_22  and  N_20 
ROOT
ATOM      1  C   LIG d   1      -1.178  56.277 119.354  0.00  0.00     0.161 C 
ATOM      2  C   LIG d   1      -1.278  57.428 118.556  0.00  0.00     0.016 C 
ATOM      3  C   LIG d   1      -1.811  58.653 119.020  0.00  0.00     0.038 C 
ATOM      4  C   LIG d   1      -2.143  58.854 120.368  0.00  0.00     0.028 C 
ATOM      5  C   LIG d   1      -2.532  57.570 121.093  0.00  0.00    -0.047 C 
ATOM      6  C   LIG d   1      -1.433  56.508 120.858  0.00  0.00     0.091 C 
ENDROOT
BRANCH   1   7
ATOM      7  O   LIG d   1       0.105  55.653 119.154  0.00  0.00    -0.368 OA
BRANCH   7   8
ATOM      8  C   LIG d   1       1.099  56.447 118.460  0.00  0.00     0.119 C 
BRANCH   8   9
ATOM      9  C   LIG d   1       1.761  55.541 117.404  0.00  0.00     0.028 C 
ATOM     10  C   LIG d   1       1.535  54.046 117.688  0.00  0.00     0.006 C 
ENDBRANCH   8   9
BRANCH   8  11
ATOM     11  C   LIG d   1       2.232  56.868 119.400  0.00  0.00     0.028 C 
ATOM     12  C   LIG d   1       2.083  58.313 119.902  0.00  0.00     0.006 C 
ENDBRANCH   8  11
ENDBRANCH   7   8
ENDBRANCH   1   7
BRANCH   6  13
ATOM     13  N   LIG d   1      -1.775  55.195 121.464  0.00  0.00    -0.311 N 
ATOM     14  C   LIG d   1      -1.402  54.835 122.691  0.00  0.00     0.210 C 
ATOM     15  C   LIG d   1      -1.843  53.430 123.114  0.00  0.00     0.109 C 
ATOM     16  O   LIG d   1      -0.777  55.558 123.482  0.00  0.00    -0.276 OA
ATOM     17  H   LIG d   1      -2.307  54.559 120.904  0.00  0.00     0.149 HD
ENDBRANCH   6  13
BRANCH   5  18
ATOM     18  N   LIG d   1      -2.719  57.903 122.518  0.00  0.00     0.381 N 
ATOM     19  H   LIG d   1      -2.029  58.569 122.804  0.00  0.00    -0.090 HD
ATOM     20  H   LIG d   1      -2.597  57.069 123.065  0.00  0.00    -0.090 HD
ATOM     21  H   LIG d   1      -3.631  58.274 122.665  0.00  0.00    -0.090 HD
ENDBRANCH   5  18
BRANCH   3  22
ATOM     22  C   LIG d   1      -2.053  59.681 118.121  0.00  0.00     0.382 C 
ATOM     23  O   LIG d   1      -1.484  60.789 118.269  0.00  0.00    -0.241 OA
ATOM     24  O   LIG d   1      -2.867  59.528 117.191  0.00  0.00    -0.241 OA
ENDBRANCH   3  22
TORSDOF 7
ENDMDL
MODEL 2
REMARK VINA RESULT:      -4.5      2.441      2.753
REMARK  7 active torsions:
REMARK  status: ('A' for Active; 'I' for Inactive)
REMARK    1  A    between atoms: C_2  and  C_3 
REMARK    2  A    between atoms: C_3  and  O_6 
REMARK    3  A    between atoms: C_3  and  C_4 
REMARK    4  A    between atoms: C_7  and  O_6 
REMARK    5  A    between atoms: C_9  and  C_10 
REMARK    6  A    between atoms: N_15  and  C_14 
REMARK    7  A    between atoms: N_20  and  C_19 
REMARK       I    between atoms: C_22  and  N_20 
ROOT
ATOM      1  C   LIG d   1      -0.105  57.464 120.095  0.00  0.00     0.161 C 
ATOM      2  C   LIG d   1      -0.913  57.767 118.987  0.00  0.00     0.016 C 
ATOM      3  C   LIG d   1      -1.583  59.002 118.828  0.00  0.00     0.038 C 
ATOM      4  C   LIG d   1      -1.366  60.081 119.698  0.00  0.00     0.028 C 
ATOM      5  C   LIG d   1      -0.954  59.653 121.103  0.00  0.00    -0.047 C 
ATOM      6  C   LIG d   1       0.233  58.668 120.999  0.00  0.00     0.091 C 
ENDROOT
BRANCH   1   7
ATOM      7  O   LIG d   1       1.104  56.814 119.654  0.00  0.00    -0.368 OA
BRANCH   7   8
ATOM      8  C   LIG d   1       1.570  57.168 118.328  0.00  0.00     0.119 C 
BRANCH   8   9
ATOM      9  C   LIG d   1       1.904  55.857 117.590  0.00  0.00     0.028 C 
ATOM     10  C   LIG d   1       1.944  54.645 118.536  0.00  0.00     0.006 C 
ENDBRANCH   8   9
BRANCH   8  11
ATOM     11  C   LIG d   1       2.889  57.945 118.390  0.00  0.00     0.028 C 
ATOM     12  C   LIG d   1       3.607  57.794 119.740  0.00  0.00     0.006 C 
ENDBRANCH   8  11
ENDBRANCH   7   8
ENDBRANCH   1   7
BRANCH   6  13
ATOM     13  N   LIG d   1       0.644  58.134 122.324  0.00  0.00    -0.311 N 
ATOM     14  C   LIG d   1       1.635  58.652 123.047  0.00  0.00     0.210 C 
ATOM     15  C   LIG d   1       1.909  57.938 124.375  0.00  0.00     0.109 C 
ATOM     16  O   LIG d   1       2.293  59.655 122.730  0.00  0.00    -0.276 OA
ATOM     17  H   LIG d   1       0.142  57.340 122.672  0.00  0.00     0.149 HD
ENDBRANCH   6  13
BRANCH   5  18
ATOM     18  N   LIG d   1      -0.628  60.874 121.863  0.00  0.00     0.381 N 
ATOM     19  H   LIG d   1       0.053  60.664 122.565  0.00  0.00    -0.090 HD
ATOM     20  H   LIG d   1      -1.460  61.204 122.320  0.00  0.00    -0.090 HD
ATOM     21  H   LIG d   1      -0.277  61.575 121.249  0.00  0.00    -0.090 HD
ENDBRANCH   5  18
BRANCH   3  22
ATOM     22  C   LIG d   1      -2.512  59.154 117.810  0.00  0.00     0.382 C 
ATOM     23  O   LIG d   1      -2.972  60.291 117.545  0.00  0.00    -0.241 OA
ATOM     24  O   LIG d   1      -2.930  58.162 117.183  0.00  0.00    -0.241 OA
ENDBRANCH   3  22
TORSDOF 7
ENDMDL
MODEL 3
REMARK VINA RESULT:      -4.5     21.686     24.139
REMARK  7 active torsions:
REMARK  status: ('A' for Active; 'I' for Inactive)
REMARK    1  A    between atoms: C_2  and  C_3 
REMARK    2  A    between atoms: C_3  and  O_6 
REMARK    3  A    between atoms: C_3  and  C_4 
REMARK    4  A    between atoms: C_7  and  O_6 
REMARK    5  A    between atoms: C_9  and  C_10 
REMARK    6  A    between atoms: N_15  and  C_14 
REMARK    7  A    between atoms: N_20  and  C_19 
REMARK       I    between atoms: C_22  and  N_20 
ROOT
ATOM      1  C   LIG d   1      -7.814  79.322 118.454  0.00  0.00     0.161 C 
ATOM      2  C   LIG d   1      -8.438  78.124 118.069  0.00  0.00     0.016 C 
ATOM      3  C   LIG d   1      -9.746  77.765 118.467  0.00  0.00     0.038 C 
ATOM      4  C   LIG d   1     -10.581  78.656 119.158  0.00  0.00     0.028 C 
ATOM      5  C   LIG d   1      -9.817  79.673 120.000  0.00  0.00    -0.047 C 
ATOM      6  C   LIG d   1      -8.749  80.355 119.115  0.00  0.00     0.091 C 
ENDROOT
BRANCH   1   7
ATOM      7  O   LIG d   1      -7.141  79.908 117.322  0.00  0.00    -0.368 OA
BRANCH   7   8
ATOM      8  C   LIG d   1      -5.710  79.693 117.249  0.00  0.00     0.119 C 
BRANCH   8   9
ATOM      9  C   LIG d   1      -5.272  79.041 118.575  0.00  0.00     0.028 C 
ATOM     10  C   LIG d   1      -4.515  77.720 118.357  0.00  0.00     0.006 C 
ENDBRANCH   8   9
BRANCH   8  11
ATOM     11  C   LIG d   1      -4.950  81.021 117.180  0.00  0.00     0.028 C 
ATOM     12  C   LIG d   1      -4.419  81.476 118.549  0.00  0.00     0.006 C 
ENDBRANCH   8  11
ENDBRANCH   7   8
ENDBRANCH   1   7
BRANCH   6  13
ATOM     13  N   LIG d   1      -7.901  81.305 119.882  0.00  0.00    -0.311 N 
ATOM     14  C   LIG d   1      -7.760  82.589 119.557  0.00  0.00     0.210 C 
ATOM     15  C   LIG d   1      -6.823  83.387 120.469  0.00  0.00     0.109 C 
ATOM     16  O   LIG d   1      -8.347  83.150 118.620  0.00  0.00    -0.276 OA
ATOM     17  H   LIG d   1      -7.413  80.940 120.677  0.00  0.00     0.149 HD
ENDBRANCH   6  13
BRANCH   5  18
ATOM     18  N   LIG d   1     -10.802  80.621 120.554  0.00  0.00     0.381 N 
ATOM     19  H   LIG d   1     -11.588  80.692 119.940  0.00  0.00    -0.090 HD
ATOM     20  H   LIG d   1     -10.375  81.528 120.625  0.00  0.00    -0.090 HD
ATOM     21  H   LIG d   1     -11.101  80.315 121.454  0.00  0.00    -0.090 HD
ENDBRANCH   5  18
BRANCH   3  22
ATOM     22  C   LIG d   1     -10.217  76.487 118.208  0.00  0.00     0.382 C 
ATOM     23  O   LIG d   1      -9.423  75.516 118.198  0.00  0.00    -0.241 OA
ATOM     24  O   LIG d   1     -11.419  76.299 117.939  0.00  0.00    -0.241 OA
ENDBRANCH   3  22
TORSDOF 7
ENDMDL
MODEL 4
REMARK VINA RESULT:      -4.3     10.732     12.515
REMARK  7 active torsions:
REMARK  status: ('A' for Active; 'I' for Inactive)
REMARK    1  A    between atoms: C_2  and  C_3 
REMARK    2  A    between atoms: C_3  and  O_6 
REMARK    3  A    between atoms: C_3  and  C_4 
REMARK    4  A    between atoms: C_7  and  O_6 
REMARK    5  A    between atoms: C_9  and  C_10 
REMARK    6  A    between atoms: N_15  and  C_14 
REMARK    7  A    between atoms: N_20  and  C_19 
REMARK       I    between atoms: C_22  and  N_20 
ROOT
ATOM      1  C   LIG d   1       4.683  67.820 121.509  0.00  0.00     0.161 C 
ATOM      2  C   LIG d   1       4.501  67.680 120.123  0.00  0.00     0.016 C 
ATOM      3  C   LIG d   1       5.220  66.754 119.333  0.00  0.00     0.038 C 
ATOM      4  C   LIG d   1       6.068  65.794 119.905  0.00  0.00     0.028 C 
ATOM      5  C   LIG d   1       6.664  66.229 121.239  0.00  0.00    -0.047 C 
ATOM      6  C   LIG d   1       5.523  66.705 122.167  0.00  0.00     0.091 C 
ENDROOT
BRANCH   1   7
ATOM      7  O   LIG d   1       3.403  67.934 122.162  0.00  0.00    -0.368 OA
BRANCH   7   8
ATOM      8  C   LIG d   1       2.305  68.391 121.335  0.00  0.00     0.119 C 
BRANCH   8   9
ATOM      9  C   LIG d   1       1.894  69.788 121.841  0.00  0.00     0.028 C 
ATOM     10  C   LIG d   1       0.411  69.853 122.245  0.00  0.00     0.006 C 
ENDBRANCH   8   9
BRANCH   8  11
ATOM     11  C   LIG d   1       1.064  67.512 121.519  0.00  0.00     0.028 C 
ATOM     12  C   LIG d   1       1.373  66.190 122.240  0.00  0.00     0.006 C 
ENDBRANCH   8  11
ENDBRANCH   7   8
ENDBRANCH   1   7
BRANCH   6  13
ATOM     13  N   LIG d   1       6.028  67.228 123.463  0.00  0.00    -0.311 N 
ATOM     14  C   LIG d   1       6.133  66.483 124.563  0.00  0.00     0.210 C 
ATOM     15  C   LIG d   1       6.658  67.224 125.797  0.00  0.00     0.109 C 
ATOM     16  O   LIG d   1       5.873  65.272 124.624  0.00  0.00    -0.276 OA
ATOM     17  H   LIG d   1       6.291  68.194 123.495  0.00  0.00     0.149 HD
ENDBRANCH   6  13
BRANCH   5  18
ATOM     18  N   LIG d   1       7.414  65.083 121.787  0.00  0.00     0.381 N 
ATOM     19  H   LIG d   1       6.974  64.759 122.624  0.00  0.00    -0.090 HD
ATOM     20  H   LIG d   1       8.345  65.384 122.017  0.00  0.00    -0.090 HD
ATOM     21  H   LIG d   1       7.452  64.348 121.116  0.00  0.00    -0.090 HD
ENDBRANCH   5  18
BRANCH   3  22
ATOM     22  C   LIG d   1       5.124  66.809 117.951  0.00  0.00     0.382 C 
ATOM     23  O   LIG d   1       4.531  67.769 117.402  0.00  0.00    -0.241 OA
ATOM     24  O   LIG d   1       5.583  65.889 117.249  0.00  0.00    -0.241 OA
ENDBRANCH   3  22
TORSDOF 7
ENDMDL
MODEL 5
REMARK VINA RESULT:      -4.3     34.893     37.421
REMARK  7 active torsions:
REMARK  status: ('A' for Active; 'I' for Inactive)
REMARK    1  A    between atoms: C_2  and  C_3 
REMARK    2  A    between atoms: C_3  and  O_6 
REMARK    3  A    between atoms: C_3  and  C_4 
REMARK    4  A    between atoms: C_7  and  O_6 
REMARK    5  A    between atoms: C_9  and  C_10 
REMARK    6  A    between atoms: N_15  and  C_14 
REMARK    7  A    between atoms: N_20  and  C_19 
REMARK       I    between atoms: C_22  and  N_20 
ROOT
ATOM      1  C   LIG d   1      -5.249  93.417 120.523  0.00  0.00     0.161 C 
ATOM      2  C   LIG d   1      -6.496  93.325 119.881  0.00  0.00     0.016 C 
ATOM      3  C   LIG d   1      -7.152  94.430 119.292  0.00  0.00     0.038 C 
ATOM      4  C   LIG d   1      -6.531  95.682 119.171  0.00  0.00     0.028 C 
ATOM      5  C   LIG d   1      -5.486  95.947 120.250  0.00  0.00    -0.047 C 
ATOM      6  C   LIG d   1      -4.507  94.752 120.303  0.00  0.00     0.091 C 
ENDROOT
BRANCH   1   7
ATOM      7  O   LIG d   1      -4.415  92.310 120.131  0.00  0.00    -0.368 OA
BRANCH   7   8
ATOM      8  C   LIG d   1      -3.743  92.438 118.854  0.00  0.00     0.119 C 
BRANCH   8   9
ATOM      9  C   LIG d   1      -4.118  91.205 118.008  0.00  0.00     0.028 C 
ATOM     10  C   LIG d   1      -5.428  91.405 117.227  0.00  0.00     0.006 C 
ENDBRANCH   8   9
BRANCH   8  11
ATOM     11  C   LIG d   1      -2.222  92.372 119.015  0.00  0.00     0.028 C 
ATOM     12  C   LIG d   1      -1.732  90.996 119.495  0.00  0.00     0.006 C 
ENDBRANCH   8  11
ENDBRANCH   7   8
ENDBRANCH   1   7
BRANCH   6  13
ATOM     13  N   LIG d   1      -3.502  94.892 121.389  0.00  0.00    -0.311 N 
ATOM     14  C   LIG d   1      -2.294  95.423 121.207  0.00  0.00     0.210 C 
ATOM     15  C   LIG d   1      -1.406  95.454 122.455  0.00  0.00     0.109 C 
ATOM     16  O   LIG d   1      -1.887  95.903 120.138  0.00  0.00    -0.276 OA
ATOM     17  H   LIG d   1      -3.761  94.557 122.297  0.00  0.00     0.149 HD
ENDBRANCH   6  13
BRANCH   5  18
ATOM     18  N   LIG d   1      -4.823  97.224 119.924  0.00  0.00     0.381 N 
ATOM     19  H   LIG d   1      -5.510  97.912 119.689  0.00  0.00    -0.090 HD
ATOM     20  H   LIG d   1      -4.228  97.087 119.126  0.00  0.00    -0.090 HD
ATOM     21  H   LIG d   1      -4.283  97.535 120.701  0.00  0.00    -0.090 HD
ENDBRANCH   5  18
BRANCH   3  22
ATOM     22  C   LIG d   1      -8.460  94.297 118.851  0.00  0.00     0.382 C 
ATOM     23  O   LIG d   1      -9.407  94.365 119.671  0.00  0.00    -0.241 OA
ATOM     24  O   LIG d   1      -8.702  94.067 117.651  0.00  0.00    -0.241 OA
ENDBRANCH   3  22
TORSDOF 7
ENDMDL
MODEL 6
REMARK VINA RESULT:      -4.3     23.903     26.879
REMARK  7 active torsions:
REMARK  status: ('A' for Active; 'I' for Inactive)
REMARK    1  A    between atoms: C_2  and  C_3 
REMARK    2  A    between atoms: C_3  and  O_6 
REMARK    3  A    between atoms: C_3  and  C_4 
REMARK    4  A    between atoms: C_7  and  O_6 
REMARK    5  A    between atoms: C_9  and  C_10 
REMARK    6  A    between atoms: N_15  and  C_14 
REMARK    7  A    between atoms: N_20  and  C_19 
REMARK       I    between atoms: C_22  and  N_20 
ROOT
ATOM      1  C   LIG d   1     -17.534  77.177 119.673  0.00  0.00     0.161 C 
ATOM      2  C   LIG d   1     -16.431  76.371 120.000  0.00  0.00     0.016 C 
ATOM      3  C   LIG d   1     -15.715  76.488 121.214  0.00  0.00     0.038 C 
ATOM      4  C   LIG d   1     -16.149  77.323 122.254  0.00  0.00     0.028 C 
ATOM      5  C   LIG d   1     -16.961  78.520 121.770  0.00  0.00    -0.047 C 
ATOM      6  C   LIG d   1     -18.090  78.018 120.841  0.00  0.00     0.091 C 
ENDROOT
BRANCH   1   7
ATOM      7  O   LIG d   1     -18.577  76.368 119.097  0.00  0.00    -0.368 OA
BRANCH   7   8
ATOM      8  C   LIG d   1     -19.548  75.823 120.025  0.00  0.00     0.119 C 
BRANCH   8   9
ATOM      9  C   LIG d   1     -19.344  74.296 120.064  0.00  0.00     0.028 C 
ATOM     10  C   LIG d   1     -18.754  73.817 121.401  0.00  0.00     0.006 C 
ENDBRANCH   8   9
BRANCH   8  11
ATOM     11  C   LIG d   1     -20.979  76.029 119.520  0.00  0.00     0.028 C 
ATOM     12  C   LIG d   1     -21.738  74.707 119.326  0.00  0.00     0.006 C 
ENDBRANCH   8  11
ENDBRANCH   7   8
ENDBRANCH   1   7
BRANCH   6  13
ATOM     13  N   LIG d   1     -18.881  79.133 120.257  0.00  0.00    -0.311 N 
ATOM     14  C   LIG d   1     -20.038  79.555 120.763  0.00  0.00     0.210 C 
ATOM     15  C   LIG d   1     -20.699  80.704 119.995  0.00  0.00     0.109 C 
ATOM     16  O   LIG d   1     -20.563  79.109 121.794  0.00  0.00    -0.276 OA
ATOM     17  H   LIG d   1     -18.512  79.572 119.436  0.00  0.00     0.149 HD
ENDBRANCH   6  13
BRANCH   5  18
ATOM     18  N   LIG d   1     -17.465  79.227 122.962  0.00  0.00     0.381 N 
ATOM     19  H   LIG d   1     -17.913  80.079 122.687  0.00  0.00    -0.090 HD
ATOM     20  H   LIG d   1     -16.689  79.457 123.557  0.00  0.00    -0.090 HD
ATOM     21  H   LIG d   1     -18.110  78.649 123.455  0.00  0.00    -0.090 HD
ENDBRANCH   5  18
BRANCH   3  22
ATOM     22  C   LIG d   1     -14.527  75.792 121.380  0.00  0.00     0.382 C 
ATOM     23  O   LIG d   1     -13.547  76.038 120.636  0.00  0.00    -0.241 OA
ATOM     24  O   LIG d   1     -14.437  74.891 122.236  0.00  0.00    -0.241 OA
ENDBRANCH   3  22
TORSDOF 7
ENDMDL
MODEL 7
REMARK VINA RESULT:      -4.2     36.048     38.448
REMARK  7 active torsions:
REMARK  status: ('A' for Active; 'I' for Inactive)
REMARK    1  A    between atoms: C_2  and  C_3 
REMARK    2  A    between atoms: C_3  and  O_6 
REMARK    3  A    between atoms: C_3  and  C_4 
REMARK    4  A    between atoms: C_7  and  O_6 
REMARK    5  A    between atoms: C_9  and  C_10 
REMARK    6  A    between atoms: N_15  and  C_14 
REMARK    7  A    between atoms: N_20  and  C_19 
REMARK       I    between atoms: C_22  and  N_20 
ROOT
ATOM      1  C   LIG d   1      -5.312  94.713 121.007  0.00  0.00     0.161 C 
ATOM      2  C   LIG d   1      -3.941  94.464 120.829  0.00  0.00     0.016 C 
ATOM      3  C   LIG d   1      -3.432  93.566 119.863  0.00  0.00     0.038 C 
ATOM      4  C   LIG d   1      -4.257  92.965 118.901  0.00  0.00     0.028 C 
ATOM      5  C   LIG d   1      -5.701  92.795 119.363  0.00  0.00    -0.047 C 
ATOM      6  C   LIG d   1      -6.221  94.151 119.893  0.00  0.00     0.091 C 
ENDROOT
BRANCH   1   7
ATOM      7  O   LIG d   1      -5.534  96.127 121.169  0.00  0.00    -0.368 OA
BRANCH   7   8
ATOM      8  C   LIG d   1      -5.798  96.875 119.956  0.00  0.00     0.119 C 
BRANCH   8   9
ATOM      9  C   LIG d   1      -4.544  97.716 119.650  0.00  0.00     0.028 C 
ATOM     10  C   LIG d   1      -4.231  97.776 118.145  0.00  0.00     0.006 C 
ENDBRANCH   8   9
BRANCH   8  11
ATOM     11  C   LIG d   1      -6.927  97.889 120.161  0.00  0.00     0.028 C 
ATOM     12  C   LIG d   1      -7.935  97.901 119.001  0.00  0.00     0.006 C 
ENDBRANCH   8  11
ENDBRANCH   7   8
ENDBRANCH   1   7
BRANCH   6  13
ATOM     13  N   LIG d   1      -7.598  94.055 120.443  0.00  0.00    -0.311 N 
ATOM     14  C   LIG d   1      -8.693  94.292 119.723  0.00  0.00     0.210 C 
ATOM     15  C   LIG d   1     -10.013  94.155 120.489  0.00  0.00     0.109 C 
ATOM     16  O   LIG d   1      -8.698  94.570 118.515  0.00  0.00    -0.276 OA
ATOM     17  H   LIG d   1      -7.687  93.803 121.408  0.00  0.00     0.149 HD
ENDBRANCH   6  13
BRANCH   5  18
ATOM     18  N   LIG d   1      -6.478  92.286 118.218  0.00  0.00     0.381 N 
ATOM     19  H   LIG d   1      -7.339  92.790 118.142  0.00  0.00    -0.090 HD
ATOM     20  H   LIG d   1      -6.693  91.317 118.376  0.00  0.00    -0.090 HD
ATOM     21  H   LIG d   1      -5.952  92.385 117.378  0.00  0.00    -0.090 HD
ENDBRANCH   5  18
BRANCH   3  22
ATOM     22  C   LIG d   1      -2.086  93.229 119.879  0.00  0.00     0.382 C 
ATOM     23  O   LIG d   1      -1.742  92.023 119.898  0.00  0.00    -0.241 OA
ATOM     24  O   LIG d   1      -1.214  94.117 119.919  0.00  0.00    -0.241 OA
ENDBRANCH   3  22
TORSDOF 7
ENDMDL
MODEL 8
REMARK VINA RESULT:      -4.1     35.814     38.369
REMARK  7 active torsions:
REMARK  status: ('A' for Active; 'I' for Inactive)
REMARK    1  A    between atoms: C_2  and  C_3 
REMARK    2  A    between atoms: C_3  and  O_6 
REMARK    3  A    between atoms: C_3  and  C_4 
REMARK    4  A    between atoms: C_7  and  O_6 
REMARK    5  A    between atoms: C_9  and  C_10 
REMARK    6  A    between atoms: N_15  and  C_14 
REMARK    7  A    between atoms: N_20  and  C_19 
REMARK       I    between atoms: C_22  and  N_20 
ROOT
ATOM      1  C   LIG d   1      -5.107  94.533 120.272  0.00  0.00     0.161 C 
ATOM      2  C   LIG d   1      -6.278  94.057 119.660  0.00  0.00     0.016 C 
ATOM      3  C   LIG d   1      -7.332  94.899 119.236  0.00  0.00     0.038 C 
ATOM      4  C   LIG d   1      -7.219  96.297 119.260  0.00  0.00     0.028 C 
ATOM      5  C   LIG d   1      -6.265  96.810 120.334  0.00  0.00    -0.047 C 
ATOM      6  C   LIG d   1      -4.918  96.063 120.206  0.00  0.00     0.091 C 
ENDROOT
BRANCH   1   7
ATOM      7  O   LIG d   1      -3.958  93.862 119.718  0.00  0.00    -0.368 OA
BRANCH   7   8
ATOM      8  C   LIG d   1      -3.476  92.711 120.454  0.00  0.00     0.119 C 
BRANCH   8   9
ATOM      9  C   LIG d   1      -2.179  93.131 121.173  0.00  0.00     0.028 C 
ATOM     10  C   LIG d   1      -1.145  93.740 120.210  0.00  0.00     0.006 C 
ENDBRANCH   8   9
BRANCH   8  11
ATOM     11  C   LIG d   1      -3.067  91.577 119.510  0.00  0.00     0.028 C 
ATOM     12  C   LIG d   1      -3.526  91.812 118.062  0.00  0.00     0.006 C 
ENDBRANCH   8  11
ENDBRANCH   7   8
ENDBRANCH   1   7
BRANCH   6  13
ATOM     13  N   LIG d   1      -3.955  96.444 121.272  0.00  0.00    -0.311 N 
ATOM     14  C   LIG d   1      -2.746  96.945 121.023  0.00  0.00     0.210 C 
ATOM     15  C   LIG d   1      -1.905  97.252 122.266  0.00  0.00     0.109 C 
ATOM     16  O   LIG d   1      -2.304  97.196 119.892  0.00  0.00    -0.276 OA
ATOM     17  H   LIG d   1      -4.245  96.303 122.220  0.00  0.00     0.149 HD
ENDBRANCH   6  13
BRANCH   5  18
ATOM     18  N   LIG d   1      -6.137  98.268 120.157  0.00  0.00     0.381 N 
ATOM     19  H   LIG d   1      -5.494  98.464 119.416  0.00  0.00    -0.090 HD
ATOM     20  H   LIG d   1      -5.773  98.668 121.004  0.00  0.00    -0.090 HD
ATOM     21  H   LIG d   1      -7.026  98.666 119.949  0.00  0.00    -0.090 HD
ENDBRANCH   5  18
BRANCH   3  22
ATOM     22  C   LIG d   1      -8.531  94.342 118.819  0.00  0.00     0.382 C 
ATOM     23  O   LIG d   1      -8.679  93.995 117.622  0.00  0.00    -0.241 OA
ATOM     24  O   LIG d   1      -9.483  94.223 119.614  0.00  0.00    -0.241 OA
ENDBRANCH   3  22
TORSDOF 7
ENDMDL
MODEL 9
REMARK VINA RESULT:      -4.1     13.442     16.317
REMARK  7 active torsions:
REMARK  status: ('A' for Active; 'I' for Inactive)
REMARK    1  A    between atoms: C_2  and  C_3 
REMARK    2  A    between atoms: C_3  and  O_6 
REMARK    3  A    between atoms: C_3  and  C_4 
REMARK    4  A    between atoms: C_7  and  O_6 
REMARK    5  A    between atoms: C_9  and  C_10 
REMARK    6  A    between atoms: N_15  and  C_14 
REMARK    7  A    between atoms: N_20  and  C_19 
REMARK       I    between atoms: C_22  and  N_20 
ROOT
ATOM      1  C   LIG d   1     -13.099  65.848 122.229  0.00  0.00     0.161 C 
ATOM      2  C   LIG d   1     -12.068  65.192 122.922  0.00  0.00     0.016 C 
ATOM      3  C   LIG d   1     -11.590  63.908 122.572  0.00  0.00     0.038 C 
ATOM      4  C   LIG d   1     -12.011  63.253 121.406  0.00  0.00     0.028 C 
ATOM      5  C   LIG d   1     -13.412  63.655 120.957  0.00  0.00    -0.047 C 
ATOM      6  C   LIG d   1     -13.493  65.197 120.887  0.00  0.00     0.091 C 
ENDROOT
BRANCH   1   7
ATOM      7  O   LIG d   1     -12.750  67.233 122.030  0.00  0.00    -0.368 OA
BRANCH   7   8
ATOM      8  C   LIG d   1     -13.533  68.200 122.772  0.00  0.00     0.119 C 
BRANCH   8   9
ATOM      9  C   LIG d   1     -14.176  69.158 121.750  0.00  0.00     0.028 C 
ATOM     10  C   LIG d   1     -14.447  70.551 122.341  0.00  0.00     0.006 C 
ENDBRANCH   8   9
BRANCH   8  11
ATOM     11  C   LIG d   1     -12.642  69.083 123.650  0.00  0.00     0.028 C 
ATOM     12  C   LIG d   1     -12.251  68.406 124.974  0.00  0.00     0.006 C 
ENDBRANCH   8  11
ENDBRANCH   7   8
ENDBRANCH   1   7
BRANCH   6  13
ATOM     13  N   LIG d   1     -14.856  65.677 120.537  0.00  0.00    -0.311 N 
ATOM     14  C   LIG d   1     -15.121  66.401 119.451  0.00  0.00     0.210 C 
ATOM     15  C   LIG d   1     -16.589  66.809 119.289  0.00  0.00     0.109 C 
ATOM     16  O   LIG d   1     -14.286  66.717 118.590  0.00  0.00    -0.276 OA
ATOM     17  H   LIG d   1     -15.598  65.439 121.165  0.00  0.00     0.149 HD
ENDBRANCH   6  13
BRANCH   5  18
ATOM     18  N   LIG d   1     -13.668  63.003 119.658  0.00  0.00     0.381 N 
ATOM     19  H   LIG d   1     -13.242  63.532 118.924  0.00  0.00    -0.090 HD
ATOM     20  H   LIG d   1     -14.659  62.979 119.497  0.00  0.00    -0.090 HD
ATOM     21  H   LIG d   1     -13.302  62.076 119.664  0.00  0.00    -0.090 HD
ENDBRANCH   5  18
BRANCH   3  22
ATOM     22  C   LIG d   1     -10.709  63.250 123.417  0.00  0.00     0.382 C 
ATOM     23  O   LIG d   1      -9.472  63.411 123.282  0.00  0.00    -0.241 OA
ATOM     24  O   LIG d   1     -11.134  62.461 124.283  0.00  0.00    -0.241 OA
ENDBRANCH   3  22
TORSDOF 7
ENDMDL
