MODEL 1
REMARK VINA RESULT:      -4.6      0.000      0.000
REMARK  7 active torsions:
REMARK  status: ('A' for Active; 'I' for Inactive)
REMARK    1  A    between atoms: C_2  and  C_3 
REMARK    2  A    between atoms: C_3  and  O_6 
REMARK    3  A    between atoms: C_3  and  C_4 
REMARK    4  A    between atoms: C_7  and  O_6 
REMARK    5  A    between atoms: C_9  and  C_10 
REMARK    6  A    between atoms: N_15  and  C_14 
REMARK    7  A    between atoms: N_20  and  C_19 
REMARK       I    between atoms: C_22  and  N_20 
ROOT
ATOM      1  C   LIG d   1      -1.014  60.284 118.782  0.00  0.00     0.161 C 
ATOM      2  C   LIG d   1      -2.318  59.896 118.432  0.00  0.00     0.016 C 
ATOM      3  C   LIG d   1      -2.658  58.583 118.034  0.00  0.00     0.038 C 
ATOM      4  C   LIG d   1      -1.739  57.525 118.104  0.00  0.00     0.028 C 
ATOM      5  C   LIG d   1      -0.288  57.973 117.968  0.00  0.00    -0.047 C 
ATOM      6  C   LIG d   1      -0.021  59.118 118.972  0.00  0.00     0.091 C 
ENDROOT
BRANCH   1   7
ATOM      7  O   LIG d   1      -1.050  61.108 119.964  0.00  0.00    -0.368 OA
BRANCH   7   8
ATOM      8  C   LIG d   1      -1.012  60.407 121.232  0.00  0.00     0.119 C 
BRANCH   8   9
ATOM      9  C   LIG d   1      -2.305  60.756 121.993  0.00  0.00     0.028 C 
ATOM     10  C   LIG d   1      -3.356  59.636 121.909  0.00  0.00     0.006 C 
ENDBRANCH   8   9
BRANCH   8  11
ATOM     11  C   LIG d   1       0.130  60.917 122.116  0.00  0.00     0.028 C 
ATOM     12  C   LIG d   1       0.309  60.085 123.396  0.00  0.00     0.006 C 
ENDBRANCH   8  11
ENDBRANCH   7   8
ENDBRANCH   1   7
BRANCH   6  13
ATOM     13  N   LIG d   1       1.353  59.673 118.847  0.00  0.00    -0.311 N 
ATOM     14  C   LIG d   1       2.368  59.299 119.624  0.00  0.00     0.210 C 
ATOM     15  C   LIG d   1       3.695  60.009 119.340  0.00  0.00     0.109 C 
ATOM     16  O   LIG d   1       2.302  58.423 120.500  0.00  0.00    -0.276 OA
ATOM     17  H   LIG d   1       1.502  60.366 118.140  0.00  0.00     0.149 HD
ENDBRANCH   6  13
BRANCH   5  18
ATOM     18  N   LIG d   1       0.566  56.793 118.197  0.00  0.00     0.381 N 
ATOM     19  H   LIG d   1       0.261  56.036 117.618  0.00  0.00    -0.090 HD
ATOM     20  H   LIG d   1       0.479  56.510 119.157  0.00  0.00    -0.090 HD
ATOM     21  H   LIG d   1       1.516  57.014 117.993  0.00  0.00    -0.090 HD
ENDBRANCH   5  18
BRANCH   3  22
ATOM     22  C   LIG d   1      -3.920  58.326 117.520  0.00  0.00     0.382 C 
ATOM     23  O   LIG d   1      -4.725  59.270 117.334  0.00  0.00    -0.241 OA
ATOM     24  O   LIG d   1      -4.280  57.158 117.283  0.00  0.00    -0.241 OA
ENDBRANCH   3  22
TORSDOF 7
ENDMDL
MODEL 2
REMARK VINA RESULT:      -4.5     35.064     36.629
REMARK  7 active torsions:
REMARK  status: ('A' for Active; 'I' for Inactive)
REMARK    1  A    between atoms: C_2  and  C_3 
REMARK    2  A    between atoms: C_3  and  O_6 
REMARK    3  A    between atoms: C_3  and  C_4 
REMARK    4  A    between atoms: C_7  and  O_6 
REMARK    5  A    between atoms: C_9  and  C_10 
REMARK    6  A    between atoms: N_15  and  C_14 
REMARK    7  A    between atoms: N_20  and  C_19 
REMARK       I    between atoms: C_22  and  N_20 
ROOT
ATOM      1  C   LIG d   1      -5.424  95.136 120.391  0.00  0.00     0.161 C 
ATOM      2  C   LIG d   1      -6.516  94.253 120.420  0.00  0.00     0.016 C 
ATOM      3  C   LIG d   1      -7.856  94.667 120.247  0.00  0.00     0.038 C 
ATOM      4  C   LIG d   1      -8.185  95.981 119.879  0.00  0.00     0.028 C 
ATOM      5  C   LIG d   1      -7.158  97.012 120.334  0.00  0.00    -0.047 C 
ATOM      6  C   LIG d   1      -5.752  96.555 119.880  0.00  0.00     0.091 C 
ENDROOT
BRANCH   1   7
ATOM      7  O   LIG d   1      -4.352  94.561 119.617  0.00  0.00    -0.368 OA
BRANCH   7   8
ATOM      8  C   LIG d   1      -3.438  93.698 120.337  0.00  0.00     0.119 C 
BRANCH   8   9
ATOM      9  C   LIG d   1      -2.271  94.573 120.835  0.00  0.00     0.028 C 
ATOM     10  C   LIG d   1      -0.921  93.838 120.777  0.00  0.00     0.006 C 
ENDBRANCH   8   9
BRANCH   8  11
ATOM     11  C   LIG d   1      -2.800  92.662 119.407  0.00  0.00     0.028 C 
ATOM     12  C   LIG d   1      -3.530  91.310 119.432  0.00  0.00     0.006 C 
ENDBRANCH   8  11
ENDBRANCH   7   8
ENDBRANCH   1   7
BRANCH   6  13
ATOM     13  N   LIG d   1      -4.679  97.464 120.357  0.00  0.00    -0.311 N 
ATOM     14  C   LIG d   1      -4.151  98.431 119.609  0.00  0.00     0.210 C 
ATOM     15  C   LIG d   1      -3.041  99.241 120.287  0.00  0.00     0.109 C 
ATOM     16  O   LIG d   1      -4.518  98.716 118.459  0.00  0.00    -0.276 OA
ATOM     17  H   LIG d   1      -4.343  97.324 121.290  0.00  0.00     0.149 HD
ENDBRANCH   6  13
BRANCH   5  18
ATOM     18  N   LIG d   1      -7.553  98.315 119.767  0.00  0.00     0.381 N 
ATOM     19  H   LIG d   1      -8.102  98.173 118.942  0.00  0.00    -0.090 HD
ATOM     20  H   LIG d   1      -6.724  98.823 119.510  0.00  0.00    -0.090 HD
ATOM     21  H   LIG d   1      -8.075  98.834 120.437  0.00  0.00    -0.090 HD
ENDBRANCH   5  18
BRANCH   3  22
ATOM     22  C   LIG d   1      -8.888  93.772 120.481  0.00  0.00     0.382 C 
ATOM     23  O   LIG d   1      -9.774  93.594 119.610  0.00  0.00    -0.241 OA
ATOM     24  O   LIG d   1      -8.970  93.172 121.570  0.00  0.00    -0.241 OA
ENDBRANCH   3  22
TORSDOF 7
ENDMDL
MODEL 3
REMARK VINA RESULT:      -4.4     22.444     24.265
REMARK  7 active torsions:
REMARK  status: ('A' for Active; 'I' for Inactive)
REMARK    1  A    between atoms: C_2  and  C_3 
REMARK    2  A    between atoms: C_3  and  O_6 
REMARK    3  A    between atoms: C_3  and  C_4 
REMARK    4  A    between atoms: C_7  and  O_6 
REMARK    5  A    between atoms: C_9  and  C_10 
REMARK    6  A    between atoms: N_15  and  C_14 
REMARK    7  A    between atoms: N_20  and  C_19 
REMARK       I    between atoms: C_22  and  N_20 
ROOT
ATOM      1  C   LIG d   1      -8.379  81.650 120.914  0.00  0.00     0.161 C 
ATOM      2  C   LIG d   1      -8.630  82.926 121.445  0.00  0.00     0.016 C 
ATOM      3  C   LIG d   1      -9.512  83.857 120.848  0.00  0.00     0.038 C 
ATOM      4  C   LIG d   1     -10.323  83.515 119.756  0.00  0.00     0.028 C 
ATOM      5  C   LIG d   1      -9.732  82.412 118.885  0.00  0.00    -0.047 C 
ATOM      6  C   LIG d   1      -9.338  81.219 119.785  0.00  0.00     0.091 C 
ENDROOT
BRANCH   1   7
ATOM      7  O   LIG d   1      -8.379  80.672 121.973  0.00  0.00    -0.368 OA
BRANCH   7   8
ATOM      8  C   LIG d   1      -9.642  80.010 122.229  0.00  0.00     0.119 C 
BRANCH   8   9
ATOM      9  C   LIG d   1     -10.142  80.484 123.608  0.00  0.00     0.028 C 
ATOM     10  C   LIG d   1     -11.448  81.292 123.513  0.00  0.00     0.006 C 
ENDBRANCH   8   9
BRANCH   8  11
ATOM     11  C   LIG d   1      -9.461  78.495 122.362  0.00  0.00     0.028 C 
ATOM     12  C   LIG d   1     -10.754  77.714 122.082  0.00  0.00     0.006 C 
ENDBRANCH   8  11
ENDBRANCH   7   8
ENDBRANCH   1   7
BRANCH   6  13
ATOM     13  N   LIG d   1      -8.675  80.128 119.024  0.00  0.00    -0.311 N 
ATOM     14  C   LIG d   1      -9.314  79.044 118.589  0.00  0.00     0.210 C 
ATOM     15  C   LIG d   1      -8.438  78.033 117.842  0.00  0.00     0.109 C 
ATOM     16  O   LIG d   1     -10.529  78.837 118.724  0.00  0.00    -0.276 OA
ATOM     17  H   LIG d   1      -7.695  80.229 118.843  0.00  0.00     0.149 HD
ENDBRANCH   6  13
BRANCH   5  18
ATOM     18  N   LIG d   1     -10.740  82.060 117.867  0.00  0.00     0.381 N 
ATOM     19  H   LIG d   1     -10.826  82.805 117.204  0.00  0.00    -0.090 HD
ATOM     20  H   LIG d   1     -11.628  81.935 118.319  0.00  0.00    -0.090 HD
ATOM     21  H   LIG d   1     -10.475  81.220 117.401  0.00  0.00    -0.090 HD
ENDBRANCH   5  18
BRANCH   3  22
ATOM     22  C   LIG d   1      -9.559  85.160 121.322  0.00  0.00     0.382 C 
ATOM     23  O   LIG d   1      -8.499  85.820 121.446  0.00  0.00    -0.241 OA
ATOM     24  O   LIG d   1     -10.642  85.667 121.668  0.00  0.00    -0.241 OA
ENDBRANCH   3  22
TORSDOF 7
ENDMDL
MODEL 4
REMARK VINA RESULT:      -4.3      1.744      5.138
REMARK  7 active torsions:
REMARK  status: ('A' for Active; 'I' for Inactive)
REMARK    1  A    between atoms: C_2  and  C_3 
REMARK    2  A    between atoms: C_3  and  O_6 
REMARK    3  A    between atoms: C_3  and  C_4 
REMARK    4  A    between atoms: C_7  and  O_6 
REMARK    5  A    between atoms: C_9  and  C_10 
REMARK    6  A    between atoms: N_15  and  C_14 
REMARK    7  A    between atoms: N_20  and  C_19 
REMARK       I    between atoms: C_22  and  N_20 
ROOT
ATOM      1  C   LIG d   1      -0.244  60.117 120.986  0.00  0.00     0.161 C 
ATOM      2  C   LIG d   1       1.105  60.206 121.367  0.00  0.00     0.016 C 
ATOM      3  C   LIG d   1       2.176  59.792 120.542  0.00  0.00     0.038 C 
ATOM      4  C   LIG d   1       1.977  59.399 119.211  0.00  0.00     0.028 C 
ATOM      5  C   LIG d   1       0.592  58.815 118.952  0.00  0.00    -0.047 C 
ATOM      6  C   LIG d   1      -0.474  59.794 119.495  0.00  0.00     0.091 C 
ENDROOT
BRANCH   1   7
ATOM      7  O   LIG d   1      -0.935  61.328 121.349  0.00  0.00    -0.368 OA
BRANCH   7   8
ATOM      8  C   LIG d   1      -1.846  61.231 122.472  0.00  0.00     0.119 C 
BRANCH   8   9
ATOM      9  C   LIG d   1      -1.126  61.814 123.703  0.00  0.00     0.028 C 
ATOM     10  C   LIG d   1      -0.400  63.132 123.388  0.00  0.00     0.006 C 
ENDBRANCH   8   9
BRANCH   8  11
ATOM     11  C   LIG d   1      -2.138  59.770 122.827  0.00  0.00     0.028 C 
ATOM     12  C   LIG d   1      -3.594  59.367 122.544  0.00  0.00     0.006 C 
ENDBRANCH   8  11
ENDBRANCH   7   8
ENDBRANCH   1   7
BRANCH   6  13
ATOM     13  N   LIG d   1      -1.855  59.261 119.358  0.00  0.00    -0.311 N 
ATOM     14  C   LIG d   1      -2.656  59.553 118.335  0.00  0.00     0.210 C 
ATOM     15  C   LIG d   1      -4.046  58.914 118.399  0.00  0.00     0.109 C 
ATOM     16  O   LIG d   1      -2.335  60.255 117.364  0.00  0.00    -0.276 OA
ATOM     17  H   LIG d   1      -2.185  58.657 120.086  0.00  0.00     0.149 HD
ENDBRANCH   6  13
BRANCH   5  18
ATOM     18  N   LIG d   1       0.473  58.576 117.501  0.00  0.00     0.381 N 
ATOM     19  H   LIG d   1       1.361  58.711 117.062  0.00  0.00    -0.090 HD
ATOM     20  H   LIG d   1      -0.175  59.240 117.115  0.00  0.00    -0.090 HD
ATOM     21  H   LIG d   1       0.149  57.649 117.334  0.00  0.00    -0.090 HD
ENDBRANCH   5  18
BRANCH   3  22
ATOM     22  C   LIG d   1       3.460  59.732 121.062  0.00  0.00     0.382 C 
ATOM     23  O   LIG d   1       3.686  60.146 122.224  0.00  0.00    -0.241 OA
ATOM     24  O   LIG d   1       4.404  59.309 120.367  0.00  0.00    -0.241 OA
ENDBRANCH   3  22
TORSDOF 7
ENDMDL
MODEL 5
REMARK VINA RESULT:      -4.3     35.822     37.307
REMARK  7 active torsions:
REMARK  status: ('A' for Active; 'I' for Inactive)
REMARK    1  A    between atoms: C_2  and  C_3 
REMARK    2  A    between atoms: C_3  and  O_6 
REMARK    3  A    between atoms: C_3  and  C_4 
REMARK    4  A    between atoms: C_7  and  O_6 
REMARK    5  A    between atoms: C_9  and  C_10 
REMARK    6  A    between atoms: N_15  and  C_14 
REMARK    7  A    between atoms: N_20  and  C_19 
REMARK       I    between atoms: C_22  and  N_20 
ROOT
ATOM      1  C   LIG d   1      -5.095  96.217 119.300  0.00  0.00     0.161 C 
ATOM      2  C   LIG d   1      -6.193  97.082 119.442  0.00  0.00     0.016 C 
ATOM      3  C   LIG d   1      -7.426  96.688 120.010  0.00  0.00     0.038 C 
ATOM      4  C   LIG d   1      -7.596  95.434 120.617  0.00  0.00     0.028 C 
ATOM      5  C   LIG d   1      -6.680  94.357 120.047  0.00  0.00    -0.047 C 
ATOM      6  C   LIG d   1      -5.225  94.879 120.057  0.00  0.00     0.091 C 
ENDROOT
BRANCH   1   7
ATOM      7  O   LIG d   1      -3.885  96.897 119.688  0.00  0.00    -0.368 OA
BRANCH   7   8
ATOM      8  C   LIG d   1      -4.037  97.974 120.644  0.00  0.00     0.119 C 
BRANCH   8   9
ATOM      9  C   LIG d   1      -3.189  99.160 120.145  0.00  0.00     0.028 C 
ATOM     10  C   LIG d   1      -3.947 100.040 119.137  0.00  0.00     0.006 C 
ENDBRANCH   8   9
BRANCH   8  11
ATOM     11  C   LIG d   1      -3.445  97.598 122.006  0.00  0.00     0.028 C 
ATOM     12  C   LIG d   1      -4.471  96.936 122.939  0.00  0.00     0.006 C 
ENDBRANCH   8  11
ENDBRANCH   7   8
ENDBRANCH   1   7
BRANCH   6  13
ATOM     13  N   LIG d   1      -4.274  93.918 119.438  0.00  0.00    -0.311 N 
ATOM     14  C   LIG d   1      -3.187  93.461 120.058  0.00  0.00     0.210 C 
ATOM     15  C   LIG d   1      -2.331  92.494 119.233  0.00  0.00     0.109 C 
ATOM     16  O   LIG d   1      -2.868  93.738 121.224  0.00  0.00    -0.276 OA
ATOM     17  H   LIG d   1      -4.473  93.616 118.505  0.00  0.00     0.149 HD
ENDBRANCH   6  13
BRANCH   5  18
ATOM     18  N   LIG d   1      -6.863  93.140 120.861  0.00  0.00     0.381 N 
ATOM     19  H   LIG d   1      -6.014  92.924 121.344  0.00  0.00    -0.090 HD
ATOM     20  H   LIG d   1      -7.083  92.372 120.252  0.00  0.00    -0.090 HD
ATOM     21  H   LIG d   1      -7.601  93.276 121.516  0.00  0.00    -0.090 HD
ENDBRANCH   5  18
BRANCH   3  22
ATOM     22  C   LIG d   1      -8.519  97.538 119.939  0.00  0.00     0.382 C 
ATOM     23  O   LIG d   1      -9.526  97.326 120.657  0.00  0.00    -0.241 OA
ATOM     24  O   LIG d   1      -8.528  98.489 119.134  0.00  0.00    -0.241 OA
ENDBRANCH   3  22
TORSDOF 7
ENDMDL
MODEL 6
REMARK VINA RESULT:      -4.3     22.994     25.079
REMARK  7 active torsions:
REMARK  status: ('A' for Active; 'I' for Inactive)
REMARK    1  A    between atoms: C_2  and  C_3 
REMARK    2  A    between atoms: C_3  and  O_6 
REMARK    3  A    between atoms: C_3  and  C_4 
REMARK    4  A    between atoms: C_7  and  O_6 
REMARK    5  A    between atoms: C_9  and  C_10 
REMARK    6  A    between atoms: N_15  and  C_14 
REMARK    7  A    between atoms: N_20  and  C_19 
REMARK       I    between atoms: C_22  and  N_20 
ROOT
ATOM      1  C   LIG d   1     -17.385  76.982 119.873  0.00  0.00     0.161 C 
ATOM      2  C   LIG d   1     -16.410  76.042 120.247  0.00  0.00     0.016 C 
ATOM      3  C   LIG d   1     -15.675  76.121 121.452  0.00  0.00     0.038 C 
ATOM      4  C   LIG d   1     -15.974  77.069 122.443  0.00  0.00     0.028 C 
ATOM      5  C   LIG d   1     -16.605  78.343 121.891  0.00  0.00    -0.047 C 
ATOM      6  C   LIG d   1     -17.802  77.961 120.991  0.00  0.00     0.091 C 
ENDROOT
BRANCH   1   7
ATOM      7  O   LIG d   1     -18.541  76.304 119.344  0.00  0.00    -0.368 OA
BRANCH   7   8
ATOM      8  C   LIG d   1     -19.504  75.832 120.318  0.00  0.00     0.119 C 
BRANCH   8   9
ATOM      9  C   LIG d   1     -19.543  74.294 120.224  0.00  0.00     0.028 C 
ATOM     10  C   LIG d   1     -18.866  73.616 121.427  0.00  0.00     0.006 C 
ENDBRANCH   8   9
BRANCH   8  11
ATOM     11  C   LIG d   1     -20.922  76.295 119.969  0.00  0.00     0.028 C 
ATOM     12  C   LIG d   1     -21.888  75.124 119.726  0.00  0.00     0.006 C 
ENDBRANCH   8  11
ENDBRANCH   7   8
ENDBRANCH   1   7
BRANCH   6  13
ATOM     13  N   LIG d   1     -18.425  79.144 120.344  0.00  0.00    -0.311 N 
ATOM     14  C   LIG d   1     -19.508  79.756 120.821  0.00  0.00     0.210 C 
ATOM     15  C   LIG d   1     -19.998  80.945 119.988  0.00  0.00     0.109 C 
ATOM     16  O   LIG d   1     -20.090  79.447 121.871  0.00  0.00    -0.276 OA
ATOM     17  H   LIG d   1     -17.999  79.481 119.503  0.00  0.00     0.149 HD
ENDBRANCH   6  13
BRANCH   5  18
ATOM     18  N   LIG d   1     -16.990  79.183 123.040  0.00  0.00     0.381 N 
ATOM     19  H   LIG d   1     -17.972  79.372 123.008  0.00  0.00    -0.090 HD
ATOM     20  H   LIG d   1     -16.499  80.058 122.982  0.00  0.00    -0.090 HD
ATOM     21  H   LIG d   1     -16.761  78.721 123.892  0.00  0.00    -0.090 HD
ENDBRANCH   5  18
BRANCH   3  22
ATOM     22  C   LIG d   1     -14.601  75.269 121.659  0.00  0.00     0.382 C 
ATOM     23  O   LIG d   1     -13.597  75.333 120.910  0.00  0.00    -0.241 OA
ATOM     24  O   LIG d   1     -14.642  74.407 122.557  0.00  0.00    -0.241 OA
ENDBRANCH   3  22
TORSDOF 7
ENDMDL
MODEL 7
REMARK VINA RESULT:      -4.2     22.517     24.065
REMARK  7 active torsions:
REMARK  status: ('A' for Active; 'I' for Inactive)
REMARK    1  A    between atoms: C_2  and  C_3 
REMARK    2  A    between atoms: C_3  and  O_6 
REMARK    3  A    between atoms: C_3  and  C_4 
REMARK    4  A    between atoms: C_7  and  O_6 
REMARK    5  A    between atoms: C_9  and  C_10 
REMARK    6  A    between atoms: N_15  and  C_14 
REMARK    7  A    between atoms: N_20  and  C_19 
REMARK       I    between atoms: C_22  and  N_20 
ROOT
ATOM      1  C   LIG d   1      -7.438  81.874 119.238  0.00  0.00     0.161 C 
ATOM      2  C   LIG d   1      -7.735  80.559 118.844  0.00  0.00     0.016 C 
ATOM      3  C   LIG d   1      -9.007  80.155 118.379  0.00  0.00     0.038 C 
ATOM      4  C   LIG d   1     -10.034  81.078 118.132  0.00  0.00     0.028 C 
ATOM      5  C   LIG d   1      -9.939  82.333 118.993  0.00  0.00    -0.047 C 
ATOM      6  C   LIG d   1      -8.513  82.918 118.872  0.00  0.00     0.091 C 
ENDROOT
BRANCH   1   7
ATOM      7  O   LIG d   1      -6.157  82.266 118.707  0.00  0.00    -0.368 OA
BRANCH   7   8
ATOM      8  C   LIG d   1      -5.036  82.190 119.622  0.00  0.00     0.119 C 
BRANCH   8   9
ATOM      9  C   LIG d   1      -4.570  83.631 119.904  0.00  0.00     0.028 C 
ATOM     10  C   LIG d   1      -4.730  84.021 121.383  0.00  0.00     0.006 C 
ENDBRANCH   8   9
BRANCH   8  11
ATOM     11  C   LIG d   1      -3.835  81.494 118.975  0.00  0.00     0.028 C 
ATOM     12  C   LIG d   1      -3.519  82.034 117.571  0.00  0.00     0.006 C 
ENDBRANCH   8  11
ENDBRANCH   7   8
ENDBRANCH   1   7
BRANCH   6  13
ATOM     13  N   LIG d   1      -8.309  84.101 119.748  0.00  0.00    -0.311 N 
ATOM     14  C   LIG d   1      -8.474  84.071 121.069  0.00  0.00     0.210 C 
ATOM     15  C   LIG d   1      -8.232  85.406 121.781  0.00  0.00     0.109 C 
ATOM     16  O   LIG d   1      -8.767  83.059 121.723  0.00  0.00    -0.276 OA
ATOM     17  H   LIG d   1      -8.041  84.957 119.304  0.00  0.00     0.149 HD
ENDBRANCH   6  13
BRANCH   5  18
ATOM     18  N   LIG d   1     -10.987  83.266 118.537  0.00  0.00     0.381 N 
ATOM     19  H   LIG d   1     -11.297  83.007 117.622  0.00  0.00    -0.090 HD
ATOM     20  H   LIG d   1     -10.599  84.192 118.488  0.00  0.00    -0.090 HD
ATOM     21  H   LIG d   1     -11.755  83.253 119.171  0.00  0.00    -0.090 HD
ENDBRANCH   5  18
BRANCH   3  22
ATOM     22  C   LIG d   1      -9.275  78.807 118.193  0.00  0.00     0.382 C 
ATOM     23  O   LIG d   1      -8.349  78.022 117.873  0.00  0.00    -0.241 OA
ATOM     24  O   LIG d   1     -10.438  78.373 118.298  0.00  0.00    -0.241 OA
ENDBRANCH   3  22
TORSDOF 7
ENDMDL
MODEL 8
REMARK VINA RESULT:      -4.2     12.924     15.351
REMARK  7 active torsions:
REMARK  status: ('A' for Active; 'I' for Inactive)
REMARK    1  A    between atoms: C_2  and  C_3 
REMARK    2  A    between atoms: C_3  and  O_6 
REMARK    3  A    between atoms: C_3  and  C_4 
REMARK    4  A    between atoms: C_7  and  O_6 
REMARK    5  A    between atoms: C_9  and  C_10 
REMARK    6  A    between atoms: N_15  and  C_14 
REMARK    7  A    between atoms: N_20  and  C_19 
REMARK       I    between atoms: C_22  and  N_20 
ROOT
ATOM      1  C   LIG d   1     -14.555  65.263 121.533  0.00  0.00     0.161 C 
ATOM      2  C   LIG d   1     -13.435  65.158 122.375  0.00  0.00     0.016 C 
ATOM      3  C   LIG d   1     -12.321  64.336 122.089  0.00  0.00     0.038 C 
ATOM      4  C   LIG d   1     -12.183  63.674 120.860  0.00  0.00     0.028 C 
ATOM      5  C   LIG d   1     -13.516  63.350 120.194  0.00  0.00    -0.047 C 
ATOM      6  C   LIG d   1     -14.373  64.635 120.135  0.00  0.00     0.091 C 
ENDROOT
BRANCH   1   7
ATOM      7  O   LIG d   1     -14.949  66.644 121.414  0.00  0.00    -0.368 OA
BRANCH   7   8
ATOM      8  C   LIG d   1     -14.308  67.402 120.359  0.00  0.00     0.119 C 
BRANCH   8   9
ATOM      9  C   LIG d   1     -13.536  68.558 121.022  0.00  0.00     0.028 C 
ATOM     10  C   LIG d   1     -14.070  68.892 122.425  0.00  0.00     0.006 C 
ENDBRANCH   8   9
BRANCH   8  11
ATOM     11  C   LIG d   1     -15.340  68.073 119.448  0.00  0.00     0.028 C 
ATOM     12  C   LIG d   1     -16.784  67.870 119.934  0.00  0.00     0.006 C 
ENDBRANCH   8  11
ENDBRANCH   7   8
ENDBRANCH   1   7
BRANCH   6  13
ATOM     13  N   LIG d   1     -15.727  64.388 119.574  0.00  0.00    -0.311 N 
ATOM     14  C   LIG d   1     -16.023  64.530 118.283  0.00  0.00     0.210 C 
ATOM     15  C   LIG d   1     -17.484  64.244 117.920  0.00  0.00     0.109 C 
ATOM     16  O   LIG d   1     -15.208  64.834 117.400  0.00  0.00    -0.276 OA
ATOM     17  H   LIG d   1     -16.443  64.107 120.216  0.00  0.00     0.149 HD
ENDBRANCH   6  13
BRANCH   5  18
ATOM     18  N   LIG d   1     -13.224  62.788 118.862  0.00  0.00     0.381 N 
ATOM     19  H   LIG d   1     -13.733  63.291 118.163  0.00  0.00    -0.090 HD
ATOM     20  H   LIG d   1     -13.523  61.829 118.841  0.00  0.00    -0.090 HD
ATOM     21  H   LIG d   1     -12.247  62.842 118.676  0.00  0.00    -0.090 HD
ENDBRANCH   5  18
BRANCH   3  22
ATOM     22  C   LIG d   1     -11.347  64.138 123.056  0.00  0.00     0.382 C 
ATOM     23  O   LIG d   1     -11.552  64.508 124.238  0.00  0.00    -0.241 OA
ATOM     24  O   LIG d   1     -10.249  63.635 122.753  0.00  0.00    -0.241 OA
ENDBRANCH   3  22
TORSDOF 7
ENDMDL
MODEL 9
REMARK VINA RESULT:      -4.1     34.668     36.384
REMARK  7 active torsions:
REMARK  status: ('A' for Active; 'I' for Inactive)
REMARK    1  A    between atoms: C_2  and  C_3 
REMARK    2  A    between atoms: C_3  and  O_6 
REMARK    3  A    between atoms: C_3  and  C_4 
REMARK    4  A    between atoms: C_7  and  O_6 
REMARK    5  A    between atoms: C_9  and  C_10 
REMARK    6  A    between atoms: N_15  and  C_14 
REMARK    7  A    between atoms: N_20  and  C_19 
REMARK       I    between atoms: C_22  and  N_20 
ROOT
ATOM      1  C   LIG d   1      -5.142  95.233 120.249  0.00  0.00     0.161 C 
ATOM      2  C   LIG d   1      -3.783  94.931 120.061  0.00  0.00     0.016 C 
ATOM      3  C   LIG d   1      -3.218  93.670 120.359  0.00  0.00     0.038 C 
ATOM      4  C   LIG d   1      -4.009  92.571 120.726  0.00  0.00     0.028 C 
ATOM      5  C   LIG d   1      -5.312  92.965 121.414  0.00  0.00    -0.047 C 
ATOM      6  C   LIG d   1      -6.041  94.014 120.543  0.00  0.00     0.091 C 
ENDROOT
BRANCH   1   7
ATOM      7  O   LIG d   1      -5.643  95.961 119.110  0.00  0.00    -0.368 OA
BRANCH   7   8
ATOM      8  C   LIG d   1      -5.845  97.383 119.301  0.00  0.00     0.119 C 
BRANCH   8   9
ATOM      9  C   LIG d   1      -4.541  98.095 118.891  0.00  0.00     0.028 C 
ATOM     10  C   LIG d   1      -4.803  99.396 118.114  0.00  0.00     0.006 C 
ENDBRANCH   8   9
BRANCH   8  11
ATOM     11  C   LIG d   1      -6.044  97.723 120.781  0.00  0.00     0.028 C 
ATOM     12  C   LIG d   1      -7.486  98.145 121.106  0.00  0.00     0.006 C 
ENDBRANCH   8  11
ENDBRANCH   7   8
ENDBRANCH   1   7
BRANCH   6  13
ATOM     13  N   LIG d   1      -7.285  94.516 121.183  0.00  0.00    -0.311 N 
ATOM     14  C   LIG d   1      -8.498  94.345 120.661  0.00  0.00     0.210 C 
ATOM     15  C   LIG d   1      -9.643  94.959 121.473  0.00  0.00     0.109 C 
ATOM     16  O   LIG d   1      -8.738  93.715 119.620  0.00  0.00    -0.276 OA
ATOM     17  H   LIG d   1      -7.185  95.011 122.047  0.00  0.00     0.149 HD
ENDBRANCH   6  13
BRANCH   5  18
ATOM     18  N   LIG d   1      -6.099  91.734 121.616  0.00  0.00     0.381 N 
ATOM     19  H   LIG d   1      -5.490  90.979 121.863  0.00  0.00    -0.090 HD
ATOM     20  H   LIG d   1      -6.561  91.498 120.756  0.00  0.00    -0.090 HD
ATOM     21  H   LIG d   1      -6.773  91.875 122.337  0.00  0.00    -0.090 HD
ENDBRANCH   5  18
BRANCH   3  22
ATOM     22  C   LIG d   1      -1.841  93.510 120.330  0.00  0.00     0.382 C 
ATOM     23  O   LIG d   1      -1.093  94.517 120.307  0.00  0.00    -0.241 OA
ATOM     24  O   LIG d   1      -1.338  92.371 120.282  0.00  0.00    -0.241 OA
ENDBRANCH   3  22
TORSDOF 7
ENDMDL
