MODEL 1
REMARK VINA RESULT:      -4.5      0.000      0.000
REMARK  7 active torsions:
REMARK  status: ('A' for Active; 'I' for Inactive)
REMARK    1  A    between atoms: C_2  and  C_3 
REMARK    2  A    between atoms: C_3  and  O_6 
REMARK    3  A    between atoms: C_3  and  C_4 
REMARK    4  A    between atoms: C_7  and  O_6 
REMARK    5  A    between atoms: C_9  and  C_10 
REMARK    6  A    between atoms: N_15  and  C_14 
REMARK    7  A    between atoms: N_20  and  C_19 
REMARK       I    between atoms: C_22  and  N_20 
ROOT
ATOM      1  C   LIG d   1     -17.163  75.810 121.601  0.00  0.00     0.161 C 
ATOM      2  C   LIG d   1     -18.542  75.946 121.371  0.00  0.00     0.016 C 
ATOM      3  C   LIG d   1     -19.087  76.822 120.404  0.00  0.00     0.038 C 
ATOM      4  C   LIG d   1     -18.277  77.516 119.492  0.00  0.00     0.028 C 
ATOM      5  C   LIG d   1     -16.874  77.795 120.018  0.00  0.00    -0.047 C 
ATOM      6  C   LIG d   1     -16.261  76.475 120.540  0.00  0.00     0.091 C 
ENDROOT
BRANCH   1   7
ATOM      7  O   LIG d   1     -16.826  74.416 121.741  0.00  0.00    -0.368 OA
BRANCH   7   8
ATOM      8  C   LIG d   1     -17.112  73.573 120.598  0.00  0.00     0.119 C 
BRANCH   8   9
ATOM      9  C   LIG d   1     -18.027  72.431 121.082  0.00  0.00     0.028 C 
ATOM     10  C   LIG d   1     -19.468  72.574 120.565  0.00  0.00     0.006 C 
ENDBRANCH   8   9
BRANCH   8  11
ATOM     11  C   LIG d   1     -15.845  72.885 120.081  0.00  0.00     0.028 C 
ATOM     12  C   LIG d   1     -15.808  71.383 120.403  0.00  0.00     0.006 C 
ENDBRANCH   8  11
ENDBRANCH   7   8
ENDBRANCH   1   7
BRANCH   6  13
ATOM     13  N   LIG d   1     -14.921  76.674 121.149  0.00  0.00    -0.311 N 
ATOM     14  C   LIG d   1     -13.795  76.204 120.615  0.00  0.00     0.210 C 
ATOM     15  C   LIG d   1     -12.524  76.505 121.416  0.00  0.00     0.109 C 
ATOM     16  O   LIG d   1     -13.725  75.594 119.537  0.00  0.00    -0.276 OA
ATOM     17  H   LIG d   1     -14.882  77.185 122.009  0.00  0.00     0.149 HD
ENDBRANCH   6  13
BRANCH   5  18
ATOM     18  N   LIG d   1     -16.097  78.398 118.918  0.00  0.00     0.381 N 
ATOM     19  H   LIG d   1     -16.175  77.831 118.098  0.00  0.00    -0.090 HD
ATOM     20  H   LIG d   1     -15.129  78.434 119.186  0.00  0.00    -0.090 HD
ATOM     21  H   LIG d   1     -16.432  79.317 118.729  0.00  0.00    -0.090 HD
ENDBRANCH   5  18
BRANCH   3  22
ATOM     22  C   LIG d   1     -20.455  77.043 120.370  0.00  0.00     0.382 C 
ATOM     23  O   LIG d   1     -20.901  78.215 120.333  0.00  0.00    -0.241 OA
ATOM     24  O   LIG d   1     -21.251  76.085 120.421  0.00  0.00    -0.241 OA
ENDBRANCH   3  22
TORSDOF 7
ENDMDL
MODEL 2
REMARK VINA RESULT:      -4.5      2.644      5.493
REMARK  7 active torsions:
REMARK  status: ('A' for Active; 'I' for Inactive)
REMARK    1  A    between atoms: C_2  and  C_3 
REMARK    2  A    between atoms: C_3  and  O_6 
REMARK    3  A    between atoms: C_3  and  C_4 
REMARK    4  A    between atoms: C_7  and  O_6 
REMARK    5  A    between atoms: C_9  and  C_10 
REMARK    6  A    between atoms: N_15  and  C_14 
REMARK    7  A    between atoms: N_20  and  C_19 
REMARK       I    between atoms: C_22  and  N_20 
ROOT
ATOM      1  C   LIG d   1     -15.506  74.537 122.394  0.00  0.00     0.161 C 
ATOM      2  C   LIG d   1     -15.258  73.154 122.370  0.00  0.00     0.016 C 
ATOM      3  C   LIG d   1     -15.664  72.309 121.312  0.00  0.00     0.038 C 
ATOM      4  C   LIG d   1     -16.217  72.817 120.128  0.00  0.00     0.028 C 
ATOM      5  C   LIG d   1     -16.945  74.143 120.320  0.00  0.00    -0.047 C 
ATOM      6  C   LIG d   1     -16.010  75.126 121.060  0.00  0.00     0.091 C 
ENDROOT
BRANCH   1   7
ATOM      7  O   LIG d   1     -14.327  75.237 122.838  0.00  0.00    -0.368 OA
BRANCH   7   8
ATOM      8  C   LIG d   1     -13.121  75.007 122.069  0.00  0.00     0.119 C 
BRANCH   8   9
ATOM      9  C   LIG d   1     -11.985  74.713 123.067  0.00  0.00     0.028 C 
ATOM     10  C   LIG d   1     -10.649  74.415 122.364  0.00  0.00     0.006 C 
ENDBRANCH   8   9
BRANCH   8  11
ATOM     11  C   LIG d   1     -12.688  76.272 121.321  0.00  0.00     0.028 C 
ATOM     12  C   LIG d   1     -12.694  76.094 119.795  0.00  0.00     0.006 C 
ENDBRANCH   8  11
ENDBRANCH   7   8
ENDBRANCH   1   7
BRANCH   6  13
ATOM     13  N   LIG d   1     -16.674  76.421 121.363  0.00  0.00    -0.311 N 
ATOM     14  C   LIG d   1     -16.547  77.506 120.601  0.00  0.00     0.210 C 
ATOM     15  C   LIG d   1     -17.299  78.742 121.104  0.00  0.00     0.109 C 
ATOM     16  O   LIG d   1     -15.909  77.553 119.538  0.00  0.00    -0.276 OA
ATOM     17  H   LIG d   1     -17.236  76.463 122.190  0.00  0.00     0.149 HD
ENDBRANCH   6  13
BRANCH   5  18
ATOM     18  N   LIG d   1     -17.352  74.625 118.986  0.00  0.00     0.381 N 
ATOM     19  H   LIG d   1     -18.096  75.288 119.078  0.00  0.00    -0.090 HD
ATOM     20  H   LIG d   1     -17.688  73.846 118.447  0.00  0.00    -0.090 HD
ATOM     21  H   LIG d   1     -16.576  75.048 118.525  0.00  0.00    -0.090 HD
ENDBRANCH   5  18
BRANCH   3  22
ATOM     22  C   LIG d   1     -15.554  70.933 121.451  0.00  0.00     0.382 C 
ATOM     23  O   LIG d   1     -15.136  70.443 122.528  0.00  0.00    -0.241 OA
ATOM     24  O   LIG d   1     -15.825  70.179 120.498  0.00  0.00    -0.241 OA
ENDBRANCH   3  22
TORSDOF 7
ENDMDL
MODEL 3
REMARK VINA RESULT:      -4.4      1.991      5.032
REMARK  7 active torsions:
REMARK  status: ('A' for Active; 'I' for Inactive)
REMARK    1  A    between atoms: C_2  and  C_3 
REMARK    2  A    between atoms: C_3  and  O_6 
REMARK    3  A    between atoms: C_3  and  C_4 
REMARK    4  A    between atoms: C_7  and  O_6 
REMARK    5  A    between atoms: C_9  and  C_10 
REMARK    6  A    between atoms: N_15  and  C_14 
REMARK    7  A    between atoms: N_20  and  C_19 
REMARK       I    between atoms: C_22  and  N_20 
ROOT
ATOM      1  C   LIG d   1     -16.655  73.995 120.030  0.00  0.00     0.161 C 
ATOM      2  C   LIG d   1     -15.295  74.342 120.084  0.00  0.00     0.016 C 
ATOM      3  C   LIG d   1     -14.837  75.658 120.321  0.00  0.00     0.038 C 
ATOM      4  C   LIG d   1     -15.713  76.696 120.675  0.00  0.00     0.028 C 
ATOM      5  C   LIG d   1     -17.127  76.504 120.138  0.00  0.00    -0.047 C 
ATOM      6  C   LIG d   1     -17.623  75.091 120.523  0.00  0.00     0.091 C 
ENDROOT
BRANCH   1   7
ATOM      7  O   LIG d   1     -16.875  72.769 120.757  0.00  0.00    -0.368 OA
BRANCH   7   8
ATOM      8  C   LIG d   1     -15.722  71.907 120.917  0.00  0.00     0.119 C 
BRANCH   8   9
ATOM      9  C   LIG d   1     -16.009  70.602 120.151  0.00  0.00     0.028 C 
ATOM     10  C   LIG d   1     -15.885  69.357 121.045  0.00  0.00     0.006 C 
ENDBRANCH   8   9
BRANCH   8  11
ATOM     11  C   LIG d   1     -15.538  71.488 122.378  0.00  0.00     0.028 C 
ATOM     12  C   LIG d   1     -14.502  72.348 123.119  0.00  0.00     0.006 C 
ENDBRANCH   8  11
ENDBRANCH   7   8
ENDBRANCH   1   7
BRANCH   6  13
ATOM     13  N   LIG d   1     -18.966  74.790 119.965  0.00  0.00    -0.311 N 
ATOM     14  C   LIG d   1     -20.102  75.014 120.624  0.00  0.00     0.210 C 
ATOM     15  C   LIG d   1     -21.375  74.612 119.874  0.00  0.00     0.109 C 
ATOM     16  O   LIG d   1     -20.176  75.537 121.746  0.00  0.00    -0.276 OA
ATOM     17  H   LIG d   1     -19.000  74.392 119.046  0.00  0.00     0.149 HD
ENDBRANCH   6  13
BRANCH   5  18
ATOM     18  N   LIG d   1     -17.965  77.582 120.694  0.00  0.00     0.381 N 
ATOM     19  H   LIG d   1     -17.493  78.016 121.462  0.00  0.00    -0.090 HD
ATOM     20  H   LIG d   1     -18.823  77.185 121.035  0.00  0.00    -0.090 HD
ATOM     21  H   LIG d   1     -18.161  78.259 119.990  0.00  0.00    -0.090 HD
ENDBRANCH   5  18
BRANCH   3  22
ATOM     22  C   LIG d   1     -13.492  75.956 120.167  0.00  0.00     0.382 C 
ATOM     23  O   LIG d   1     -12.640  75.413 120.912  0.00  0.00    -0.241 OA
ATOM     24  O   LIG d   1     -13.123  76.794 119.323  0.00  0.00    -0.241 OA
ENDBRANCH   3  22
TORSDOF 7
ENDMDL
MODEL 4
REMARK VINA RESULT:      -4.4      7.771     11.030
REMARK  7 active torsions:
REMARK  status: ('A' for Active; 'I' for Inactive)
REMARK    1  A    between atoms: C_2  and  C_3 
REMARK    2  A    between atoms: C_3  and  O_6 
REMARK    3  A    between atoms: C_3  and  C_4 
REMARK    4  A    between atoms: C_7  and  O_6 
REMARK    5  A    between atoms: C_9  and  C_10 
REMARK    6  A    between atoms: N_15  and  C_14 
REMARK    7  A    between atoms: N_20  and  C_19 
REMARK       I    between atoms: C_22  and  N_20 
ROOT
ATOM      1  C   LIG d   1     -14.083  66.907 121.846  0.00  0.00     0.161 C 
ATOM      2  C   LIG d   1     -12.998  67.092 122.718  0.00  0.00     0.016 C 
ATOM      3  C   LIG d   1     -11.799  66.347 122.638  0.00  0.00     0.038 C 
ATOM      4  C   LIG d   1     -11.544  65.465 121.577  0.00  0.00     0.028 C 
ATOM      5  C   LIG d   1     -12.809  64.877 120.961  0.00  0.00    -0.047 C 
ATOM      6  C   LIG d   1     -13.781  66.028 120.614  0.00  0.00     0.091 C 
ENDROOT
BRANCH   1   7
ATOM      7  O   LIG d   1     -14.601  68.187 121.432  0.00  0.00    -0.368 OA
BRANCH   7   8
ATOM      8  C   LIG d   1     -15.940  68.508 121.882  0.00  0.00     0.119 C 
BRANCH   8   9
ATOM      9  C   LIG d   1     -16.862  68.483 120.647  0.00  0.00     0.028 C 
ATOM     10  C   LIG d   1     -16.194  69.094 119.404  0.00  0.00     0.006 C 
ENDBRANCH   8   9
BRANCH   8  11
ATOM     11  C   LIG d   1     -16.020  69.941 122.418  0.00  0.00     0.028 C 
ATOM     12  C   LIG d   1     -14.810  70.320 123.288  0.00  0.00     0.006 C 
ENDBRANCH   8  11
ENDBRANCH   7   8
ENDBRANCH   1   7
BRANCH   6  13
ATOM     13  N   LIG d   1     -15.078  65.535 120.084  0.00  0.00    -0.311 N 
ATOM     14  C   LIG d   1     -15.349  65.435 118.783  0.00  0.00     0.210 C 
ATOM     15  C   LIG d   1     -16.754  64.922 118.452  0.00  0.00     0.109 C 
ATOM     16  O   LIG d   1     -14.547  65.692 117.873  0.00  0.00    -0.276 OA
ATOM     17  H   LIG d   1     -15.776  65.274 120.754  0.00  0.00     0.149 HD
ENDBRANCH   6  13
BRANCH   5  18
ATOM     18  N   LIG d   1     -12.405  64.087 119.782  0.00  0.00     0.381 N 
ATOM     19  H   LIG d   1     -12.602  64.600 118.946  0.00  0.00    -0.090 HD
ATOM     20  H   LIG d   1     -12.939  63.236 119.763  0.00  0.00    -0.090 HD
ATOM     21  H   LIG d   1     -11.433  63.876 119.830  0.00  0.00    -0.090 HD
ENDBRANCH   5  18
BRANCH   3  22
ATOM     22  C   LIG d   1     -10.856  66.451 123.649  0.00  0.00     0.382 C 
ATOM     23  O   LIG d   1      -9.776  65.817 123.566  0.00  0.00    -0.241 OA
ATOM     24  O   LIG d   1     -11.090  67.135 124.663  0.00  0.00    -0.241 OA
ENDBRANCH   3  22
TORSDOF 7
ENDMDL
MODEL 5
REMARK VINA RESULT:      -4.3      2.444      4.853
REMARK  7 active torsions:
REMARK  status: ('A' for Active; 'I' for Inactive)
REMARK    1  A    between atoms: C_2  and  C_3 
REMARK    2  A    between atoms: C_3  and  O_6 
REMARK    3  A    between atoms: C_3  and  C_4 
REMARK    4  A    between atoms: C_7  and  O_6 
REMARK    5  A    between atoms: C_9  and  C_10 
REMARK    6  A    between atoms: N_15  and  C_14 
REMARK    7  A    between atoms: N_20  and  C_19 
REMARK       I    between atoms: C_22  and  N_20 
ROOT
ATOM      1  C   LIG d   1     -15.387  74.725 120.232  0.00  0.00     0.161 C 
ATOM      2  C   LIG d   1     -15.762  76.078 120.184  0.00  0.00     0.016 C 
ATOM      3  C   LIG d   1     -17.108  76.511 120.168  0.00  0.00     0.038 C 
ATOM      4  C   LIG d   1     -18.176  75.621 120.353  0.00  0.00     0.028 C 
ATOM      5  C   LIG d   1     -17.865  74.199 119.899  0.00  0.00    -0.047 C 
ATOM      6  C   LIG d   1     -16.537  73.745 120.546  0.00  0.00     0.091 C 
ENDROOT
BRANCH   1   7
ATOM      7  O   LIG d   1     -14.308  74.550 121.172  0.00  0.00    -0.368 OA
BRANCH   7   8
ATOM      8  C   LIG d   1     -13.501  75.722 121.441  0.00  0.00     0.119 C 
BRANCH   8   9
ATOM      9  C   LIG d   1     -12.187  75.571 120.649  0.00  0.00     0.028 C 
ATOM     10  C   LIG d   1     -11.002  75.183 121.548  0.00  0.00     0.006 C 
ENDBRANCH   8   9
BRANCH   8  11
ATOM     11  C   LIG d   1     -13.082  75.785 122.913  0.00  0.00     0.028 C 
ATOM     12  C   LIG d   1     -13.995  74.954 123.828  0.00  0.00     0.006 C 
ENDBRANCH   8  11
ENDBRANCH   7   8
ENDBRANCH   1   7
BRANCH   6  13
ATOM     13  N   LIG d   1     -16.115  72.395 120.088  0.00  0.00    -0.311 N 
ATOM     14  C   LIG d   1     -16.446  71.270 120.720  0.00  0.00     0.210 C 
ATOM     15  C   LIG d   1     -15.891  69.989 120.091  0.00  0.00     0.109 C 
ATOM     16  O   LIG d   1     -17.172  71.210 121.723  0.00  0.00    -0.276 OA
ATOM     17  H   LIG d   1     -15.549  72.350 119.263  0.00  0.00     0.149 HD
ENDBRANCH   6  13
BRANCH   5  18
ATOM     18  N   LIG d   1     -19.011  73.350 120.276  0.00  0.00     0.381 N 
ATOM     19  H   LIG d   1     -19.147  73.384 121.266  0.00  0.00    -0.090 HD
ATOM     20  H   LIG d   1     -18.811  72.400 120.017  0.00  0.00    -0.090 HD
ATOM     21  H   LIG d   1     -19.835  73.663 119.810  0.00  0.00    -0.090 HD
ENDBRANCH   5  18
BRANCH   3  22
ATOM     22  C   LIG d   1     -17.397  77.846 119.926  0.00  0.00     0.382 C 
ATOM     23  O   LIG d   1     -18.515  78.170 119.459  0.00  0.00    -0.241 OA
ATOM     24  O   LIG d   1     -16.538  78.725 120.128  0.00  0.00    -0.241 OA
ENDBRANCH   3  22
TORSDOF 7
ENDMDL
MODEL 6
REMARK VINA RESULT:      -4.3      2.278      4.450
REMARK  7 active torsions:
REMARK  status: ('A' for Active; 'I' for Inactive)
REMARK    1  A    between atoms: C_2  and  C_3 
REMARK    2  A    between atoms: C_3  and  O_6 
REMARK    3  A    between atoms: C_3  and  C_4 
REMARK    4  A    between atoms: C_7  and  O_6 
REMARK    5  A    between atoms: C_9  and  C_10 
REMARK    6  A    between atoms: N_15  and  C_14 
REMARK    7  A    between atoms: N_20  and  C_19 
REMARK       I    between atoms: C_22  and  N_20 
ROOT
ATOM      1  C   LIG d   1     -17.103  77.907 119.834  0.00  0.00     0.161 C 
ATOM      2  C   LIG d   1     -18.504  77.844 119.914  0.00  0.00     0.016 C 
ATOM      3  C   LIG d   1     -19.212  76.670 120.259  0.00  0.00     0.038 C 
ATOM      4  C   LIG d   1     -18.555  75.510 120.697  0.00  0.00     0.028 C 
ATOM      5  C   LIG d   1     -17.139  75.371 120.148  0.00  0.00    -0.047 C 
ATOM      6  C   LIG d   1     -16.366  76.682 120.417  0.00  0.00     0.091 C 
ENDROOT
BRANCH   1   7
ATOM      7  O   LIG d   1     -16.631  79.118 120.458  0.00  0.00    -0.368 OA
BRANCH   7   8
ATOM      8  C   LIG d   1     -17.481  79.676 121.490  0.00  0.00     0.119 C 
BRANCH   8   9
ATOM      9  C   LIG d   1     -17.371  81.210 121.401  0.00  0.00     0.028 C 
ATOM     10  C   LIG d   1     -18.747  81.895 121.331  0.00  0.00     0.006 C 
ENDBRANCH   8   9
BRANCH   8  11
ATOM     11  C   LIG d   1     -16.972  79.313 122.888  0.00  0.00     0.028 C 
ATOM     12  C   LIG d   1     -17.837  78.247 123.579  0.00  0.00     0.006 C 
ENDBRANCH   8  11
ENDBRANCH   7   8
ENDBRANCH   1   7
BRANCH   6  13
ATOM     13  N   LIG d   1     -14.998  76.663 119.837  0.00  0.00    -0.311 N 
ATOM     14  C   LIG d   1     -13.926  76.237 120.502  0.00  0.00     0.210 C 
ATOM     15  C   LIG d   1     -12.608  76.320 119.726  0.00  0.00     0.109 C 
ATOM     16  O   LIG d   1     -13.946  75.768 121.650  0.00  0.00    -0.276 OA
ATOM     17  H   LIG d   1     -14.895  76.996 118.898  0.00  0.00     0.149 HD
ENDBRANCH   6  13
BRANCH   5  18
ATOM     18  N   LIG d   1     -16.525  74.195 120.792  0.00  0.00     0.381 N 
ATOM     19  H   LIG d   1     -16.619  74.265 121.785  0.00  0.00    -0.090 HD
ATOM     20  H   LIG d   1     -15.546  74.176 120.568  0.00  0.00    -0.090 HD
ATOM     21  H   LIG d   1     -16.963  73.361 120.467  0.00  0.00    -0.090 HD
ENDBRANCH   5  18
BRANCH   3  22
ATOM     22  C   LIG d   1     -20.592  76.636 120.128  0.00  0.00     0.382 C 
ATOM     23  O   LIG d   1     -21.263  77.684 120.291  0.00  0.00    -0.241 OA
ATOM     24  O   LIG d   1     -21.178  75.562 119.893  0.00  0.00    -0.241 OA
ENDBRANCH   3  22
TORSDOF 7
ENDMDL
MODEL 7
REMARK VINA RESULT:      -4.3     20.415     22.463
REMARK  7 active torsions:
REMARK  status: ('A' for Active; 'I' for Inactive)
REMARK    1  A    between atoms: C_2  and  C_3 
REMARK    2  A    between atoms: C_3  and  O_6 
REMARK    3  A    between atoms: C_3  and  C_4 
REMARK    4  A    between atoms: C_7  and  O_6 
REMARK    5  A    between atoms: C_9  and  C_10 
REMARK    6  A    between atoms: N_15  and  C_14 
REMARK    7  A    between atoms: N_20  and  C_19 
REMARK       I    between atoms: C_22  and  N_20 
ROOT
ATOM      1  C   LIG d   1      -6.583  95.350 120.135  0.00  0.00     0.161 C 
ATOM      2  C   LIG d   1      -7.811  94.672 120.210  0.00  0.00     0.016 C 
ATOM      3  C   LIG d   1      -9.055  95.280 119.926  0.00  0.00     0.038 C 
ATOM      4  C   LIG d   1      -9.143  96.577 119.398  0.00  0.00     0.028 C 
ATOM      5  C   LIG d   1      -7.968  97.469 119.784  0.00  0.00    -0.047 C 
ATOM      6  C   LIG d   1      -6.649  96.733 119.454  0.00  0.00     0.091 C 
ENDROOT
BRANCH   1   7
ATOM      7  O   LIG d   1      -5.604  94.517 119.485  0.00  0.00    -0.368 OA
BRANCH   7   8
ATOM      8  C   LIG d   1      -5.814  93.087 119.587  0.00  0.00     0.119 C 
BRANCH   8   9
ATOM      9  C   LIG d   1      -4.669  92.511 120.443  0.00  0.00     0.028 C 
ATOM     10  C   LIG d   1      -3.416  92.194 119.610  0.00  0.00     0.006 C 
ENDBRANCH   8   9
BRANCH   8  11
ATOM     11  C   LIG d   1      -5.682  92.405 118.223  0.00  0.00     0.028 C 
ATOM     12  C   LIG d   1      -7.023  92.295 117.480  0.00  0.00     0.006 C 
ENDBRANCH   8  11
ENDBRANCH   7   8
ENDBRANCH   1   7
BRANCH   6  13
ATOM     13  N   LIG d   1      -5.450  97.501 119.878  0.00  0.00    -0.311 N 
ATOM     14  C   LIG d   1      -4.798  98.343 119.078  0.00  0.00     0.210 C 
ATOM     15  C   LIG d   1      -3.575  99.017 119.708  0.00  0.00     0.109 C 
ATOM     16  O   LIG d   1      -5.135  98.620 117.917  0.00  0.00    -0.276 OA
ATOM     17  H   LIG d   1      -5.126  97.360 120.815  0.00  0.00     0.149 HD
ENDBRANCH   6  13
BRANCH   5  18
ATOM     18  N   LIG d   1      -8.117  98.743 119.056  0.00  0.00     0.381 N 
ATOM     19  H   LIG d   1      -9.073  98.871 118.789  0.00  0.00    -0.090 HD
ATOM     20  H   LIG d   1      -7.559  98.707 118.221  0.00  0.00    -0.090 HD
ATOM     21  H   LIG d   1      -7.820  99.501 119.630  0.00  0.00    -0.090 HD
ENDBRANCH   5  18
BRANCH   3  22
ATOM     22  C   LIG d   1     -10.232  94.603 120.209  0.00  0.00     0.382 C 
ATOM     23  O   LIG d   1     -10.553  94.373 121.400  0.00  0.00    -0.241 OA
ATOM     24  O   LIG d   1     -10.955  94.181 119.286  0.00  0.00    -0.241 OA
ENDBRANCH   3  22
TORSDOF 7
ENDMDL
MODEL 8
REMARK VINA RESULT:      -4.3      7.908     10.960
REMARK  7 active torsions:
REMARK  status: ('A' for Active; 'I' for Inactive)
REMARK    1  A    between atoms: C_2  and  C_3 
REMARK    2  A    between atoms: C_3  and  O_6 
REMARK    3  A    between atoms: C_3  and  C_4 
REMARK    4  A    between atoms: C_7  and  O_6 
REMARK    5  A    between atoms: C_9  and  C_10 
REMARK    6  A    between atoms: N_15  and  C_14 
REMARK    7  A    between atoms: N_20  and  C_19 
REMARK       I    between atoms: C_22  and  N_20 
ROOT
ATOM      1  C   LIG d   1     -15.361  66.103 121.084  0.00  0.00     0.161 C 
ATOM      2  C   LIG d   1     -14.605  66.898 121.962  0.00  0.00     0.016 C 
ATOM      3  C   LIG d   1     -13.204  66.778 122.109  0.00  0.00     0.038 C 
ATOM      4  C   LIG d   1     -12.438  65.953 121.271  0.00  0.00     0.028 C 
ATOM      5  C   LIG d   1     -13.216  64.764 120.718  0.00  0.00    -0.047 C 
ATOM      6  C   LIG d   1     -14.529  65.275 120.082  0.00  0.00     0.091 C 
ENDROOT
BRANCH   1   7
ATOM      7  O   LIG d   1     -16.317  66.923 120.384  0.00  0.00    -0.368 OA
BRANCH   7   8
ATOM      8  C   LIG d   1     -15.770  68.009 119.596  0.00  0.00     0.119 C 
BRANCH   8   9
ATOM      9  C   LIG d   1     -16.619  69.263 119.883  0.00  0.00     0.028 C 
ATOM     10  C   LIG d   1     -15.927  70.228 120.860  0.00  0.00     0.006 C 
ENDBRANCH   8   9
BRANCH   8  11
ATOM     11  C   LIG d   1     -15.931  67.745 118.096  0.00  0.00     0.028 C 
ATOM     12  C   LIG d   1     -16.145  69.032 117.284  0.00  0.00     0.006 C 
ENDBRANCH   8  11
ENDBRANCH   7   8
ENDBRANCH   1   7
BRANCH   6  13
ATOM     13  N   LIG d   1     -15.390  64.167 119.591  0.00  0.00    -0.311 N 
ATOM     14  C   LIG d   1     -15.396  63.749 118.326  0.00  0.00     0.210 C 
ATOM     15  C   LIG d   1     -16.372  62.608 118.027  0.00  0.00     0.109 C 
ATOM     16  O   LIG d   1     -14.662  64.194 117.431  0.00  0.00    -0.276 OA
ATOM     17  H   LIG d   1     -15.994  63.729 120.258  0.00  0.00     0.149 HD
ENDBRANCH   6  13
BRANCH   5  18
ATOM     18  N   LIG d   1     -12.341  64.068 119.755  0.00  0.00     0.381 N 
ATOM     19  H   LIG d   1     -11.382  64.254 119.973  0.00  0.00    -0.090 HD
ATOM     20  H   LIG d   1     -12.528  64.419 118.833  0.00  0.00    -0.090 HD
ATOM     21  H   LIG d   1     -12.511  63.087 119.787  0.00  0.00    -0.090 HD
ENDBRANCH   5  18
BRANCH   3  22
ATOM     22  C   LIG d   1     -12.559  67.460 123.129  0.00  0.00     0.382 C 
ATOM     23  O   LIG d   1     -11.338  67.731 123.029  0.00  0.00    -0.241 OA
ATOM     24  O   LIG d   1     -13.172  67.768 124.169  0.00  0.00    -0.241 OA
ENDBRANCH   3  22
TORSDOF 7
ENDMDL
MODEL 9
REMARK VINA RESULT:      -4.2      2.768      4.623
REMARK  7 active torsions:
REMARK  status: ('A' for Active; 'I' for Inactive)
REMARK    1  A    between atoms: C_2  and  C_3 
REMARK    2  A    between atoms: C_3  and  O_6 
REMARK    3  A    between atoms: C_3  and  C_4 
REMARK    4  A    between atoms: C_7  and  O_6 
REMARK    5  A    between atoms: C_9  and  C_10 
REMARK    6  A    between atoms: N_15  and  C_14 
REMARK    7  A    between atoms: N_20  and  C_19 
REMARK       I    between atoms: C_22  and  N_20 
ROOT
ATOM      1  C   LIG d   1     -17.222  74.182 119.752  0.00  0.00     0.161 C 
ATOM      2  C   LIG d   1     -16.846  75.535 119.702  0.00  0.00     0.016 C 
ATOM      3  C   LIG d   1     -17.630  76.581 120.241  0.00  0.00     0.038 C 
ATOM      4  C   LIG d   1     -18.779  76.328 121.006  0.00  0.00     0.028 C 
ATOM      5  C   LIG d   1     -19.465  75.012 120.652  0.00  0.00    -0.047 C 
ATOM      6  C   LIG d   1     -18.417  73.877 120.679  0.00  0.00     0.091 C 
ENDROOT
BRANCH   1   7
ATOM      7  O   LIG d   1     -16.086  73.373 120.115  0.00  0.00    -0.368 OA
BRANCH   7   8
ATOM      8  C   LIG d   1     -15.930  73.090 121.527  0.00  0.00     0.119 C 
BRANCH   8   9
ATOM      9  C   LIG d   1     -14.674  73.839 122.014  0.00  0.00     0.028 C 
ATOM     10  C   LIG d   1     -15.014  74.994 122.972  0.00  0.00     0.006 C 
ENDBRANCH   8   9
BRANCH   8  11
ATOM     11  C   LIG d   1     -15.636  71.607 121.770  0.00  0.00     0.028 C 
ATOM     12  C   LIG d   1     -15.860  70.743 120.518  0.00  0.00     0.006 C 
ENDBRANCH   8  11
ENDBRANCH   7   8
ENDBRANCH   1   7
BRANCH   6  13
ATOM     13  N   LIG d   1     -18.987  72.569 120.262  0.00  0.00    -0.311 N 
ATOM     14  C   LIG d   1     -19.427  71.653 121.123  0.00  0.00     0.210 C 
ATOM     15  C   LIG d   1     -19.957  70.366 120.483  0.00  0.00     0.109 C 
ATOM     16  O   LIG d   1     -19.457  71.797 122.354  0.00  0.00    -0.276 OA
ATOM     17  H   LIG d   1     -19.028  72.382 119.279  0.00  0.00     0.149 HD
ENDBRANCH   6  13
BRANCH   5  18
ATOM     18  N   LIG d   1     -20.563  74.809 121.615  0.00  0.00     0.381 N 
ATOM     19  H   LIG d   1     -21.430  74.709 121.124  0.00  0.00    -0.090 HD
ATOM     20  H   LIG d   1     -20.629  75.617 122.209  0.00  0.00    -0.090 HD
ATOM     21  H   LIG d   1     -20.389  73.997 122.165  0.00  0.00    -0.090 HD
ENDBRANCH   5  18
BRANCH   3  22
ATOM     22  C   LIG d   1     -17.288  77.899 119.983  0.00  0.00     0.382 C 
ATOM     23  O   LIG d   1     -18.031  78.829 120.382  0.00  0.00    -0.241 OA
ATOM     24  O   LIG d   1     -16.270  78.169 119.319  0.00  0.00    -0.241 OA
ENDBRANCH   3  22
TORSDOF 7
ENDMDL
