MODEL 1
REMARK VINA RESULT:      -4.4      0.000      0.000
REMARK  7 active torsions:
REMARK  status: ('A' for Active; 'I' for Inactive)
REMARK    1  A    between atoms: C_2  and  C_3 
REMARK    2  A    between atoms: C_3  and  O_6 
REMARK    3  A    between atoms: C_3  and  C_4 
REMARK    4  A    between atoms: C_7  and  O_6 
REMARK    5  A    between atoms: C_9  and  C_10 
REMARK    6  A    between atoms: N_15  and  C_14 
REMARK    7  A    between atoms: N_20  and  C_19 
REMARK       I    between atoms: C_22  and  N_20 
ROOT
ATOM      1  C   LIG d   1       1.543  57.584 117.938  0.00  0.00     0.161 C 
ATOM      2  C   LIG d   1       0.520  58.480 118.291  0.00  0.00     0.016 C 
ATOM      3  C   LIG d   1      -0.592  58.117 119.086  0.00  0.00     0.038 C 
ATOM      4  C   LIG d   1      -0.679  56.864 119.711  0.00  0.00     0.028 C 
ATOM      5  C   LIG d   1       0.077  55.765 118.973  0.00  0.00    -0.047 C 
ATOM      6  C   LIG d   1       1.521  56.244 118.703  0.00  0.00     0.091 C 
ENDROOT
BRANCH   1   7
ATOM      7  O   LIG d   1       2.826  58.224 118.085  0.00  0.00    -0.368 OA
BRANCH   7   8
ATOM      8  C   LIG d   1       3.537  57.950 119.317  0.00  0.00     0.119 C 
BRANCH   8   9
ATOM      9  C   LIG d   1       3.616  59.270 120.110  0.00  0.00     0.028 C 
ATOM     10  C   LIG d   1       2.557  59.351 121.222  0.00  0.00     0.006 C 
ENDBRANCH   8   9
BRANCH   8  11
ATOM     11  C   LIG d   1       4.991  57.553 119.045  0.00  0.00     0.028 C 
ATOM     12  C   LIG d   1       5.601  56.712 120.177  0.00  0.00     0.006 C 
ENDBRANCH   8  11
ENDBRANCH   7   8
ENDBRANCH   1   7
BRANCH   6  13
ATOM     13  N   LIG d   1       2.305  55.261 117.910  0.00  0.00    -0.311 N 
ATOM     14  C   LIG d   1       3.083  54.329 118.459  0.00  0.00     0.210 C 
ATOM     15  C   LIG d   1       3.819  53.431 117.461  0.00  0.00     0.109 C 
ATOM     16  O   LIG d   1       3.207  54.141 119.679  0.00  0.00    -0.276 OA
ATOM     17  H   LIG d   1       2.238  55.322 116.913  0.00  0.00     0.149 HD
ENDBRANCH   6  13
BRANCH   5  18
ATOM     18  N   LIG d   1       0.017  54.548 119.804  0.00  0.00     0.381 N 
ATOM     19  H   LIG d   1      -0.688  53.932 119.452  0.00  0.00    -0.090 HD
ATOM     20  H   LIG d   1      -0.230  54.807 120.743  0.00  0.00    -0.090 HD
ATOM     21  H   LIG d   1       0.901  54.089 119.801  0.00  0.00    -0.090 HD
ENDBRANCH   5  18
BRANCH   3  22
ATOM     22  C   LIG d   1      -1.651  59.000 119.229  0.00  0.00     0.382 C 
ATOM     23  O   LIG d   1      -1.596  60.137 118.700  0.00  0.00    -0.241 OA
ATOM     24  O   LIG d   1      -2.643  58.691 119.917  0.00  0.00    -0.241 OA
ENDBRANCH   3  22
TORSDOF 7
ENDMDL
MODEL 2
REMARK VINA RESULT:      -4.3      2.637      5.600
REMARK  7 active torsions:
REMARK  status: ('A' for Active; 'I' for Inactive)
REMARK    1  A    between atoms: C_2  and  C_3 
REMARK    2  A    between atoms: C_3  and  O_6 
REMARK    3  A    between atoms: C_3  and  C_4 
REMARK    4  A    between atoms: C_7  and  O_6 
REMARK    5  A    between atoms: C_9  and  C_10 
REMARK    6  A    between atoms: N_15  and  C_14 
REMARK    7  A    between atoms: N_20  and  C_19 
REMARK       I    between atoms: C_22  and  N_20 
ROOT
ATOM      1  C   LIG d   1       0.301  58.308 118.896  0.00  0.00     0.161 C 
ATOM      2  C   LIG d   1       1.631  58.393 119.339  0.00  0.00     0.016 C 
ATOM      3  C   LIG d   1       2.005  58.967 120.575  0.00  0.00     0.038 C 
ATOM      4  C   LIG d   1       1.054  59.362 121.527  0.00  0.00     0.028 C 
ATOM      5  C   LIG d   1      -0.286  59.759 120.916  0.00  0.00    -0.047 C 
ATOM      6  C   LIG d   1      -0.759  58.633 119.970  0.00  0.00     0.091 C 
ENDROOT
BRANCH   1   7
ATOM      7  O   LIG d   1       0.057  57.006 118.328  0.00  0.00    -0.368 OA
BRANCH   7   8
ATOM      8  C   LIG d   1       0.941  55.944 118.765  0.00  0.00     0.119 C 
BRANCH   8   9
ATOM      9  C   LIG d   1       1.246  55.063 117.538  0.00  0.00     0.028 C 
ATOM     10  C   LIG d   1       2.738  54.707 117.428  0.00  0.00     0.006 C 
ENDBRANCH   8   9
BRANCH   8  11
ATOM     11  C   LIG d   1       0.247  55.018 119.768  0.00  0.00     0.028 C 
ATOM     12  C   LIG d   1      -1.273  55.241 119.833  0.00  0.00     0.006 C 
ENDBRANCH   8  11
ENDBRANCH   7   8
ENDBRANCH   1   7
BRANCH   6  13
ATOM     13  N   LIG d   1      -2.022  58.977 119.265  0.00  0.00    -0.311 N 
ATOM     14  C   LIG d   1      -3.224  58.579 119.678  0.00  0.00     0.210 C 
ATOM     15  C   LIG d   1      -4.392  59.029 118.795  0.00  0.00     0.109 C 
ATOM     16  O   LIG d   1      -3.437  57.924 120.709  0.00  0.00    -0.276 OA
ATOM     17  H   LIG d   1      -1.944  59.533 118.436  0.00  0.00     0.149 HD
ENDBRANCH   6  13
BRANCH   5  18
ATOM     18  N   LIG d   1      -1.224  60.015 122.026  0.00  0.00     0.381 N 
ATOM     19  H   LIG d   1      -2.130  59.661 121.791  0.00  0.00    -0.090 HD
ATOM     20  H   LIG d   1      -1.299  61.007 122.166  0.00  0.00    -0.090 HD
ATOM     21  H   LIG d   1      -0.894  59.578 122.858  0.00  0.00    -0.090 HD
ENDBRANCH   5  18
BRANCH   3  22
ATOM     22  C   LIG d   1       3.346  59.188 120.853  0.00  0.00     0.382 C 
ATOM     23  O   LIG d   1       4.221  58.442 120.352  0.00  0.00    -0.241 OA
ATOM     24  O   LIG d   1       3.688  60.096 121.634  0.00  0.00    -0.241 OA
ENDBRANCH   3  22
TORSDOF 7
ENDMDL
MODEL 3
REMARK VINA RESULT:      -4.2     36.542     38.687
REMARK  7 active torsions:
REMARK  status: ('A' for Active; 'I' for Inactive)
REMARK    1  A    between atoms: C_2  and  C_3 
REMARK    2  A    between atoms: C_3  and  O_6 
REMARK    3  A    between atoms: C_3  and  C_4 
REMARK    4  A    between atoms: C_7  and  O_6 
REMARK    5  A    between atoms: C_9  and  C_10 
REMARK    6  A    between atoms: N_15  and  C_14 
REMARK    7  A    between atoms: N_20  and  C_19 
REMARK       I    between atoms: C_22  and  N_20 
ROOT
ATOM      1  C   LIG d   1      -4.611  94.998 119.519  0.00  0.00     0.161 C 
ATOM      2  C   LIG d   1      -5.703  94.272 119.013  0.00  0.00     0.016 C 
ATOM      3  C   LIG d   1      -6.754  94.861 118.275  0.00  0.00     0.038 C 
ATOM      4  C   LIG d   1      -6.709  96.201 117.859  0.00  0.00     0.028 C 
ATOM      5  C   LIG d   1      -5.874  97.090 118.774  0.00  0.00    -0.047 C 
ATOM      6  C   LIG d   1      -4.488  96.439 118.981  0.00  0.00     0.091 C 
ENDROOT
BRANCH   1   7
ATOM      7  O   LIG d   1      -3.390  94.269 119.285  0.00  0.00    -0.368 OA
BRANCH   7   8
ATOM      8  C   LIG d   1      -3.491  92.825 119.327  0.00  0.00     0.119 C 
BRANCH   8   9
ATOM      9  C   LIG d   1      -2.823  92.352 120.633  0.00  0.00     0.028 C 
ATOM     10  C   LIG d   1      -1.626  93.231 121.032  0.00  0.00     0.006 C 
ENDBRANCH   8   9
BRANCH   8  11
ATOM     11  C   LIG d   1      -2.682  92.176 118.200  0.00  0.00     0.028 C 
ATOM     12  C   LIG d   1      -2.772  90.642 118.209  0.00  0.00     0.006 C 
ENDBRANCH   8  11
ENDBRANCH   7   8
ENDBRANCH   1   7
BRANCH   6  13
ATOM     13  N   LIG d   1      -3.638  97.202 119.931  0.00  0.00    -0.311 N 
ATOM     14  C   LIG d   1      -2.490  97.782 119.586  0.00  0.00     0.210 C 
ATOM     15  C   LIG d   1      -1.761  98.502 120.724  0.00  0.00     0.109 C 
ATOM     16  O   LIG d   1      -2.022  97.794 118.437  0.00  0.00    -0.276 OA
ATOM     17  H   LIG d   1      -3.959  97.269 120.878  0.00  0.00     0.149 HD
ENDBRANCH   6  13
BRANCH   5  18
ATOM     18  N   LIG d   1      -5.799  98.425 118.150  0.00  0.00     0.381 N 
ATOM     19  H   LIG d   1      -6.365  99.071 118.663  0.00  0.00    -0.090 HD
ATOM     20  H   LIG d   1      -6.157  98.366 117.213  0.00  0.00    -0.090 HD
ATOM     21  H   LIG d   1      -4.854  98.740 118.134  0.00  0.00    -0.090 HD
ENDBRANCH   5  18
BRANCH   3  22
ATOM     22  C   LIG d   1      -7.887  94.118 117.978  0.00  0.00     0.382 C 
ATOM     23  O   LIG d   1      -8.988  94.419 118.499  0.00  0.00    -0.241 OA
ATOM     24  O   LIG d   1      -7.812  93.124 117.231  0.00  0.00    -0.241 OA
ENDBRANCH   3  22
TORSDOF 7
ENDMDL
MODEL 4
REMARK VINA RESULT:      -4.2     14.192     17.256
REMARK  7 active torsions:
REMARK  status: ('A' for Active; 'I' for Inactive)
REMARK    1  A    between atoms: C_2  and  C_3 
REMARK    2  A    between atoms: C_3  and  O_6 
REMARK    3  A    between atoms: C_3  and  C_4 
REMARK    4  A    between atoms: C_7  and  O_6 
REMARK    5  A    between atoms: C_9  and  C_10 
REMARK    6  A    between atoms: N_15  and  C_14 
REMARK    7  A    between atoms: N_20  and  C_19 
REMARK       I    between atoms: C_22  and  N_20 
ROOT
ATOM      1  C   LIG d   1     -13.358  64.369 122.898  0.00  0.00     0.161 C 
ATOM      2  C   LIG d   1     -12.120  64.155 123.528  0.00  0.00     0.016 C 
ATOM      3  C   LIG d   1     -11.148  63.250 123.043  0.00  0.00     0.038 C 
ATOM      4  C   LIG d   1     -11.286  62.605 121.805  0.00  0.00     0.028 C 
ATOM      5  C   LIG d   1     -12.739  62.406 121.385  0.00  0.00    -0.047 C 
ATOM      6  C   LIG d   1     -13.481  63.758 121.487  0.00  0.00     0.091 C 
ENDROOT
BRANCH   1   7
ATOM      7  O   LIG d   1     -13.648  65.781 122.860  0.00  0.00    -0.368 OA
BRANCH   7   8
ATOM      8  C   LIG d   1     -13.075  66.520 121.754  0.00  0.00     0.119 C 
BRANCH   8   9
ATOM      9  C   LIG d   1     -12.230  67.663 122.349  0.00  0.00     0.028 C 
ATOM     10  C   LIG d   1     -11.972  68.791 121.336  0.00  0.00     0.006 C 
ENDBRANCH   8   9
BRANCH   8  11
ATOM     11  C   LIG d   1     -14.160  67.208 120.921  0.00  0.00     0.028 C 
ATOM     12  C   LIG d   1     -15.528  67.223 121.621  0.00  0.00     0.006 C 
ENDBRANCH   8  11
ENDBRANCH   7   8
ENDBRANCH   1   7
BRANCH   6  13
ATOM     13  N   LIG d   1     -14.928  63.635 121.174  0.00  0.00    -0.311 N 
ATOM     14  C   LIG d   1     -15.432  63.813 119.954  0.00  0.00     0.210 C 
ATOM     15  C   LIG d   1     -16.953  63.659 119.854  0.00  0.00     0.109 C 
ATOM     16  O   LIG d   1     -14.760  64.050 118.939  0.00  0.00    -0.276 OA
ATOM     17  H   LIG d   1     -15.542  63.414 121.934  0.00  0.00     0.149 HD
ENDBRANCH   6  13
BRANCH   5  18
ATOM     18  N   LIG d   1     -12.735  61.850 120.019  0.00  0.00     0.381 N 
ATOM     19  H   LIG d   1     -13.595  61.368 119.847  0.00  0.00    -0.090 HD
ATOM     20  H   LIG d   1     -11.982  61.189 119.939  0.00  0.00    -0.090 HD
ATOM     21  H   LIG d   1     -12.617  62.581 119.353  0.00  0.00    -0.090 HD
ENDBRANCH   5  18
BRANCH   3  22
ATOM     22  C   LIG d   1     -10.039  62.951 123.821  0.00  0.00     0.382 C 
ATOM     23  O   LIG d   1      -9.368  63.877 124.336  0.00  0.00    -0.241 OA
ATOM     24  O   LIG d   1      -9.677  61.770 123.977  0.00  0.00    -0.241 OA
ENDBRANCH   3  22
TORSDOF 7
ENDMDL
MODEL 5
REMARK VINA RESULT:      -4.2     38.085     39.949
REMARK  7 active torsions:
REMARK  status: ('A' for Active; 'I' for Inactive)
REMARK    1  A    between atoms: C_2  and  C_3 
REMARK    2  A    between atoms: C_3  and  O_6 
REMARK    3  A    between atoms: C_3  and  C_4 
REMARK    4  A    between atoms: C_7  and  O_6 
REMARK    5  A    between atoms: C_9  and  C_10 
REMARK    6  A    between atoms: N_15  and  C_14 
REMARK    7  A    between atoms: N_20  and  C_19 
REMARK       I    between atoms: C_22  and  N_20 
ROOT
ATOM      1  C   LIG d   1      -6.636  95.544 118.367  0.00  0.00     0.161 C 
ATOM      2  C   LIG d   1      -7.964  95.571 118.826  0.00  0.00     0.016 C 
ATOM      3  C   LIG d   1      -8.340  95.216 120.142  0.00  0.00     0.038 C 
ATOM      4  C   LIG d   1      -7.389  94.954 121.139  0.00  0.00     0.028 C 
ATOM      5  C   LIG d   1      -6.068  94.424 120.592  0.00  0.00    -0.047 C 
ATOM      6  C   LIG d   1      -5.574  95.368 119.472  0.00  0.00     0.091 C 
ENDROOT
BRANCH   1   7
ATOM      7  O   LIG d   1      -6.363  96.729 117.594  0.00  0.00    -0.368 OA
BRANCH   7   8
ATOM      8  C   LIG d   1      -5.850  97.867 118.330  0.00  0.00     0.119 C 
BRANCH   8   9
ATOM      9  C   LIG d   1      -6.945  98.951 118.329  0.00  0.00     0.028 C 
ATOM     10  C   LIG d   1      -7.595  99.129 119.711  0.00  0.00     0.006 C 
ENDBRANCH   8   9
BRANCH   8  11
ATOM     11  C   LIG d   1      -4.652  98.499 117.615  0.00  0.00     0.028 C 
ATOM     12  C   LIG d   1      -4.846  99.999 117.340  0.00  0.00     0.006 C 
ENDBRANCH   8  11
ENDBRANCH   7   8
ENDBRANCH   1   7
BRANCH   6  13
ATOM     13  N   LIG d   1      -4.329  94.877 118.825  0.00  0.00    -0.311 N 
ATOM     14  C   LIG d   1      -3.111  95.284 119.177  0.00  0.00     0.210 C 
ATOM     15  C   LIG d   1      -1.965  94.667 118.368  0.00  0.00     0.109 C 
ATOM     16  O   LIG d   1      -2.868  96.072 120.103  0.00  0.00    -0.276 OA
ATOM     17  H   LIG d   1      -4.432  94.211 118.085  0.00  0.00     0.149 HD
ENDBRANCH   6  13
BRANCH   5  18
ATOM     18  N   LIG d   1      -5.126  94.325 121.723  0.00  0.00     0.381 N 
ATOM     19  H   LIG d   1      -4.601  95.174 121.802  0.00  0.00    -0.090 HD
ATOM     20  H   LIG d   1      -4.483  93.573 121.546  0.00  0.00    -0.090 HD
ATOM     21  H   LIG d   1      -5.624  94.154 122.568  0.00  0.00    -0.090 HD
ENDBRANCH   5  18
BRANCH   3  22
ATOM     22  C   LIG d   1      -9.683  95.083 120.460  0.00  0.00     0.382 C 
ATOM     23  O   LIG d   1     -10.338  94.108 120.018  0.00  0.00    -0.241 OA
ATOM     24  O   LIG d   1     -10.259  95.948 121.147  0.00  0.00    -0.241 OA
ENDBRANCH   3  22
TORSDOF 7
ENDMDL
MODEL 6
REMARK VINA RESULT:      -4.0      3.194      5.415
REMARK  7 active torsions:
REMARK  status: ('A' for Active; 'I' for Inactive)
REMARK    1  A    between atoms: C_2  and  C_3 
REMARK    2  A    between atoms: C_3  and  O_6 
REMARK    3  A    between atoms: C_3  and  C_4 
REMARK    4  A    between atoms: C_7  and  O_6 
REMARK    5  A    between atoms: C_9  and  C_10 
REMARK    6  A    between atoms: N_15  and  C_14 
REMARK    7  A    between atoms: N_20  and  C_19 
REMARK       I    between atoms: C_22  and  N_20 
ROOT
ATOM      1  C   LIG d   1       1.135  58.903 121.383  0.00  0.00     0.161 C 
ATOM      2  C   LIG d   1       0.490  59.633 122.396  0.00  0.00     0.016 C 
ATOM      3  C   LIG d   1       1.145  60.590 123.204  0.00  0.00     0.038 C 
ATOM      4  C   LIG d   1       2.465  60.994 122.951  0.00  0.00     0.028 C 
ATOM      5  C   LIG d   1       3.306  59.923 122.265  0.00  0.00    -0.047 C 
ATOM      6  C   LIG d   1       2.546  59.410 121.020  0.00  0.00     0.091 C 
ENDROOT
BRANCH   1   7
ATOM      7  O   LIG d   1       0.302  58.856 120.208  0.00  0.00    -0.368 OA
BRANCH   7   8
ATOM      8  C   LIG d   1      -0.297  57.572 119.903  0.00  0.00     0.119 C 
BRANCH   8   9
ATOM      9  C   LIG d   1       0.377  57.040 118.623  0.00  0.00     0.028 C 
ATOM     10  C   LIG d   1       0.706  58.162 117.623  0.00  0.00     0.006 C 
ENDBRANCH   8   9
BRANCH   8  11
ATOM     11  C   LIG d   1      -1.780  57.719 119.549  0.00  0.00     0.028 C 
ATOM     12  C   LIG d   1      -2.294  59.157 119.722  0.00  0.00     0.006 C 
ENDBRANCH   8  11
ENDBRANCH   7   8
ENDBRANCH   1   7
BRANCH   6  13
ATOM     13  N   LIG d   1       3.261  58.301 120.337  0.00  0.00    -0.311 N 
ATOM     14  C   LIG d   1       4.033  58.475 119.266  0.00  0.00     0.210 C 
ATOM     15  C   LIG d   1       4.661  57.195 118.706  0.00  0.00     0.109 C 
ATOM     16  O   LIG d   1       4.283  59.573 118.746  0.00  0.00    -0.276 OA
ATOM     17  H   LIG d   1       3.139  57.380 120.712  0.00  0.00     0.149 HD
ENDBRANCH   6  13
BRANCH   5  18
ATOM     18  N   LIG d   1       4.613  60.524 121.938  0.00  0.00     0.381 N 
ATOM     19  H   LIG d   1       4.543  61.521 121.963  0.00  0.00    -0.090 HD
ATOM     20  H   LIG d   1       4.873  60.249 121.007  0.00  0.00    -0.090 HD
ATOM     21  H   LIG d   1       5.302  60.216 122.588  0.00  0.00    -0.090 HD
ENDBRANCH   5  18
BRANCH   3  22
ATOM     22  C   LIG d   1       0.492  61.125 124.303  0.00  0.00     0.382 C 
ATOM     23  O   LIG d   1       1.031  62.041 124.969  0.00  0.00    -0.241 OA
ATOM     24  O   LIG d   1      -0.611  60.672 124.664  0.00  0.00    -0.241 OA
ENDBRANCH   3  22
TORSDOF 7
ENDMDL
MODEL 7
REMARK VINA RESULT:      -3.9     23.706     26.282
REMARK  7 active torsions:
REMARK  status: ('A' for Active; 'I' for Inactive)
REMARK    1  A    between atoms: C_2  and  C_3 
REMARK    2  A    between atoms: C_3  and  O_6 
REMARK    3  A    between atoms: C_3  and  C_4 
REMARK    4  A    between atoms: C_7  and  O_6 
REMARK    5  A    between atoms: C_9  and  C_10 
REMARK    6  A    between atoms: N_15  and  C_14 
REMARK    7  A    between atoms: N_20  and  C_19 
REMARK       I    between atoms: C_22  and  N_20 
ROOT
ATOM      1  C   LIG d   1      -8.621  79.780 120.328  0.00  0.00     0.161 C 
ATOM      2  C   LIG d   1      -9.104  78.616 119.707  0.00  0.00     0.016 C 
ATOM      3  C   LIG d   1     -10.405  78.103 119.918  0.00  0.00     0.038 C 
ATOM      4  C   LIG d   1     -11.369  78.808 120.654  0.00  0.00     0.028 C 
ATOM      5  C   LIG d   1     -10.770  79.731 121.710  0.00  0.00    -0.047 C 
ATOM      6  C   LIG d   1      -9.696  80.622 121.047  0.00  0.00     0.091 C 
ENDROOT
BRANCH   1   7
ATOM      7  O   LIG d   1      -7.910  80.587 119.368  0.00  0.00    -0.368 OA
BRANCH   7   8
ATOM      8  C   LIG d   1      -8.627  81.731 118.842  0.00  0.00     0.119 C 
BRANCH   8   9
ATOM      9  C   LIG d   1      -9.032  81.397 117.394  0.00  0.00     0.028 C 
ATOM     10  C   LIG d   1     -10.555  81.450 117.183  0.00  0.00     0.006 C 
ENDBRANCH   8   9
BRANCH   8  11
ATOM     11  C   LIG d   1      -7.717  82.958 118.736  0.00  0.00     0.028 C 
ATOM     12  C   LIG d   1      -6.546  82.919 119.731  0.00  0.00     0.006 C 
ENDBRANCH   8  11
ENDBRANCH   7   8
ENDBRANCH   1   7
BRANCH   6  13
ATOM     13  N   LIG d   1      -9.000  81.497 122.027  0.00  0.00    -0.311 N 
ATOM     14  C   LIG d   1      -9.353  82.759 122.263  0.00  0.00     0.210 C 
ATOM     15  C   LIG d   1      -8.491  83.489 123.297  0.00  0.00     0.109 C 
ATOM     16  O   LIG d   1     -10.319  83.334 121.737  0.00  0.00    -0.276 OA
ATOM     17  H   LIG d   1      -8.225  81.101 122.521  0.00  0.00     0.149 HD
ENDBRANCH   6  13
BRANCH   5  18
ATOM     18  N   LIG d   1     -11.876  80.504 122.305  0.00  0.00     0.381 N 
ATOM     19  H   LIG d   1     -11.779  80.523 123.301  0.00  0.00    -0.090 HD
ATOM     20  H   LIG d   1     -12.746  80.052 122.082  0.00  0.00    -0.090 HD
ATOM     21  H   LIG d   1     -11.874  81.433 121.946  0.00  0.00    -0.090 HD
ENDBRANCH   5  18
BRANCH   3  22
ATOM     22  C   LIG d   1     -10.739  76.852 119.423  0.00  0.00     0.382 C 
ATOM     23  O   LIG d   1      -9.940  75.893 119.551  0.00  0.00    -0.241 OA
ATOM     24  O   LIG d   1     -11.810  76.680 118.812  0.00  0.00    -0.241 OA
ENDBRANCH   3  22
TORSDOF 7
ENDMDL
MODEL 8
REMARK VINA RESULT:      -3.9      2.541      4.765
REMARK  7 active torsions:
REMARK  status: ('A' for Active; 'I' for Inactive)
REMARK    1  A    between atoms: C_2  and  C_3 
REMARK    2  A    between atoms: C_3  and  O_6 
REMARK    3  A    between atoms: C_3  and  C_4 
REMARK    4  A    between atoms: C_7  and  O_6 
REMARK    5  A    between atoms: C_9  and  C_10 
REMARK    6  A    between atoms: N_15  and  C_14 
REMARK    7  A    between atoms: N_20  and  C_19 
REMARK       I    between atoms: C_22  and  N_20 
ROOT
ATOM      1  C   LIG d   1       1.326  56.878 120.835  0.00  0.00     0.161 C 
ATOM      2  C   LIG d   1       1.626  58.048 121.552  0.00  0.00     0.016 C 
ATOM      3  C   LIG d   1       2.525  59.036 121.089  0.00  0.00     0.038 C 
ATOM      4  C   LIG d   1       3.075  58.992 119.800  0.00  0.00     0.028 C 
ATOM      5  C   LIG d   1       3.196  57.578 119.240  0.00  0.00    -0.047 C 
ATOM      6  C   LIG d   1       1.830  56.866 119.377  0.00  0.00     0.091 C 
ENDROOT
BRANCH   1   7
ATOM      7  O   LIG d   1      -0.093  56.629 120.876  0.00  0.00    -0.368 OA
BRANCH   7   8
ATOM      8  C   LIG d   1      -0.921  57.734 121.315  0.00  0.00     0.119 C 
BRANCH   8   9
ATOM      9  C   LIG d   1      -1.873  57.197 122.401  0.00  0.00     0.028 C 
ATOM     10  C   LIG d   1      -3.351  57.298 121.989  0.00  0.00     0.006 C 
ENDBRANCH   8   9
BRANCH   8  11
ATOM     11  C   LIG d   1      -1.831  58.230 120.188  0.00  0.00     0.028 C 
ATOM     12  C   LIG d   1      -1.142  59.253 119.271  0.00  0.00     0.006 C 
ENDBRANCH   8  11
ENDBRANCH   7   8
ENDBRANCH   1   7
BRANCH   6  13
ATOM     13  N   LIG d   1       1.883  55.450 118.930  0.00  0.00    -0.311 N 
ATOM     14  C   LIG d   1       0.998  54.912 118.092  0.00  0.00     0.210 C 
ATOM     15  C   LIG d   1       1.224  53.430 117.777  0.00  0.00     0.109 C 
ATOM     16  O   LIG d   1       0.068  55.531 117.553  0.00  0.00    -0.276 OA
ATOM     17  H   LIG d   1       2.624  54.884 119.294  0.00  0.00     0.149 HD
ENDBRANCH   6  13
BRANCH   5  18
ATOM     18  N   LIG d   1       3.652  57.690 117.842  0.00  0.00     0.381 N 
ATOM     19  H   LIG d   1       3.095  58.364 117.356  0.00  0.00    -0.090 HD
ATOM     20  H   LIG d   1       3.536  56.800 117.390  0.00  0.00    -0.090 HD
ATOM     21  H   LIG d   1       4.611  57.960 117.817  0.00  0.00    -0.090 HD
ENDBRANCH   5  18
BRANCH   3  22
ATOM     22  C   LIG d   1       2.915  60.062 121.937  0.00  0.00     0.382 C 
ATOM     23  O   LIG d   1       4.121  60.401 121.997  0.00  0.00    -0.241 OA
ATOM     24  O   LIG d   1       2.082  60.622 122.674  0.00  0.00    -0.241 OA
ENDBRANCH   3  22
TORSDOF 7
ENDMDL
MODEL 9
REMARK VINA RESULT:      -3.9     25.617     28.528
REMARK  7 active torsions:
REMARK  status: ('A' for Active; 'I' for Inactive)
REMARK    1  A    between atoms: C_2  and  C_3 
REMARK    2  A    between atoms: C_3  and  O_6 
REMARK    3  A    between atoms: C_3  and  C_4 
REMARK    4  A    between atoms: C_7  and  O_6 
REMARK    5  A    between atoms: C_9  and  C_10 
REMARK    6  A    between atoms: N_15  and  C_14 
REMARK    7  A    between atoms: N_20  and  C_19 
REMARK       I    between atoms: C_22  and  N_20 
ROOT
ATOM      1  C   LIG d   1     -18.717  76.719 119.500  0.00  0.00     0.161 C 
ATOM      2  C   LIG d   1     -18.896  78.110 119.582  0.00  0.00     0.016 C 
ATOM      3  C   LIG d   1     -20.020  78.715 120.190  0.00  0.00     0.038 C 
ATOM      4  C   LIG d   1     -20.974  77.967 120.895  0.00  0.00     0.028 C 
ATOM      5  C   LIG d   1     -21.099  76.528 120.405  0.00  0.00    -0.047 C 
ATOM      6  C   LIG d   1     -19.692  75.889 120.361  0.00  0.00     0.091 C 
ENDROOT
BRANCH   1   7
ATOM      7  O   LIG d   1     -17.353  76.382 119.822  0.00  0.00    -0.368 OA
BRANCH   7   8
ATOM      8  C   LIG d   1     -17.120  75.876 121.159  0.00  0.00     0.119 C 
BRANCH   8   9
ATOM      9  C   LIG d   1     -16.465  77.008 121.975  0.00  0.00     0.028 C 
ATOM     10  C   LIG d   1     -17.425  77.615 123.012  0.00  0.00     0.006 C 
ENDBRANCH   8   9
BRANCH   8  11
ATOM     11  C   LIG d   1     -16.097  74.736 121.153  0.00  0.00     0.028 C 
ATOM     12  C   LIG d   1     -16.431  73.631 122.167  0.00  0.00     0.006 C 
ENDBRANCH   8  11
ENDBRANCH   7   8
ENDBRANCH   1   7
BRANCH   6  13
ATOM     13  N   LIG d   1     -19.713  74.508 119.812  0.00  0.00    -0.311 N 
ATOM     14  C   LIG d   1     -19.842  73.420 120.569  0.00  0.00     0.210 C 
ATOM     15  C   LIG d   1     -19.820  72.094 119.804  0.00  0.00     0.109 C 
ATOM     16  O   LIG d   1     -20.005  73.429 121.799  0.00  0.00    -0.276 OA
ATOM     17  H   LIG d   1     -19.618  74.410 118.820  0.00  0.00     0.149 HD
ENDBRANCH   6  13
BRANCH   5  18
ATOM     18  N   LIG d   1     -22.024  75.826 121.314  0.00  0.00     0.381 N 
ATOM     19  H   LIG d   1     -22.139  76.355 122.155  0.00  0.00    -0.090 HD
ATOM     20  H   LIG d   1     -21.630  74.933 121.553  0.00  0.00    -0.090 HD
ATOM     21  H   LIG d   1     -22.907  75.699 120.870  0.00  0.00    -0.090 HD
ENDBRANCH   5  18
BRANCH   3  22
ATOM     22  C   LIG d   1     -20.219  80.081 120.061  0.00  0.00     0.382 C 
ATOM     23  O   LIG d   1     -19.249  80.869 120.174  0.00  0.00    -0.241 OA
ATOM     24  O   LIG d   1     -21.363  80.539 119.879  0.00  0.00    -0.241 OA
ENDBRANCH   3  22
TORSDOF 7
ENDMDL
