MODEL 1
REMARK VINA RESULT:      -5.5      0.000      0.000
REMARK  7 active torsions:
REMARK  status: ('A' for Active; 'I' for Inactive)
REMARK    1  A    between atoms: C_2  and  C_3 
REMARK    2  A    between atoms: C_3  and  O_6 
REMARK    3  A    between atoms: C_3  and  C_4 
REMARK    4  A    between atoms: C_7  and  O_6 
REMARK    5  A    between atoms: C_9  and  C_10 
REMARK    6  A    between atoms: N_15  and  C_14 
REMARK    7  A    between atoms: N_20  and  C_19 
REMARK       I    between atoms: C_22  and  N_20 
ROOT
ATOM      1  C   LIG d   1      -0.158  60.228 118.546  0.00  0.00     0.161 C 
ATOM      2  C   LIG d   1      -1.525  59.908 118.587  0.00  0.00     0.016 C 
ATOM      3  C   LIG d   1      -2.028  58.610 118.338  0.00  0.00     0.038 C 
ATOM      4  C   LIG d   1      -1.180  57.504 118.179  0.00  0.00     0.028 C 
ATOM      5  C   LIG d   1       0.195  57.869 117.629  0.00  0.00    -0.047 C 
ATOM      6  C   LIG d   1       0.790  59.012 118.484  0.00  0.00     0.091 C 
ENDROOT
BRANCH   1   7
ATOM      7  O   LIG d   1       0.181  61.069 119.666  0.00  0.00    -0.368 OA
BRANCH   7   8
ATOM      8  C   LIG d   1       0.346  60.399 120.940  0.00  0.00     0.119 C 
BRANCH   8   9
ATOM      9  C   LIG d   1      -0.607  61.074 121.945  0.00  0.00     0.028 C 
ATOM     10  C   LIG d   1      -1.926  60.302 122.113  0.00  0.00     0.006 C 
ENDBRANCH   8   9
BRANCH   8  11
ATOM     11  C   LIG d   1       1.753  60.617 121.506  0.00  0.00     0.028 C 
ATOM     12  C   LIG d   1       2.207  59.474 122.428  0.00  0.00     0.006 C 
ENDBRANCH   8  11
ENDBRANCH   7   8
ENDBRANCH   1   7
BRANCH   6  13
ATOM     13  N   LIG d   1       2.098  59.487 117.962  0.00  0.00    -0.311 N 
ATOM     14  C   LIG d   1       3.271  59.091 118.454  0.00  0.00     0.210 C 
ATOM     15  C   LIG d   1       4.498  59.718 117.785  0.00  0.00     0.109 C 
ATOM     16  O   LIG d   1       3.412  58.255 119.360  0.00  0.00    -0.276 OA
ATOM     17  H   LIG d   1       2.077  60.143 117.207  0.00  0.00     0.149 HD
ENDBRANCH   6  13
BRANCH   5  18
ATOM     18  N   LIG d   1       1.020  56.646 117.643  0.00  0.00     0.381 N 
ATOM     19  H   LIG d   1       1.782  56.744 117.003  0.00  0.00    -0.090 HD
ATOM     20  H   LIG d   1       0.455  55.870 117.346  0.00  0.00    -0.090 HD
ATOM     21  H   LIG d   1       1.367  56.480 118.562  0.00  0.00    -0.090 HD
ENDBRANCH   5  18
BRANCH   3  22
ATOM     22  C   LIG d   1      -3.395  58.417 118.207  0.00  0.00     0.382 C 
ATOM     23  O   LIG d   1      -3.921  57.357 118.626  0.00  0.00    -0.241 OA
ATOM     24  O   LIG d   1      -4.101  59.268 117.636  0.00  0.00    -0.241 OA
ENDBRANCH   3  22
TORSDOF 7
ENDMDL
MODEL 2
REMARK VINA RESULT:      -5.2      2.223      5.776
REMARK  7 active torsions:
REMARK  status: ('A' for Active; 'I' for Inactive)
REMARK    1  A    between atoms: C_2  and  C_3 
REMARK    2  A    between atoms: C_3  and  O_6 
REMARK    3  A    between atoms: C_3  and  C_4 
REMARK    4  A    between atoms: C_7  and  O_6 
REMARK    5  A    between atoms: C_9  and  C_10 
REMARK    6  A    between atoms: N_15  and  C_14 
REMARK    7  A    between atoms: N_20  and  C_19 
REMARK       I    between atoms: C_22  and  N_20 
ROOT
ATOM      1  C   LIG d   1       0.053  59.784 118.539  0.00  0.00     0.161 C 
ATOM      2  C   LIG d   1       1.322  59.606 117.963  0.00  0.00     0.016 C 
ATOM      3  C   LIG d   1       2.484  59.317 118.714  0.00  0.00     0.038 C 
ATOM      4  C   LIG d   1       2.428  59.035 120.087  0.00  0.00     0.028 C 
ATOM      5  C   LIG d   1       1.250  59.698 120.794  0.00  0.00    -0.047 C 
ATOM      6  C   LIG d   1      -0.048  59.371 120.022  0.00  0.00     0.091 C 
ENDROOT
BRANCH   1   7
ATOM      7  O   LIG d   1      -0.940  59.091 117.757  0.00  0.00    -0.368 OA
BRANCH   7   8
ATOM      8  C   LIG d   1      -1.293  57.761 118.209  0.00  0.00     0.119 C 
BRANCH   8   9
ATOM      9  C   LIG d   1      -0.734  56.759 117.180  0.00  0.00     0.028 C 
ATOM     10  C   LIG d   1       0.458  55.958 117.729  0.00  0.00     0.006 C 
ENDBRANCH   8   9
BRANCH   8  11
ATOM     11  C   LIG d   1      -2.810  57.552 118.196  0.00  0.00     0.028 C 
ATOM     12  C   LIG d   1      -3.593  58.872 118.118  0.00  0.00     0.006 C 
ENDBRANCH   8  11
ENDBRANCH   7   8
ENDBRANCH   1   7
BRANCH   6  13
ATOM     13  N   LIG d   1      -1.237  60.050 120.598  0.00  0.00    -0.311 N 
ATOM     14  C   LIG d   1      -2.036  59.488 121.504  0.00  0.00     0.210 C 
ATOM     15  C   LIG d   1      -3.217  60.354 121.952  0.00  0.00     0.109 C 
ATOM     16  O   LIG d   1      -1.859  58.366 122.003  0.00  0.00    -0.276 OA
ATOM     17  H   LIG d   1      -1.436  60.976 120.272  0.00  0.00     0.149 HD
ENDBRANCH   6  13
BRANCH   5  18
ATOM     18  N   LIG d   1       1.234  59.210 122.186  0.00  0.00     0.381 N 
ATOM     19  H   LIG d   1       0.753  59.865 122.769  0.00  0.00    -0.090 HD
ATOM     20  H   LIG d   1       2.180  59.131 122.514  0.00  0.00    -0.090 HD
ATOM     21  H   LIG d   1       0.785  58.322 122.231  0.00  0.00    -0.090 HD
ENDBRANCH   5  18
BRANCH   3  22
ATOM     22  C   LIG d   1       3.726  59.347 118.098  0.00  0.00     0.382 C 
ATOM     23  O   LIG d   1       3.964  60.200 117.209  0.00  0.00    -0.241 OA
ATOM     24  O   LIG d   1       4.595  58.504 118.388  0.00  0.00    -0.241 OA
ENDBRANCH   3  22
TORSDOF 7
ENDMDL
MODEL 3
REMARK VINA RESULT:      -4.7      2.286      4.055
REMARK  7 active torsions:
REMARK  status: ('A' for Active; 'I' for Inactive)
REMARK    1  A    between atoms: C_2  and  C_3 
REMARK    2  A    between atoms: C_3  and  O_6 
REMARK    3  A    between atoms: C_3  and  C_4 
REMARK    4  A    between atoms: C_7  and  O_6 
REMARK    5  A    between atoms: C_9  and  C_10 
REMARK    6  A    between atoms: N_15  and  C_14 
REMARK    7  A    between atoms: N_20  and  C_19 
REMARK       I    between atoms: C_22  and  N_20 
ROOT
ATOM      1  C   LIG d   1       0.204  59.119 119.714  0.00  0.00     0.161 C 
ATOM      2  C   LIG d   1      -0.819  58.596 118.907  0.00  0.00     0.016 C 
ATOM      3  C   LIG d   1      -2.195  58.756 119.193  0.00  0.00     0.038 C 
ATOM      4  C   LIG d   1      -2.644  59.585 120.232  0.00  0.00     0.028 C 
ATOM      5  C   LIG d   1      -1.643  59.721 121.374  0.00  0.00    -0.047 C 
ATOM      6  C   LIG d   1      -0.268  60.119 120.790  0.00  0.00     0.091 C 
ENDROOT
BRANCH   1   7
ATOM      7  O   LIG d   1       1.222  59.716 118.887  0.00  0.00    -0.368 OA
BRANCH   7   8
ATOM      8  C   LIG d   1       2.381  58.892 118.607  0.00  0.00     0.119 C 
BRANCH   8   9
ATOM      9  C   LIG d   1       2.419  57.772 119.665  0.00  0.00     0.028 C 
ATOM     10  C   LIG d   1       2.684  56.389 119.047  0.00  0.00     0.006 C 
ENDBRANCH   8   9
BRANCH   8  11
ATOM     11  C   LIG d   1       3.682  59.676 118.799  0.00  0.00     0.028 C 
ATOM     12  C   LIG d   1       4.048  59.871 120.279  0.00  0.00     0.006 C 
ENDBRANCH   8  11
ENDBRANCH   7   8
ENDBRANCH   1   7
BRANCH   6  13
ATOM     13  N   LIG d   1       0.790  60.191 121.832  0.00  0.00    -0.311 N 
ATOM     14  C   LIG d   1       1.076  61.301 122.510  0.00  0.00     0.210 C 
ATOM     15  C   LIG d   1       2.216  61.164 123.524  0.00  0.00     0.109 C 
ATOM     16  O   LIG d   1       0.473  62.378 122.391  0.00  0.00    -0.276 OA
ATOM     17  H   LIG d   1       1.308  59.354 122.015  0.00  0.00     0.149 HD
ENDBRANCH   6  13
BRANCH   5  18
ATOM     18  N   LIG d   1      -2.179  60.718 122.320  0.00  0.00     0.381 N 
ATOM     19  H   LIG d   1      -2.537  60.255 123.132  0.00  0.00    -0.090 HD
ATOM     20  H   LIG d   1      -2.935  61.211 121.879  0.00  0.00    -0.090 HD
ATOM     21  H   LIG d   1      -1.463  61.359 122.583  0.00  0.00    -0.090 HD
ENDBRANCH   5  18
BRANCH   3  22
ATOM     22  C   LIG d   1      -3.136  58.051 118.459  0.00  0.00     0.382 C 
ATOM     23  O   LIG d   1      -4.117  58.651 117.955  0.00  0.00    -0.241 OA
ATOM     24  O   LIG d   1      -3.041  56.816 118.330  0.00  0.00    -0.241 OA
ENDBRANCH   3  22
TORSDOF 7
ENDMDL
MODEL 4
REMARK VINA RESULT:      -4.5      1.994      2.909
REMARK  7 active torsions:
REMARK  status: ('A' for Active; 'I' for Inactive)
REMARK    1  A    between atoms: C_2  and  C_3 
REMARK    2  A    between atoms: C_3  and  O_6 
REMARK    3  A    between atoms: C_3  and  C_4 
REMARK    4  A    between atoms: C_7  and  O_6 
REMARK    5  A    between atoms: C_9  and  C_10 
REMARK    6  A    between atoms: N_15  and  C_14 
REMARK    7  A    between atoms: N_20  and  C_19 
REMARK       I    between atoms: C_22  and  N_20 
ROOT
ATOM      1  C   LIG d   1       1.003  58.279 118.822  0.00  0.00     0.161 C 
ATOM      2  C   LIG d   1      -0.227  58.938 118.653  0.00  0.00     0.016 C 
ATOM      3  C   LIG d   1      -1.354  58.337 118.047  0.00  0.00     0.038 C 
ATOM      4  C   LIG d   1      -1.375  56.977 117.704  0.00  0.00     0.028 C 
ATOM      5  C   LIG d   1       0.006  56.410 117.394  0.00  0.00    -0.047 C 
ATOM      6  C   LIG d   1       0.965  56.760 118.554  0.00  0.00     0.091 C 
ENDROOT
BRANCH   1   7
ATOM      7  O   LIG d   1       1.521  58.543 120.141  0.00  0.00    -0.368 OA
BRANCH   7   8
ATOM      8  C   LIG d   1       2.107  59.852 120.346  0.00  0.00     0.119 C 
BRANCH   8   9
ATOM      9  C   LIG d   1       3.559  59.794 119.834  0.00  0.00     0.028 C 
ATOM     10  C   LIG d   1       4.571  59.555 120.968  0.00  0.00     0.006 C 
ENDBRANCH   8   9
BRANCH   8  11
ATOM     11  C   LIG d   1       2.215  60.187 121.836  0.00  0.00     0.028 C 
ATOM     12  C   LIG d   1       1.467  61.476 122.213  0.00  0.00     0.006 C 
ENDBRANCH   8  11
ENDBRANCH   7   8
ENDBRANCH   1   7
BRANCH   6  13
ATOM     13  N   LIG d   1       2.358  56.314 118.293  0.00  0.00    -0.311 N 
ATOM     14  C   LIG d   1       3.055  55.553 119.135  0.00  0.00     0.210 C 
ATOM     15  C   LIG d   1       4.481  55.225 118.681  0.00  0.00     0.109 C 
ATOM     16  O   LIG d   1       2.616  55.092 120.199  0.00  0.00    -0.276 OA
ATOM     17  H   LIG d   1       2.781  56.617 117.437  0.00  0.00     0.149 HD
ENDBRANCH   6  13
BRANCH   5  18
ATOM     18  N   LIG d   1      -0.146  54.957 117.187  0.00  0.00     0.381 N 
ATOM     19  H   LIG d   1       0.583  54.622 116.588  0.00  0.00    -0.090 HD
ATOM     20  H   LIG d   1      -1.028  54.783 116.739  0.00  0.00    -0.090 HD
ATOM     21  H   LIG d   1      -0.110  54.483 118.062  0.00  0.00    -0.090 HD
ENDBRANCH   5  18
BRANCH   3  22
ATOM     22  C   LIG d   1      -2.464  59.111 117.743  0.00  0.00     0.382 C 
ATOM     23  O   LIG d   1      -3.616  58.680 117.992  0.00  0.00    -0.241 OA
ATOM     24  O   LIG d   1      -2.331  60.215 117.182  0.00  0.00    -0.241 OA
ENDBRANCH   3  22
TORSDOF 7
ENDMDL
MODEL 5
REMARK VINA RESULT:      -4.3     22.044     23.742
REMARK  7 active torsions:
REMARK  status: ('A' for Active; 'I' for Inactive)
REMARK    1  A    between atoms: C_2  and  C_3 
REMARK    2  A    between atoms: C_3  and  O_6 
REMARK    3  A    between atoms: C_3  and  C_4 
REMARK    4  A    between atoms: C_7  and  O_6 
REMARK    5  A    between atoms: C_9  and  C_10 
REMARK    6  A    between atoms: N_15  and  C_14 
REMARK    7  A    between atoms: N_20  and  C_19 
REMARK       I    between atoms: C_22  and  N_20 
ROOT
ATOM      1  C   LIG d   1      -8.259  81.663 118.473  0.00  0.00     0.161 C 
ATOM      2  C   LIG d   1      -8.447  82.861 119.183  0.00  0.00     0.016 C 
ATOM      3  C   LIG d   1      -8.909  82.910 120.518  0.00  0.00     0.038 C 
ATOM      4  C   LIG d   1      -9.071  81.750 121.290  0.00  0.00     0.028 C 
ATOM      5  C   LIG d   1      -9.378  80.508 120.459  0.00  0.00    -0.047 C 
ATOM      6  C   LIG d   1      -8.325  80.384 119.334  0.00  0.00     0.091 C 
ENDROOT
BRANCH   1   7
ATOM      7  O   LIG d   1      -7.015  81.715 117.748  0.00  0.00    -0.368 OA
BRANCH   7   8
ATOM      8  C   LIG d   1      -5.831  81.320 118.483  0.00  0.00     0.119 C 
BRANCH   8   9
ATOM      9  C   LIG d   1      -4.915  82.555 118.583  0.00  0.00     0.028 C 
ATOM     10  C   LIG d   1      -4.887  83.152 120.000  0.00  0.00     0.006 C 
ENDBRANCH   8   9
BRANCH   8  11
ATOM     11  C   LIG d   1      -5.020  80.274 117.713  0.00  0.00     0.028 C 
ATOM     12  C   LIG d   1      -3.640  80.793 117.277  0.00  0.00     0.006 C 
ENDBRANCH   8  11
ENDBRANCH   7   8
ENDBRANCH   1   7
BRANCH   6  13
ATOM     13  N   LIG d   1      -8.600  79.242 118.424  0.00  0.00    -0.311 N 
ATOM     14  C   LIG d   1      -7.981  78.067 118.515  0.00  0.00     0.210 C 
ATOM     15  C   LIG d   1      -8.399  77.033 117.464  0.00  0.00     0.109 C 
ATOM     16  O   LIG d   1      -7.149  77.771 119.386  0.00  0.00    -0.276 OA
ATOM     17  H   LIG d   1      -9.284  79.385 117.707  0.00  0.00     0.149 HD
ENDBRANCH   6  13
BRANCH   5  18
ATOM     18  N   LIG d   1      -9.385  79.351 121.374  0.00  0.00     0.381 N 
ATOM     19  H   LIG d   1     -10.281  78.905 121.349  0.00  0.00    -0.090 HD
ATOM     20  H   LIG d   1      -9.220  79.675 122.311  0.00  0.00    -0.090 HD
ATOM     21  H   LIG d   1      -8.676  78.702 121.110  0.00  0.00    -0.090 HD
ENDBRANCH   5  18
BRANCH   3  22
ATOM     22  C   LIG d   1      -9.252  84.129 121.082  0.00  0.00     0.382 C 
ATOM     23  O   LIG d   1      -8.375  85.010 121.252  0.00  0.00    -0.241 OA
ATOM     24  O   LIG d   1     -10.418  84.343 121.464  0.00  0.00    -0.241 OA
ENDBRANCH   3  22
TORSDOF 7
ENDMDL
MODEL 6
REMARK VINA RESULT:      -4.3     24.312     26.371
REMARK  7 active torsions:
REMARK  status: ('A' for Active; 'I' for Inactive)
REMARK    1  A    between atoms: C_2  and  C_3 
REMARK    2  A    between atoms: C_3  and  O_6 
REMARK    3  A    between atoms: C_3  and  C_4 
REMARK    4  A    between atoms: C_7  and  O_6 
REMARK    5  A    between atoms: C_9  and  C_10 
REMARK    6  A    between atoms: N_15  and  C_14 
REMARK    7  A    between atoms: N_20  and  C_19 
REMARK       I    between atoms: C_22  and  N_20 
ROOT
ATOM      1  C   LIG d   1     -18.231  77.689 119.641  0.00  0.00     0.161 C 
ATOM      2  C   LIG d   1     -18.192  76.309 119.381  0.00  0.00     0.016 C 
ATOM      3  C   LIG d   1     -17.481  75.386 120.181  0.00  0.00     0.038 C 
ATOM      4  C   LIG d   1     -16.880  75.764 121.392  0.00  0.00     0.028 C 
ATOM      5  C   LIG d   1     -16.467  77.231 121.431  0.00  0.00    -0.047 C 
ATOM      6  C   LIG d   1     -17.674  78.104 121.019  0.00  0.00     0.091 C 
ENDROOT
BRANCH   1   7
ATOM      7  O   LIG d   1     -19.577  78.180 119.477  0.00  0.00    -0.368 OA
BRANCH   7   8
ATOM      8  C   LIG d   1     -20.524  77.798 120.504  0.00  0.00     0.119 C 
BRANCH   8   9
ATOM      9  C   LIG d   1     -21.734  77.151 119.801  0.00  0.00     0.028 C 
ATOM     10  C   LIG d   1     -21.819  75.637 120.054  0.00  0.00     0.006 C 
ENDBRANCH   8   9
BRANCH   8  11
ATOM     11  C   LIG d   1     -21.085  79.025 121.229  0.00  0.00     0.028 C 
ATOM     12  C   LIG d   1     -20.974  80.311 120.395  0.00  0.00     0.006 C 
ENDBRANCH   8  11
ENDBRANCH   7   8
ENDBRANCH   1   7
BRANCH   6  13
ATOM     13  N   LIG d   1     -17.332  79.548 120.950  0.00  0.00    -0.311 N 
ATOM     14  C   LIG d   1     -17.569  80.406 121.941  0.00  0.00     0.210 C 
ATOM     15  C   LIG d   1     -17.157  81.854 121.655  0.00  0.00     0.109 C 
ATOM     16  O   LIG d   1     -18.052  80.100 123.041  0.00  0.00    -0.276 OA
ATOM     17  H   LIG d   1     -16.908  79.877 120.104  0.00  0.00     0.149 HD
ENDBRANCH   6  13
BRANCH   5  18
ATOM     18  N   LIG d   1     -15.982  77.521 122.794  0.00  0.00     0.381 N 
ATOM     19  H   LIG d   1     -16.375  76.866 123.440  0.00  0.00    -0.090 HD
ATOM     20  H   LIG d   1     -16.284  78.443 123.057  0.00  0.00    -0.090 HD
ATOM     21  H   LIG d   1     -14.988  77.469 122.821  0.00  0.00    -0.090 HD
ENDBRANCH   5  18
BRANCH   3  22
ATOM     22  C   LIG d   1     -17.332  74.076 119.752  0.00  0.00     0.382 C 
ATOM     23  O   LIG d   1     -17.173  73.831 118.532  0.00  0.00    -0.241 OA
ATOM     24  O   LIG d   1     -17.398  73.134 120.564  0.00  0.00    -0.241 OA
ENDBRANCH   3  22
TORSDOF 7
ENDMDL
MODEL 7
REMARK VINA RESULT:      -4.3     34.455     36.272
REMARK  7 active torsions:
REMARK  status: ('A' for Active; 'I' for Inactive)
REMARK    1  A    between atoms: C_2  and  C_3 
REMARK    2  A    between atoms: C_3  and  O_6 
REMARK    3  A    between atoms: C_3  and  C_4 
REMARK    4  A    between atoms: C_7  and  O_6 
REMARK    5  A    between atoms: C_9  and  C_10 
REMARK    6  A    between atoms: N_15  and  C_14 
REMARK    7  A    between atoms: N_20  and  C_19 
REMARK       I    between atoms: C_22  and  N_20 
ROOT
ATOM      1  C   LIG d   1      -5.497  94.266 120.163  0.00  0.00     0.161 C 
ATOM      2  C   LIG d   1      -4.279  93.753 119.686  0.00  0.00     0.016 C 
ATOM      3  C   LIG d   1      -4.170  92.972 118.512  0.00  0.00     0.038 C 
ATOM      4  C   LIG d   1      -5.258  92.776 117.649  0.00  0.00     0.028 C 
ATOM      5  C   LIG d   1      -6.610  92.849 118.351  0.00  0.00    -0.047 C 
ATOM      6  C   LIG d   1      -6.677  94.156 119.175  0.00  0.00     0.091 C 
ENDROOT
BRANCH   1   7
ATOM      7  O   LIG d   1      -5.321  95.634 120.582  0.00  0.00    -0.368 OA
BRANCH   7   8
ATOM      8  C   LIG d   1      -5.517  96.643 119.562  0.00  0.00     0.119 C 
BRANCH   8   9
ATOM      9  C   LIG d   1      -4.201  97.433 119.433  0.00  0.00     0.028 C 
ATOM     10  C   LIG d   1      -4.385  98.763 118.682  0.00  0.00     0.006 C 
ENDBRANCH   8   9
BRANCH   8  11
ATOM     11  C   LIG d   1      -6.567  97.672 119.992  0.00  0.00     0.028 C 
ATOM     12  C   LIG d   1      -7.022  97.487 121.448  0.00  0.00     0.006 C 
ENDBRANCH   8  11
ENDBRANCH   7   8
ENDBRANCH   1   7
BRANCH   6  13
ATOM     13  N   LIG d   1      -7.933  94.266 119.961  0.00  0.00    -0.311 N 
ATOM     14  C   LIG d   1      -9.009  94.927 119.535  0.00  0.00     0.210 C 
ATOM     15  C   LIG d   1     -10.191  94.934 120.509  0.00  0.00     0.109 C 
ATOM     16  O   LIG d   1      -9.107  95.479 118.429  0.00  0.00    -0.276 OA
ATOM     17  H   LIG d   1      -7.952  93.820 120.857  0.00  0.00     0.149 HD
ENDBRANCH   6  13
BRANCH   5  18
ATOM     18  N   LIG d   1      -7.656  92.766 117.314  0.00  0.00     0.381 N 
ATOM     19  H   LIG d   1      -7.749  93.649 116.855  0.00  0.00    -0.090 HD
ATOM     20  H   LIG d   1      -8.532  92.545 117.754  0.00  0.00    -0.090 HD
ATOM     21  H   LIG d   1      -7.422  92.061 116.650  0.00  0.00    -0.090 HD
ENDBRANCH   5  18
BRANCH   3  22
ATOM     22  C   LIG d   1      -2.971  92.344 118.214  0.00  0.00     0.382 C 
ATOM     23  O   LIG d   1      -2.960  91.129 117.902  0.00  0.00    -0.241 OA
ATOM     24  O   LIG d   1      -1.894  92.966 118.295  0.00  0.00    -0.241 OA
ENDBRANCH   3  22
TORSDOF 7
ENDMDL
MODEL 8
REMARK VINA RESULT:      -4.3     21.007     22.646
REMARK  7 active torsions:
REMARK  status: ('A' for Active; 'I' for Inactive)
REMARK    1  A    between atoms: C_2  and  C_3 
REMARK    2  A    between atoms: C_3  and  O_6 
REMARK    3  A    between atoms: C_3  and  C_4 
REMARK    4  A    between atoms: C_7  and  O_6 
REMARK    5  A    between atoms: C_9  and  C_10 
REMARK    6  A    between atoms: N_15  and  C_14 
REMARK    7  A    between atoms: N_20  and  C_19 
REMARK       I    between atoms: C_22  and  N_20 
ROOT
ATOM      1  C   LIG d   1      -7.324  79.630 120.393  0.00  0.00     0.161 C 
ATOM      2  C   LIG d   1      -8.634  79.433 120.860  0.00  0.00     0.016 C 
ATOM      3  C   LIG d   1      -9.604  80.460 120.914  0.00  0.00     0.038 C 
ATOM      4  C   LIG d   1      -9.374  81.727 120.359  0.00  0.00     0.028 C 
ATOM      5  C   LIG d   1      -7.900  82.119 120.336  0.00  0.00    -0.047 C 
ATOM      6  C   LIG d   1      -7.088  80.979 119.681  0.00  0.00     0.091 C 
ENDROOT
BRANCH   1   7
ATOM      7  O   LIG d   1      -6.941  78.537 119.536  0.00  0.00    -0.368 OA
BRANCH   7   8
ATOM      8  C   LIG d   1      -7.271  78.681 118.132  0.00  0.00     0.119 C 
BRANCH   8   9
ATOM      9  C   LIG d   1      -8.367  77.648 117.806  0.00  0.00     0.028 C 
ATOM     10  C   LIG d   1      -7.804  76.225 117.652  0.00  0.00     0.006 C 
ENDBRANCH   8   9
BRANCH   8  11
ATOM     11  C   LIG d   1      -6.084  78.309 117.239  0.00  0.00     0.028 C 
ATOM     12  C   LIG d   1      -4.775  78.139 118.028  0.00  0.00     0.006 C 
ENDBRANCH   8  11
ENDBRANCH   7   8
ENDBRANCH   1   7
BRANCH   6  13
ATOM     13  N   LIG d   1      -5.626  81.244 119.693  0.00  0.00    -0.311 N 
ATOM     14  C   LIG d   1      -4.967  81.769 118.662  0.00  0.00     0.210 C 
ATOM     15  C   LIG d   1      -3.460  81.941 118.877  0.00  0.00     0.109 C 
ATOM     16  O   LIG d   1      -5.493  82.138 117.600  0.00  0.00    -0.276 OA
ATOM     17  H   LIG d   1      -5.126  81.004 120.527  0.00  0.00     0.149 HD
ENDBRANCH   6  13
BRANCH   5  18
ATOM     18  N   LIG d   1      -7.791  83.398 119.609  0.00  0.00     0.381 N 
ATOM     19  H   LIG d   1      -7.646  84.145 120.258  0.00  0.00    -0.090 HD
ATOM     20  H   LIG d   1      -8.651  83.568 119.119  0.00  0.00    -0.090 HD
ATOM     21  H   LIG d   1      -7.034  83.359 118.962  0.00  0.00    -0.090 HD
ENDBRANCH   5  18
BRANCH   3  22
ATOM     22  C   LIG d   1     -10.808  80.234 121.564  0.00  0.00     0.382 C 
ATOM     23  O   LIG d   1     -11.195  79.060 121.778  0.00  0.00    -0.241 OA
ATOM     24  O   LIG d   1     -11.533  81.190 121.900  0.00  0.00    -0.241 OA
ENDBRANCH   3  22
TORSDOF 7
ENDMDL
MODEL 9
REMARK VINA RESULT:      -4.1     23.445     25.239
REMARK  7 active torsions:
REMARK  status: ('A' for Active; 'I' for Inactive)
REMARK    1  A    between atoms: C_2  and  C_3 
REMARK    2  A    between atoms: C_3  and  O_6 
REMARK    3  A    between atoms: C_3  and  C_4 
REMARK    4  A    between atoms: C_7  and  O_6 
REMARK    5  A    between atoms: C_9  and  C_10 
REMARK    6  A    between atoms: N_15  and  C_14 
REMARK    7  A    between atoms: N_20  and  C_19 
REMARK       I    between atoms: C_22  and  N_20 
ROOT
ATOM      1  C   LIG d   1      -7.828  83.099 120.192  0.00  0.00     0.161 C 
ATOM      2  C   LIG d   1      -8.110  84.308 120.849  0.00  0.00     0.016 C 
ATOM      3  C   LIG d   1      -9.278  84.521 121.618  0.00  0.00     0.038 C 
ATOM      4  C   LIG d   1     -10.175  83.483 121.908  0.00  0.00     0.028 C 
ATOM      5  C   LIG d   1     -10.191  82.384 120.851  0.00  0.00    -0.047 C 
ATOM      6  C   LIG d   1      -8.740  81.919 120.588  0.00  0.00     0.091 C 
ENDROOT
BRANCH   1   7
ATOM      7  O   LIG d   1      -6.443  82.748 120.387  0.00  0.00    -0.368 OA
BRANCH   7   8
ATOM      8  C   LIG d   1      -5.521  83.205 119.368  0.00  0.00     0.119 C 
BRANCH   8   9
ATOM      9  C   LIG d   1      -5.504  82.145 118.250  0.00  0.00     0.028 C 
ATOM     10  C   LIG d   1      -5.127  80.748 118.771  0.00  0.00     0.006 C 
ENDBRANCH   8   9
BRANCH   8  11
ATOM     11  C   LIG d   1      -4.085  83.258 119.898  0.00  0.00     0.028 C 
ATOM     12  C   LIG d   1      -4.019  83.512 121.412  0.00  0.00     0.006 C 
ENDBRANCH   8  11
ENDBRANCH   7   8
ENDBRANCH   1   7
BRANCH   6  13
ATOM     13  N   LIG d   1      -8.658  80.903 119.506  0.00  0.00    -0.311 N 
ATOM     14  C   LIG d   1      -8.700  79.591 119.728  0.00  0.00     0.210 C 
ATOM     15  C   LIG d   1      -8.578  78.719 118.474  0.00  0.00     0.109 C 
ATOM     16  O   LIG d   1      -8.859  79.066 120.840  0.00  0.00    -0.276 OA
ATOM     17  H   LIG d   1      -8.559  81.242 118.569  0.00  0.00     0.149 HD
ENDBRANCH   6  13
BRANCH   5  18
ATOM     18  N   LIG d   1     -11.064  81.302 121.346  0.00  0.00     0.381 N 
ATOM     19  H   LIG d   1     -10.544  80.695 121.947  0.00  0.00    -0.090 HD
ATOM     20  H   LIG d   1     -11.392  80.765 120.563  0.00  0.00    -0.090 HD
ATOM     21  H   LIG d   1     -11.838  81.688 121.840  0.00  0.00    -0.090 HD
ENDBRANCH   5  18
BRANCH   3  22
ATOM     22  C   LIG d   1      -9.577  85.797 122.073  0.00  0.00     0.382 C 
ATOM     23  O   LIG d   1     -10.672  86.017 122.645  0.00  0.00    -0.241 OA
ATOM     24  O   LIG d   1      -8.786  86.739 121.879  0.00  0.00    -0.241 OA
ENDBRANCH   3  22
TORSDOF 7
ENDMDL
