MODEL 1
REMARK VINA RESULT:      -4.9      0.000      0.000
REMARK  7 active torsions:
REMARK  status: ('A' for Active; 'I' for Inactive)
REMARK    1  A    between atoms: C_2  and  C_3 
REMARK    2  A    between atoms: C_3  and  O_6 
REMARK    3  A    between atoms: C_3  and  C_4 
REMARK    4  A    between atoms: C_7  and  O_6 
REMARK    5  A    between atoms: C_9  and  C_10 
REMARK    6  A    between atoms: N_15  and  C_14 
REMARK    7  A    between atoms: N_20  and  C_19 
REMARK       I    between atoms: C_22  and  N_20 
ROOT
ATOM      1  C   LIG d   1     -12.183  65.577 122.556  0.00  0.00     0.161 C 
ATOM      2  C   LIG d   1     -11.065  64.875 123.038  0.00  0.00     0.016 C 
ATOM      3  C   LIG d   1     -10.637  63.636 122.508  0.00  0.00     0.038 C 
ATOM      4  C   LIG d   1     -11.212  63.084 121.354  0.00  0.00     0.028 C 
ATOM      5  C   LIG d   1     -12.663  63.505 121.140  0.00  0.00    -0.047 C 
ATOM      6  C   LIG d   1     -12.756  65.045 121.226  0.00  0.00     0.091 C 
ENDROOT
BRANCH   1   7
ATOM      7  O   LIG d   1     -11.867  66.979 122.441  0.00  0.00    -0.368 OA
BRANCH   7   8
ATOM      8  C   LIG d   1     -12.125  67.788 123.615  0.00  0.00     0.119 C 
BRANCH   8   9
ATOM      9  C   LIG d   1     -13.575  67.513 124.058  0.00  0.00     0.028 C 
ATOM     10  C   LIG d   1     -14.587  68.441 123.365  0.00  0.00     0.006 C 
ENDBRANCH   8   9
BRANCH   8  11
ATOM     11  C   LIG d   1     -12.080  69.282 123.282  0.00  0.00     0.028 C 
ATOM     12  C   LIG d   1     -11.398  70.117 124.378  0.00  0.00     0.006 C 
ENDBRANCH   8  11
ENDBRANCH   7   8
ENDBRANCH   1   7
BRANCH   6  13
ATOM     13  N   LIG d   1     -14.154  65.536 121.111  0.00  0.00    -0.311 N 
ATOM     14  C   LIG d   1     -14.546  66.427 120.202  0.00  0.00     0.210 C 
ATOM     15  C   LIG d   1     -16.028  66.811 120.270  0.00  0.00     0.109 C 
ATOM     16  O   LIG d   1     -13.815  66.912 119.326  0.00  0.00    -0.276 OA
ATOM     17  H   LIG d   1     -14.821  65.170 121.763  0.00  0.00     0.149 HD
ENDBRANCH   6  13
BRANCH   5  18
ATOM     18  N   LIG d   1     -13.093  62.971 119.834  0.00  0.00     0.381 N 
ATOM     19  H   LIG d   1     -13.422  63.718 119.255  0.00  0.00    -0.090 HD
ATOM     20  H   LIG d   1     -13.851  62.327 119.980  0.00  0.00    -0.090 HD
ATOM     21  H   LIG d   1     -12.333  62.506 119.388  0.00  0.00    -0.090 HD
ENDBRANCH   5  18
BRANCH   3  22
ATOM     22  C   LIG d   1      -9.647  62.916 123.160  0.00  0.00     0.382 C 
ATOM     23  O   LIG d   1      -9.776  62.631 124.375  0.00  0.00    -0.241 OA
ATOM     24  O   LIG d   1      -8.608  62.585 122.559  0.00  0.00    -0.241 OA
ENDBRANCH   3  22
TORSDOF 7
ENDMDL
MODEL 2
REMARK VINA RESULT:      -4.7     11.291     14.237
REMARK  7 active torsions:
REMARK  status: ('A' for Active; 'I' for Inactive)
REMARK    1  A    between atoms: C_2  and  C_3 
REMARK    2  A    between atoms: C_3  and  O_6 
REMARK    3  A    between atoms: C_3  and  C_4 
REMARK    4  A    between atoms: C_7  and  O_6 
REMARK    5  A    between atoms: C_9  and  C_10 
REMARK    6  A    between atoms: N_15  and  C_14 
REMARK    7  A    between atoms: N_20  and  C_19 
REMARK       I    between atoms: C_22  and  N_20 
ROOT
ATOM      1  C   LIG d   1      -0.581  57.576 121.366  0.00  0.00     0.161 C 
ATOM      2  C   LIG d   1       0.741  57.114 121.476  0.00  0.00     0.016 C 
ATOM      3  C   LIG d   1       1.690  57.214 120.432  0.00  0.00     0.038 C 
ATOM      4  C   LIG d   1       1.422  57.925 119.253  0.00  0.00     0.028 C 
ATOM      5  C   LIG d   1      -0.060  57.971 118.895  0.00  0.00    -0.047 C 
ATOM      6  C   LIG d   1      -0.858  58.454 120.127  0.00  0.00     0.091 C 
ENDROOT
BRANCH   1   7
ATOM      7  O   LIG d   1      -0.956  58.275 122.569  0.00  0.00    -0.368 OA
BRANCH   7   8
ATOM      8  C   LIG d   1      -0.707  59.702 122.581  0.00  0.00     0.119 C 
BRANCH   8   9
ATOM      9  C   LIG d   1       0.334  59.982 123.682  0.00  0.00     0.028 C 
ATOM     10  C   LIG d   1       1.734  60.258 123.109  0.00  0.00     0.006 C 
ENDBRANCH   8   9
BRANCH   8  11
ATOM     11  C   LIG d   1      -1.958  60.482 122.998  0.00  0.00     0.028 C 
ATOM     12  C   LIG d   1      -3.167  59.571 123.265  0.00  0.00     0.006 C 
ENDBRANCH   8  11
ENDBRANCH   7   8
ENDBRANCH   1   7
BRANCH   6  13
ATOM     13  N   LIG d   1      -2.325  58.447 119.890  0.00  0.00    -0.311 N 
ATOM     14  C   LIG d   1      -3.015  59.527 119.527  0.00  0.00     0.210 C 
ATOM     15  C   LIG d   1      -4.521  59.306 119.354  0.00  0.00     0.109 C 
ATOM     16  O   LIG d   1      -2.517  60.640 119.299  0.00  0.00    -0.276 OA
ATOM     17  H   LIG d   1      -2.805  57.578 120.021  0.00  0.00     0.149 HD
ENDBRANCH   6  13
BRANCH   5  18
ATOM     18  N   LIG d   1      -0.209  58.856 117.725  0.00  0.00     0.381 N 
ATOM     19  H   LIG d   1      -0.746  58.395 117.018  0.00  0.00    -0.090 HD
ATOM     20  H   LIG d   1       0.702  59.056 117.350  0.00  0.00    -0.090 HD
ATOM     21  H   LIG d   1      -0.658  59.704 117.994  0.00  0.00    -0.090 HD
ENDBRANCH   5  18
BRANCH   3  22
ATOM     22  C   LIG d   1       2.909  56.564 120.547  0.00  0.00     0.382 C 
ATOM     23  O   LIG d   1       3.772  56.686 119.645  0.00  0.00    -0.241 OA
ATOM     24  O   LIG d   1       3.140  55.822 121.521  0.00  0.00    -0.241 OA
ENDBRANCH   3  22
TORSDOF 7
ENDMDL
MODEL 3
REMARK VINA RESULT:      -4.7     12.057     14.930
REMARK  7 active torsions:
REMARK  status: ('A' for Active; 'I' for Inactive)
REMARK    1  A    between atoms: C_2  and  C_3 
REMARK    2  A    between atoms: C_3  and  O_6 
REMARK    3  A    between atoms: C_3  and  C_4 
REMARK    4  A    between atoms: C_7  and  O_6 
REMARK    5  A    between atoms: C_9  and  C_10 
REMARK    6  A    between atoms: N_15  and  C_14 
REMARK    7  A    between atoms: N_20  and  C_19 
REMARK       I    between atoms: C_22  and  N_20 
ROOT
ATOM      1  C   LIG d   1      -9.861  78.870 120.101  0.00  0.00     0.161 C 
ATOM      2  C   LIG d   1     -10.796  78.339 121.004  0.00  0.00     0.016 C 
ATOM      3  C   LIG d   1     -11.504  79.125 121.943  0.00  0.00     0.038 C 
ATOM      4  C   LIG d   1     -11.434  80.526 121.940  0.00  0.00     0.028 C 
ATOM      5  C   LIG d   1     -10.122  81.066 121.381  0.00  0.00    -0.047 C 
ATOM      6  C   LIG d   1      -9.854  80.410 120.007  0.00  0.00     0.091 C 
ENDROOT
BRANCH   1   7
ATOM      7  O   LIG d   1     -10.058  78.290 118.796  0.00  0.00    -0.368 OA
BRANCH   7   8
ATOM      8  C   LIG d   1      -9.701  76.892 118.659  0.00  0.00     0.119 C 
BRANCH   8   9
ATOM      9  C   LIG d   1      -8.651  76.790 117.536  0.00  0.00     0.028 C 
ATOM     10  C   LIG d   1      -7.503  77.797 117.713  0.00  0.00     0.006 C 
ENDBRANCH   8   9
BRANCH   8  11
ATOM     11  C   LIG d   1     -10.892  76.057 118.179  0.00  0.00     0.028 C 
ATOM     12  C   LIG d   1     -10.470  74.699 117.594  0.00  0.00     0.006 C 
ENDBRANCH   8  11
ENDBRANCH   7   8
ENDBRANCH   1   7
BRANCH   6  13
ATOM     13  N   LIG d   1      -8.548  80.820 119.429  0.00  0.00    -0.311 N 
ATOM     14  C   LIG d   1      -8.433  81.544 118.317  0.00  0.00     0.210 C 
ATOM     15  C   LIG d   1      -6.994  81.839 117.883  0.00  0.00     0.109 C 
ATOM     16  O   LIG d   1      -9.387  81.997 117.667  0.00  0.00    -0.276 OA
ATOM     17  H   LIG d   1      -7.722  80.521 119.910  0.00  0.00     0.149 HD
ENDBRANCH   6  13
BRANCH   5  18
ATOM     18  N   LIG d   1     -10.239  82.534 121.308  0.00  0.00     0.381 N 
ATOM     19  H   LIG d   1     -11.013  82.783 120.725  0.00  0.00    -0.090 HD
ATOM     20  H   LIG d   1      -9.402  82.907 120.898  0.00  0.00    -0.090 HD
ATOM     21  H   LIG d   1     -10.367  82.912 122.221  0.00  0.00    -0.090 HD
ENDBRANCH   5  18
BRANCH   3  22
ATOM     22  C   LIG d   1     -12.261  78.505 122.926  0.00  0.00     0.382 C 
ATOM     23  O   LIG d   1     -11.990  78.690 124.137  0.00  0.00    -0.241 OA
ATOM     24  O   LIG d   1     -13.185  77.728 122.616  0.00  0.00    -0.241 OA
ENDBRANCH   3  22
TORSDOF 7
ENDMDL
MODEL 4
REMARK VINA RESULT:      -4.6     12.708     15.827
REMARK  7 active torsions:
REMARK  status: ('A' for Active; 'I' for Inactive)
REMARK    1  A    between atoms: C_2  and  C_3 
REMARK    2  A    between atoms: C_3  and  O_6 
REMARK    3  A    between atoms: C_3  and  C_4 
REMARK    4  A    between atoms: C_7  and  O_6 
REMARK    5  A    between atoms: C_9  and  C_10 
REMARK    6  A    between atoms: N_15  and  C_14 
REMARK    7  A    between atoms: N_20  and  C_19 
REMARK       I    between atoms: C_22  and  N_20 
ROOT
ATOM      1  C   LIG d   1      -8.290  79.080 118.665  0.00  0.00     0.161 C 
ATOM      2  C   LIG d   1      -9.163  80.174 118.538  0.00  0.00     0.016 C 
ATOM      3  C   LIG d   1      -8.723  81.495 118.290  0.00  0.00     0.038 C 
ATOM      4  C   LIG d   1      -7.382  81.788 117.999  0.00  0.00     0.028 C 
ATOM      5  C   LIG d   1      -6.399  80.797 118.613  0.00  0.00    -0.047 C 
ATOM      6  C   LIG d   1      -6.834  79.362 118.240  0.00  0.00     0.091 C 
ENDROOT
BRANCH   1   7
ATOM      7  O   LIG d   1      -8.815  77.951 117.938  0.00  0.00    -0.368 OA
BRANCH   7   8
ATOM      8  C   LIG d   1      -9.082  76.760 118.719  0.00  0.00     0.119 C 
BRANCH   8   9
ATOM      9  C   LIG d   1     -10.486  76.257 118.330  0.00  0.00     0.028 C 
ATOM     10  C   LIG d   1     -10.443  74.908 117.593  0.00  0.00     0.006 C 
ENDBRANCH   8   9
BRANCH   8  11
ATOM     11  C   LIG d   1      -9.165  77.080 120.214  0.00  0.00     0.028 C 
ATOM     12  C   LIG d   1      -8.125  76.314 121.046  0.00  0.00     0.006 C 
ENDBRANCH   8  11
ENDBRANCH   7   8
ENDBRANCH   1   7
BRANCH   6  13
ATOM     13  N   LIG d   1      -5.974  78.327 118.871  0.00  0.00    -0.311 N 
ATOM     14  C   LIG d   1      -4.892  77.816 118.285  0.00  0.00     0.210 C 
ATOM     15  C   LIG d   1      -4.159  76.747 119.101  0.00  0.00     0.109 C 
ATOM     16  O   LIG d   1      -4.452  78.170 117.182  0.00  0.00    -0.276 OA
ATOM     17  H   LIG d   1      -6.240  78.005 119.781  0.00  0.00     0.149 HD
ENDBRANCH   6  13
BRANCH   5  18
ATOM     18  N   LIG d   1      -5.053  81.141 118.118  0.00  0.00     0.381 N 
ATOM     19  H   LIG d   1      -4.755  82.008 118.518  0.00  0.00    -0.090 HD
ATOM     20  H   LIG d   1      -5.092  81.251 117.120  0.00  0.00    -0.090 HD
ATOM     21  H   LIG d   1      -4.408  80.419 118.354  0.00  0.00    -0.090 HD
ENDBRANCH   5  18
BRANCH   3  22
ATOM     22  C   LIG d   1      -9.624  82.546 118.370  0.00  0.00     0.382 C 
ATOM     23  O   LIG d   1      -9.515  83.397 119.285  0.00  0.00    -0.241 OA
ATOM     24  O   LIG d   1     -10.572  82.628 117.566  0.00  0.00    -0.241 OA
ENDBRANCH   3  22
TORSDOF 7
ENDMDL
MODEL 5
REMARK VINA RESULT:      -4.5     27.644     29.548
REMARK  7 active torsions:
REMARK  status: ('A' for Active; 'I' for Inactive)
REMARK    1  A    between atoms: C_2  and  C_3 
REMARK    2  A    between atoms: C_3  and  O_6 
REMARK    3  A    between atoms: C_3  and  C_4 
REMARK    4  A    between atoms: C_7  and  O_6 
REMARK    5  A    between atoms: C_9  and  C_10 
REMARK    6  A    between atoms: N_15  and  C_14 
REMARK    7  A    between atoms: N_20  and  C_19 
REMARK       I    between atoms: C_22  and  N_20 
ROOT
ATOM      1  C   LIG d   1      -5.383  94.148 119.450  0.00  0.00     0.161 C 
ATOM      2  C   LIG d   1      -4.144  93.740 118.929  0.00  0.00     0.016 C 
ATOM      3  C   LIG d   1      -4.008  92.754 117.925  0.00  0.00     0.038 C 
ATOM      4  C   LIG d   1      -5.120  92.213 117.262  0.00  0.00     0.028 C 
ATOM      5  C   LIG d   1      -6.392  92.225 118.104  0.00  0.00    -0.047 C 
ATOM      6  C   LIG d   1      -6.612  93.650 118.661  0.00  0.00     0.091 C 
ENDROOT
BRANCH   1   7
ATOM      7  O   LIG d   1      -5.414  95.584 119.570  0.00  0.00    -0.368 OA
BRANCH   7   8
ATOM      8  C   LIG d   1      -5.183  96.118 120.897  0.00  0.00     0.119 C 
BRANCH   8   9
ATOM      9  C   LIG d   1      -6.551  96.528 121.475  0.00  0.00     0.028 C 
ATOM     10  C   LIG d   1      -7.400  97.321 120.467  0.00  0.00     0.006 C 
ENDBRANCH   8   9
BRANCH   8  11
ATOM     11  C   LIG d   1      -4.361  97.409 120.843  0.00  0.00     0.028 C 
ATOM     12  C   LIG d   1      -3.704  97.640 119.473  0.00  0.00     0.006 C 
ENDBRANCH   8  11
ENDBRANCH   7   8
ENDBRANCH   1   7
BRANCH   6  13
ATOM     13  N   LIG d   1      -7.789  93.729 119.565  0.00  0.00    -0.311 N 
ATOM     14  C   LIG d   1      -8.982  94.177 119.177  0.00  0.00     0.210 C 
ATOM     15  C   LIG d   1     -10.053  94.195 120.272  0.00  0.00     0.109 C 
ATOM     16  O   LIG d   1      -9.263  94.531 118.022  0.00  0.00    -0.276 OA
ATOM     17  H   LIG d   1      -7.658  93.433 120.512  0.00  0.00     0.149 HD
ENDBRANCH   6  13
BRANCH   5  18
ATOM     18  N   LIG d   1      -7.499  91.762 117.246  0.00  0.00     0.381 N 
ATOM     19  H   LIG d   1      -7.466  90.766 117.158  0.00  0.00    -0.090 HD
ATOM     20  H   LIG d   1      -7.390  92.163 116.331  0.00  0.00    -0.090 HD
ATOM     21  H   LIG d   1      -8.372  92.040 117.636  0.00  0.00    -0.090 HD
ENDBRANCH   5  18
BRANCH   3  22
ATOM     22  C   LIG d   1      -2.750  92.270 117.602  0.00  0.00     0.382 C 
ATOM     23  O   LIG d   1      -2.565  91.034 117.484  0.00  0.00    -0.241 OA
ATOM     24  O   LIG d   1      -1.787  93.049 117.472  0.00  0.00    -0.241 OA
ENDBRANCH   3  22
TORSDOF 7
ENDMDL
MODEL 6
REMARK VINA RESULT:      -4.5      2.454      5.970
REMARK  7 active torsions:
REMARK  status: ('A' for Active; 'I' for Inactive)
REMARK    1  A    between atoms: C_2  and  C_3 
REMARK    2  A    between atoms: C_3  and  O_6 
REMARK    3  A    between atoms: C_3  and  C_4 
REMARK    4  A    between atoms: C_7  and  O_6 
REMARK    5  A    between atoms: C_9  and  C_10 
REMARK    6  A    between atoms: N_15  and  C_14 
REMARK    7  A    between atoms: N_20  and  C_19 
REMARK       I    between atoms: C_22  and  N_20 
ROOT
ATOM      1  C   LIG d   1     -12.879  64.537 122.559  0.00  0.00     0.161 C 
ATOM      2  C   LIG d   1     -13.451  64.624 121.279  0.00  0.00     0.016 C 
ATOM      3  C   LIG d   1     -13.546  65.831 120.549  0.00  0.00     0.038 C 
ATOM      4  C   LIG d   1     -12.935  67.014 120.990  0.00  0.00     0.028 C 
ATOM      5  C   LIG d   1     -12.786  67.090 122.506  0.00  0.00    -0.047 C 
ATOM      6  C   LIG d   1     -12.107  65.796 123.009  0.00  0.00     0.091 C 
ENDROOT
BRANCH   1   7
ATOM      7  O   LIG d   1     -12.030  63.375 122.637  0.00  0.00    -0.368 OA
BRANCH   7   8
ATOM      8  C   LIG d   1     -10.651  63.564 122.235  0.00  0.00     0.119 C 
BRANCH   8   9
ATOM      9  C   LIG d   1     -10.448  62.810 120.907  0.00  0.00     0.028 C 
ATOM     10  C   LIG d   1      -8.968  62.498 120.629  0.00  0.00     0.006 C 
ENDBRANCH   8   9
BRANCH   8  11
ATOM     11  C   LIG d   1      -9.686  62.907 123.226  0.00  0.00     0.028 C 
ATOM     12  C   LIG d   1     -10.360  61.825 124.085  0.00  0.00     0.006 C 
ENDBRANCH   8  11
ENDBRANCH   7   8
ENDBRANCH   1   7
BRANCH   6  13
ATOM     13  N   LIG d   1     -11.999  65.751 124.490  0.00  0.00    -0.311 N 
ATOM     14  C   LIG d   1     -10.848  65.888 125.146  0.00  0.00     0.210 C 
ATOM     15  C   LIG d   1     -10.956  65.790 126.671  0.00  0.00     0.109 C 
ATOM     16  O   LIG d   1      -9.752  66.113 124.611  0.00  0.00    -0.276 OA
ATOM     17  H   LIG d   1     -12.845  65.603 125.005  0.00  0.00     0.149 HD
ENDBRANCH   6  13
BRANCH   5  18
ATOM     18  N   LIG d   1     -12.012  68.307 122.817  0.00  0.00     0.381 N 
ATOM     19  H   LIG d   1     -11.270  68.084 123.450  0.00  0.00    -0.090 HD
ATOM     20  H   LIG d   1     -12.619  68.972 123.264  0.00  0.00    -0.090 HD
ATOM     21  H   LIG d   1     -11.639  68.697 121.980  0.00  0.00    -0.090 HD
ENDBRANCH   5  18
BRANCH   3  22
ATOM     22  C   LIG d   1     -14.294  65.872 119.382  0.00  0.00     0.382 C 
ATOM     23  O   LIG d   1     -14.280  66.900 118.664  0.00  0.00    -0.241 OA
ATOM     24  O   LIG d   1     -15.017  64.910 119.062  0.00  0.00    -0.241 OA
ENDBRANCH   3  22
TORSDOF 7
ENDMDL
MODEL 7
REMARK VINA RESULT:      -4.3     12.949     15.684
REMARK  7 active torsions:
REMARK  status: ('A' for Active; 'I' for Inactive)
REMARK    1  A    between atoms: C_2  and  C_3 
REMARK    2  A    between atoms: C_3  and  O_6 
REMARK    3  A    between atoms: C_3  and  C_4 
REMARK    4  A    between atoms: C_7  and  O_6 
REMARK    5  A    between atoms: C_9  and  C_10 
REMARK    6  A    between atoms: N_15  and  C_14 
REMARK    7  A    between atoms: N_20  and  C_19 
REMARK       I    between atoms: C_22  and  N_20 
ROOT
ATOM      1  C   LIG d   1      -7.524  79.275 118.008  0.00  0.00     0.161 C 
ATOM      2  C   LIG d   1      -8.823  78.965 118.446  0.00  0.00     0.016 C 
ATOM      3  C   LIG d   1      -9.092  78.114 119.542  0.00  0.00     0.038 C 
ATOM      4  C   LIG d   1      -8.071  77.631 120.374  0.00  0.00     0.028 C 
ATOM      5  C   LIG d   1      -6.724  77.508 119.671  0.00  0.00    -0.047 C 
ATOM      6  C   LIG d   1      -6.398  78.848 118.973  0.00  0.00     0.091 C 
ENDROOT
BRANCH   1   7
ATOM      7  O   LIG d   1      -7.429  80.684 117.721  0.00  0.00    -0.368 OA
BRANCH   7   8
ATOM      8  C   LIG d   1      -8.181  81.565 118.591  0.00  0.00     0.119 C 
BRANCH   8   9
ATOM      9  C   LIG d   1      -8.960  82.547 117.695  0.00  0.00     0.028 C 
ATOM     10  C   LIG d   1     -10.468  82.246 117.668  0.00  0.00     0.006 C 
ENDBRANCH   8   9
BRANCH   8  11
ATOM     11  C   LIG d   1      -7.251  82.439 119.437  0.00  0.00     0.028 C 
ATOM     12  C   LIG d   1      -7.944  83.703 119.972  0.00  0.00     0.006 C 
ENDBRANCH   8  11
ENDBRANCH   7   8
ENDBRANCH   1   7
BRANCH   6  13
ATOM     13  N   LIG d   1      -5.135  78.786 118.190  0.00  0.00    -0.311 N 
ATOM     14  C   LIG d   1      -4.176  79.706 118.274  0.00  0.00     0.210 C 
ATOM     15  C   LIG d   1      -2.966  79.463 117.367  0.00  0.00     0.109 C 
ATOM     16  O   LIG d   1      -4.198  80.684 119.037  0.00  0.00    -0.276 OA
ATOM     17  H   LIG d   1      -5.021  78.010 117.569  0.00  0.00     0.149 HD
ENDBRANCH   6  13
BRANCH   5  18
ATOM     18  N   LIG d   1      -5.724  77.127 120.687  0.00  0.00     0.381 N 
ATOM     19  H   LIG d   1      -6.110  77.246 121.603  0.00  0.00    -0.090 HD
ATOM     20  H   LIG d   1      -4.926  77.731 120.600  0.00  0.00    -0.090 HD
ATOM     21  H   LIG d   1      -5.448  76.179 120.556  0.00  0.00    -0.090 HD
ENDBRANCH   5  18
BRANCH   3  22
ATOM     22  C   LIG d   1     -10.393  77.704 119.790  0.00  0.00     0.382 C 
ATOM     23  O   LIG d   1     -10.865  77.784 120.950  0.00  0.00    -0.241 OA
ATOM     24  O   LIG d   1     -11.086  77.214 118.878  0.00  0.00    -0.241 OA
ENDBRANCH   3  22
TORSDOF 7
ENDMDL
MODEL 8
REMARK VINA RESULT:      -4.2     27.117     29.772
REMARK  7 active torsions:
REMARK  status: ('A' for Active; 'I' for Inactive)
REMARK    1  A    between atoms: C_2  and  C_3 
REMARK    2  A    between atoms: C_3  and  O_6 
REMARK    3  A    between atoms: C_3  and  C_4 
REMARK    4  A    between atoms: C_7  and  O_6 
REMARK    5  A    between atoms: C_9  and  C_10 
REMARK    6  A    between atoms: N_15  and  C_14 
REMARK    7  A    between atoms: N_20  and  C_19 
REMARK       I    between atoms: C_22  and  N_20 
ROOT
ATOM      1  C   LIG d   1      -4.395  94.079 119.320  0.00  0.00     0.161 C 
ATOM      2  C   LIG d   1      -3.568  93.034 118.874  0.00  0.00     0.016 C 
ATOM      3  C   LIG d   1      -4.049  91.911 118.163  0.00  0.00     0.038 C 
ATOM      4  C   LIG d   1      -5.376  91.829 117.714  0.00  0.00     0.028 C 
ATOM      5  C   LIG d   1      -6.356  92.619 118.575  0.00  0.00    -0.047 C 
ATOM      6  C   LIG d   1      -5.826  94.062 118.743  0.00  0.00     0.091 C 
ENDROOT
BRANCH   1   7
ATOM      7  O   LIG d   1      -3.764  95.347 119.056  0.00  0.00    -0.368 OA
BRANCH   7   8
ATOM      8  C   LIG d   1      -2.530  95.606 119.771  0.00  0.00     0.119 C 
BRANCH   8   9
ATOM      9  C   LIG d   1      -2.861  96.562 120.934  0.00  0.00     0.028 C 
ATOM     10  C   LIG d   1      -3.975  97.559 120.575  0.00  0.00     0.006 C 
ENDBRANCH   8   9
BRANCH   8  11
ATOM     11  C   LIG d   1      -1.528  96.364 118.896  0.00  0.00     0.028 C 
ATOM     12  C   LIG d   1      -1.438  95.801 117.468  0.00  0.00     0.006 C 
ENDBRANCH   8  11
ENDBRANCH   7   8
ENDBRANCH   1   7
BRANCH   6  13
ATOM     13  N   LIG d   1      -6.683  94.879 119.641  0.00  0.00    -0.311 N 
ATOM     14  C   LIG d   1      -7.642  95.691 119.200  0.00  0.00     0.210 C 
ATOM     15  C   LIG d   1      -8.394  96.457 120.294  0.00  0.00     0.109 C 
ATOM     16  O   LIG d   1      -7.963  95.826 118.010  0.00  0.00    -0.276 OA
ATOM     17  H   LIG d   1      -6.511  94.807 120.625  0.00  0.00     0.149 HD
ENDBRANCH   6  13
BRANCH   5  18
ATOM     18  N   LIG d   1      -7.674  92.561 117.916  0.00  0.00     0.381 N 
ATOM     19  H   LIG d   1      -7.646  93.068 117.055  0.00  0.00    -0.090 HD
ATOM     20  H   LIG d   1      -8.356  92.993 118.515  0.00  0.00    -0.090 HD
ATOM     21  H   LIG d   1      -7.927  91.613 117.744  0.00  0.00    -0.090 HD
ENDBRANCH   5  18
BRANCH   3  22
ATOM     22  C   LIG d   1      -3.207  90.834 117.929  0.00  0.00     0.382 C 
ATOM     23  O   LIG d   1      -2.096  91.016 117.375  0.00  0.00    -0.241 OA
ATOM     24  O   LIG d   1      -3.563  89.677 118.224  0.00  0.00    -0.241 OA
ENDBRANCH   3  22
TORSDOF 7
ENDMDL
MODEL 9
REMARK VINA RESULT:      -4.1     14.500     16.148
REMARK  7 active torsions:
REMARK  status: ('A' for Active; 'I' for Inactive)
REMARK    1  A    between atoms: C_2  and  C_3 
REMARK    2  A    between atoms: C_3  and  O_6 
REMARK    3  A    between atoms: C_3  and  C_4 
REMARK    4  A    between atoms: C_7  and  O_6 
REMARK    5  A    between atoms: C_9  and  C_10 
REMARK    6  A    between atoms: N_15  and  C_14 
REMARK    7  A    between atoms: N_20  and  C_19 
REMARK       I    between atoms: C_22  and  N_20 
ROOT
ATOM      1  C   LIG d   1       3.832  69.306 123.268  0.00  0.00     0.161 C 
ATOM      2  C   LIG d   1       4.534  68.930 122.111  0.00  0.00     0.016 C 
ATOM      3  C   LIG d   1       4.006  68.065 121.126  0.00  0.00     0.038 C 
ATOM      4  C   LIG d   1       2.671  67.634 121.157  0.00  0.00     0.028 C 
ATOM      5  C   LIG d   1       2.084  67.580 122.564  0.00  0.00    -0.047 C 
ATOM      6  C   LIG d   1       2.334  68.935 123.264  0.00  0.00     0.091 C 
ENDROOT
BRANCH   1   7
ATOM      7  O   LIG d   1       3.997  70.719 123.503  0.00  0.00    -0.368 OA
BRANCH   7   8
ATOM      8  C   LIG d   1       3.654  71.593 122.400  0.00  0.00     0.119 C 
BRANCH   8   9
ATOM      9  C   LIG d   1       4.744  72.678 122.312  0.00  0.00     0.028 C 
ATOM     10  C   LIG d   1       5.850  72.318 121.306  0.00  0.00     0.006 C 
ENDBRANCH   8   9
BRANCH   8  11
ATOM     11  C   LIG d   1       2.350  72.349 122.674  0.00  0.00     0.028 C 
ATOM     12  C   LIG d   1       1.254  72.040 121.643  0.00  0.00     0.006 C 
ENDBRANCH   8  11
ENDBRANCH   7   8
ENDBRANCH   1   7
BRANCH   6  13
ATOM     13  N   LIG d   1       1.866  68.939 124.675  0.00  0.00    -0.311 N 
ATOM     14  C   LIG d   1       0.673  69.399 125.050  0.00  0.00     0.210 C 
ATOM     15  C   LIG d   1       0.398  69.329 126.555  0.00  0.00     0.109 C 
ATOM     16  O   LIG d   1      -0.195  69.828 124.276  0.00  0.00    -0.276 OA
ATOM     17  H   LIG d   1       2.495  68.579 125.365  0.00  0.00     0.149 HD
ENDBRANCH   6  13
BRANCH   5  18
ATOM     18  N   LIG d   1       0.652  67.250 122.437  0.00  0.00     0.381 N 
ATOM     19  H   LIG d   1       0.115  67.835 123.045  0.00  0.00    -0.090 HD
ATOM     20  H   LIG d   1       0.513  66.294 122.714  0.00  0.00    -0.090 HD
ATOM     21  H   LIG d   1       0.355  67.376 121.494  0.00  0.00    -0.090 HD
ENDBRANCH   5  18
BRANCH   3  22
ATOM     22  C   LIG d   1       4.828  67.590 120.116  0.00  0.00     0.382 C 
ATOM     23  O   LIG d   1       5.892  68.193 119.838  0.00  0.00    -0.241 OA
ATOM     24  O   LIG d   1       4.497  66.591 119.450  0.00  0.00    -0.241 OA
ENDBRANCH   3  22
TORSDOF 7
ENDMDL
