MODEL 1
REMARK VINA RESULT:      -4.9      0.000      0.000
REMARK  7 active torsions:
REMARK  status: ('A' for Active; 'I' for Inactive)
REMARK    1  A    between atoms: C_2  and  C_3 
REMARK    2  A    between atoms: C_3  and  O_6 
REMARK    3  A    between atoms: C_3  and  C_4 
REMARK    4  A    between atoms: C_7  and  O_6 
REMARK    5  A    between atoms: C_9  and  C_10 
REMARK    6  A    between atoms: N_15  and  C_14 
REMARK    7  A    between atoms: N_20  and  C_19 
REMARK       I    between atoms: C_22  and  N_20 
ROOT
ATOM      1  C   LIG d   1      -0.317  59.089 119.132  0.00  0.00     0.161 C 
ATOM      2  C   LIG d   1      -1.459  59.905 119.092  0.00  0.00     0.016 C 
ATOM      3  C   LIG d   1      -2.723  59.454 118.646  0.00  0.00     0.038 C 
ATOM      4  C   LIG d   1      -2.966  58.105 118.350  0.00  0.00     0.028 C 
ATOM      5  C   LIG d   1      -1.722  57.351 117.893  0.00  0.00    -0.047 C 
ATOM      6  C   LIG d   1      -0.588  57.585 118.918  0.00  0.00     0.091 C 
ENDROOT
BRANCH   1   7
ATOM      7  O   LIG d   1       0.391  59.299 120.369  0.00  0.00    -0.368 OA
BRANCH   7   8
ATOM      8  C   LIG d   1      -0.390  59.829 121.468  0.00  0.00     0.119 C 
BRANCH   8   9
ATOM      9  C   LIG d   1       0.499  60.834 122.226  0.00  0.00     0.028 C 
ATOM     10  C   LIG d   1      -0.300  62.029 122.773  0.00  0.00     0.006 C 
ENDBRANCH   8   9
BRANCH   8  11
ATOM     11  C   LIG d   1      -0.729  58.738 122.488  0.00  0.00     0.028 C 
ATOM     12  C   LIG d   1      -2.193  58.278 122.406  0.00  0.00     0.006 C 
ENDBRANCH   8  11
ENDBRANCH   7   8
ENDBRANCH   1   7
BRANCH   6  13
ATOM     13  N   LIG d   1       0.690  56.952 118.503  0.00  0.00    -0.311 N 
ATOM     14  C   LIG d   1       1.265  55.954 119.173  0.00  0.00     0.210 C 
ATOM     15  C   LIG d   1       2.590  55.460 118.585  0.00  0.00     0.109 C 
ATOM     16  O   LIG d   1       0.786  55.409 120.179  0.00  0.00    -0.276 OA
ATOM     17  H   LIG d   1       1.131  57.311 117.679  0.00  0.00     0.149 HD
ENDBRANCH   6  13
BRANCH   5  18
ATOM     18  N   LIG d   1      -2.089  55.929 117.751  0.00  0.00     0.381 N 
ATOM     19  H   LIG d   1      -1.587  55.525 116.986  0.00  0.00    -0.090 HD
ATOM     20  H   LIG d   1      -3.072  55.866 117.553  0.00  0.00    -0.090 HD
ATOM     21  H   LIG d   1      -1.880  55.438 118.592  0.00  0.00    -0.090 HD
ENDBRANCH   5  18
BRANCH   3  22
ATOM     22  C   LIG d   1      -3.750  60.366 118.455  0.00  0.00     0.382 C 
ATOM     23  O   LIG d   1      -4.880  59.968 118.082  0.00  0.00    -0.241 OA
ATOM     24  O   LIG d   1      -3.548  61.586 118.608  0.00  0.00    -0.241 OA
ENDBRANCH   3  22
TORSDOF 7
ENDMDL
MODEL 2
REMARK VINA RESULT:      -4.7      1.899      3.021
REMARK  7 active torsions:
REMARK  status: ('A' for Active; 'I' for Inactive)
REMARK    1  A    between atoms: C_2  and  C_3 
REMARK    2  A    between atoms: C_3  and  O_6 
REMARK    3  A    between atoms: C_3  and  C_4 
REMARK    4  A    between atoms: C_7  and  O_6 
REMARK    5  A    between atoms: C_9  and  C_10 
REMARK    6  A    between atoms: N_15  and  C_14 
REMARK    7  A    between atoms: N_20  and  C_19 
REMARK       I    between atoms: C_22  and  N_20 
ROOT
ATOM      1  C   LIG d   1       0.607  58.728 119.010  0.00  0.00     0.161 C 
ATOM      2  C   LIG d   1      -0.207  59.815 119.368  0.00  0.00     0.016 C 
ATOM      3  C   LIG d   1      -1.617  59.799 119.266  0.00  0.00     0.038 C 
ATOM      4  C   LIG d   1      -2.324  58.632 118.938  0.00  0.00     0.028 C 
ATOM      5  C   LIG d   1      -1.521  57.659 118.082  0.00  0.00    -0.047 C 
ATOM      6  C   LIG d   1      -0.152  57.408 118.755  0.00  0.00     0.091 C 
ENDROOT
BRANCH   1   7
ATOM      7  O   LIG d   1       1.629  58.533 120.006  0.00  0.00    -0.368 OA
BRANCH   7   8
ATOM      8  C   LIG d   1       2.996  58.721 119.562  0.00  0.00     0.119 C 
BRANCH   8   9
ATOM      9  C   LIG d   1       3.743  57.393 119.791  0.00  0.00     0.028 C 
ATOM     10  C   LIG d   1       3.015  56.473 120.785  0.00  0.00     0.006 C 
ENDBRANCH   8   9
BRANCH   8  11
ATOM     11  C   LIG d   1       3.726  59.752 120.428  0.00  0.00     0.028 C 
ATOM     12  C   LIG d   1       2.931  60.147 121.682  0.00  0.00     0.006 C 
ENDBRANCH   8  11
ENDBRANCH   7   8
ENDBRANCH   1   7
BRANCH   6  13
ATOM     13  N   LIG d   1       0.729  56.532 117.940  0.00  0.00    -0.311 N 
ATOM     14  C   LIG d   1       0.817  55.215 118.114  0.00  0.00     0.210 C 
ATOM     15  C   LIG d   1       1.800  54.503 117.180  0.00  0.00     0.109 C 
ATOM     16  O   LIG d   1       0.149  54.563 118.932  0.00  0.00    -0.276 OA
ATOM     17  H   LIG d   1       1.283  56.974 117.233  0.00  0.00     0.149 HD
ENDBRANCH   6  13
BRANCH   5  18
ATOM     18  N   LIG d   1      -2.324  56.431 117.931  0.00  0.00     0.381 N 
ATOM     19  H   LIG d   1      -1.877  55.673 118.406  0.00  0.00    -0.090 HD
ATOM     20  H   LIG d   1      -2.385  56.200 116.955  0.00  0.00    -0.090 HD
ATOM     21  H   LIG d   1      -3.237  56.573 118.303  0.00  0.00    -0.090 HD
ENDBRANCH   5  18
BRANCH   3  22
ATOM     22  C   LIG d   1      -2.333  60.972 119.454  0.00  0.00     0.382 C 
ATOM     23  O   LIG d   1      -2.121  61.680 120.468  0.00  0.00    -0.241 OA
ATOM     24  O   LIG d   1      -3.220  61.307 118.646  0.00  0.00    -0.241 OA
ENDBRANCH   3  22
TORSDOF 7
ENDMDL
MODEL 3
REMARK VINA RESULT:      -4.7     22.468     24.687
REMARK  7 active torsions:
REMARK  status: ('A' for Active; 'I' for Inactive)
REMARK    1  A    between atoms: C_2  and  C_3 
REMARK    2  A    between atoms: C_3  and  O_6 
REMARK    3  A    between atoms: C_3  and  C_4 
REMARK    4  A    between atoms: C_7  and  O_6 
REMARK    5  A    between atoms: C_9  and  C_10 
REMARK    6  A    between atoms: N_15  and  C_14 
REMARK    7  A    between atoms: N_20  and  C_19 
REMARK       I    between atoms: C_22  and  N_20 
ROOT
ATOM      1  C   LIG d   1      -7.010  82.024 118.669  0.00  0.00     0.161 C 
ATOM      2  C   LIG d   1      -7.334  80.711 118.288  0.00  0.00     0.016 C 
ATOM      3  C   LIG d   1      -8.641  80.301 117.939  0.00  0.00     0.038 C 
ATOM      4  C   LIG d   1      -9.693  81.219 117.800  0.00  0.00     0.028 C 
ATOM      5  C   LIG d   1      -9.527  82.466 118.663  0.00  0.00    -0.047 C 
ATOM      6  C   LIG d   1      -8.123  83.063 118.417  0.00  0.00     0.091 C 
ENDROOT
BRANCH   1   7
ATOM      7  O   LIG d   1      -5.788  82.432 118.025  0.00  0.00    -0.368 OA
BRANCH   7   8
ATOM      8  C   LIG d   1      -4.563  82.159 118.750  0.00  0.00     0.119 C 
BRANCH   8   9
ATOM      9  C   LIG d   1      -4.362  83.301 119.765  0.00  0.00     0.028 C 
ATOM     10  C   LIG d   1      -4.539  82.832 121.219  0.00  0.00     0.006 C 
ENDBRANCH   8   9
BRANCH   8  11
ATOM     11  C   LIG d   1      -3.343  82.219 117.826  0.00  0.00     0.028 C 
ATOM     12  C   LIG d   1      -2.018  82.332 118.595  0.00  0.00     0.006 C 
ENDBRANCH   8  11
ENDBRANCH   7   8
ENDBRANCH   1   7
BRANCH   6  13
ATOM     13  N   LIG d   1      -7.847  84.237 119.284  0.00  0.00    -0.311 N 
ATOM     14  C   LIG d   1      -7.920  84.200 120.614  0.00  0.00     0.210 C 
ATOM     15  C   LIG d   1      -7.615  85.528 121.315  0.00  0.00     0.109 C 
ATOM     16  O   LIG d   1      -8.176  83.186 121.280  0.00  0.00    -0.276 OA
ATOM     17  H   LIG d   1      -7.600  85.094 118.828  0.00  0.00     0.149 HD
ENDBRANCH   6  13
BRANCH   5  18
ATOM     18  N   LIG d   1     -10.620  83.395 118.318  0.00  0.00     0.381 N 
ATOM     19  H   LIG d   1     -11.445  83.151 118.828  0.00  0.00    -0.090 HD
ATOM     20  H   LIG d   1     -10.819  83.312 117.337  0.00  0.00    -0.090 HD
ATOM     21  H   LIG d   1     -10.352  84.330 118.532  0.00  0.00    -0.090 HD
ENDBRANCH   5  18
BRANCH   3  22
ATOM     22  C   LIG d   1      -8.915  78.954 117.763  0.00  0.00     0.382 C 
ATOM     23  O   LIG d   1     -10.104  78.553 117.745  0.00  0.00    -0.241 OA
ATOM     24  O   LIG d   1      -7.988  78.128 117.666  0.00  0.00    -0.241 OA
ENDBRANCH   3  22
TORSDOF 7
ENDMDL
MODEL 4
REMARK VINA RESULT:      -4.6      2.420      5.458
REMARK  7 active torsions:
REMARK  status: ('A' for Active; 'I' for Inactive)
REMARK    1  A    between atoms: C_2  and  C_3 
REMARK    2  A    between atoms: C_3  and  O_6 
REMARK    3  A    between atoms: C_3  and  C_4 
REMARK    4  A    between atoms: C_7  and  O_6 
REMARK    5  A    between atoms: C_9  and  C_10 
REMARK    6  A    between atoms: N_15  and  C_14 
REMARK    7  A    between atoms: N_20  and  C_19 
REMARK       I    between atoms: C_22  and  N_20 
ROOT
ATOM      1  C   LIG d   1      -0.800  60.495 120.478  0.00  0.00     0.161 C 
ATOM      2  C   LIG d   1       0.039  60.181 121.560  0.00  0.00     0.016 C 
ATOM      3  C   LIG d   1      -0.340  59.316 122.613  0.00  0.00     0.038 C 
ATOM      4  C   LIG d   1      -1.535  58.583 122.576  0.00  0.00     0.028 C 
ATOM      5  C   LIG d   1      -2.632  59.252 121.754  0.00  0.00    -0.047 C 
ATOM      6  C   LIG d   1      -2.064  59.618 120.363  0.00  0.00     0.091 C 
ENDROOT
BRANCH   1   7
ATOM      7  O   LIG d   1      -0.047  60.453 119.249  0.00  0.00    -0.368 OA
BRANCH   7   8
ATOM      8  C   LIG d   1       0.301  59.134 118.760  0.00  0.00     0.119 C 
BRANCH   8   9
ATOM      9  C   LIG d   1       1.836  59.075 118.640  0.00  0.00     0.028 C 
ATOM     10  C   LIG d   1       2.402  57.695 119.013  0.00  0.00     0.006 C 
ENDBRANCH   8   9
BRANCH   8  11
ATOM     11  C   LIG d   1      -0.226  58.909 117.340  0.00  0.00     0.028 C 
ATOM     12  C   LIG d   1      -0.953  57.564 117.180  0.00  0.00     0.006 C 
ENDBRANCH   8  11
ENDBRANCH   7   8
ENDBRANCH   1   7
BRANCH   6  13
ATOM     13  N   LIG d   1      -3.047  60.352 119.525  0.00  0.00    -0.311 N 
ATOM     14  C   LIG d   1      -3.891  59.751 118.688  0.00  0.00     0.210 C 
ATOM     15  C   LIG d   1      -4.807  60.696 117.904  0.00  0.00     0.109 C 
ATOM     16  O   LIG d   1      -3.991  58.523 118.545  0.00  0.00    -0.276 OA
ATOM     17  H   LIG d   1      -3.056  61.351 119.602  0.00  0.00     0.149 HD
ENDBRANCH   6  13
BRANCH   5  18
ATOM     18  N   LIG d   1      -3.771  58.317 121.685  0.00  0.00     0.381 N 
ATOM     19  H   LIG d   1      -4.535  58.675 122.223  0.00  0.00    -0.090 HD
ATOM     20  H   LIG d   1      -3.493  57.436 122.081  0.00  0.00    -0.090 HD
ATOM     21  H   LIG d   1      -4.052  58.191 120.738  0.00  0.00    -0.090 HD
ENDBRANCH   5  18
BRANCH   3  22
ATOM     22  C   LIG d   1       0.464  59.209 123.737  0.00  0.00     0.382 C 
ATOM     23  O   LIG d   1       0.352  60.042 124.670  0.00  0.00    -0.241 OA
ATOM     24  O   LIG d   1       1.330  58.317 123.812  0.00  0.00    -0.241 OA
ENDBRANCH   3  22
TORSDOF 7
ENDMDL
MODEL 5
REMARK VINA RESULT:      -4.6      2.461      5.777
REMARK  7 active torsions:
REMARK  status: ('A' for Active; 'I' for Inactive)
REMARK    1  A    between atoms: C_2  and  C_3 
REMARK    2  A    between atoms: C_3  and  O_6 
REMARK    3  A    between atoms: C_3  and  C_4 
REMARK    4  A    between atoms: C_7  and  O_6 
REMARK    5  A    between atoms: C_9  and  C_10 
REMARK    6  A    between atoms: N_15  and  C_14 
REMARK    7  A    between atoms: N_20  and  C_19 
REMARK       I    between atoms: C_22  and  N_20 
ROOT
ATOM      1  C   LIG d   1      -0.502  59.544 119.040  0.00  0.00     0.161 C 
ATOM      2  C   LIG d   1       0.739  59.379 119.677  0.00  0.00     0.016 C 
ATOM      3  C   LIG d   1       0.996  59.800 121.002  0.00  0.00     0.038 C 
ATOM      4  C   LIG d   1      -0.023  60.282 121.837  0.00  0.00     0.028 C 
ATOM      5  C   LIG d   1      -1.172  60.935 121.076  0.00  0.00    -0.047 C 
ATOM      6  C   LIG d   1      -1.656  59.967 119.973  0.00  0.00     0.091 C 
ENDROOT
BRANCH   1   7
ATOM      7  O   LIG d   1      -0.849  58.340 118.327  0.00  0.00    -0.368 OA
BRANCH   7   8
ATOM      8  C   LIG d   1       0.008  57.195 118.555  0.00  0.00     0.119 C 
BRANCH   8   9
ATOM      9  C   LIG d   1       0.059  56.386 117.245  0.00  0.00     0.028 C 
ATOM     10  C   LIG d   1       1.039  55.203 117.323  0.00  0.00     0.006 C 
ENDBRANCH   8   9
BRANCH   8  11
ATOM     11  C   LIG d   1      -0.596  56.245 119.594  0.00  0.00     0.028 C 
ATOM     12  C   LIG d   1       0.297  56.070 120.832  0.00  0.00     0.006 C 
ENDBRANCH   8  11
ENDBRANCH   7   8
ENDBRANCH   1   7
BRANCH   6  13
ATOM     13  N   LIG d   1      -2.724  60.560 119.126  0.00  0.00    -0.311 N 
ATOM     14  C   LIG d   1      -3.834  59.910 118.782  0.00  0.00     0.210 C 
ATOM     15  C   LIG d   1      -4.795  60.699 117.887  0.00  0.00     0.109 C 
ATOM     16  O   LIG d   1      -4.129  58.766 119.160  0.00  0.00    -0.276 OA
ATOM     17  H   LIG d   1      -2.580  61.497 118.801  0.00  0.00     0.149 HD
ENDBRANCH   6  13
BRANCH   5  18
ATOM     18  N   LIG d   1      -2.224  61.267 122.056  0.00  0.00     0.381 N 
ATOM     19  H   LIG d   1      -2.655  60.427 122.388  0.00  0.00    -0.090 HD
ATOM     20  H   LIG d   1      -2.927  61.823 121.602  0.00  0.00    -0.090 HD
ATOM     21  H   LIG d   1      -1.831  61.772 122.819  0.00  0.00    -0.090 HD
ENDBRANCH   5  18
BRANCH   3  22
ATOM     22  C   LIG d   1       2.293  59.778 121.491  0.00  0.00     0.382 C 
ATOM     23  O   LIG d   1       2.745  60.769 122.114  0.00  0.00    -0.241 OA
ATOM     24  O   LIG d   1       3.032  58.798 121.279  0.00  0.00    -0.241 OA
ENDBRANCH   3  22
TORSDOF 7
ENDMDL
MODEL 6
REMARK VINA RESULT:      -4.5     23.467     25.993
REMARK  7 active torsions:
REMARK  status: ('A' for Active; 'I' for Inactive)
REMARK    1  A    between atoms: C_2  and  C_3 
REMARK    2  A    between atoms: C_3  and  O_6 
REMARK    3  A    between atoms: C_3  and  C_4 
REMARK    4  A    between atoms: C_7  and  O_6 
REMARK    5  A    between atoms: C_9  and  C_10 
REMARK    6  A    between atoms: N_15  and  C_14 
REMARK    7  A    between atoms: N_20  and  C_19 
REMARK       I    between atoms: C_22  and  N_20 
ROOT
ATOM      1  C   LIG d   1      -8.491  83.772 119.515  0.00  0.00     0.161 C 
ATOM      2  C   LIG d   1      -8.280  84.988 120.187  0.00  0.00     0.016 C 
ATOM      3  C   LIG d   1      -8.882  85.306 121.426  0.00  0.00     0.038 C 
ATOM      4  C   LIG d   1      -9.620  84.362 122.156  0.00  0.00     0.028 C 
ATOM      5  C   LIG d   1     -10.275  83.298 121.282  0.00  0.00    -0.047 C 
ATOM      6  C   LIG d   1      -9.204  82.687 120.349  0.00  0.00     0.091 C 
ENDROOT
BRANCH   1   7
ATOM      7  O   LIG d   1      -7.238  83.271 119.008  0.00  0.00    -0.368 OA
BRANCH   7   8
ATOM      8  C   LIG d   1      -6.325  82.726 119.992  0.00  0.00     0.119 C 
BRANCH   8   9
ATOM      9  C   LIG d   1      -5.039  83.575 119.951  0.00  0.00     0.028 C 
ATOM     10  C   LIG d   1      -4.912  84.505 121.170  0.00  0.00     0.006 C 
ENDBRANCH   8   9
BRANCH   8  11
ATOM     11  C   LIG d   1      -5.885  81.307 119.618  0.00  0.00     0.028 C 
ATOM     12  C   LIG d   1      -6.236  80.937 118.168  0.00  0.00     0.006 C 
ENDBRANCH   8  11
ENDBRANCH   7   8
ENDBRANCH   1   7
BRANCH   6  13
ATOM     13  N   LIG d   1      -9.777  81.696 119.401  0.00  0.00    -0.311 N 
ATOM     14  C   LIG d   1      -9.598  80.381 119.518  0.00  0.00     0.210 C 
ATOM     15  C   LIG d   1     -10.258  79.539 118.422  0.00  0.00     0.109 C 
ATOM     16  O   LIG d   1      -8.981  79.831 120.443  0.00  0.00    -0.276 OA
ATOM     17  H   LIG d   1     -10.317  82.054 118.638  0.00  0.00     0.149 HD
ENDBRANCH   6  13
BRANCH   5  18
ATOM     18  N   LIG d   1     -10.895  82.304 122.178  0.00  0.00     0.381 N 
ATOM     19  H   LIG d   1     -10.618  81.382 121.906  0.00  0.00    -0.090 HD
ATOM     20  H   LIG d   1     -11.894  82.371 122.096  0.00  0.00    -0.090 HD
ATOM     21  H   LIG d   1     -10.620  82.476 123.120  0.00  0.00    -0.090 HD
ENDBRANCH   5  18
BRANCH   3  22
ATOM     22  C   LIG d   1      -8.780  86.594 121.929  0.00  0.00     0.382 C 
ATOM     23  O   LIG d   1      -7.655  87.141 122.029  0.00  0.00    -0.241 OA
ATOM     24  O   LIG d   1      -9.794  87.200 122.326  0.00  0.00    -0.241 OA
ENDBRANCH   3  22
TORSDOF 7
ENDMDL
MODEL 7
REMARK VINA RESULT:      -4.5     21.708     24.215
REMARK  7 active torsions:
REMARK  status: ('A' for Active; 'I' for Inactive)
REMARK    1  A    between atoms: C_2  and  C_3 
REMARK    2  A    between atoms: C_3  and  O_6 
REMARK    3  A    between atoms: C_3  and  C_4 
REMARK    4  A    between atoms: C_7  and  O_6 
REMARK    5  A    between atoms: C_9  and  C_10 
REMARK    6  A    between atoms: N_15  and  C_14 
REMARK    7  A    between atoms: N_20  and  C_19 
REMARK       I    between atoms: C_22  and  N_20 
ROOT
ATOM      1  C   LIG d   1     -17.113  76.121 121.669  0.00  0.00     0.161 C 
ATOM      2  C   LIG d   1     -18.264  76.563 120.997  0.00  0.00     0.016 C 
ATOM      3  C   LIG d   1     -18.551  77.927 120.759  0.00  0.00     0.038 C 
ATOM      4  C   LIG d   1     -17.624  78.940 121.047  0.00  0.00     0.028 C 
ATOM      5  C   LIG d   1     -16.671  78.584 122.183  0.00  0.00    -0.047 C 
ATOM      6  C   LIG d   1     -16.038  77.204 121.892  0.00  0.00     0.091 C 
ENDROOT
BRANCH   1   7
ATOM      7  O   LIG d   1     -16.548  74.989 120.978  0.00  0.00    -0.368 OA
BRANCH   7   8
ATOM      8  C   LIG d   1     -17.494  74.087 120.352  0.00  0.00     0.119 C 
BRANCH   8   9
ATOM      9  C   LIG d   1     -17.285  72.693 120.973  0.00  0.00     0.028 C 
ATOM     10  C   LIG d   1     -16.510  72.752 122.301  0.00  0.00     0.006 C 
ENDBRANCH   8   9
BRANCH   8  11
ATOM     11  C   LIG d   1     -17.196  73.915 118.860  0.00  0.00     0.028 C 
ATOM     12  C   LIG d   1     -17.136  72.441 118.430  0.00  0.00     0.006 C 
ENDBRANCH   8  11
ENDBRANCH   7   8
ENDBRANCH   1   7
BRANCH   6  13
ATOM     13  N   LIG d   1     -15.155  76.742 122.995  0.00  0.00    -0.311 N 
ATOM     14  C   LIG d   1     -13.846  76.542 122.852  0.00  0.00     0.210 C 
ATOM     15  C   LIG d   1     -13.126  76.046 124.110  0.00  0.00     0.109 C 
ATOM     16  O   LIG d   1     -13.207  76.759 121.811  0.00  0.00    -0.276 OA
ATOM     17  H   LIG d   1     -15.586  76.572 123.883  0.00  0.00     0.149 HD
ENDBRANCH   6  13
BRANCH   5  18
ATOM     18  N   LIG d   1     -15.675  79.668 122.284  0.00  0.00     0.381 N 
ATOM     19  H   LIG d   1     -16.077  80.455 122.753  0.00  0.00    -0.090 HD
ATOM     20  H   LIG d   1     -15.410  79.954 121.358  0.00  0.00    -0.090 HD
ATOM     21  H   LIG d   1     -14.874  79.349 122.783  0.00  0.00    -0.090 HD
ENDBRANCH   5  18
BRANCH   3  22
ATOM     22  C   LIG d   1     -19.793  78.292 120.264  0.00  0.00     0.382 C 
ATOM     23  O   LIG d   1     -20.666  77.416 120.052  0.00  0.00    -0.241 OA
ATOM     24  O   LIG d   1     -20.037  79.481 119.984  0.00  0.00    -0.241 OA
ENDBRANCH   3  22
TORSDOF 7
ENDMDL
MODEL 8
REMARK VINA RESULT:      -4.4      2.620      5.887
REMARK  7 active torsions:
REMARK  status: ('A' for Active; 'I' for Inactive)
REMARK    1  A    between atoms: C_2  and  C_3 
REMARK    2  A    between atoms: C_3  and  O_6 
REMARK    3  A    between atoms: C_3  and  C_4 
REMARK    4  A    between atoms: C_7  and  O_6 
REMARK    5  A    between atoms: C_9  and  C_10 
REMARK    6  A    between atoms: N_15  and  C_14 
REMARK    7  A    between atoms: N_20  and  C_19 
REMARK       I    between atoms: C_22  and  N_20 
ROOT
ATOM      1  C   LIG d   1      -0.838  57.953 120.570  0.00  0.00     0.161 C 
ATOM      2  C   LIG d   1       0.021  57.459 121.566  0.00  0.00     0.016 C 
ATOM      3  C   LIG d   1      -0.176  57.690 122.947  0.00  0.00     0.038 C 
ATOM      4  C   LIG d   1      -1.336  58.307 123.438  0.00  0.00     0.028 C 
ATOM      5  C   LIG d   1      -1.981  59.264 122.442  0.00  0.00    -0.047 C 
ATOM      6  C   LIG d   1      -2.169  58.533 121.093  0.00  0.00     0.091 C 
ENDROOT
BRANCH   1   7
ATOM      7  O   LIG d   1      -1.090  56.927 119.590  0.00  0.00    -0.368 OA
BRANCH   7   8
ATOM      8  C   LIG d   1      -0.572  57.175 118.260  0.00  0.00     0.119 C 
BRANCH   8   9
ATOM      9  C   LIG d   1       0.464  56.075 117.953  0.00  0.00     0.028 C 
ATOM     10  C   LIG d   1       1.872  56.440 118.452  0.00  0.00     0.006 C 
ENDBRANCH   8   9
BRANCH   8  11
ATOM     11  C   LIG d   1       0.207  58.492 118.202  0.00  0.00     0.028 C 
ATOM     12  C   LIG d   1      -0.375  59.484 117.183  0.00  0.00     0.006 C 
ENDBRANCH   8  11
ENDBRANCH   7   8
ENDBRANCH   1   7
BRANCH   6  13
ATOM     13  N   LIG d   1      -2.716  59.424 120.037  0.00  0.00    -0.311 N 
ATOM     14  C   LIG d   1      -3.686  59.059 119.200  0.00  0.00     0.210 C 
ATOM     15  C   LIG d   1      -4.089  60.122 118.173  0.00  0.00     0.109 C 
ATOM     16  O   LIG d   1      -4.272  57.967 119.230  0.00  0.00    -0.276 OA
ATOM     17  H   LIG d   1      -2.319  60.340 119.961  0.00  0.00     0.149 HD
ENDBRANCH   6  13
BRANCH   5  18
ATOM     18  N   LIG d   1      -3.251  59.730 123.029  0.00  0.00     0.381 N 
ATOM     19  H   LIG d   1      -3.994  59.606 122.370  0.00  0.00    -0.090 HD
ATOM     20  H   LIG d   1      -3.174  60.710 123.236  0.00  0.00    -0.090 HD
ATOM     21  H   LIG d   1      -3.448  59.222 123.863  0.00  0.00    -0.090 HD
ENDBRANCH   5  18
BRANCH   3  22
ATOM     22  C   LIG d   1       0.815  57.336 123.851  0.00  0.00     0.382 C 
ATOM     23  O   LIG d   1       1.122  56.129 124.004  0.00  0.00    -0.241 OA
ATOM     24  O   LIG d   1       1.373  58.205 124.547  0.00  0.00    -0.241 OA
ENDBRANCH   3  22
TORSDOF 7
ENDMDL
MODEL 9
REMARK VINA RESULT:      -4.4     22.869     25.470
REMARK  7 active torsions:
REMARK  status: ('A' for Active; 'I' for Inactive)
REMARK    1  A    between atoms: C_2  and  C_3 
REMARK    2  A    between atoms: C_3  and  O_6 
REMARK    3  A    between atoms: C_3  and  C_4 
REMARK    4  A    between atoms: C_7  and  O_6 
REMARK    5  A    between atoms: C_9  and  C_10 
REMARK    6  A    between atoms: N_15  and  C_14 
REMARK    7  A    between atoms: N_20  and  C_19 
REMARK       I    between atoms: C_22  and  N_20 
ROOT
ATOM      1  C   LIG d   1     -18.703  77.317 119.381  0.00  0.00     0.161 C 
ATOM      2  C   LIG d   1     -19.639  78.253 119.851  0.00  0.00     0.016 C 
ATOM      3  C   LIG d   1     -20.884  77.892 120.415  0.00  0.00     0.038 C 
ATOM      4  C   LIG d   1     -21.216  76.556 120.686  0.00  0.00     0.028 C 
ATOM      5  C   LIG d   1     -20.518  75.560 119.767  0.00  0.00    -0.047 C 
ATOM      6  C   LIG d   1     -19.000  75.853 119.770  0.00  0.00     0.091 C 
ENDROOT
BRANCH   1   7
ATOM      7  O   LIG d   1     -17.379  77.690 119.811  0.00  0.00    -0.368 OA
BRANCH   7   8
ATOM      8  C   LIG d   1     -17.060  77.420 121.198  0.00  0.00     0.119 C 
BRANCH   8   9
ATOM      9  C   LIG d   1     -16.697  78.764 121.860  0.00  0.00     0.028 C 
ATOM     10  C   LIG d   1     -17.702  79.171 122.950  0.00  0.00     0.006 C 
ENDBRANCH   8   9
BRANCH   8  11
ATOM     11  C   LIG d   1     -15.802  76.555 121.322  0.00  0.00     0.028 C 
ATOM     12  C   LIG d   1     -15.907  75.509 122.443  0.00  0.00     0.006 C 
ENDBRANCH   8  11
ENDBRANCH   7   8
ENDBRANCH   1   7
BRANCH   6  13
ATOM     13  N   LIG d   1     -18.251  74.977 118.831  0.00  0.00    -0.311 N 
ATOM     14  C   LIG d   1     -17.667  73.838 119.198  0.00  0.00     0.210 C 
ATOM     15  C   LIG d   1     -16.930  73.098 118.078  0.00  0.00     0.109 C 
ATOM     16  O   LIG d   1     -17.716  73.354 120.339  0.00  0.00    -0.276 OA
ATOM     17  H   LIG d   1     -18.188  75.279 117.878  0.00  0.00     0.149 HD
ENDBRANCH   6  13
BRANCH   5  18
ATOM     18  N   LIG d   1     -20.845  74.204 120.248  0.00  0.00     0.381 N 
ATOM     19  H   LIG d   1     -21.727  74.216 120.719  0.00  0.00    -0.090 HD
ATOM     20  H   LIG d   1     -20.141  73.913 120.902  0.00  0.00    -0.090 HD
ATOM     21  H   LIG d   1     -20.879  73.569 119.481  0.00  0.00    -0.090 HD
ENDBRANCH   5  18
BRANCH   3  22
ATOM     22  C   LIG d   1     -21.830  78.872 120.677  0.00  0.00     0.382 C 
ATOM     23  O   LIG d   1     -23.052  78.607 120.575  0.00  0.00    -0.241 OA
ATOM     24  O   LIG d   1     -21.475  80.029 120.970  0.00  0.00    -0.241 OA
ENDBRANCH   3  22
TORSDOF 7
ENDMDL
