MODEL 1
REMARK VINA RESULT:      -4.9      0.000      0.000
REMARK  7 active torsions:
REMARK  status: ('A' for Active; 'I' for Inactive)
REMARK    1  A    between atoms: C_2  and  C_3 
REMARK    2  A    between atoms: C_3  and  O_6 
REMARK    3  A    between atoms: C_3  and  C_4 
REMARK    4  A    between atoms: C_7  and  O_6 
REMARK    5  A    between atoms: C_9  and  C_10 
REMARK    6  A    between atoms: N_15  and  C_14 
REMARK    7  A    between atoms: N_20  and  C_19 
REMARK       I    between atoms: C_22  and  N_20 
ROOT
ATOM      1  C   LIG d   1       0.057  60.180 119.894  0.00  0.00     0.161 C 
ATOM      2  C   LIG d   1      -1.310  59.946 119.672  0.00  0.00     0.016 C 
ATOM      3  C   LIG d   1      -1.797  59.039 118.703  0.00  0.00     0.038 C 
ATOM      4  C   LIG d   1      -0.941  58.187 117.989  0.00  0.00     0.028 C 
ATOM      5  C   LIG d   1       0.467  58.746 117.819  0.00  0.00    -0.047 C 
ATOM      6  C   LIG d   1       1.005  59.178 119.202  0.00  0.00     0.091 C 
ENDROOT
BRANCH   1   7
ATOM      7  O   LIG d   1       0.322  60.225 121.310  0.00  0.00    -0.368 OA
BRANCH   7   8
ATOM      8  C   LIG d   1      -0.634  60.959 122.114  0.00  0.00     0.119 C 
BRANCH   8   9
ATOM      9  C   LIG d   1       0.047  62.265 122.565  0.00  0.00     0.028 C 
ATOM     10  C   LIG d   1       0.488  62.219 124.038  0.00  0.00     0.006 C 
ENDBRANCH   8   9
BRANCH   8  11
ATOM     11  C   LIG d   1      -0.968  60.208 123.407  0.00  0.00     0.028 C 
ATOM     12  C   LIG d   1      -2.234  59.345 123.285  0.00  0.00     0.006 C 
ENDBRANCH   8  11
ENDBRANCH   7   8
ENDBRANCH   1   7
BRANCH   6  13
ATOM     13  N   LIG d   1       2.346  59.814 119.115  0.00  0.00    -0.311 N 
ATOM     14  C   LIG d   1       3.486  59.147 119.283  0.00  0.00     0.210 C 
ATOM     15  C   LIG d   1       4.756  59.997 119.171  0.00  0.00     0.109 C 
ATOM     16  O   LIG d   1       3.568  57.926 119.481  0.00  0.00    -0.276 OA
ATOM     17  H   LIG d   1       2.373  60.797 118.926  0.00  0.00     0.149 HD
ENDBRANCH   6  13
BRANCH   5  18
ATOM     18  N   LIG d   1       1.288  57.699 117.181  0.00  0.00     0.381 N 
ATOM     19  H   LIG d   1       0.700  56.958 116.857  0.00  0.00    -0.090 HD
ATOM     20  H   LIG d   1       1.923  57.323 117.863  0.00  0.00    -0.090 HD
ATOM     21  H   LIG d   1       1.799  58.085 116.418  0.00  0.00    -0.090 HD
ENDBRANCH   5  18
BRANCH   3  22
ATOM     22  C   LIG d   1      -3.152  59.007 118.411  0.00  0.00     0.382 C 
ATOM     23  O   LIG d   1      -3.906  58.213 119.024  0.00  0.00    -0.241 OA
ATOM     24  O   LIG d   1      -3.622  59.730 117.513  0.00  0.00    -0.241 OA
ENDBRANCH   3  22
TORSDOF 7
ENDMDL
MODEL 2
REMARK VINA RESULT:      -4.8     19.942     21.720
REMARK  7 active torsions:
REMARK  status: ('A' for Active; 'I' for Inactive)
REMARK    1  A    between atoms: C_2  and  C_3 
REMARK    2  A    between atoms: C_3  and  O_6 
REMARK    3  A    between atoms: C_3  and  C_4 
REMARK    4  A    between atoms: C_7  and  O_6 
REMARK    5  A    between atoms: C_9  and  C_10 
REMARK    6  A    between atoms: N_15  and  C_14 
REMARK    7  A    between atoms: N_20  and  C_19 
REMARK       I    between atoms: C_22  and  N_20 
ROOT
ATOM      1  C   LIG d   1     -14.737  74.378 120.684  0.00  0.00     0.161 C 
ATOM      2  C   LIG d   1     -14.476  73.097 120.171  0.00  0.00     0.016 C 
ATOM      3  C   LIG d   1     -15.396  72.374 119.378  0.00  0.00     0.038 C 
ATOM      4  C   LIG d   1     -16.589  72.950 118.915  0.00  0.00     0.028 C 
ATOM      5  C   LIG d   1     -17.120  74.054 119.822  0.00  0.00    -0.047 C 
ATOM      6  C   LIG d   1     -15.986  75.068 120.097  0.00  0.00     0.091 C 
ENDROOT
BRANCH   1   7
ATOM      7  O   LIG d   1     -13.576  75.217 120.516  0.00  0.00    -0.368 OA
BRANCH   7   8
ATOM      8  C   LIG d   1     -12.759  75.417 121.695  0.00  0.00     0.119 C 
BRANCH   8   9
ATOM      9  C   LIG d   1     -13.236  76.716 122.374  0.00  0.00     0.028 C 
ATOM     10  C   LIG d   1     -13.928  76.454 123.722  0.00  0.00     0.006 C 
ENDBRANCH   8   9
BRANCH   8  11
ATOM     11  C   LIG d   1     -11.295  75.668 121.322  0.00  0.00     0.028 C 
ATOM     12  C   LIG d   1     -10.377  75.777 122.551  0.00  0.00     0.006 C 
ENDBRANCH   8  11
ENDBRANCH   7   8
ENDBRANCH   1   7
BRANCH   6  13
ATOM     13  N   LIG d   1     -16.397  76.136 121.045  0.00  0.00    -0.311 N 
ATOM     14  C   LIG d   1     -16.903  77.305 120.657  0.00  0.00     0.210 C 
ATOM     15  C   LIG d   1     -17.243  78.272 121.795  0.00  0.00     0.109 C 
ATOM     16  O   LIG d   1     -17.133  77.621 119.480  0.00  0.00    -0.276 OA
ATOM     17  H   LIG d   1     -16.274  75.951 122.021  0.00  0.00     0.149 HD
ENDBRANCH   6  13
BRANCH   5  18
ATOM     18  N   LIG d   1     -18.287  74.659 119.152  0.00  0.00     0.381 N 
ATOM     19  H   LIG d   1     -17.980  75.243 118.400  0.00  0.00    -0.090 HD
ATOM     20  H   LIG d   1     -18.781  75.231 119.813  0.00  0.00    -0.090 HD
ATOM     21  H   LIG d   1     -18.888  73.945 118.803  0.00  0.00    -0.090 HD
ENDBRANCH   5  18
BRANCH   3  22
ATOM     22  C   LIG d   1     -15.146  71.044 119.073  0.00  0.00     0.382 C 
ATOM     23  O   LIG d   1     -14.343  70.381 119.773  0.00  0.00    -0.241 OA
ATOM     24  O   LIG d   1     -15.678  70.512 118.081  0.00  0.00    -0.241 OA
ENDBRANCH   3  22
TORSDOF 7
ENDMDL
MODEL 3
REMARK VINA RESULT:      -4.7      2.573      4.766
REMARK  7 active torsions:
REMARK  status: ('A' for Active; 'I' for Inactive)
REMARK    1  A    between atoms: C_2  and  C_3 
REMARK    2  A    between atoms: C_3  and  O_6 
REMARK    3  A    between atoms: C_3  and  C_4 
REMARK    4  A    between atoms: C_7  and  O_6 
REMARK    5  A    between atoms: C_9  and  C_10 
REMARK    6  A    between atoms: N_15  and  C_14 
REMARK    7  A    between atoms: N_20  and  C_19 
REMARK       I    between atoms: C_22  and  N_20 
ROOT
ATOM      1  C   LIG d   1       0.190  58.479 120.449  0.00  0.00     0.161 C 
ATOM      2  C   LIG d   1      -0.403  59.114 119.344  0.00  0.00     0.016 C 
ATOM      3  C   LIG d   1      -1.488  60.014 119.453  0.00  0.00     0.038 C 
ATOM      4  C   LIG d   1      -1.958  60.460 120.697  0.00  0.00     0.028 C 
ATOM      5  C   LIG d   1      -1.724  59.463 121.827  0.00  0.00    -0.047 C 
ATOM      6  C   LIG d   1      -0.238  59.039 121.822  0.00  0.00     0.091 C 
ENDROOT
BRANCH   1   7
ATOM      7  O   LIG d   1       1.625  58.512 120.319  0.00  0.00    -0.368 OA
BRANCH   7   8
ATOM      8  C   LIG d   1       2.196  59.767 119.874  0.00  0.00     0.119 C 
BRANCH   8   9
ATOM      9  C   LIG d   1       3.272  59.438 118.821  0.00  0.00     0.028 C 
ATOM     10  C   LIG d   1       2.714  59.450 117.388  0.00  0.00     0.006 C 
ENDBRANCH   8   9
BRANCH   8  11
ATOM     11  C   LIG d   1       2.942  60.474 121.010  0.00  0.00     0.028 C 
ATOM     12  C   LIG d   1       4.418  60.744 120.676  0.00  0.00     0.006 C 
ENDBRANCH   8  11
ENDBRANCH   7   8
ENDBRANCH   1   7
BRANCH   6  13
ATOM     13  N   LIG d   1       0.059  58.001 122.843  0.00  0.00    -0.311 N 
ATOM     14  C   LIG d   1       0.523  58.280 124.060  0.00  0.00     0.210 C 
ATOM     15  C   LIG d   1       0.780  57.060 124.950  0.00  0.00     0.109 C 
ATOM     16  O   LIG d   1       0.715  59.424 124.497  0.00  0.00    -0.276 OA
ATOM     17  H   LIG d   1      -0.099  57.047 122.583  0.00  0.00     0.149 HD
ENDBRANCH   6  13
BRANCH   5  18
ATOM     18  N   LIG d   1      -2.137  60.111 123.086  0.00  0.00     0.381 N 
ATOM     19  H   LIG d   1      -1.357  60.587 123.493  0.00  0.00    -0.090 HD
ATOM     20  H   LIG d   1      -2.445  59.404 123.730  0.00  0.00    -0.090 HD
ATOM     21  H   LIG d   1      -2.875  60.757 122.912  0.00  0.00    -0.090 HD
ENDBRANCH   5  18
BRANCH   3  22
ATOM     22  C   LIG d   1      -2.139  60.447 118.309  0.00  0.00     0.382 C 
ATOM     23  O   LIG d   1      -1.672  61.404 117.645  0.00  0.00    -0.241 OA
ATOM     24  O   LIG d   1      -3.212  59.921 117.955  0.00  0.00    -0.241 OA
ENDBRANCH   3  22
TORSDOF 7
ENDMDL
MODEL 4
REMARK VINA RESULT:      -4.7     20.336     22.250
REMARK  7 active torsions:
REMARK  status: ('A' for Active; 'I' for Inactive)
REMARK    1  A    between atoms: C_2  and  C_3 
REMARK    2  A    between atoms: C_3  and  O_6 
REMARK    3  A    between atoms: C_3  and  C_4 
REMARK    4  A    between atoms: C_7  and  O_6 
REMARK    5  A    between atoms: C_9  and  C_10 
REMARK    6  A    between atoms: N_15  and  C_14 
REMARK    7  A    between atoms: N_20  and  C_19 
REMARK       I    between atoms: C_22  and  N_20 
ROOT
ATOM      1  C   LIG d   1     -17.629  72.423 119.606  0.00  0.00     0.161 C 
ATOM      2  C   LIG d   1     -17.012  71.162 119.640  0.00  0.00     0.016 C 
ATOM      3  C   LIG d   1     -15.613  70.977 119.546  0.00  0.00     0.038 C 
ATOM      4  C   LIG d   1     -14.720  72.059 119.565  0.00  0.00     0.028 C 
ATOM      5  C   LIG d   1     -15.321  73.351 119.022  0.00  0.00    -0.047 C 
ATOM      6  C   LIG d   1     -16.663  73.620 119.739  0.00  0.00     0.091 C 
ENDROOT
BRANCH   1   7
ATOM      7  O   LIG d   1     -18.654  72.493 120.617  0.00  0.00    -0.368 OA
BRANCH   7   8
ATOM      8  C   LIG d   1     -20.005  72.212 120.175  0.00  0.00     0.119 C 
BRANCH   8   9
ATOM      9  C   LIG d   1     -20.676  73.562 119.854  0.00  0.00     0.028 C 
ATOM     10  C   LIG d   1     -20.989  74.377 121.120  0.00  0.00     0.006 C 
ENDBRANCH   8   9
BRANCH   8  11
ATOM     11  C   LIG d   1     -20.844  71.600 121.301  0.00  0.00     0.028 C 
ATOM     12  C   LIG d   1     -20.144  70.417 121.989  0.00  0.00     0.006 C 
ENDBRANCH   8  11
ENDBRANCH   7   8
ENDBRANCH   1   7
BRANCH   6  13
ATOM     13  N   LIG d   1     -17.359  74.821 119.208  0.00  0.00    -0.311 N 
ATOM     14  C   LIG d   1     -17.755  75.837 119.972  0.00  0.00     0.210 C 
ATOM     15  C   LIG d   1     -18.472  76.966 119.226  0.00  0.00     0.109 C 
ATOM     16  O   LIG d   1     -17.552  75.925 121.193  0.00  0.00    -0.276 OA
ATOM     17  H   LIG d   1     -17.537  74.846 118.223  0.00  0.00     0.149 HD
ENDBRANCH   6  13
BRANCH   5  18
ATOM     18  N   LIG d   1     -14.330  74.424 119.227  0.00  0.00     0.381 N 
ATOM     19  H   LIG d   1     -14.328  75.039 118.437  0.00  0.00    -0.090 HD
ATOM     20  H   LIG d   1     -13.417  74.013 119.309  0.00  0.00    -0.090 HD
ATOM     21  H   LIG d   1     -14.548  74.935 120.054  0.00  0.00    -0.090 HD
ENDBRANCH   5  18
BRANCH   3  22
ATOM     22  C   LIG d   1     -15.097  69.699 119.392  0.00  0.00     0.382 C 
ATOM     23  O   LIG d   1     -13.920  69.451 119.748  0.00  0.00    -0.241 OA
ATOM     24  O   LIG d   1     -15.779  68.803 118.861  0.00  0.00    -0.241 OA
ENDBRANCH   3  22
TORSDOF 7
ENDMDL
MODEL 5
REMARK VINA RESULT:      -4.6     19.376     21.373
REMARK  7 active torsions:
REMARK  status: ('A' for Active; 'I' for Inactive)
REMARK    1  A    between atoms: C_2  and  C_3 
REMARK    2  A    between atoms: C_3  and  O_6 
REMARK    3  A    between atoms: C_3  and  C_4 
REMARK    4  A    between atoms: C_7  and  O_6 
REMARK    5  A    between atoms: C_9  and  C_10 
REMARK    6  A    between atoms: N_15  and  C_14 
REMARK    7  A    between atoms: N_20  and  C_19 
REMARK       I    between atoms: C_22  and  N_20 
ROOT
ATOM      1  C   LIG d   1      -8.762  77.891 118.723  0.00  0.00     0.161 C 
ATOM      2  C   LIG d   1      -8.208  79.017 118.091  0.00  0.00     0.016 C 
ATOM      3  C   LIG d   1      -8.544  80.346 118.435  0.00  0.00     0.038 C 
ATOM      4  C   LIG d   1      -9.350  80.644 119.545  0.00  0.00     0.028 C 
ATOM      5  C   LIG d   1     -10.331  79.531 119.897  0.00  0.00    -0.047 C 
ATOM      6  C   LIG d   1      -9.558  78.197 120.009  0.00  0.00     0.091 C 
ENDROOT
BRANCH   1   7
ATOM      7  O   LIG d   1      -7.729  76.923 118.991  0.00  0.00    -0.368 OA
BRANCH   7   8
ATOM      8  C   LIG d   1      -6.380  77.315 118.632  0.00  0.00     0.119 C 
BRANCH   8   9
ATOM      9  C   LIG d   1      -5.784  76.185 117.771  0.00  0.00     0.028 C 
ATOM     10  C   LIG d   1      -6.697  74.948 117.711  0.00  0.00     0.006 C 
ENDBRANCH   8   9
BRANCH   8  11
ATOM     11  C   LIG d   1      -5.478  77.402 119.867  0.00  0.00     0.028 C 
ATOM     12  C   LIG d   1      -5.755  78.650 120.720  0.00  0.00     0.006 C 
ENDBRANCH   8  11
ENDBRANCH   7   8
ENDBRANCH   1   7
BRANCH   6  13
ATOM     13  N   LIG d   1     -10.456  77.042 120.268  0.00  0.00    -0.311 N 
ATOM     14  C   LIG d   1     -10.770  76.617 121.491  0.00  0.00     0.210 C 
ATOM     15  C   LIG d   1     -11.696  75.397 121.534  0.00  0.00     0.109 C 
ATOM     16  O   LIG d   1     -10.397  77.156 122.544  0.00  0.00    -0.276 OA
ATOM     17  H   LIG d   1     -10.829  76.566 119.470  0.00  0.00     0.149 HD
ENDBRANCH   6  13
BRANCH   5  18
ATOM     18  N   LIG d   1     -11.008  79.914 121.151  0.00  0.00     0.381 N 
ATOM     19  H   LIG d   1     -10.464  80.601 121.633  0.00  0.00    -0.090 HD
ATOM     20  H   LIG d   1     -11.085  79.103 121.739  0.00  0.00    -0.090 HD
ATOM     21  H   LIG d   1     -11.914  80.277 120.952  0.00  0.00    -0.090 HD
ENDBRANCH   5  18
BRANCH   3  22
ATOM     22  C   LIG d   1      -8.105  81.394 117.641  0.00  0.00     0.382 C 
ATOM     23  O   LIG d   1      -8.928  82.222 117.183  0.00  0.00    -0.241 OA
ATOM     24  O   LIG d   1      -6.900  81.496 117.340  0.00  0.00    -0.241 OA
ENDBRANCH   3  22
TORSDOF 7
ENDMDL
MODEL 6
REMARK VINA RESULT:      -4.4     20.239     22.027
REMARK  7 active torsions:
REMARK  status: ('A' for Active; 'I' for Inactive)
REMARK    1  A    between atoms: C_2  and  C_3 
REMARK    2  A    between atoms: C_3  and  O_6 
REMARK    3  A    between atoms: C_3  and  C_4 
REMARK    4  A    between atoms: C_7  and  O_6 
REMARK    5  A    between atoms: C_9  and  C_10 
REMARK    6  A    between atoms: N_15  and  C_14 
REMARK    7  A    between atoms: N_20  and  C_19 
REMARK       I    between atoms: C_22  and  N_20 
ROOT
ATOM      1  C   LIG d   1     -16.610  73.355 121.365  0.00  0.00     0.161 C 
ATOM      2  C   LIG d   1     -17.874  72.909 120.944  0.00  0.00     0.016 C 
ATOM      3  C   LIG d   1     -18.781  73.714 120.217  0.00  0.00     0.038 C 
ATOM      4  C   LIG d   1     -18.422  74.978 119.727  0.00  0.00     0.028 C 
ATOM      5  C   LIG d   1     -17.344  75.666 120.557  0.00  0.00    -0.047 C 
ATOM      6  C   LIG d   1     -16.157  74.693 120.743  0.00  0.00     0.091 C 
ENDROOT
BRANCH   1   7
ATOM      7  O   LIG d   1     -15.625  72.331 121.122  0.00  0.00    -0.368 OA
BRANCH   7   8
ATOM      8  C   LIG d   1     -15.817  71.532 119.929  0.00  0.00     0.119 C 
BRANCH   8   9
ATOM      9  C   LIG d   1     -15.151  70.165 120.176  0.00  0.00     0.028 C 
ATOM     10  C   LIG d   1     -15.409  69.171 119.031  0.00  0.00     0.006 C 
ENDBRANCH   8   9
BRANCH   8  11
ATOM     11  C   LIG d   1     -15.076  72.133 118.731  0.00  0.00     0.028 C 
ATOM     12  C   LIG d   1     -16.027  72.612 117.622  0.00  0.00     0.006 C 
ENDBRANCH   8  11
ENDBRANCH   7   8
ENDBRANCH   1   7
BRANCH   6  13
ATOM     13  N   LIG d   1     -15.094  75.257 121.615  0.00  0.00    -0.311 N 
ATOM     14  C   LIG d   1     -13.797  75.212 121.312  0.00  0.00     0.210 C 
ATOM     15  C   LIG d   1     -12.867  75.834 122.359  0.00  0.00     0.109 C 
ATOM     16  O   LIG d   1     -13.332  74.746 120.262  0.00  0.00    -0.276 OA
ATOM     17  H   LIG d   1     -15.385  75.682 122.473  0.00  0.00     0.149 HD
ENDBRANCH   6  13
BRANCH   5  18
ATOM     18  N   LIG d   1     -16.968  76.909 119.858  0.00  0.00     0.381 N 
ATOM     19  H   LIG d   1     -17.402  76.935 118.956  0.00  0.00    -0.090 HD
ATOM     20  H   LIG d   1     -15.972  76.921 119.729  0.00  0.00    -0.090 HD
ATOM     21  H   LIG d   1     -17.251  77.700 120.393  0.00  0.00    -0.090 HD
ENDBRANCH   5  18
BRANCH   3  22
ATOM     22  C   LIG d   1     -20.078  73.270 120.008  0.00  0.00     0.382 C 
ATOM     23  O   LIG d   1     -20.391  72.090 120.298  0.00  0.00    -0.241 OA
ATOM     24  O   LIG d   1     -20.927  74.021 119.493  0.00  0.00    -0.241 OA
ENDBRANCH   3  22
TORSDOF 7
ENDMDL
MODEL 7
REMARK VINA RESULT:      -4.3     20.810     22.671
REMARK  7 active torsions:
REMARK  status: ('A' for Active; 'I' for Inactive)
REMARK    1  A    between atoms: C_2  and  C_3 
REMARK    2  A    between atoms: C_3  and  O_6 
REMARK    3  A    between atoms: C_3  and  C_4 
REMARK    4  A    between atoms: C_7  and  O_6 
REMARK    5  A    between atoms: C_9  and  C_10 
REMARK    6  A    between atoms: N_15  and  C_14 
REMARK    7  A    between atoms: N_20  and  C_19 
REMARK       I    between atoms: C_22  and  N_20 
ROOT
ATOM      1  C   LIG d   1      -8.785  80.111 120.570  0.00  0.00     0.161 C 
ATOM      2  C   LIG d   1      -9.010  81.260 121.346  0.00  0.00     0.016 C 
ATOM      3  C   LIG d   1      -9.431  82.496 120.803  0.00  0.00     0.038 C 
ATOM      4  C   LIG d   1      -9.804  82.626 119.457  0.00  0.00     0.028 C 
ATOM      5  C   LIG d   1      -9.112  81.625 118.538  0.00  0.00    -0.047 C 
ATOM      6  C   LIG d   1      -9.294  80.203 119.116  0.00  0.00     0.091 C 
ENDROOT
BRANCH   1   7
ATOM      7  O   LIG d   1      -9.351  78.959 121.226  0.00  0.00    -0.368 OA
BRANCH   7   8
ATOM      8  C   LIG d   1      -8.437  78.166 122.023  0.00  0.00     0.119 C 
BRANCH   8   9
ATOM      9  C   LIG d   1      -7.184  77.904 121.165  0.00  0.00     0.028 C 
ATOM     10  C   LIG d   1      -5.881  78.225 121.916  0.00  0.00     0.006 C 
ENDBRANCH   8   9
BRANCH   8  11
ATOM     11  C   LIG d   1      -9.019  76.782 122.326  0.00  0.00     0.028 C 
ATOM     12  C   LIG d   1      -8.802  75.781 121.180  0.00  0.00     0.006 C 
ENDBRANCH   8  11
ENDBRANCH   7   8
ENDBRANCH   1   7
BRANCH   6  13
ATOM     13  N   LIG d   1      -8.576  79.172 118.322  0.00  0.00    -0.311 N 
ATOM     14  C   LIG d   1      -9.114  78.002 117.983  0.00  0.00     0.210 C 
ATOM     15  C   LIG d   1      -8.194  77.076 117.180  0.00  0.00     0.109 C 
ATOM     16  O   LIG d   1     -10.275  77.655 118.244  0.00  0.00    -0.276 OA
ATOM     17  H   LIG d   1      -7.638  79.384 118.041  0.00  0.00     0.149 HD
ENDBRANCH   6  13
BRANCH   5  18
ATOM     18  N   LIG d   1      -9.694  81.781 117.191  0.00  0.00     0.381 N 
ATOM     19  H   LIG d   1     -10.561  81.285 117.138  0.00  0.00    -0.090 HD
ATOM     20  H   LIG d   1      -9.063  81.387 116.516  0.00  0.00    -0.090 HD
ATOM     21  H   LIG d   1      -9.843  82.746 116.994  0.00  0.00    -0.090 HD
ENDBRANCH   5  18
BRANCH   3  22
ATOM     22  C   LIG d   1      -9.443  83.629 121.603  0.00  0.00     0.382 C 
ATOM     23  O   LIG d   1      -9.570  83.517 122.846  0.00  0.00    -0.241 OA
ATOM     24  O   LIG d   1      -9.374  84.763 121.092  0.00  0.00    -0.241 OA
ENDBRANCH   3  22
TORSDOF 7
ENDMDL
MODEL 8
REMARK VINA RESULT:      -4.3     21.159     22.993
REMARK  7 active torsions:
REMARK  status: ('A' for Active; 'I' for Inactive)
REMARK    1  A    between atoms: C_2  and  C_3 
REMARK    2  A    between atoms: C_3  and  O_6 
REMARK    3  A    between atoms: C_3  and  C_4 
REMARK    4  A    between atoms: C_7  and  O_6 
REMARK    5  A    between atoms: C_9  and  C_10 
REMARK    6  A    between atoms: N_15  and  C_14 
REMARK    7  A    between atoms: N_20  and  C_19 
REMARK       I    between atoms: C_22  and  N_20 
ROOT
ATOM      1  C   LIG d   1     -16.852  74.677 120.170  0.00  0.00     0.161 C 
ATOM      2  C   LIG d   1     -15.649  75.216 120.655  0.00  0.00     0.016 C 
ATOM      3  C   LIG d   1     -14.398  74.569 120.524  0.00  0.00     0.038 C 
ATOM      4  C   LIG d   1     -14.243  73.404 119.759  0.00  0.00     0.028 C 
ATOM      5  C   LIG d   1     -15.510  72.559 119.678  0.00  0.00    -0.047 C 
ATOM      6  C   LIG d   1     -16.686  73.460 119.236  0.00  0.00     0.091 C 
ENDROOT
BRANCH   1   7
ATOM      7  O   LIG d   1     -17.620  75.708 119.517  0.00  0.00    -0.368 OA
BRANCH   7   8
ATOM      8  C   LIG d   1     -18.674  76.313 120.306  0.00  0.00     0.119 C 
BRANCH   8   9
ATOM      9  C   LIG d   1     -20.019  75.902 119.675  0.00  0.00     0.028 C 
ATOM     10  C   LIG d   1     -20.804  74.916 120.557  0.00  0.00     0.006 C 
ENDBRANCH   8   9
BRANCH   8  11
ATOM     11  C   LIG d   1     -18.633  77.841 120.213  0.00  0.00     0.028 C 
ATOM     12  C   LIG d   1     -19.991  78.493 120.515  0.00  0.00     0.006 C 
ENDBRANCH   8  11
ENDBRANCH   7   8
ENDBRANCH   1   7
BRANCH   6  13
ATOM     13  N   LIG d   1     -17.981  72.731 119.212  0.00  0.00    -0.311 N 
ATOM     14  C   LIG d   1     -18.464  72.061 120.256  0.00  0.00     0.210 C 
ATOM     15  C   LIG d   1     -19.806  71.364 120.012  0.00  0.00     0.109 C 
ATOM     16  O   LIG d   1     -17.924  72.004 121.371  0.00  0.00    -0.276 OA
ATOM     17  H   LIG d   1     -18.500  72.752 118.356  0.00  0.00     0.149 HD
ENDBRANCH   6  13
BRANCH   5  18
ATOM     18  N   LIG d   1     -15.247  71.451 118.741  0.00  0.00     0.381 N 
ATOM     19  H   LIG d   1     -14.813  71.803 117.912  0.00  0.00    -0.090 HD
ATOM     20  H   LIG d   1     -16.122  71.028 118.484  0.00  0.00    -0.090 HD
ATOM     21  H   LIG d   1     -14.657  70.773 119.171  0.00  0.00    -0.090 HD
ENDBRANCH   5  18
BRANCH   3  22
ATOM     22  C   LIG d   1     -13.293  75.069 121.196  0.00  0.00     0.382 C 
ATOM     23  O   LIG d   1     -13.403  75.454 122.385  0.00  0.00    -0.241 OA
ATOM     24  O   LIG d   1     -12.197  75.180 120.613  0.00  0.00    -0.241 OA
ENDBRANCH   3  22
TORSDOF 7
ENDMDL
MODEL 9
REMARK VINA RESULT:      -4.3     21.775     23.663
REMARK  7 active torsions:
REMARK  status: ('A' for Active; 'I' for Inactive)
REMARK    1  A    between atoms: C_2  and  C_3 
REMARK    2  A    between atoms: C_3  and  O_6 
REMARK    3  A    between atoms: C_3  and  C_4 
REMARK    4  A    between atoms: C_7  and  O_6 
REMARK    5  A    between atoms: C_9  and  C_10 
REMARK    6  A    between atoms: N_15  and  C_14 
REMARK    7  A    between atoms: N_20  and  C_19 
REMARK       I    between atoms: C_22  and  N_20 
ROOT
ATOM      1  C   LIG d   1      -7.152  81.701 119.362  0.00  0.00     0.161 C 
ATOM      2  C   LIG d   1      -6.970  80.374 118.940  0.00  0.00     0.016 C 
ATOM      3  C   LIG d   1      -7.961  79.633 118.256  0.00  0.00     0.038 C 
ATOM      4  C   LIG d   1      -9.154  80.223 117.811  0.00  0.00     0.028 C 
ATOM      5  C   LIG d   1      -9.590  81.416 118.655  0.00  0.00    -0.047 C 
ATOM      6  C   LIG d   1      -8.404  82.397 118.789  0.00  0.00     0.091 C 
ENDROOT
BRANCH   1   7
ATOM      7  O   LIG d   1      -5.970  82.473 119.069  0.00  0.00    -0.368 OA
BRANCH   7   8
ATOM      8  C   LIG d   1      -5.055  82.683 120.172  0.00  0.00     0.119 C 
BRANCH   8   9
ATOM      9  C   LIG d   1      -5.228  84.139 120.646  0.00  0.00     0.028 C 
ATOM     10  C   LIG d   1      -5.699  84.229 122.107  0.00  0.00     0.006 C 
ENDBRANCH   8   9
BRANCH   8  11
ATOM     11  C   LIG d   1      -3.597  82.576 119.715  0.00  0.00     0.028 C 
ATOM     12  C   LIG d   1      -3.271  81.215 119.080  0.00  0.00     0.006 C 
ENDBRANCH   8  11
ENDBRANCH   7   8
ENDBRANCH   1   7
BRANCH   6  13
ATOM     13  N   LIG d   1      -8.719  83.552 119.670  0.00  0.00    -0.311 N 
ATOM     14  C   LIG d   1      -9.123  83.422 120.932  0.00  0.00     0.210 C 
ATOM     15  C   LIG d   1      -9.414  84.740 121.657  0.00  0.00     0.109 C 
ATOM     16  O   LIG d   1      -9.236  82.342 121.531  0.00  0.00    -0.276 OA
ATOM     17  H   LIG d   1      -8.624  84.467 119.274  0.00  0.00     0.149 HD
ENDBRANCH   6  13
BRANCH   5  18
ATOM     18  N   LIG d   1     -10.767  82.018 118.001  0.00  0.00     0.381 N 
ATOM     19  H   LIG d   1     -11.599  81.548 118.301  0.00  0.00    -0.090 HD
ATOM     20  H   LIG d   1     -10.681  81.901 117.006  0.00  0.00    -0.090 HD
ATOM     21  H   LIG d   1     -10.824  82.986 118.226  0.00  0.00    -0.090 HD
ENDBRANCH   5  18
BRANCH   3  22
ATOM     22  C   LIG d   1      -7.780  78.274 118.045  0.00  0.00     0.382 C 
ATOM     23  O   LIG d   1      -8.694  77.594 117.519  0.00  0.00    -0.241 OA
ATOM     24  O   LIG d   1      -6.732  77.712 118.414  0.00  0.00    -0.241 OA
ENDBRANCH   3  22
TORSDOF 7
ENDMDL
