MODEL 1
REMARK VINA RESULT:      -4.6      0.000      0.000
REMARK  7 active torsions:
REMARK  status: ('A' for Active; 'I' for Inactive)
REMARK    1  A    between atoms: C_2  and  C_3 
REMARK    2  A    between atoms: C_3  and  O_6 
REMARK    3  A    between atoms: C_3  and  C_4 
REMARK    4  A    between atoms: C_7  and  O_6 
REMARK    5  A    between atoms: C_9  and  C_10 
REMARK    6  A    between atoms: N_15  and  C_14 
REMARK    7  A    between atoms: N_20  and  C_19 
REMARK       I    between atoms: C_22  and  N_20 
ROOT
ATOM      1  C   LIG d   1     -18.558  75.197 120.271  0.00  0.00     0.161 C 
ATOM      2  C   LIG d   1     -19.929  75.379 120.023  0.00  0.00     0.016 C 
ATOM      3  C   LIG d   1     -20.565  76.641 120.060  0.00  0.00     0.038 C 
ATOM      4  C   LIG d   1     -19.840  77.833 120.198  0.00  0.00     0.028 C 
ATOM      5  C   LIG d   1     -18.526  77.659 120.953  0.00  0.00    -0.047 C 
ATOM      6  C   LIG d   1     -17.730  76.498 120.314  0.00  0.00     0.091 C 
ENDROOT
BRANCH   1   7
ATOM      7  O   LIG d   1     -18.004  74.283 119.303  0.00  0.00    -0.368 OA
BRANCH   7   8
ATOM      8  C   LIG d   1     -17.850  72.910 119.739  0.00  0.00     0.119 C 
BRANCH   8   9
ATOM      9  C   LIG d   1     -17.479  72.937 121.235  0.00  0.00     0.028 C 
ATOM     10  C   LIG d   1     -16.068  72.384 121.499  0.00  0.00     0.006 C 
ENDBRANCH   8   9
BRANCH   8  11
ATOM     11  C   LIG d   1     -16.668  72.232 119.040  0.00  0.00     0.028 C 
ATOM     12  C   LIG d   1     -16.347  72.856 117.673  0.00  0.00     0.006 C 
ENDBRANCH   8  11
ENDBRANCH   7   8
ENDBRANCH   1   7
BRANCH   6  13
ATOM     13  N   LIG d   1     -16.470  76.205 121.045  0.00  0.00    -0.311 N 
ATOM     14  C   LIG d   1     -15.323  75.904 120.437  0.00  0.00     0.210 C 
ATOM     15  C   LIG d   1     -14.149  75.617 121.378  0.00  0.00     0.109 C 
ATOM     16  O   LIG d   1     -15.160  75.877 119.208  0.00  0.00    -0.276 OA
ATOM     17  H   LIG d   1     -16.505  76.235 122.045  0.00  0.00     0.149 HD
ENDBRANCH   6  13
BRANCH   5  18
ATOM     18  N   LIG d   1     -17.810  78.947 120.905  0.00  0.00     0.381 N 
ATOM     19  H   LIG d   1     -18.232  79.544 120.222  0.00  0.00    -0.090 HD
ATOM     20  H   LIG d   1     -16.857  78.780 120.631  0.00  0.00    -0.090 HD
ATOM     21  H   LIG d   1     -17.834  79.385 121.799  0.00  0.00    -0.090 HD
ENDBRANCH   5  18
BRANCH   3  22
ATOM     22  C   LIG d   1     -21.948  76.715 119.996  0.00  0.00     0.382 C 
ATOM     23  O   LIG d   1     -22.610  75.737 119.572  0.00  0.00    -0.241 OA
ATOM     24  O   LIG d   1     -22.540  77.763 120.316  0.00  0.00    -0.241 OA
ENDBRANCH   3  22
TORSDOF 7
ENDMDL
MODEL 2
REMARK VINA RESULT:      -4.4     24.177     26.584
REMARK  7 active torsions:
REMARK  status: ('A' for Active; 'I' for Inactive)
REMARK    1  A    between atoms: C_2  and  C_3 
REMARK    2  A    between atoms: C_3  and  O_6 
REMARK    3  A    between atoms: C_3  and  C_4 
REMARK    4  A    between atoms: C_7  and  O_6 
REMARK    5  A    between atoms: C_9  and  C_10 
REMARK    6  A    between atoms: N_15  and  C_14 
REMARK    7  A    between atoms: N_20  and  C_19 
REMARK       I    between atoms: C_22  and  N_20 
ROOT
ATOM      1  C   LIG d   1       3.345  59.498 121.077  0.00  0.00     0.161 C 
ATOM      2  C   LIG d   1       4.167  60.489 120.516  0.00  0.00     0.016 C 
ATOM      3  C   LIG d   1       4.388  60.621 119.125  0.00  0.00     0.038 C 
ATOM      4  C   LIG d   1       3.677  59.859 118.186  0.00  0.00     0.028 C 
ATOM      5  C   LIG d   1       3.218  58.508 118.725  0.00  0.00    -0.047 C 
ATOM      6  C   LIG d   1       2.475  58.728 120.062  0.00  0.00     0.091 C 
ENDROOT
BRANCH   1   7
ATOM      7  O   LIG d   1       2.520  60.074 122.110  0.00  0.00    -0.368 OA
BRANCH   7   8
ATOM      8  C   LIG d   1       1.782  61.266 121.745  0.00  0.00     0.119 C 
BRANCH   8   9
ATOM      9  C   LIG d   1       1.934  62.276 122.899  0.00  0.00     0.028 C 
ATOM     10  C   LIG d   1       0.850  62.103 123.976  0.00  0.00     0.006 C 
ENDBRANCH   8   9
BRANCH   8  11
ATOM     11  C   LIG d   1       0.280  60.983 121.648  0.00  0.00     0.028 C 
ATOM     12  C   LIG d   1      -0.264  61.139 120.219  0.00  0.00     0.006 C 
ENDBRANCH   8  11
ENDBRANCH   7   8
ENDBRANCH   1   7
BRANCH   6  13
ATOM     13  N   LIG d   1       2.065  57.449 120.700  0.00  0.00    -0.311 N 
ATOM     14  C   LIG d   1       0.839  56.939 120.598  0.00  0.00     0.210 C 
ATOM     15  C   LIG d   1       0.622  55.621 121.348  0.00  0.00     0.109 C 
ATOM     16  O   LIG d   1      -0.081  57.436 119.930  0.00  0.00    -0.276 OA
ATOM     17  H   LIG d   1       2.758  56.964 121.235  0.00  0.00     0.149 HD
ENDBRANCH   6  13
BRANCH   5  18
ATOM     18  N   LIG d   1       2.374  57.879 117.691  0.00  0.00     0.381 N 
ATOM     19  H   LIG d   1       2.182  58.539 116.964  0.00  0.00    -0.090 HD
ATOM     20  H   LIG d   1       1.502  57.604 118.107  0.00  0.00    -0.090 HD
ATOM     21  H   LIG d   1       2.836  57.082 117.313  0.00  0.00    -0.090 HD
ENDBRANCH   5  18
BRANCH   3  22
ATOM     22  C   LIG d   1       5.358  61.497 118.664  0.00  0.00     0.382 C 
ATOM     23  O   LIG d   1       5.157  62.163 117.620  0.00  0.00    -0.241 OA
ATOM     24  O   LIG d   1       6.451  61.596 119.253  0.00  0.00    -0.241 OA
ENDBRANCH   3  22
TORSDOF 7
ENDMDL
MODEL 3
REMARK VINA RESULT:      -4.4     20.829     22.654
REMARK  7 active torsions:
REMARK  status: ('A' for Active; 'I' for Inactive)
REMARK    1  A    between atoms: C_2  and  C_3 
REMARK    2  A    between atoms: C_3  and  O_6 
REMARK    3  A    between atoms: C_3  and  C_4 
REMARK    4  A    between atoms: C_7  and  O_6 
REMARK    5  A    between atoms: C_9  and  C_10 
REMARK    6  A    between atoms: N_15  and  C_14 
REMARK    7  A    between atoms: N_20  and  C_19 
REMARK       I    between atoms: C_22  and  N_20 
ROOT
ATOM      1  C   LIG d   1      -6.213  94.128 120.615  0.00  0.00     0.161 C 
ATOM      2  C   LIG d   1      -7.500  94.458 120.160  0.00  0.00     0.016 C 
ATOM      3  C   LIG d   1      -7.773  95.582 119.346  0.00  0.00     0.038 C 
ATOM      4  C   LIG d   1      -6.749  96.371 118.804  0.00  0.00     0.028 C 
ATOM      5  C   LIG d   1      -5.477  96.375 119.645  0.00  0.00    -0.047 C 
ATOM      6  C   LIG d   1      -5.068  94.914 119.942  0.00  0.00     0.091 C 
ENDROOT
BRANCH   1   7
ATOM      7  O   LIG d   1      -5.995  92.710 120.478  0.00  0.00    -0.368 OA
BRANCH   7   8
ATOM      8  C   LIG d   1      -5.289  92.285 119.287  0.00  0.00     0.119 C 
BRANCH   8   9
ATOM      9  C   LIG d   1      -6.320  91.634 118.345  0.00  0.00     0.028 C 
ATOM     10  C   LIG d   1      -6.732  92.564 117.192  0.00  0.00     0.006 C 
ENDBRANCH   8   9
BRANCH   8  11
ATOM     11  C   LIG d   1      -4.274  91.183 119.603  0.00  0.00     0.028 C 
ATOM     12  C   LIG d   1      -4.157  90.141 118.479  0.00  0.00     0.006 C 
ENDBRANCH   8  11
ENDBRANCH   7   8
ENDBRANCH   1   7
BRANCH   6  13
ATOM     13  N   LIG d   1      -3.880  94.828 120.831  0.00  0.00    -0.311 N 
ATOM     14  C   LIG d   1      -2.635  94.689 120.380  0.00  0.00     0.210 C 
ATOM     15  C   LIG d   1      -1.559  94.600 121.466  0.00  0.00     0.109 C 
ATOM     16  O   LIG d   1      -2.316  94.663 119.181  0.00  0.00    -0.276 OA
ATOM     17  H   LIG d   1      -4.044  94.871 121.818  0.00  0.00     0.149 HD
ENDBRANCH   6  13
BRANCH   5  18
ATOM     18  N   LIG d   1      -4.449  97.122 118.896  0.00  0.00     0.381 N 
ATOM     19  H   LIG d   1      -4.782  98.043 118.691  0.00  0.00    -0.090 HD
ATOM     20  H   LIG d   1      -4.273  96.650 118.027  0.00  0.00    -0.090 HD
ATOM     21  H   LIG d   1      -3.609  97.175 119.430  0.00  0.00    -0.090 HD
ENDBRANCH   5  18
BRANCH   3  22
ATOM     22  C   LIG d   1      -9.088  95.948 119.100  0.00  0.00     0.382 C 
ATOM     23  O   LIG d   1      -9.422  97.156 119.154  0.00  0.00    -0.241 OA
ATOM     24  O   LIG d   1      -9.953  95.082 118.869  0.00  0.00    -0.241 OA
ENDBRANCH   3  22
TORSDOF 7
ENDMDL
MODEL 4
REMARK VINA RESULT:      -4.4     24.293     26.860
REMARK  7 active torsions:
REMARK  status: ('A' for Active; 'I' for Inactive)
REMARK    1  A    between atoms: C_2  and  C_3 
REMARK    2  A    between atoms: C_3  and  O_6 
REMARK    3  A    between atoms: C_3  and  C_4 
REMARK    4  A    between atoms: C_7  and  O_6 
REMARK    5  A    between atoms: C_9  and  C_10 
REMARK    6  A    between atoms: N_15  and  C_14 
REMARK    7  A    between atoms: N_20  and  C_19 
REMARK       I    between atoms: C_22  and  N_20 
ROOT
ATOM      1  C   LIG d   1       2.032  59.592 118.661  0.00  0.00     0.161 C 
ATOM      2  C   LIG d   1       3.286  60.085 118.264  0.00  0.00     0.016 C 
ATOM      3  C   LIG d   1       4.203  60.686 119.157  0.00  0.00     0.038 C 
ATOM      4  C   LIG d   1       3.990  60.698 120.543  0.00  0.00     0.028 C 
ATOM      5  C   LIG d   1       2.515  60.665 120.929  0.00  0.00    -0.047 C 
ATOM      6  C   LIG d   1       1.828  59.495 120.187  0.00  0.00     0.091 C 
ENDROOT
BRANCH   1   7
ATOM      7  O   LIG d   1       1.792  58.313 118.041  0.00  0.00    -0.368 OA
BRANCH   7   8
ATOM      8  C   LIG d   1       2.263  57.153 118.771  0.00  0.00     0.119 C 
BRANCH   8   9
ATOM      9  C   LIG d   1       3.392  56.511 117.942  0.00  0.00     0.028 C 
ATOM     10  C   LIG d   1       4.730  56.479 118.699  0.00  0.00     0.006 C 
ENDBRANCH   8   9
BRANCH   8  11
ATOM     11  C   LIG d   1       1.175  56.080 118.874  0.00  0.00     0.028 C 
ATOM     12  C   LIG d   1       1.379  54.927 117.878  0.00  0.00     0.006 C 
ENDBRANCH   8  11
ENDBRANCH   7   8
ENDBRANCH   1   7
BRANCH   6  13
ATOM     13  N   LIG d   1       0.365  59.442 120.443  0.00  0.00    -0.311 N 
ATOM     14  C   LIG d   1      -0.192  58.646 121.355  0.00  0.00     0.210 C 
ATOM     15  C   LIG d   1      -1.718  58.733 121.443  0.00  0.00     0.109 C 
ATOM     16  O   LIG d   1       0.437  57.900 122.120  0.00  0.00    -0.276 OA
ATOM     17  H   LIG d   1      -0.217  60.038 119.888  0.00  0.00     0.149 HD
ENDBRANCH   6  13
BRANCH   5  18
ATOM     18  N   LIG d   1       2.441  60.541 122.397  0.00  0.00     0.381 N 
ATOM     19  H   LIG d   1       1.579  60.105 122.658  0.00  0.00    -0.090 HD
ATOM     20  H   LIG d   1       2.464  61.460 122.802  0.00  0.00    -0.090 HD
ATOM     21  H   LIG d   1       3.209  60.002 122.733  0.00  0.00    -0.090 HD
ENDBRANCH   5  18
BRANCH   3  22
ATOM     22  C   LIG d   1       5.332  61.320 118.659  0.00  0.00     0.382 C 
ATOM     23  O   LIG d   1       6.452  61.110 119.184  0.00  0.00    -0.241 OA
ATOM     24  O   LIG d   1       5.237  62.133 117.721  0.00  0.00    -0.241 OA
ENDBRANCH   3  22
TORSDOF 7
ENDMDL
MODEL 5
REMARK VINA RESULT:      -4.2      3.177      6.168
REMARK  7 active torsions:
REMARK  status: ('A' for Active; 'I' for Inactive)
REMARK    1  A    between atoms: C_2  and  C_3 
REMARK    2  A    between atoms: C_3  and  O_6 
REMARK    3  A    between atoms: C_3  and  C_4 
REMARK    4  A    between atoms: C_7  and  O_6 
REMARK    5  A    between atoms: C_9  and  C_10 
REMARK    6  A    between atoms: N_15  and  C_14 
REMARK    7  A    between atoms: N_20  and  C_19 
REMARK       I    between atoms: C_22  and  N_20 
ROOT
ATOM      1  C   LIG d   1     -15.538  72.449 121.565  0.00  0.00     0.161 C 
ATOM      2  C   LIG d   1     -15.417  71.091 121.225  0.00  0.00     0.016 C 
ATOM      3  C   LIG d   1     -16.006  70.522 120.072  0.00  0.00     0.038 C 
ATOM      4  C   LIG d   1     -16.634  71.309 119.095  0.00  0.00     0.028 C 
ATOM      5  C   LIG d   1     -17.217  72.607 119.645  0.00  0.00    -0.047 C 
ATOM      6  C   LIG d   1     -16.125  73.344 120.454  0.00  0.00     0.091 C 
ENDROOT
BRANCH   1   7
ATOM      7  O   LIG d   1     -14.262  72.960 121.998  0.00  0.00    -0.368 OA
BRANCH   7   8
ATOM      8  C   LIG d   1     -14.163  73.324 123.397  0.00  0.00     0.119 C 
BRANCH   8   9
ATOM      9  C   LIG d   1     -13.795  74.819 123.462  0.00  0.00     0.028 C 
ATOM     10  C   LIG d   1     -13.150  75.321 122.159  0.00  0.00     0.006 C 
ENDBRANCH   8   9
BRANCH   8  11
ATOM     11  C   LIG d   1     -13.005  72.591 124.082  0.00  0.00     0.028 C 
ATOM     12  C   LIG d   1     -12.208  71.701 123.116  0.00  0.00     0.006 C 
ENDBRANCH   8  11
ENDBRANCH   7   8
ENDBRANCH   1   7
BRANCH   6  13
ATOM     13  N   LIG d   1     -16.636  74.583 121.097  0.00  0.00    -0.311 N 
ATOM     14  C   LIG d   1     -16.531  75.791 120.547  0.00  0.00     0.210 C 
ATOM     15  C   LIG d   1     -17.106  76.936 121.387  0.00  0.00     0.109 C 
ATOM     16  O   LIG d   1     -16.044  76.020 119.429  0.00  0.00    -0.276 OA
ATOM     17  H   LIG d   1     -17.074  74.485 121.992  0.00  0.00     0.149 HD
ENDBRANCH   6  13
BRANCH   5  18
ATOM     18  N   LIG d   1     -17.717  73.391 118.500  0.00  0.00     0.381 N 
ATOM     19  H   LIG d   1     -18.003  72.774 117.766  0.00  0.00    -0.090 HD
ATOM     20  H   LIG d   1     -16.973  73.970 118.152  0.00  0.00    -0.090 HD
ATOM     21  H   LIG d   1     -18.484  73.959 118.785  0.00  0.00    -0.090 HD
ENDBRANCH   5  18
BRANCH   3  22
ATOM     22  C   LIG d   1     -16.004  69.146 119.908  0.00  0.00     0.382 C 
ATOM     23  O   LIG d   1     -17.001  68.471 120.263  0.00  0.00    -0.241 OA
ATOM     24  O   LIG d   1     -15.002  68.565 119.451  0.00  0.00    -0.241 OA
ENDBRANCH   3  22
TORSDOF 7
ENDMDL
MODEL 6
REMARK VINA RESULT:      -4.2      2.405      5.411
REMARK  7 active torsions:
REMARK  status: ('A' for Active; 'I' for Inactive)
REMARK    1  A    between atoms: C_2  and  C_3 
REMARK    2  A    between atoms: C_3  and  O_6 
REMARK    3  A    between atoms: C_3  and  C_4 
REMARK    4  A    between atoms: C_7  and  O_6 
REMARK    5  A    between atoms: C_9  and  C_10 
REMARK    6  A    between atoms: N_15  and  C_14 
REMARK    7  A    between atoms: N_20  and  C_19 
REMARK       I    between atoms: C_22  and  N_20 
ROOT
ATOM      1  C   LIG d   1     -16.535  75.762 121.208  0.00  0.00     0.161 C 
ATOM      2  C   LIG d   1     -16.074  74.461 120.948  0.00  0.00     0.016 C 
ATOM      3  C   LIG d   1     -16.806  73.512 120.198  0.00  0.00     0.038 C 
ATOM      4  C   LIG d   1     -17.989  73.851 119.525  0.00  0.00     0.028 C 
ATOM      5  C   LIG d   1     -18.746  75.004 120.175  0.00  0.00    -0.047 C 
ATOM      6  C   LIG d   1     -17.772  76.186 120.389  0.00  0.00     0.091 C 
ENDROOT
BRANCH   1   7
ATOM      7  O   LIG d   1     -15.463  76.707 121.021  0.00  0.00    -0.368 OA
BRANCH   7   8
ATOM      8  C   LIG d   1     -14.810  77.177 122.226  0.00  0.00     0.119 C 
BRANCH   8   9
ATOM      9  C   LIG d   1     -15.329  78.600 122.509  0.00  0.00     0.028 C 
ATOM     10  C   LIG d   1     -16.248  78.655 123.741  0.00  0.00     0.006 C 
ENDBRANCH   8   9
BRANCH   8  11
ATOM     11  C   LIG d   1     -13.300  77.330 122.018  0.00  0.00     0.028 C 
ATOM     12  C   LIG d   1     -12.740  76.348 120.977  0.00  0.00     0.006 C 
ENDBRANCH   8  11
ENDBRANCH   7   8
ENDBRANCH   1   7
BRANCH   6  13
ATOM     13  N   LIG d   1     -18.411  77.326 121.096  0.00  0.00    -0.311 N 
ATOM     14  C   LIG d   1     -18.709  78.481 120.505  0.00  0.00     0.210 C 
ATOM     15  C   LIG d   1     -19.346  79.531 121.421  0.00  0.00     0.109 C 
ATOM     16  O   LIG d   1     -18.537  78.725 119.301  0.00  0.00    -0.276 OA
ATOM     17  H   LIG d   1     -18.615  77.203 122.069  0.00  0.00     0.149 HD
ENDBRANCH   6  13
BRANCH   5  18
ATOM     18  N   LIG d   1     -19.882  75.343 119.296  0.00  0.00     0.381 N 
ATOM     19  H   LIG d   1     -20.726  75.373 119.831  0.00  0.00    -0.090 HD
ATOM     20  H   LIG d   1     -19.976  74.628 118.597  0.00  0.00    -0.090 HD
ATOM     21  H   LIG d   1     -19.724  76.225 118.860  0.00  0.00    -0.090 HD
ENDBRANCH   5  18
BRANCH   3  22
ATOM     22  C   LIG d   1     -16.375  72.195 120.149  0.00  0.00     0.382 C 
ATOM     23  O   LIG d   1     -15.928  71.642 121.183  0.00  0.00    -0.241 OA
ATOM     24  O   LIG d   1     -16.385  71.566 119.074  0.00  0.00    -0.241 OA
ENDBRANCH   3  22
TORSDOF 7
ENDMDL
MODEL 7
REMARK VINA RESULT:      -4.2      2.439      5.446
REMARK  7 active torsions:
REMARK  status: ('A' for Active; 'I' for Inactive)
REMARK    1  A    between atoms: C_2  and  C_3 
REMARK    2  A    between atoms: C_3  and  O_6 
REMARK    3  A    between atoms: C_3  and  C_4 
REMARK    4  A    between atoms: C_7  and  O_6 
REMARK    5  A    between atoms: C_9  and  C_10 
REMARK    6  A    between atoms: N_15  and  C_14 
REMARK    7  A    between atoms: N_20  and  C_19 
REMARK       I    between atoms: C_22  and  N_20 
ROOT
ATOM      1  C   LIG d   1     -19.001  74.071 119.811  0.00  0.00     0.161 C 
ATOM      2  C   LIG d   1     -18.473  72.769 119.778  0.00  0.00     0.016 C 
ATOM      3  C   LIG d   1     -17.087  72.490 119.777  0.00  0.00     0.038 C 
ATOM      4  C   LIG d   1     -16.129  73.498 119.963  0.00  0.00     0.028 C 
ATOM      5  C   LIG d   1     -16.595  74.872 119.494  0.00  0.00    -0.047 C 
ATOM      6  C   LIG d   1     -17.972  75.177 120.127  0.00  0.00     0.091 C 
ENDROOT
BRANCH   1   7
ATOM      7  O   LIG d   1     -20.100  74.129 120.741  0.00  0.00    -0.368 OA
BRANCH   7   8
ATOM      8  C   LIG d   1     -21.383  73.680 120.240  0.00  0.00     0.119 C 
BRANCH   8   9
ATOM      9  C   LIG d   1     -21.899  74.753 119.261  0.00  0.00     0.028 C 
ATOM     10  C   LIG d   1     -22.113  76.115 119.943  0.00  0.00     0.006 C 
ENDBRANCH   8   9
BRANCH   8  11
ATOM     11  C   LIG d   1     -22.427  73.617 121.359  0.00  0.00     0.028 C 
ATOM     12  C   LIG d   1     -23.571  72.637 121.051  0.00  0.00     0.006 C 
ENDBRANCH   8  11
ENDBRANCH   7   8
ENDBRANCH   1   7
BRANCH   6  13
ATOM     13  N   LIG d   1     -18.540  76.467 119.654  0.00  0.00    -0.311 N 
ATOM     14  C   LIG d   1     -18.432  77.607 120.333  0.00  0.00     0.210 C 
ATOM     15  C   LIG d   1     -19.107  78.816 119.676  0.00  0.00     0.109 C 
ATOM     16  O   LIG d   1     -17.815  77.740 121.400  0.00  0.00    -0.276 OA
ATOM     17  H   LIG d   1     -19.030  76.456 118.781  0.00  0.00     0.149 HD
ENDBRANCH   6  13
BRANCH   5  18
ATOM     18  N   LIG d   1     -15.556  75.848 119.873  0.00  0.00     0.381 N 
ATOM     19  H   LIG d   1     -15.670  76.109 120.832  0.00  0.00    -0.090 HD
ATOM     20  H   LIG d   1     -15.662  76.672 119.307  0.00  0.00    -0.090 HD
ATOM     21  H   LIG d   1     -14.651  75.455 119.733  0.00  0.00    -0.090 HD
ENDBRANCH   5  18
BRANCH   3  22
ATOM     22  C   LIG d   1     -16.647  71.196 119.548  0.00  0.00     0.382 C 
ATOM     23  O   LIG d   1     -16.228  70.867 118.412  0.00  0.00    -0.241 OA
ATOM     24  O   LIG d   1     -16.703  70.340 120.452  0.00  0.00    -0.241 OA
ENDBRANCH   3  22
TORSDOF 7
ENDMDL
MODEL 8
REMARK VINA RESULT:      -4.2     21.870     24.698
REMARK  7 active torsions:
REMARK  status: ('A' for Active; 'I' for Inactive)
REMARK    1  A    between atoms: C_2  and  C_3 
REMARK    2  A    between atoms: C_3  and  O_6 
REMARK    3  A    between atoms: C_3  and  C_4 
REMARK    4  A    between atoms: C_7  and  O_6 
REMARK    5  A    between atoms: C_9  and  C_10 
REMARK    6  A    between atoms: N_15  and  C_14 
REMARK    7  A    between atoms: N_20  and  C_19 
REMARK       I    between atoms: C_22  and  N_20 
ROOT
ATOM      1  C   LIG d   1      -1.914  93.162 118.088  0.00  0.00     0.161 C 
ATOM      2  C   LIG d   1      -0.922  92.174 117.973  0.00  0.00     0.016 C 
ATOM      3  C   LIG d   1       0.333  92.252 118.619  0.00  0.00     0.038 C 
ATOM      4  C   LIG d   1       0.626  93.259 119.551  0.00  0.00     0.028 C 
ATOM      5  C   LIG d   1      -0.152  94.549 119.313  0.00  0.00    -0.047 C 
ATOM      6  C   LIG d   1      -1.655  94.212 119.188  0.00  0.00     0.091 C 
ENDROOT
BRANCH   1   7
ATOM      7  O   LIG d   1      -3.201  92.543 118.279  0.00  0.00    -0.368 OA
BRANCH   7   8
ATOM      8  C   LIG d   1      -3.427  91.929 119.572  0.00  0.00     0.119 C 
BRANCH   8   9
ATOM      9  C   LIG d   1      -3.750  90.442 119.328  0.00  0.00     0.028 C 
ATOM     10  C   LIG d   1      -4.140  90.158 117.868  0.00  0.00     0.006 C 
ENDBRANCH   8   9
BRANCH   8  11
ATOM     11  C   LIG d   1      -4.671  92.507 120.254  0.00  0.00     0.028 C 
ATOM     12  C   LIG d   1      -5.540  93.342 119.299  0.00  0.00     0.006 C 
ENDBRANCH   8  11
ENDBRANCH   7   8
ENDBRANCH   1   7
BRANCH   6  13
ATOM     13  N   LIG d   1      -2.479  95.408 118.871  0.00  0.00    -0.311 N 
ATOM     14  C   LIG d   1      -3.092  96.143 119.798  0.00  0.00     0.210 C 
ATOM     15  C   LIG d   1      -3.907  97.321 119.254  0.00  0.00     0.109 C 
ATOM     16  O   LIG d   1      -3.011  95.951 121.020  0.00  0.00    -0.276 OA
ATOM     17  H   LIG d   1      -2.573  95.655 117.905  0.00  0.00     0.149 HD
ENDBRANCH   6  13
BRANCH   5  18
ATOM     18  N   LIG d   1       0.145  95.461 120.434  0.00  0.00     0.381 N 
ATOM     19  H   LIG d   1       1.100  95.758 120.385  0.00  0.00    -0.090 HD
ATOM     20  H   LIG d   1       0.013  94.967 121.299  0.00  0.00    -0.090 HD
ATOM     21  H   LIG d   1      -0.459  96.253 120.398  0.00  0.00    -0.090 HD
ENDBRANCH   5  18
BRANCH   3  22
ATOM     22  C   LIG d   1       1.326  91.338 118.303  0.00  0.00     0.382 C 
ATOM     23  O   LIG d   1       2.527  91.701 118.275  0.00  0.00    -0.241 OA
ATOM     24  O   LIG d   1       1.033  90.165 118.003  0.00  0.00    -0.241 OA
ENDBRANCH   3  22
TORSDOF 7
ENDMDL
MODEL 9
REMARK VINA RESULT:      -4.1      2.573      3.923
REMARK  7 active torsions:
REMARK  status: ('A' for Active; 'I' for Inactive)
REMARK    1  A    between atoms: C_2  and  C_3 
REMARK    2  A    between atoms: C_3  and  O_6 
REMARK    3  A    between atoms: C_3  and  C_4 
REMARK    4  A    between atoms: C_7  and  O_6 
REMARK    5  A    between atoms: C_9  and  C_10 
REMARK    6  A    between atoms: N_15  and  C_14 
REMARK    7  A    between atoms: N_20  and  C_19 
REMARK       I    between atoms: C_22  and  N_20 
ROOT
ATOM      1  C   LIG d   1     -18.452  75.458 120.215  0.00  0.00     0.161 C 
ATOM      2  C   LIG d   1     -18.377  76.860 120.211  0.00  0.00     0.016 C 
ATOM      3  C   LIG d   1     -19.512  77.701 120.162  0.00  0.00     0.038 C 
ATOM      4  C   LIG d   1     -20.816  77.193 120.265  0.00  0.00     0.028 C 
ATOM      5  C   LIG d   1     -20.949  75.760 119.762  0.00  0.00    -0.047 C 
ATOM      6  C   LIG d   1     -19.868  74.887 120.441  0.00  0.00     0.091 C 
ENDROOT
BRANCH   1   7
ATOM      7  O   LIG d   1     -17.535  74.921 121.189  0.00  0.00    -0.368 OA
BRANCH   7   8
ATOM      8  C   LIG d   1     -16.373  74.236 120.660  0.00  0.00     0.119 C 
BRANCH   8   9
ATOM      9  C   LIG d   1     -15.145  75.125 120.935  0.00  0.00     0.028 C 
ATOM     10  C   LIG d   1     -15.319  75.992 122.193  0.00  0.00     0.006 C 
ENDBRANCH   8   9
BRANCH   8  11
ATOM     11  C   LIG d   1     -16.448  74.108 119.135  0.00  0.00     0.028 C 
ATOM     12  C   LIG d   1     -16.499  72.646 118.662  0.00  0.00     0.006 C 
ENDBRANCH   8  11
ENDBRANCH   7   8
ENDBRANCH   1   7
BRANCH   6  13
ATOM     13  N   LIG d   1     -19.874  73.487 119.941  0.00  0.00    -0.311 N 
ATOM     14  C   LIG d   1     -19.933  72.424 120.741  0.00  0.00     0.210 C 
ATOM     15  C   LIG d   1     -19.907  71.072 120.022  0.00  0.00     0.109 C 
ATOM     16  O   LIG d   1     -20.038  72.473 121.976  0.00  0.00    -0.276 OA
ATOM     17  H   LIG d   1     -19.823  73.357 118.950  0.00  0.00     0.149 HD
ENDBRANCH   6  13
BRANCH   5  18
ATOM     18  N   LIG d   1     -22.323  75.310 120.056  0.00  0.00     0.381 N 
ATOM     19  H   LIG d   1     -22.382  74.316 119.960  0.00  0.00    -0.090 HD
ATOM     20  H   LIG d   1     -22.951  75.728 119.392  0.00  0.00    -0.090 HD
ATOM     21  H   LIG d   1     -22.579  75.578 120.981  0.00  0.00    -0.090 HD
ENDBRANCH   5  18
BRANCH   3  22
ATOM     22  C   LIG d   1     -19.350  79.064 119.966  0.00  0.00     0.382 C 
ATOM     23  O   LIG d   1     -20.303  79.848 120.195  0.00  0.00    -0.241 OA
ATOM     24  O   LIG d   1     -18.278  79.516 119.522  0.00  0.00    -0.241 OA
ENDBRANCH   3  22
TORSDOF 7
ENDMDL
