MODEL 1
REMARK VINA RESULT:      -4.6      0.000      0.000
REMARK  7 active torsions:
REMARK  status: ('A' for Active; 'I' for Inactive)
REMARK    1  A    between atoms: C_2  and  C_3 
REMARK    2  A    between atoms: C_3  and  O_6 
REMARK    3  A    between atoms: C_3  and  C_4 
REMARK    4  A    between atoms: C_7  and  O_6 
REMARK    5  A    between atoms: C_9  and  C_10 
REMARK    6  A    between atoms: N_15  and  C_14 
REMARK    7  A    between atoms: N_20  and  C_19 
REMARK       I    between atoms: C_22  and  N_20 
ROOT
ATOM      1  C   LIG d   1      -0.022  57.217 119.309  0.00  0.00     0.161 C 
ATOM      2  C   LIG d   1      -1.262  56.906 118.728  0.00  0.00     0.016 C 
ATOM      3  C   LIG d   1      -2.402  57.735 118.838  0.00  0.00     0.038 C 
ATOM      4  C   LIG d   1      -2.338  59.012 119.413  0.00  0.00     0.028 C 
ATOM      5  C   LIG d   1      -1.234  59.152 120.456  0.00  0.00    -0.047 C 
ATOM      6  C   LIG d   1       0.098  58.659 119.846  0.00  0.00     0.091 C 
ENDROOT
BRANCH   1   7
ATOM      7  O   LIG d   1       1.040  56.941 118.374  0.00  0.00    -0.368 OA
BRANCH   7   8
ATOM      8  C   LIG d   1       1.574  55.595 118.395  0.00  0.00     0.119 C 
BRANCH   8   9
ATOM      9  C   LIG d   1       1.753  55.191 119.872  0.00  0.00     0.028 C 
ATOM     10  C   LIG d   1       1.272  53.757 120.151  0.00  0.00     0.006 C 
ENDBRANCH   8   9
BRANCH   8  11
ATOM     11  C   LIG d   1       2.980  55.543 117.789  0.00  0.00     0.028 C 
ATOM     12  C   LIG d   1       3.961  56.506 118.476  0.00  0.00     0.006 C 
ENDBRANCH   8  11
ENDBRANCH   7   8
ENDBRANCH   1   7
BRANCH   6  13
ATOM     13  N   LIG d   1       1.214  58.682 120.827  0.00  0.00    -0.311 N 
ATOM     14  C   LIG d   1       2.424  59.166 120.550  0.00  0.00     0.210 C 
ATOM     15  C   LIG d   1       3.434  59.076 121.698  0.00  0.00     0.109 C 
ATOM     16  O   LIG d   1       2.747  59.689 119.473  0.00  0.00    -0.276 OA
ATOM     17  H   LIG d   1       1.030  58.305 121.736  0.00  0.00     0.149 HD
ENDBRANCH   6  13
BRANCH   5  18
ATOM     18  N   LIG d   1      -1.190  60.566 120.872  0.00  0.00     0.381 N 
ATOM     19  H   LIG d   1      -2.117  60.943 120.891  0.00  0.00    -0.090 HD
ATOM     20  H   LIG d   1      -0.653  61.086 120.201  0.00  0.00    -0.090 HD
ATOM     21  H   LIG d   1      -0.774  60.644 121.774  0.00  0.00    -0.090 HD
ENDBRANCH   5  18
BRANCH   3  22
ATOM     22  C   LIG d   1      -3.634  57.269 118.404  0.00  0.00     0.382 C 
ATOM     23  O   LIG d   1      -3.859  56.036 118.362  0.00  0.00    -0.241 OA
ATOM     24  O   LIG d   1      -4.508  58.066 118.011  0.00  0.00    -0.241 OA
ENDBRANCH   3  22
TORSDOF 7
ENDMDL
MODEL 2
REMARK VINA RESULT:      -4.6     21.844     23.929
REMARK  7 active torsions:
REMARK  status: ('A' for Active; 'I' for Inactive)
REMARK    1  A    between atoms: C_2  and  C_3 
REMARK    2  A    between atoms: C_3  and  O_6 
REMARK    3  A    between atoms: C_3  and  C_4 
REMARK    4  A    between atoms: C_7  and  O_6 
REMARK    5  A    between atoms: C_9  and  C_10 
REMARK    6  A    between atoms: N_15  and  C_14 
REMARK    7  A    between atoms: N_20  and  C_19 
REMARK       I    between atoms: C_22  and  N_20 
ROOT
ATOM      1  C   LIG d   1      -8.398  79.676 120.410  0.00  0.00     0.161 C 
ATOM      2  C   LIG d   1      -8.759  78.529 119.683  0.00  0.00     0.016 C 
ATOM      3  C   LIG d   1      -9.576  78.564 118.530  0.00  0.00     0.038 C 
ATOM      4  C   LIG d   1      -9.965  79.773 117.934  0.00  0.00     0.028 C 
ATOM      5  C   LIG d   1     -10.045  80.935 118.917  0.00  0.00    -0.047 C 
ATOM      6  C   LIG d   1      -8.721  81.013 119.711  0.00  0.00     0.091 C 
ENDROOT
BRANCH   1   7
ATOM      7  O   LIG d   1      -6.999  79.616 120.754  0.00  0.00    -0.368 OA
BRANCH   7   8
ATOM      8  C   LIG d   1      -6.137  78.943 119.803  0.00  0.00     0.119 C 
BRANCH   8   9
ATOM      9  C   LIG d   1      -5.102  78.135 120.609  0.00  0.00     0.028 C 
ATOM     10  C   LIG d   1      -4.655  76.858 119.876  0.00  0.00     0.006 C 
ENDBRANCH   8   9
BRANCH   8  11
ATOM     11  C   LIG d   1      -5.321  79.946 118.984  0.00  0.00     0.028 C 
ATOM     12  C   LIG d   1      -5.833  80.096 117.542  0.00  0.00     0.006 C 
ENDBRANCH   8  11
ENDBRANCH   7   8
ENDBRANCH   1   7
BRANCH   6  13
ATOM     13  N   LIG d   1      -8.746  82.071 120.754  0.00  0.00    -0.311 N 
ATOM     14  C   LIG d   1      -7.849  83.053 120.824  0.00  0.00     0.210 C 
ATOM     15  C   LIG d   1      -8.047  84.028 121.989  0.00  0.00     0.109 C 
ATOM     16  O   LIG d   1      -6.928  83.229 120.012  0.00  0.00    -0.276 OA
ATOM     17  H   LIG d   1      -9.479  82.023 121.434  0.00  0.00     0.149 HD
ENDBRANCH   6  13
BRANCH   5  18
ATOM     18  N   LIG d   1     -10.326  82.158 118.140  0.00  0.00     0.381 N 
ATOM     19  H   LIG d   1      -9.592  82.823 118.280  0.00  0.00    -0.090 HD
ATOM     20  H   LIG d   1     -11.185  82.561 118.469  0.00  0.00    -0.090 HD
ATOM     21  H   LIG d   1     -10.404  81.936 117.172  0.00  0.00    -0.090 HD
ENDBRANCH   5  18
BRANCH   3  22
ATOM     22  C   LIG d   1     -10.045  77.379 117.984  0.00  0.00     0.382 C 
ATOM     23  O   LIG d   1      -9.307  76.700 117.231  0.00  0.00    -0.241 OA
ATOM     24  O   LIG d   1     -11.213  77.003 118.200  0.00  0.00    -0.241 OA
ENDBRANCH   3  22
TORSDOF 7
ENDMDL
MODEL 3
REMARK VINA RESULT:      -4.6     12.782     16.429
REMARK  7 active torsions:
REMARK  status: ('A' for Active; 'I' for Inactive)
REMARK    1  A    between atoms: C_2  and  C_3 
REMARK    2  A    between atoms: C_3  and  O_6 
REMARK    3  A    between atoms: C_3  and  C_4 
REMARK    4  A    between atoms: C_7  and  O_6 
REMARK    5  A    between atoms: C_9  and  C_10 
REMARK    6  A    between atoms: N_15  and  C_14 
REMARK    7  A    between atoms: N_20  and  C_19 
REMARK       I    between atoms: C_22  and  N_20 
ROOT
ATOM      1  C   LIG d   1     -12.523  65.766 121.767  0.00  0.00     0.161 C 
ATOM      2  C   LIG d   1     -11.389  65.233 122.402  0.00  0.00     0.016 C 
ATOM      3  C   LIG d   1     -10.862  63.954 122.110  0.00  0.00     0.038 C 
ATOM      4  C   LIG d   1     -11.348  63.177 121.048  0.00  0.00     0.028 C 
ATOM      5  C   LIG d   1     -12.809  63.456 120.713  0.00  0.00    -0.047 C 
ATOM      6  C   LIG d   1     -13.000  64.979 120.528  0.00  0.00     0.091 C 
ENDROOT
BRANCH   1   7
ATOM      7  O   LIG d   1     -12.288  67.146 121.424  0.00  0.00    -0.368 OA
BRANCH   7   8
ATOM      8  C   LIG d   1     -13.175  68.114 122.035  0.00  0.00     0.119 C 
BRANCH   8   9
ATOM      9  C   LIG d   1     -13.512  69.172 120.966  0.00  0.00     0.028 C 
ATOM     10  C   LIG d   1     -14.971  69.079 120.488  0.00  0.00     0.006 C 
ENDBRANCH   8   9
BRANCH   8  11
ATOM     11  C   LIG d   1     -12.472  68.883 123.158  0.00  0.00     0.028 C 
ATOM     12  C   LIG d   1     -12.873  70.366 123.207  0.00  0.00     0.006 C 
ENDBRANCH   8  11
ENDBRANCH   7   8
ENDBRANCH   1   7
BRANCH   6  13
ATOM     13  N   LIG d   1     -14.418  65.347 120.281  0.00  0.00    -0.311 N 
ATOM     14  C   LIG d   1     -14.936  65.491 119.062  0.00  0.00     0.210 C 
ATOM     15  C   LIG d   1     -16.414  65.894 119.031  0.00  0.00     0.109 C 
ATOM     16  O   LIG d   1     -14.320  65.294 118.004  0.00  0.00    -0.276 OA
ATOM     17  H   LIG d   1     -14.998  65.495 121.083  0.00  0.00     0.149 HD
ENDBRANCH   6  13
BRANCH   5  18
ATOM     18  N   LIG d   1     -13.145  62.680 119.504  0.00  0.00     0.381 N 
ATOM     19  H   LIG d   1     -12.352  62.142 119.215  0.00  0.00    -0.090 HD
ATOM     20  H   LIG d   1     -13.379  63.318 118.763  0.00  0.00    -0.090 HD
ATOM     21  H   LIG d   1     -13.916  62.077 119.688  0.00  0.00    -0.090 HD
ENDBRANCH   5  18
BRANCH   3  22
ATOM     22  C   LIG d   1      -9.863  63.423 122.911  0.00  0.00     0.382 C 
ATOM     23  O   LIG d   1      -9.596  63.954 124.016  0.00  0.00    -0.241 OA
ATOM     24  O   LIG d   1      -9.194  62.446 122.523  0.00  0.00    -0.241 OA
ENDBRANCH   3  22
TORSDOF 7
ENDMDL
MODEL 4
REMARK VINA RESULT:      -4.5     23.029     24.896
REMARK  7 active torsions:
REMARK  status: ('A' for Active; 'I' for Inactive)
REMARK    1  A    between atoms: C_2  and  C_3 
REMARK    2  A    between atoms: C_3  and  O_6 
REMARK    3  A    between atoms: C_3  and  C_4 
REMARK    4  A    between atoms: C_7  and  O_6 
REMARK    5  A    between atoms: C_9  and  C_10 
REMARK    6  A    between atoms: N_15  and  C_14 
REMARK    7  A    between atoms: N_20  and  C_19 
REMARK       I    between atoms: C_22  and  N_20 
ROOT
ATOM      1  C   LIG d   1     -10.080  80.412 120.653  0.00  0.00     0.161 C 
ATOM      2  C   LIG d   1     -10.103  79.134 120.070  0.00  0.00     0.016 C 
ATOM      3  C   LIG d   1     -10.016  78.913 118.676  0.00  0.00     0.038 C 
ATOM      4  C   LIG d   1      -9.747  79.954 117.775  0.00  0.00     0.028 C 
ATOM      5  C   LIG d   1     -10.220  81.318 118.267  0.00  0.00    -0.047 C 
ATOM      6  C   LIG d   1      -9.676  81.553 119.695  0.00  0.00     0.091 C 
ENDROOT
BRANCH   1   7
ATOM      7  O   LIG d   1      -9.225  80.405 121.813  0.00  0.00    -0.368 OA
BRANCH   7   8
ATOM      8  C   LIG d   1      -8.130  79.456 121.792  0.00  0.00     0.119 C 
BRANCH   8   9
ATOM      9  C   LIG d   1      -8.022  78.844 123.202  0.00  0.00     0.028 C 
ATOM     10  C   LIG d   1      -9.148  77.839 123.494  0.00  0.00     0.006 C 
ENDBRANCH   8   9
BRANCH   8  11
ATOM     11  C   LIG d   1      -6.790  80.156 121.549  0.00  0.00     0.028 C 
ATOM     12  C   LIG d   1      -6.335  80.080 120.083  0.00  0.00     0.006 C 
ENDBRANCH   8  11
ENDBRANCH   7   8
ENDBRANCH   1   7
BRANCH   6  13
ATOM     13  N   LIG d   1     -10.161  82.828 120.284  0.00  0.00    -0.311 N 
ATOM     14  C   LIG d   1      -9.376  83.674 120.948  0.00  0.00     0.210 C 
ATOM     15  C   LIG d   1     -10.081  84.921 121.491  0.00  0.00     0.109 C 
ATOM     16  O   LIG d   1      -8.155  83.527 121.111  0.00  0.00    -0.276 OA
ATOM     17  H   LIG d   1     -11.133  83.042 120.172  0.00  0.00     0.149 HD
ENDBRANCH   6  13
BRANCH   5  18
ATOM     18  N   LIG d   1      -9.754  82.328 117.298  0.00  0.00     0.381 N 
ATOM     19  H   LIG d   1      -8.755  82.369 117.306  0.00  0.00    -0.090 HD
ATOM     20  H   LIG d   1     -10.110  83.227 117.570  0.00  0.00    -0.090 HD
ATOM     21  H   LIG d   1     -10.077  82.097 116.384  0.00  0.00    -0.090 HD
ENDBRANCH   5  18
BRANCH   3  22
ATOM     22  C   LIG d   1     -10.239  77.643 118.167  0.00  0.00     0.382 C 
ATOM     23  O   LIG d   1     -11.343  77.076 118.356  0.00  0.00    -0.241 OA
ATOM     24  O   LIG d   1      -9.336  77.038 117.558  0.00  0.00    -0.241 OA
ENDBRANCH   3  22
TORSDOF 7
ENDMDL
MODEL 5
REMARK VINA RESULT:      -4.5      1.995      3.717
REMARK  7 active torsions:
REMARK  status: ('A' for Active; 'I' for Inactive)
REMARK    1  A    between atoms: C_2  and  C_3 
REMARK    2  A    between atoms: C_3  and  O_6 
REMARK    3  A    between atoms: C_3  and  C_4 
REMARK    4  A    between atoms: C_7  and  O_6 
REMARK    5  A    between atoms: C_9  and  C_10 
REMARK    6  A    between atoms: N_15  and  C_14 
REMARK    7  A    between atoms: N_20  and  C_19 
REMARK       I    between atoms: C_22  and  N_20 
ROOT
ATOM      1  C   LIG d   1      -0.036  57.863 118.075  0.00  0.00     0.161 C 
ATOM      2  C   LIG d   1      -1.396  58.214 118.076  0.00  0.00     0.016 C 
ATOM      3  C   LIG d   1      -2.420  57.360 118.546  0.00  0.00     0.038 C 
ATOM      4  C   LIG d   1      -2.136  56.147 119.190  0.00  0.00     0.028 C 
ATOM      5  C   LIG d   1      -0.813  55.526 118.757  0.00  0.00    -0.047 C 
ATOM      6  C   LIG d   1       0.303  56.589 118.877  0.00  0.00     0.091 C 
ENDROOT
BRANCH   1   7
ATOM      7  O   LIG d   1       0.756  58.974 118.541  0.00  0.00    -0.368 OA
BRANCH   7   8
ATOM      8  C   LIG d   1       1.087  58.973 119.952  0.00  0.00     0.119 C 
BRANCH   8   9
ATOM      9  C   LIG d   1       0.209  60.040 120.634  0.00  0.00     0.028 C 
ATOM     10  C   LIG d   1      -0.834  59.424 121.581  0.00  0.00     0.006 C 
ENDBRANCH   8   9
BRANCH   8  11
ATOM     11  C   LIG d   1       2.531  59.427 120.185  0.00  0.00     0.028 C 
ATOM     12  C   LIG d   1       3.224  58.650 121.315  0.00  0.00     0.006 C 
ENDBRANCH   8  11
ENDBRANCH   7   8
ENDBRANCH   1   7
BRANCH   6  13
ATOM     13  N   LIG d   1       1.616  56.089 118.392  0.00  0.00    -0.311 N 
ATOM     14  C   LIG d   1       2.535  55.548 119.191  0.00  0.00     0.210 C 
ATOM     15  C   LIG d   1       3.827  55.116 118.490  0.00  0.00     0.109 C 
ATOM     16  O   LIG d   1       2.388  55.354 120.407  0.00  0.00    -0.276 OA
ATOM     17  H   LIG d   1       1.806  56.179 117.413  0.00  0.00     0.149 HD
ENDBRANCH   6  13
BRANCH   5  18
ATOM     18  N   LIG d   1      -0.577  54.342 119.605  0.00  0.00     0.381 N 
ATOM     19  H   LIG d   1      -1.018  54.469 120.494  0.00  0.00    -0.090 HD
ATOM     20  H   LIG d   1       0.412  54.241 119.754  0.00  0.00    -0.090 HD
ATOM     21  H   LIG d   1      -0.938  53.527 119.160  0.00  0.00    -0.090 HD
ENDBRANCH   5  18
BRANCH   3  22
ATOM     22  C   LIG d   1      -3.748  57.699 118.336  0.00  0.00     0.382 C 
ATOM     23  O   LIG d   1      -4.052  58.873 118.013  0.00  0.00    -0.241 OA
ATOM     24  O   LIG d   1      -4.650  56.858 118.509  0.00  0.00    -0.241 OA
ENDBRANCH   3  22
TORSDOF 7
ENDMDL
MODEL 6
REMARK VINA RESULT:      -4.4     35.357     37.269
REMARK  7 active torsions:
REMARK  status: ('A' for Active; 'I' for Inactive)
REMARK    1  A    between atoms: C_2  and  C_3 
REMARK    2  A    between atoms: C_3  and  O_6 
REMARK    3  A    between atoms: C_3  and  C_4 
REMARK    4  A    between atoms: C_7  and  O_6 
REMARK    5  A    between atoms: C_9  and  C_10 
REMARK    6  A    between atoms: N_15  and  C_14 
REMARK    7  A    between atoms: N_20  and  C_19 
REMARK       I    between atoms: C_22  and  N_20 
ROOT
ATOM      1  C   LIG d   1      -5.896  93.573 120.199  0.00  0.00     0.161 C 
ATOM      2  C   LIG d   1      -5.749  92.403 119.436  0.00  0.00     0.016 C 
ATOM      3  C   LIG d   1      -6.384  92.203 118.189  0.00  0.00     0.038 C 
ATOM      4  C   LIG d   1      -7.094  93.228 117.545  0.00  0.00     0.028 C 
ATOM      5  C   LIG d   1      -7.687  94.251 118.507  0.00  0.00    -0.047 C 
ATOM      6  C   LIG d   1      -6.575  94.746 119.461  0.00  0.00     0.091 C 
ENDROOT
BRANCH   1   7
ATOM      7  O   LIG d   1      -4.614  93.983 120.716  0.00  0.00    -0.368 OA
BRANCH   7   8
ATOM      8  C   LIG d   1      -3.728  94.640 119.777  0.00  0.00     0.119 C 
BRANCH   8   9
ATOM      9  C   LIG d   1      -2.431  93.811 119.707  0.00  0.00     0.028 C 
ATOM     10  C   LIG d   1      -2.308  93.025 118.390  0.00  0.00     0.006 C 
ENDBRANCH   8   9
BRANCH   8  11
ATOM     11  C   LIG d   1      -3.300  96.019 120.286  0.00  0.00     0.028 C 
ATOM     12  C   LIG d   1      -2.102  96.594 119.514  0.00  0.00     0.006 C 
ENDBRANCH   8  11
ENDBRANCH   7   8
ENDBRANCH   1   7
BRANCH   6  13
ATOM     13  N   LIG d   1      -7.089  95.687 120.490  0.00  0.00    -0.311 N 
ATOM     14  C   LIG d   1      -7.034  97.012 120.364  0.00  0.00     0.210 C 
ATOM     15  C   LIG d   1      -7.601  97.799 121.550  0.00  0.00     0.109 C 
ATOM     16  O   LIG d   1      -6.597  97.610 119.369  0.00  0.00    -0.276 OA
ATOM     17  H   LIG d   1      -7.488  95.287 121.316  0.00  0.00     0.149 HD
ENDBRANCH   6  13
BRANCH   5  18
ATOM     18  N   LIG d   1      -8.278  95.333 117.698  0.00  0.00     0.381 N 
ATOM     19  H   LIG d   1      -8.024  96.221 118.083  0.00  0.00    -0.090 HD
ATOM     20  H   LIG d   1      -9.279  95.251 117.727  0.00  0.00    -0.090 HD
ATOM     21  H   LIG d   1      -7.960  95.268 116.756  0.00  0.00    -0.090 HD
ENDBRANCH   5  18
BRANCH   3  22
ATOM     22  C   LIG d   1      -6.347  90.952 117.591  0.00  0.00     0.382 C 
ATOM     23  O   LIG d   1      -5.247  90.371 117.421  0.00  0.00    -0.241 OA
ATOM     24  O   LIG d   1      -7.393  90.416 117.180  0.00  0.00    -0.241 OA
ENDBRANCH   3  22
TORSDOF 7
ENDMDL
MODEL 7
REMARK VINA RESULT:      -4.4     24.163     26.612
REMARK  7 active torsions:
REMARK  status: ('A' for Active; 'I' for Inactive)
REMARK    1  A    between atoms: C_2  and  C_3 
REMARK    2  A    between atoms: C_3  and  O_6 
REMARK    3  A    between atoms: C_3  and  C_4 
REMARK    4  A    between atoms: C_7  and  O_6 
REMARK    5  A    between atoms: C_9  and  C_10 
REMARK    6  A    between atoms: N_15  and  C_14 
REMARK    7  A    between atoms: N_20  and  C_19 
REMARK       I    between atoms: C_22  and  N_20 
ROOT
ATOM      1  C   LIG d   1      -9.191  81.592 121.393  0.00  0.00     0.161 C 
ATOM      2  C   LIG d   1      -9.577  82.782 122.032  0.00  0.00     0.016 C 
ATOM      3  C   LIG d   1      -9.987  83.942 121.335  0.00  0.00     0.038 C 
ATOM      4  C   LIG d   1     -10.183  83.942 119.946  0.00  0.00     0.028 C 
ATOM      5  C   LIG d   1      -9.323  82.918 119.213  0.00  0.00    -0.047 C 
ATOM      6  C   LIG d   1      -9.505  81.537 119.883  0.00  0.00     0.091 C 
ENDROOT
BRANCH   1   7
ATOM      7  O   LIG d   1      -9.778  80.462 122.068  0.00  0.00    -0.368 OA
BRANCH   7   8
ATOM      8  C   LIG d   1     -11.133  80.124 121.684  0.00  0.00     0.119 C 
BRANCH   8   9
ATOM      9  C   LIG d   1     -11.998  80.158 122.959  0.00  0.00     0.028 C 
ATOM     10  C   LIG d   1     -12.906  81.397 123.020  0.00  0.00     0.006 C 
ENDBRANCH   8   9
BRANCH   8  11
ATOM     11  C   LIG d   1     -11.223  78.683 121.171  0.00  0.00     0.028 C 
ATOM     12  C   LIG d   1      -9.997  77.838 121.549  0.00  0.00     0.006 C 
ENDBRANCH   8  11
ENDBRANCH   7   8
ENDBRANCH   1   7
BRANCH   6  13
ATOM     13  N   LIG d   1      -8.634  80.495 119.280  0.00  0.00    -0.311 N 
ATOM     14  C   LIG d   1      -9.051  79.639 118.349  0.00  0.00     0.210 C 
ATOM     15  C   LIG d   1      -7.998  78.632 117.877  0.00  0.00     0.109 C 
ATOM     16  O   LIG d   1     -10.185  79.639 117.846  0.00  0.00    -0.276 OA
ATOM     17  H   LIG d   1      -7.689  80.445 119.608  0.00  0.00     0.149 HD
ENDBRANCH   6  13
BRANCH   5  18
ATOM     18  N   LIG d   1      -9.728  82.930 117.794  0.00  0.00     0.381 N 
ATOM     19  H   LIG d   1     -10.657  83.291 117.710  0.00  0.00    -0.090 HD
ATOM     20  H   LIG d   1      -9.723  81.987 117.447  0.00  0.00    -0.090 HD
ATOM     21  H   LIG d   1      -9.097  83.489 117.264  0.00  0.00    -0.090 HD
ENDBRANCH   5  18
BRANCH   3  22
ATOM     22  C   LIG d   1     -10.166  85.131 122.025  0.00  0.00     0.382 C 
ATOM     23  O   LIG d   1     -10.317  85.117 123.270  0.00  0.00    -0.241 OA
ATOM     24  O   LIG d   1     -10.223  86.215 121.413  0.00  0.00    -0.241 OA
ENDBRANCH   3  22
TORSDOF 7
ENDMDL
MODEL 8
REMARK VINA RESULT:      -4.4     21.626     23.671
REMARK  7 active torsions:
REMARK  status: ('A' for Active; 'I' for Inactive)
REMARK    1  A    between atoms: C_2  and  C_3 
REMARK    2  A    between atoms: C_3  and  O_6 
REMARK    3  A    between atoms: C_3  and  C_4 
REMARK    4  A    between atoms: C_7  and  O_6 
REMARK    5  A    between atoms: C_9  and  C_10 
REMARK    6  A    between atoms: N_15  and  C_14 
REMARK    7  A    between atoms: N_20  and  C_19 
REMARK       I    between atoms: C_22  and  N_20 
ROOT
ATOM      1  C   LIG d   1      -7.231  79.780 118.164  0.00  0.00     0.161 C 
ATOM      2  C   LIG d   1      -7.976  78.595 118.044  0.00  0.00     0.016 C 
ATOM      3  C   LIG d   1      -9.389  78.564 118.007  0.00  0.00     0.038 C 
ATOM      4  C   LIG d   1     -10.155  79.737 117.936  0.00  0.00     0.028 C 
ATOM      5  C   LIG d   1      -9.469  80.947 118.564  0.00  0.00    -0.047 C 
ATOM      6  C   LIG d   1      -8.045  81.077 117.976  0.00  0.00     0.091 C 
ENDROOT
BRANCH   1   7
ATOM      7  O   LIG d   1      -6.117  79.751 117.251  0.00  0.00    -0.368 OA
BRANCH   7   8
ATOM      8  C   LIG d   1      -4.799  79.757 117.853  0.00  0.00     0.119 C 
BRANCH   8   9
ATOM      9  C   LIG d   1      -3.977  78.642 117.180  0.00  0.00     0.028 C 
ATOM     10  C   LIG d   1      -4.615  77.254 117.357  0.00  0.00     0.006 C 
ENDBRANCH   8   9
BRANCH   8  11
ATOM     11  C   LIG d   1      -4.862  79.376 119.336  0.00  0.00     0.028 C 
ATOM     12  C   LIG d   1      -3.976  80.269 120.219  0.00  0.00     0.006 C 
ENDBRANCH   8  11
ENDBRANCH   7   8
ENDBRANCH   1   7
BRANCH   6  13
ATOM     13  N   LIG d   1      -7.275  82.185 118.598  0.00  0.00    -0.311 N 
ATOM     14  C   LIG d   1      -7.055  82.280 119.908  0.00  0.00     0.210 C 
ATOM     15  C   LIG d   1      -6.254  83.512 120.342  0.00  0.00     0.109 C 
ATOM     16  O   LIG d   1      -7.419  81.444 120.749  0.00  0.00    -0.276 OA
ATOM     17  H   LIG d   1      -6.916  82.891 117.985  0.00  0.00     0.149 HD
ENDBRANCH   6  13
BRANCH   5  18
ATOM     18  N   LIG d   1     -10.315  82.126 118.298  0.00  0.00     0.381 N 
ATOM     19  H   LIG d   1     -10.042  82.880 118.896  0.00  0.00    -0.090 HD
ATOM     20  H   LIG d   1     -11.271  81.892 118.500  0.00  0.00    -0.090 HD
ATOM     21  H   LIG d   1     -10.227  82.400 117.344  0.00  0.00    -0.090 HD
ENDBRANCH   5  18
BRANCH   3  22
ATOM     22  C   LIG d   1     -10.052  77.348 118.082  0.00  0.00     0.382 C 
ATOM     23  O   LIG d   1     -11.258  77.312 118.425  0.00  0.00    -0.241 OA
ATOM     24  O   LIG d   1      -9.448  76.284 117.853  0.00  0.00    -0.241 OA
ENDBRANCH   3  22
TORSDOF 7
ENDMDL
MODEL 9
REMARK VINA RESULT:      -4.3     34.924     37.083
REMARK  7 active torsions:
REMARK  status: ('A' for Active; 'I' for Inactive)
REMARK    1  A    between atoms: C_2  and  C_3 
REMARK    2  A    between atoms: C_3  and  O_6 
REMARK    3  A    between atoms: C_3  and  C_4 
REMARK    4  A    between atoms: C_7  and  O_6 
REMARK    5  A    between atoms: C_9  and  C_10 
REMARK    6  A    between atoms: N_15  and  C_14 
REMARK    7  A    between atoms: N_20  and  C_19 
REMARK       I    between atoms: C_22  and  N_20 
ROOT
ATOM      1  C   LIG d   1      -4.844  93.810 119.828  0.00  0.00     0.161 C 
ATOM      2  C   LIG d   1      -3.668  93.293 119.259  0.00  0.00     0.016 C 
ATOM      3  C   LIG d   1      -3.654  92.201 118.360  0.00  0.00     0.038 C 
ATOM      4  C   LIG d   1      -4.836  91.647 117.848  0.00  0.00     0.028 C 
ATOM      5  C   LIG d   1      -6.033  91.806 118.779  0.00  0.00    -0.047 C 
ATOM      6  C   LIG d   1      -6.152  93.290 119.195  0.00  0.00     0.091 C 
ENDROOT
BRANCH   1   7
ATOM      7  O   LIG d   1      -4.809  95.251 119.794  0.00  0.00    -0.368 OA
BRANCH   7   8
ATOM      8  C   LIG d   1      -4.360  95.906 121.006  0.00  0.00     0.119 C 
BRANCH   8   9
ATOM      9  C   LIG d   1      -5.612  96.385 121.765  0.00  0.00     0.028 C 
ATOM     10  C   LIG d   1      -6.633  97.070 120.841  0.00  0.00     0.006 C 
ENDBRANCH   8   9
BRANCH   8  11
ATOM     11  C   LIG d   1      -3.566  97.177 120.690  0.00  0.00     0.028 C 
ATOM     12  C   LIG d   1      -2.906  97.139 119.303  0.00  0.00     0.006 C 
ENDBRANCH   8  11
ENDBRANCH   7   8
ENDBRANCH   1   7
BRANCH   6  13
ATOM     13  N   LIG d   1      -7.247  93.519 120.173  0.00  0.00    -0.311 N 
ATOM     14  C   LIG d   1      -8.463  93.938 119.828  0.00  0.00     0.210 C 
ATOM     15  C   LIG d   1      -9.437  94.129 120.995  0.00  0.00     0.109 C 
ATOM     16  O   LIG d   1      -8.837  94.139 118.663  0.00  0.00    -0.276 OA
ATOM     17  H   LIG d   1      -7.039  93.351 121.138  0.00  0.00     0.149 HD
ENDBRANCH   6  13
BRANCH   5  18
ATOM     18  N   LIG d   1      -7.224  91.309 118.065  0.00  0.00     0.381 N 
ATOM     19  H   LIG d   1      -7.030  91.249 117.085  0.00  0.00    -0.090 HD
ATOM     20  H   LIG d   1      -7.978  91.959 118.198  0.00  0.00    -0.090 HD
ATOM     21  H   LIG d   1      -7.482  90.413 118.415  0.00  0.00    -0.090 HD
ENDBRANCH   5  18
BRANCH   3  22
ATOM     22  C   LIG d   1      -2.445  91.628 117.995  0.00  0.00     0.382 C 
ATOM     23  O   LIG d   1      -2.398  90.416 117.674  0.00  0.00    -0.241 OA
ATOM     24  O   LIG d   1      -1.394  92.296 118.025  0.00  0.00    -0.241 OA
ENDBRANCH   3  22
TORSDOF 7
ENDMDL
