MODEL 1
REMARK VINA RESULT:      -5.5      0.000      0.000
REMARK  7 active torsions:
REMARK  status: ('A' for Active; 'I' for Inactive)
REMARK    1  A    between atoms: C_2  and  C_3 
REMARK    2  A    between atoms: C_3  and  O_6 
REMARK    3  A    between atoms: C_3  and  C_4 
REMARK    4  A    between atoms: C_7  and  O_6 
REMARK    5  A    between atoms: C_9  and  C_10 
REMARK    6  A    between atoms: N_15  and  C_14 
REMARK    7  A    between atoms: N_20  and  C_19 
REMARK       I    between atoms: C_22  and  N_20 
ROOT
ATOM      1  C   LIG d   1       0.392  61.137 119.850  0.00  0.00     0.161 C 
ATOM      2  C   LIG d   1      -1.008  61.092 119.947  0.00  0.00     0.016 C 
ATOM      3  C   LIG d   1      -1.812  60.205 119.194  0.00  0.00     0.038 C 
ATOM      4  C   LIG d   1      -1.255  59.192 118.399  0.00  0.00     0.028 C 
ATOM      5  C   LIG d   1       0.140  59.527 117.882  0.00  0.00    -0.047 C 
ATOM      6  C   LIG d   1       1.025  59.965 119.071  0.00  0.00     0.091 C 
ENDROOT
BRANCH   1   7
ATOM      7  O   LIG d   1       0.970  61.233 121.167  0.00  0.00    -0.368 OA
BRANCH   7   8
ATOM      8  C   LIG d   1       0.046  61.501 122.250  0.00  0.00     0.119 C 
BRANCH   8   9
ATOM      9  C   LIG d   1       0.437  62.858 122.867  0.00  0.00     0.028 C 
ATOM     10  C   LIG d   1       1.886  62.874 123.381  0.00  0.00     0.006 C 
ENDBRANCH   8   9
BRANCH   8  11
ATOM     11  C   LIG d   1       0.204  60.481 123.382  0.00  0.00     0.028 C 
ATOM     12  C   LIG d   1       0.315  59.036 122.871  0.00  0.00     0.006 C 
ENDBRANCH   8  11
ENDBRANCH   7   8
ENDBRANCH   1   7
BRANCH   6  13
ATOM     13  N   LIG d   1       2.382  60.391 118.641  0.00  0.00    -0.311 N 
ATOM     14  C   LIG d   1       3.411  59.553 118.525  0.00  0.00     0.210 C 
ATOM     15  C   LIG d   1       4.727  60.202 118.087  0.00  0.00     0.109 C 
ATOM     16  O   LIG d   1       3.350  58.328 118.711  0.00  0.00    -0.276 OA
ATOM     17  H   LIG d   1       2.513  61.363 118.440  0.00  0.00     0.149 HD
ENDBRANCH   6  13
BRANCH   5  18
ATOM     18  N   LIG d   1       0.656  58.333 117.186  0.00  0.00     0.381 N 
ATOM     19  H   LIG d   1       0.624  57.543 117.799  0.00  0.00    -0.090 HD
ATOM     20  H   LIG d   1       1.614  58.495 116.929  0.00  0.00    -0.090 HD
ATOM     21  H   LIG d   1       0.112  58.152 116.371  0.00  0.00    -0.090 HD
ENDBRANCH   5  18
BRANCH   3  22
ATOM     22  C   LIG d   1      -3.191  60.352 119.202  0.00  0.00     0.382 C 
ATOM     23  O   LIG d   1      -3.920  59.409 119.591  0.00  0.00    -0.241 OA
ATOM     24  O   LIG d   1      -3.716  61.401 118.782  0.00  0.00    -0.241 OA
ENDBRANCH   3  22
TORSDOF 7
ENDMDL
MODEL 2
REMARK VINA RESULT:      -4.9     19.485     21.437
REMARK  7 active torsions:
REMARK  status: ('A' for Active; 'I' for Inactive)
REMARK    1  A    between atoms: C_2  and  C_3 
REMARK    2  A    between atoms: C_3  and  O_6 
REMARK    3  A    between atoms: C_3  and  C_4 
REMARK    4  A    between atoms: C_7  and  O_6 
REMARK    5  A    between atoms: C_9  and  C_10 
REMARK    6  A    between atoms: N_15  and  C_14 
REMARK    7  A    between atoms: N_20  and  C_19 
REMARK       I    between atoms: C_22  and  N_20 
ROOT
ATOM      1  C   LIG d   1     -10.029  78.289 119.834  0.00  0.00     0.161 C 
ATOM      2  C   LIG d   1     -10.594  77.260 120.606  0.00  0.00     0.016 C 
ATOM      3  C   LIG d   1     -11.396  77.495 121.746  0.00  0.00     0.038 C 
ATOM      4  C   LIG d   1     -11.815  78.784 122.106  0.00  0.00     0.028 C 
ATOM      5  C   LIG d   1     -10.856  79.880 121.653  0.00  0.00    -0.047 C 
ATOM      6  C   LIG d   1     -10.565  79.701 120.146  0.00  0.00     0.091 C 
ENDROOT
BRANCH   1   7
ATOM      7  O   LIG d   1     -10.187  77.991 118.432  0.00  0.00    -0.368 OA
BRANCH   7   8
ATOM      8  C   LIG d   1      -8.971  77.691 117.703  0.00  0.00     0.119 C 
BRANCH   8   9
ATOM      9  C   LIG d   1      -9.090  76.246 117.180  0.00  0.00     0.028 C 
ATOM     10  C   LIG d   1      -8.244  75.255 117.997  0.00  0.00     0.006 C 
ENDBRANCH   8   9
BRANCH   8  11
ATOM     11  C   LIG d   1      -7.752  77.687 118.630  0.00  0.00     0.028 C 
ATOM     12  C   LIG d   1      -6.731  78.780 118.276  0.00  0.00     0.006 C 
ENDBRANCH   8  11
ENDBRANCH   7   8
ENDBRANCH   1   7
BRANCH   6  13
ATOM     13  N   LIG d   1      -9.570  80.682 119.640  0.00  0.00    -0.311 N 
ATOM     14  C   LIG d   1      -9.639  81.241 118.433  0.00  0.00     0.210 C 
ATOM     15  C   LIG d   1      -8.500  82.211 118.103  0.00  0.00     0.109 C 
ATOM     16  O   LIG d   1     -10.553  81.051 117.617  0.00  0.00    -0.276 OA
ATOM     17  H   LIG d   1      -8.811  80.918 120.250  0.00  0.00     0.149 HD
ENDBRANCH   6  13
BRANCH   5  18
ATOM     18  N   LIG d   1     -11.481  81.178 121.971  0.00  0.00     0.381 N 
ATOM     19  H   LIG d   1     -10.992  81.613 122.728  0.00  0.00    -0.090 HD
ATOM     20  H   LIG d   1     -12.430  81.020 122.259  0.00  0.00    -0.090 HD
ATOM     21  H   LIG d   1     -11.463  81.771 121.171  0.00  0.00    -0.090 HD
ENDBRANCH   5  18
BRANCH   3  22
ATOM     22  C   LIG d   1     -11.755  76.434 122.563  0.00  0.00     0.382 C 
ATOM     23  O   LIG d   1     -10.869  75.698 123.062  0.00  0.00    -0.241 OA
ATOM     24  O   LIG d   1     -12.956  76.175 122.772  0.00  0.00    -0.241 OA
ENDBRANCH   3  22
TORSDOF 7
ENDMDL
MODEL 3
REMARK VINA RESULT:      -4.8     19.468     21.497
REMARK  7 active torsions:
REMARK  status: ('A' for Active; 'I' for Inactive)
REMARK    1  A    between atoms: C_2  and  C_3 
REMARK    2  A    between atoms: C_3  and  O_6 
REMARK    3  A    between atoms: C_3  and  C_4 
REMARK    4  A    between atoms: C_7  and  O_6 
REMARK    5  A    between atoms: C_9  and  C_10 
REMARK    6  A    between atoms: N_15  and  C_14 
REMARK    7  A    between atoms: N_20  and  C_19 
REMARK       I    between atoms: C_22  and  N_20 
ROOT
ATOM      1  C   LIG d   1      -9.999  79.553 119.043  0.00  0.00     0.161 C 
ATOM      2  C   LIG d   1      -9.261  80.743 118.931  0.00  0.00     0.016 C 
ATOM      3  C   LIG d   1      -8.533  81.310 120.002  0.00  0.00     0.038 C 
ATOM      4  C   LIG d   1      -8.370  80.642 121.225  0.00  0.00     0.028 C 
ATOM      5  C   LIG d   1      -9.512  79.684 121.548  0.00  0.00    -0.047 C 
ATOM      6  C   LIG d   1      -9.743  78.752 120.337  0.00  0.00     0.091 C 
ENDROOT
BRANCH   1   7
ATOM      7  O   LIG d   1      -9.769  78.724 117.886  0.00  0.00    -0.368 OA
BRANCH   7   8
ATOM      8  C   LIG d   1      -8.763  77.692 118.032  0.00  0.00     0.119 C 
BRANCH   8   9
ATOM      9  C   LIG d   1      -7.464  78.217 117.392  0.00  0.00     0.028 C 
ATOM     10  C   LIG d   1      -6.344  78.429 118.425  0.00  0.00     0.006 C 
ENDBRANCH   8   9
BRANCH   8  11
ATOM     11  C   LIG d   1      -9.131  76.438 117.233  0.00  0.00     0.028 C 
ATOM     12  C   LIG d   1      -8.141  75.282 117.448  0.00  0.00     0.006 C 
ENDBRANCH   8  11
ENDBRANCH   7   8
ENDBRANCH   1   7
BRANCH   6  13
ATOM     13  N   LIG d   1     -10.898  77.838 120.536  0.00  0.00    -0.311 N 
ATOM     14  C   LIG d   1     -10.774  76.578 120.948  0.00  0.00     0.210 C 
ATOM     15  C   LIG d   1     -12.091  75.804 121.069  0.00  0.00     0.109 C 
ATOM     16  O   LIG d   1      -9.701  76.037 121.255  0.00  0.00    -0.276 OA
ATOM     17  H   LIG d   1     -11.809  78.206 120.340  0.00  0.00     0.149 HD
ENDBRANCH   6  13
BRANCH   5  18
ATOM     18  N   LIG d   1      -9.147  78.955 122.777  0.00  0.00     0.381 N 
ATOM     19  H   LIG d   1      -9.422  79.485 123.580  0.00  0.00    -0.090 HD
ATOM     20  H   LIG d   1      -8.150  78.838 122.802  0.00  0.00    -0.090 HD
ATOM     21  H   LIG d   1      -9.594  78.064 122.790  0.00  0.00    -0.090 HD
ENDBRANCH   5  18
BRANCH   3  22
ATOM     22  C   LIG d   1      -7.991  82.580 119.869  0.00  0.00     0.382 C 
ATOM     23  O   LIG d   1      -8.578  83.442 119.171  0.00  0.00    -0.241 OA
ATOM     24  O   LIG d   1      -6.900  82.860 120.400  0.00  0.00    -0.241 OA
ENDBRANCH   3  22
TORSDOF 7
ENDMDL
MODEL 4
REMARK VINA RESULT:      -4.8     18.826     20.782
REMARK  7 active torsions:
REMARK  status: ('A' for Active; 'I' for Inactive)
REMARK    1  A    between atoms: C_2  and  C_3 
REMARK    2  A    between atoms: C_3  and  O_6 
REMARK    3  A    between atoms: C_3  and  C_4 
REMARK    4  A    between atoms: C_7  and  O_6 
REMARK    5  A    between atoms: C_9  and  C_10 
REMARK    6  A    between atoms: N_15  and  C_14 
REMARK    7  A    between atoms: N_20  and  C_19 
REMARK       I    between atoms: C_22  and  N_20 
ROOT
ATOM      1  C   LIG d   1      -7.654  78.752 119.890  0.00  0.00     0.161 C 
ATOM      2  C   LIG d   1      -6.350  78.986 119.423  0.00  0.00     0.016 C 
ATOM      3  C   LIG d   1      -5.728  78.198 118.427  0.00  0.00     0.038 C 
ATOM      4  C   LIG d   1      -6.427  77.209 117.720  0.00  0.00     0.028 C 
ATOM      5  C   LIG d   1      -7.584  76.604 118.507  0.00  0.00    -0.047 C 
ATOM      6  C   LIG d   1      -8.471  77.747 119.052  0.00  0.00     0.091 C 
ENDROOT
BRANCH   1   7
ATOM      7  O   LIG d   1      -8.363  80.002 120.006  0.00  0.00    -0.368 OA
BRANCH   7   8
ATOM      8  C   LIG d   1      -8.021  81.021 119.035  0.00  0.00     0.119 C 
BRANCH   8   9
ATOM      9  C   LIG d   1      -8.050  82.380 119.761  0.00  0.00     0.028 C 
ATOM     10  C   LIG d   1      -6.879  82.544 120.745  0.00  0.00     0.006 C 
ENDBRANCH   8   9
BRANCH   8  11
ATOM     11  C   LIG d   1      -9.085  81.125 117.938  0.00  0.00     0.028 C 
ATOM     12  C   LIG d   1      -9.640  82.549 117.780  0.00  0.00     0.006 C 
ENDBRANCH   8  11
ENDBRANCH   7   8
ENDBRANCH   1   7
BRANCH   6  13
ATOM     13  N   LIG d   1      -9.580  77.246 119.905  0.00  0.00    -0.311 N 
ATOM     14  C   LIG d   1     -10.813  77.025 119.451  0.00  0.00     0.210 C 
ATOM     15  C   LIG d   1     -11.810  76.529 120.502  0.00  0.00     0.109 C 
ATOM     16  O   LIG d   1     -11.166  77.163 118.270  0.00  0.00    -0.276 OA
ATOM     17  H   LIG d   1      -9.373  77.078 120.870  0.00  0.00     0.149 HD
ENDBRANCH   6  13
BRANCH   5  18
ATOM     18  N   LIG d   1      -8.308  75.690 117.604  0.00  0.00     0.381 N 
ATOM     19  H   LIG d   1      -7.916  74.772 117.666  0.00  0.00    -0.090 HD
ATOM     20  H   LIG d   1      -8.203  76.015 116.660  0.00  0.00    -0.090 HD
ATOM     21  H   LIG d   1      -9.274  75.663 117.849  0.00  0.00    -0.090 HD
ENDBRANCH   5  18
BRANCH   3  22
ATOM     22  C   LIG d   1      -4.378  78.370 118.159  0.00  0.00     0.382 C 
ATOM     23  O   LIG d   1      -3.854  77.785 117.181  0.00  0.00    -0.241 OA
ATOM     24  O   LIG d   1      -3.669  79.069 118.908  0.00  0.00    -0.241 OA
ENDBRANCH   3  22
TORSDOF 7
ENDMDL
MODEL 5
REMARK VINA RESULT:      -4.6     19.293     21.786
REMARK  7 active torsions:
REMARK  status: ('A' for Active; 'I' for Inactive)
REMARK    1  A    between atoms: C_2  and  C_3 
REMARK    2  A    between atoms: C_3  and  O_6 
REMARK    3  A    between atoms: C_3  and  C_4 
REMARK    4  A    between atoms: C_7  and  O_6 
REMARK    5  A    between atoms: C_9  and  C_10 
REMARK    6  A    between atoms: N_15  and  C_14 
REMARK    7  A    between atoms: N_20  and  C_19 
REMARK       I    between atoms: C_22  and  N_20 
ROOT
ATOM      1  C   LIG d   1     -16.370  73.085 121.011  0.00  0.00     0.161 C 
ATOM      2  C   LIG d   1     -17.691  72.610 120.952  0.00  0.00     0.016 C 
ATOM      3  C   LIG d   1     -18.811  73.448 120.749  0.00  0.00     0.038 C 
ATOM      4  C   LIG d   1     -18.672  74.809 120.439  0.00  0.00     0.028 C 
ATOM      5  C   LIG d   1     -17.390  75.427 120.986  0.00  0.00    -0.047 C 
ATOM      6  C   LIG d   1     -16.189  74.550 120.564  0.00  0.00     0.091 C 
ENDROOT
BRANCH   1   7
ATOM      7  O   LIG d   1     -15.505  72.219 120.250  0.00  0.00    -0.368 OA
BRANCH   7   8
ATOM      8  C   LIG d   1     -16.161  71.202 119.454  0.00  0.00     0.119 C 
BRANCH   8   9
ATOM      9  C   LIG d   1     -15.520  69.847 119.812  0.00  0.00     0.028 C 
ATOM     10  C   LIG d   1     -15.864  68.747 118.794  0.00  0.00     0.006 C 
ENDBRANCH   8   9
BRANCH   8  11
ATOM     11  C   LIG d   1     -15.884  71.399 117.960  0.00  0.00     0.028 C 
ATOM     12  C   LIG d   1     -15.567  72.859 117.601  0.00  0.00     0.006 C 
ENDBRANCH   8  11
ENDBRANCH   7   8
ENDBRANCH   1   7
BRANCH   6  13
ATOM     13  N   LIG d   1     -14.904  75.038 121.129  0.00  0.00    -0.311 N 
ATOM     14  C   LIG d   1     -13.891  75.470 120.380  0.00  0.00     0.210 C 
ATOM     15  C   LIG d   1     -12.650  75.910 121.163  0.00  0.00     0.109 C 
ATOM     16  O   LIG d   1     -13.914  75.562 119.144  0.00  0.00    -0.276 OA
ATOM     17  H   LIG d   1     -14.811  75.028 122.126  0.00  0.00     0.149 HD
ENDBRANCH   6  13
BRANCH   5  18
ATOM     18  N   LIG d   1     -17.307  76.808 120.474  0.00  0.00     0.381 N 
ATOM     19  H   LIG d   1     -16.354  77.038 120.274  0.00  0.00    -0.090 HD
ATOM     20  H   LIG d   1     -17.642  77.438 121.181  0.00  0.00    -0.090 HD
ATOM     21  H   LIG d   1     -17.858  76.899 119.649  0.00  0.00    -0.090 HD
ENDBRANCH   5  18
BRANCH   3  22
ATOM     22  C   LIG d   1     -20.090  72.933 120.896  0.00  0.00     0.382 C 
ATOM     23  O   LIG d   1     -20.975  73.203 120.049  0.00  0.00    -0.241 OA
ATOM     24  O   LIG d   1     -20.381  72.239 121.888  0.00  0.00    -0.241 OA
ENDBRANCH   3  22
TORSDOF 7
ENDMDL
MODEL 6
REMARK VINA RESULT:      -4.6     20.542     22.449
REMARK  7 active torsions:
REMARK  status: ('A' for Active; 'I' for Inactive)
REMARK    1  A    between atoms: C_2  and  C_3 
REMARK    2  A    between atoms: C_3  and  O_6 
REMARK    3  A    between atoms: C_3  and  C_4 
REMARK    4  A    between atoms: C_7  and  O_6 
REMARK    5  A    between atoms: C_9  and  C_10 
REMARK    6  A    between atoms: N_15  and  C_14 
REMARK    7  A    between atoms: N_20  and  C_19 
REMARK       I    between atoms: C_22  and  N_20 
ROOT
ATOM      1  C   LIG d   1      -9.028  80.364 120.612  0.00  0.00     0.161 C 
ATOM      2  C   LIG d   1      -8.937  79.167 119.881  0.00  0.00     0.016 C 
ATOM      3  C   LIG d   1      -9.234  79.073 118.502  0.00  0.00     0.038 C 
ATOM      4  C   LIG d   1      -9.497  80.209 117.721  0.00  0.00     0.028 C 
ATOM      5  C   LIG d   1     -10.093  81.365 118.516  0.00  0.00    -0.047 C 
ATOM      6  C   LIG d   1      -9.207  81.634 119.753  0.00  0.00     0.091 C 
ENDROOT
BRANCH   1   7
ATOM      7  O   LIG d   1      -7.881  80.498 121.473  0.00  0.00    -0.368 OA
BRANCH   7   8
ATOM      8  C   LIG d   1      -6.627  79.998 120.948  0.00  0.00     0.119 C 
BRANCH   8   9
ATOM      9  C   LIG d   1      -5.925  79.226 122.081  0.00  0.00     0.028 C 
ATOM     10  C   LIG d   1      -6.409  79.661 123.475  0.00  0.00     0.006 C 
ENDBRANCH   8   9
BRANCH   8  11
ATOM     11  C   LIG d   1      -5.677  81.145 120.589  0.00  0.00     0.028 C 
ATOM     12  C   LIG d   1      -4.280  80.653 120.176  0.00  0.00     0.006 C 
ENDBRANCH   8  11
ENDBRANCH   7   8
ENDBRANCH   1   7
BRANCH   6  13
ATOM     13  N   LIG d   1      -9.765  82.695 120.631  0.00  0.00    -0.311 N 
ATOM     14  C   LIG d   1      -9.036  83.691 121.131  0.00  0.00     0.210 C 
ATOM     15  C   LIG d   1      -9.803  84.667 122.029  0.00  0.00     0.109 C 
ATOM     16  O   LIG d   1      -7.833  83.878 120.891  0.00  0.00    -0.276 OA
ATOM     17  H   LIG d   1     -10.739  82.638 120.852  0.00  0.00     0.149 HD
ENDBRANCH   6  13
BRANCH   5  18
ATOM     18  N   LIG d   1     -10.189  82.526 117.611  0.00  0.00     0.381 N 
ATOM     19  H   LIG d   1     -10.554  83.314 118.107  0.00  0.00    -0.090 HD
ATOM     20  H   LIG d   1     -10.822  82.304 116.863  0.00  0.00    -0.090 HD
ATOM     21  H   LIG d   1      -9.290  82.745 117.240  0.00  0.00    -0.090 HD
ENDBRANCH   5  18
BRANCH   3  22
ATOM     22  C   LIG d   1      -9.307  77.827 117.898  0.00  0.00     0.382 C 
ATOM     23  O   LIG d   1      -8.332  77.391 117.239  0.00  0.00    -0.241 OA
ATOM     24  O   LIG d   1     -10.352  77.153 117.966  0.00  0.00    -0.241 OA
ENDBRANCH   3  22
TORSDOF 7
ENDMDL
MODEL 7
REMARK VINA RESULT:      -4.6     12.710     15.552
REMARK  7 active torsions:
REMARK  status: ('A' for Active; 'I' for Inactive)
REMARK    1  A    between atoms: C_2  and  C_3 
REMARK    2  A    between atoms: C_3  and  O_6 
REMARK    3  A    between atoms: C_3  and  C_4 
REMARK    4  A    between atoms: C_7  and  O_6 
REMARK    5  A    between atoms: C_9  and  C_10 
REMARK    6  A    between atoms: N_15  and  C_14 
REMARK    7  A    between atoms: N_20  and  C_19 
REMARK       I    between atoms: C_22  and  N_20 
ROOT
ATOM      1  C   LIG d   1     -12.667  67.202 121.832  0.00  0.00     0.161 C 
ATOM      2  C   LIG d   1     -11.521  67.053 122.630  0.00  0.00     0.016 C 
ATOM      3  C   LIG d   1     -10.711  65.894 122.620  0.00  0.00     0.038 C 
ATOM      4  C   LIG d   1     -10.909  64.859 121.693  0.00  0.00     0.028 C 
ATOM      5  C   LIG d   1     -12.352  64.742 121.215  0.00  0.00    -0.047 C 
ATOM      6  C   LIG d   1     -12.836  66.130 120.735  0.00  0.00     0.091 C 
ENDROOT
BRANCH   1   7
ATOM      7  O   LIG d   1     -12.690  68.521 121.252  0.00  0.00    -0.368 OA
BRANCH   7   8
ATOM      8  C   LIG d   1     -13.660  69.444 121.806  0.00  0.00     0.119 C 
BRANCH   8   9
ATOM      9  C   LIG d   1     -14.554  68.649 122.777  0.00  0.00     0.028 C 
ATOM     10  C   LIG d   1     -14.804  69.402 124.094  0.00  0.00     0.006 C 
ENDBRANCH   8   9
BRANCH   8  11
ATOM     11  C   LIG d   1     -14.606  69.973 120.724  0.00  0.00     0.028 C 
ATOM     12  C   LIG d   1     -14.918  71.470 120.885  0.00  0.00     0.006 C 
ENDBRANCH   8  11
ENDBRANCH   7   8
ENDBRANCH   1   7
BRANCH   6  13
ATOM     13  N   LIG d   1     -14.265  66.123 120.329  0.00  0.00    -0.311 N 
ATOM     14  C   LIG d   1     -14.698  66.595 119.161  0.00  0.00     0.210 C 
ATOM     15  C   LIG d   1     -16.213  66.510 118.950  0.00  0.00     0.109 C 
ATOM     16  O   LIG d   1     -13.967  67.046 118.266  0.00  0.00    -0.276 OA
ATOM     17  H   LIG d   1     -14.923  65.746 120.983  0.00  0.00     0.149 HD
ENDBRANCH   6  13
BRANCH   5  18
ATOM     18  N   LIG d   1     -12.389  63.719 120.154  0.00  0.00     0.381 N 
ATOM     19  H   LIG d   1     -12.011  64.095 119.307  0.00  0.00    -0.090 HD
ATOM     20  H   LIG d   1     -13.345  63.459 119.985  0.00  0.00    -0.090 HD
ATOM     21  H   LIG d   1     -11.864  62.919 120.433  0.00  0.00    -0.090 HD
ENDBRANCH   5  18
BRANCH   3  22
ATOM     22  C   LIG d   1      -9.713  65.744 123.571  0.00  0.00     0.382 C 
ATOM     23  O   LIG d   1      -8.906  64.787 123.488  0.00  0.00    -0.241 OA
ATOM     24  O   LIG d   1      -9.637  66.528 124.536  0.00  0.00    -0.241 OA
ENDBRANCH   3  22
TORSDOF 7
ENDMDL
MODEL 8
REMARK VINA RESULT:      -4.6     21.251     23.197
REMARK  7 active torsions:
REMARK  status: ('A' for Active; 'I' for Inactive)
REMARK    1  A    between atoms: C_2  and  C_3 
REMARK    2  A    between atoms: C_3  and  O_6 
REMARK    3  A    between atoms: C_3  and  C_4 
REMARK    4  A    between atoms: C_7  and  O_6 
REMARK    5  A    between atoms: C_9  and  C_10 
REMARK    6  A    between atoms: N_15  and  C_14 
REMARK    7  A    between atoms: N_20  and  C_19 
REMARK       I    between atoms: C_22  and  N_20 
ROOT
ATOM      1  C   LIG d   1      -9.844  80.826 121.245  0.00  0.00     0.161 C 
ATOM      2  C   LIG d   1     -10.393  81.666 122.228  0.00  0.00     0.016 C 
ATOM      3  C   LIG d   1     -10.267  83.074 122.206  0.00  0.00     0.038 C 
ATOM      4  C   LIG d   1      -9.709  83.752 121.112  0.00  0.00     0.028 C 
ATOM      5  C   LIG d   1      -8.693  82.919 120.338  0.00  0.00    -0.047 C 
ATOM      6  C   LIG d   1      -9.328  81.554 119.987  0.00  0.00     0.091 C 
ENDROOT
BRANCH   1   7
ATOM      7  O   LIG d   1     -10.801  79.811 120.880  0.00  0.00    -0.368 OA
BRANCH   7   8
ATOM      8  C   LIG d   1     -10.565  78.488 121.422  0.00  0.00     0.119 C 
BRANCH   8   9
ATOM      9  C   LIG d   1      -9.101  78.439 121.902  0.00  0.00     0.028 C 
ATOM     10  C   LIG d   1      -8.259  77.421 121.115  0.00  0.00     0.006 C 
ENDBRANCH   8   9
BRANCH   8  11
ATOM     11  C   LIG d   1     -10.672  77.414 120.336  0.00  0.00     0.028 C 
ATOM     12  C   LIG d   1     -11.740  76.354 120.649  0.00  0.00     0.006 C 
ENDBRANCH   8  11
ENDBRANCH   7   8
ENDBRANCH   1   7
BRANCH   6  13
ATOM     13  N   LIG d   1      -8.373  80.644 119.301  0.00  0.00    -0.311 N 
ATOM     14  C   LIG d   1      -8.711  79.861 118.278  0.00  0.00     0.210 C 
ATOM     15  C   LIG d   1      -7.579  78.987 117.731  0.00  0.00     0.109 C 
ATOM     16  O   LIG d   1      -9.834  79.832 117.752  0.00  0.00    -0.276 OA
ATOM     17  H   LIG d   1      -7.432  80.628 119.644  0.00  0.00     0.149 HD
ENDBRANCH   6  13
BRANCH   5  18
ATOM     18  N   LIG d   1      -8.295  83.694 119.148  0.00  0.00     0.381 N 
ATOM     19  H   LIG d   1      -8.810  84.551 119.114  0.00  0.00    -0.090 HD
ATOM     20  H   LIG d   1      -8.515  83.162 118.324  0.00  0.00    -0.090 HD
ATOM     21  H   LIG d   1      -7.318  83.886 119.177  0.00  0.00    -0.090 HD
ENDBRANCH   5  18
BRANCH   3  22
ATOM     22  C   LIG d   1     -10.667  83.817 123.307  0.00  0.00     0.382 C 
ATOM     23  O   LIG d   1     -10.180  84.956 123.505  0.00  0.00    -0.241 OA
ATOM     24  O   LIG d   1     -11.476  83.345 124.127  0.00  0.00    -0.241 OA
ENDBRANCH   3  22
TORSDOF 7
ENDMDL
MODEL 9
REMARK VINA RESULT:      -4.5     17.777     20.562
REMARK  7 active torsions:
REMARK  status: ('A' for Active; 'I' for Inactive)
REMARK    1  A    between atoms: C_2  and  C_3 
REMARK    2  A    between atoms: C_3  and  O_6 
REMARK    3  A    between atoms: C_3  and  C_4 
REMARK    4  A    between atoms: C_7  and  O_6 
REMARK    5  A    between atoms: C_9  and  C_10 
REMARK    6  A    between atoms: N_15  and  C_14 
REMARK    7  A    between atoms: N_20  and  C_19 
REMARK       I    between atoms: C_22  and  N_20 
ROOT
ATOM      1  C   LIG d   1     -16.042  71.607 119.354  0.00  0.00     0.161 C 
ATOM      2  C   LIG d   1     -15.069  72.615 119.457  0.00  0.00     0.016 C 
ATOM      3  C   LIG d   1     -15.189  73.728 120.320  0.00  0.00     0.038 C 
ATOM      4  C   LIG d   1     -16.229  73.831 121.256  0.00  0.00     0.028 C 
ATOM      5  C   LIG d   1     -17.497  73.095 120.837  0.00  0.00    -0.047 C 
ATOM      6  C   LIG d   1     -17.130  71.645 120.448  0.00  0.00     0.091 C 
ENDROOT
BRANCH   1   7
ATOM      7  O   LIG d   1     -15.405  70.314 119.325  0.00  0.00    -0.368 OA
BRANCH   7   8
ATOM      8  C   LIG d   1     -15.333  69.611 120.590  0.00  0.00     0.119 C 
BRANCH   8   9
ATOM      9  C   LIG d   1     -13.869  69.667 121.067  0.00  0.00     0.028 C 
ATOM     10  C   LIG d   1     -13.093  68.382 120.732  0.00  0.00     0.006 C 
ENDBRANCH   8   9
BRANCH   8  11
ATOM     11  C   LIG d   1     -15.647  68.122 120.418  0.00  0.00     0.028 C 
ATOM     12  C   LIG d   1     -16.478  67.829 119.158  0.00  0.00     0.006 C 
ENDBRANCH   8  11
ENDBRANCH   7   8
ENDBRANCH   1   7
BRANCH   6  13
ATOM     13  N   LIG d   1     -18.300  70.879 119.945  0.00  0.00    -0.311 N 
ATOM     14  C   LIG d   1     -19.046  70.090 120.716  0.00  0.00     0.210 C 
ATOM     15  C   LIG d   1     -20.193  69.377 119.993  0.00  0.00     0.109 C 
ATOM     16  O   LIG d   1     -18.887  69.939 121.937  0.00  0.00    -0.276 OA
ATOM     17  H   LIG d   1     -18.520  70.968 118.972  0.00  0.00     0.149 HD
ENDBRANCH   6  13
BRANCH   5  18
ATOM     18  N   LIG d   1     -18.448  73.169 121.962  0.00  0.00     0.381 N 
ATOM     19  H   LIG d   1     -19.386  73.163 121.614  0.00  0.00    -0.090 HD
ATOM     20  H   LIG d   1     -18.300  74.031 122.456  0.00  0.00    -0.090 HD
ATOM     21  H   LIG d   1     -18.309  72.397 122.577  0.00  0.00    -0.090 HD
ENDBRANCH   5  18
BRANCH   3  22
ATOM     22  C   LIG d   1     -14.284  74.774 120.223  0.00  0.00     0.382 C 
ATOM     23  O   LIG d   1     -13.578  75.085 121.212  0.00  0.00    -0.241 OA
ATOM     24  O   LIG d   1     -14.196  75.438 119.173  0.00  0.00    -0.241 OA
ENDBRANCH   3  22
TORSDOF 7
ENDMDL
