MODEL 1
REMARK VINA RESULT:      -5.4      0.000      0.000
REMARK  7 active torsions:
REMARK  status: ('A' for Active; 'I' for Inactive)
REMARK    1  A    between atoms: C_2  and  C_3 
REMARK    2  A    between atoms: C_3  and  O_6 
REMARK    3  A    between atoms: C_3  and  C_4 
REMARK    4  A    between atoms: C_7  and  O_6 
REMARK    5  A    between atoms: C_9  and  C_10 
REMARK    6  A    between atoms: N_15  and  C_14 
REMARK    7  A    between atoms: N_20  and  C_19 
REMARK       I    between atoms: C_22  and  N_20 
ROOT
ATOM      1  C   LIG d   1      -0.602  60.600 119.051  0.00  0.00     0.161 C 
ATOM      2  C   LIG d   1      -1.952  60.226 119.161  0.00  0.00     0.016 C 
ATOM      3  C   LIG d   1      -2.423  58.922 118.885  0.00  0.00     0.038 C 
ATOM      4  C   LIG d   1      -1.547  57.857 118.625  0.00  0.00     0.028 C 
ATOM      5  C   LIG d   1      -0.223  58.298 118.009  0.00  0.00    -0.047 C 
ATOM      6  C   LIG d   1       0.382  59.425 118.877  0.00  0.00     0.091 C 
ENDROOT
BRANCH   1   7
ATOM      7  O   LIG d   1      -0.225  61.406 120.186  0.00  0.00    -0.368 OA
BRANCH   7   8
ATOM      8  C   LIG d   1       0.136  60.684 121.389  0.00  0.00     0.119 C 
BRANCH   8   9
ATOM      9  C   LIG d   1      -0.885  61.062 122.479  0.00  0.00     0.028 C 
ATOM     10  C   LIG d   1      -1.798  59.885 122.863  0.00  0.00     0.006 C 
ENDBRANCH   8   9
BRANCH   8  11
ATOM     11  C   LIG d   1       1.494  61.142 121.928  0.00  0.00     0.028 C 
ATOM     12  C   LIG d   1       2.328  59.986 122.503  0.00  0.00     0.006 C 
ENDBRANCH   8  11
ENDBRANCH   7   8
ENDBRANCH   1   7
BRANCH   6  13
ATOM     13  N   LIG d   1       1.638  59.972 118.299  0.00  0.00    -0.311 N 
ATOM     14  C   LIG d   1       2.850  59.526 118.623  0.00  0.00     0.210 C 
ATOM     15  C   LIG d   1       4.011  60.242 117.927  0.00  0.00     0.109 C 
ATOM     16  O   LIG d   1       3.072  58.583 119.398  0.00  0.00    -0.276 OA
ATOM     17  H   LIG d   1       1.548  60.719 117.638  0.00  0.00     0.149 HD
ENDBRANCH   6  13
BRANCH   5  18
ATOM     18  N   LIG d   1       0.644  57.109 117.919  0.00  0.00     0.381 N 
ATOM     19  H   LIG d   1       1.061  56.925 118.809  0.00  0.00    -0.090 HD
ATOM     20  H   LIG d   1       1.379  57.292 117.258  0.00  0.00    -0.090 HD
ATOM     21  H   LIG d   1       0.112  56.320 117.624  0.00  0.00    -0.090 HD
ENDBRANCH   5  18
BRANCH   3  22
ATOM     22  C   LIG d   1      -3.787  58.682 118.829  0.00  0.00     0.382 C 
ATOM     23  O   LIG d   1      -4.248  57.587 119.232  0.00  0.00    -0.241 OA
ATOM     24  O   LIG d   1      -4.558  59.528 118.339  0.00  0.00    -0.241 OA
ENDBRANCH   3  22
TORSDOF 7
ENDMDL
MODEL 2
REMARK VINA RESULT:      -5.2      2.399      5.684
REMARK  7 active torsions:
REMARK  status: ('A' for Active; 'I' for Inactive)
REMARK    1  A    between atoms: C_2  and  C_3 
REMARK    2  A    between atoms: C_3  and  O_6 
REMARK    3  A    between atoms: C_3  and  C_4 
REMARK    4  A    between atoms: C_7  and  O_6 
REMARK    5  A    between atoms: C_9  and  C_10 
REMARK    6  A    between atoms: N_15  and  C_14 
REMARK    7  A    between atoms: N_20  and  C_19 
REMARK       I    between atoms: C_22  and  N_20 
ROOT
ATOM      1  C   LIG d   1      -0.668  61.028 119.450  0.00  0.00     0.161 C 
ATOM      2  C   LIG d   1       0.381  60.978 120.383  0.00  0.00     0.016 C 
ATOM      3  C   LIG d   1       0.227  60.492 121.702  0.00  0.00     0.038 C 
ATOM      4  C   LIG d   1      -0.959  59.878 122.132  0.00  0.00     0.028 C 
ATOM      5  C   LIG d   1      -2.197  60.364 121.386  0.00  0.00    -0.047 C 
ATOM      6  C   LIG d   1      -1.940  60.260 119.865  0.00  0.00     0.091 C 
ENDROOT
BRANCH   1   7
ATOM      7  O   LIG d   1      -0.201  60.567 118.166  0.00  0.00    -0.368 OA
BRANCH   7   8
ATOM      8  C   LIG d   1       0.888  59.612 118.189  0.00  0.00     0.119 C 
BRANCH   8   9
ATOM      9  C   LIG d   1       1.954  60.101 117.189  0.00  0.00     0.028 C 
ATOM     10  C   LIG d   1       3.385  59.917 117.721  0.00  0.00     0.006 C 
ENDBRANCH   8   9
BRANCH   8  11
ATOM     11  C   LIG d   1       0.440  58.244 117.666  0.00  0.00     0.028 C 
ATOM     12  C   LIG d   1       0.485  57.150 118.744  0.00  0.00     0.006 C 
ENDBRANCH   8  11
ENDBRANCH   7   8
ENDBRANCH   1   7
BRANCH   6  13
ATOM     13  N   LIG d   1      -3.070  60.793 119.061  0.00  0.00    -0.311 N 
ATOM     14  C   LIG d   1      -4.058  60.034 118.590  0.00  0.00     0.210 C 
ATOM     15  C   LIG d   1      -5.113  60.781 117.769  0.00  0.00     0.109 C 
ATOM     16  O   LIG d   1      -4.177  58.818 118.802  0.00  0.00    -0.276 OA
ATOM     17  H   LIG d   1      -3.069  61.776 118.868  0.00  0.00     0.149 HD
ENDBRANCH   6  13
BRANCH   5  18
ATOM     18  N   LIG d   1      -3.338  59.545 121.837  0.00  0.00     0.381 N 
ATOM     19  H   LIG d   1      -3.599  58.901 121.116  0.00  0.00    -0.090 HD
ATOM     20  H   LIG d   1      -4.121  60.149 122.017  0.00  0.00    -0.090 HD
ATOM     21  H   LIG d   1      -3.095  59.047 122.665  0.00  0.00    -0.090 HD
ENDBRANCH   5  18
BRANCH   3  22
ATOM     22  C   LIG d   1       1.254  60.655 122.619  0.00  0.00     0.382 C 
ATOM     23  O   LIG d   1       1.255  61.644 123.390  0.00  0.00    -0.241 OA
ATOM     24  O   LIG d   1       2.203  59.849 122.653  0.00  0.00    -0.241 OA
ENDBRANCH   3  22
TORSDOF 7
ENDMDL
MODEL 3
REMARK VINA RESULT:      -4.7      2.377      3.902
REMARK  7 active torsions:
REMARK  status: ('A' for Active; 'I' for Inactive)
REMARK    1  A    between atoms: C_2  and  C_3 
REMARK    2  A    between atoms: C_3  and  O_6 
REMARK    3  A    between atoms: C_3  and  C_4 
REMARK    4  A    between atoms: C_7  and  O_6 
REMARK    5  A    between atoms: C_9  and  C_10 
REMARK    6  A    between atoms: N_15  and  C_14 
REMARK    7  A    between atoms: N_20  and  C_19 
REMARK       I    between atoms: C_22  and  N_20 
ROOT
ATOM      1  C   LIG d   1      -0.025  57.725 119.929  0.00  0.00     0.161 C 
ATOM      2  C   LIG d   1      -1.405  57.591 119.705  0.00  0.00     0.016 C 
ATOM      3  C   LIG d   1      -2.140  58.442 118.848  0.00  0.00     0.038 C 
ATOM      4  C   LIG d   1      -1.512  59.397 118.034  0.00  0.00     0.028 C 
ATOM      5  C   LIG d   1      -0.191  59.902 118.603  0.00  0.00    -0.047 C 
ATOM      6  C   LIG d   1       0.697  58.689 118.965  0.00  0.00     0.091 C 
ENDROOT
BRANCH   1   7
ATOM      7  O   LIG d   1       0.602  56.427 119.902  0.00  0.00    -0.368 OA
BRANCH   7   8
ATOM      8  C   LIG d   1      -0.090  55.401 119.149  0.00  0.00     0.119 C 
BRANCH   8   9
ATOM      9  C   LIG d   1      -0.115  54.128 120.017  0.00  0.00     0.028 C 
ATOM     10  C   LIG d   1       0.417  54.376 121.438  0.00  0.00     0.006 C 
ENDBRANCH   8   9
BRANCH   8  11
ATOM     11  C   LIG d   1       0.687  55.015 117.887  0.00  0.00     0.028 C 
ATOM     12  C   LIG d   1       2.199  55.261 118.020  0.00  0.00     0.006 C 
ENDBRANCH   8  11
ENDBRANCH   7   8
ENDBRANCH   1   7
BRANCH   6  13
ATOM     13  N   LIG d   1       1.975  59.094 119.606  0.00  0.00    -0.311 N 
ATOM     14  C   LIG d   1       3.085  59.364 118.922  0.00  0.00     0.210 C 
ATOM     15  C   LIG d   1       4.297  59.742 119.778  0.00  0.00     0.109 C 
ATOM     16  O   LIG d   1       3.172  59.358 117.684  0.00  0.00    -0.276 OA
ATOM     17  H   LIG d   1       1.985  59.154 120.605  0.00  0.00     0.149 HD
ENDBRANCH   6  13
BRANCH   5  18
ATOM     18  N   LIG d   1       0.421  60.785 117.592  0.00  0.00     0.381 N 
ATOM     19  H   LIG d   1       1.253  61.199 117.962  0.00  0.00    -0.090 HD
ATOM     20  H   LIG d   1      -0.225  61.521 117.369  0.00  0.00    -0.090 HD
ATOM     21  H   LIG d   1       0.638  60.264 116.771  0.00  0.00    -0.090 HD
ENDBRANCH   5  18
BRANCH   3  22
ATOM     22  C   LIG d   1      -3.525  58.369 118.830  0.00  0.00     0.382 C 
ATOM     23  O   LIG d   1      -4.198  59.343 118.415  0.00  0.00    -0.241 OA
ATOM     24  O   LIG d   1      -4.110  57.359 119.263  0.00  0.00    -0.241 OA
ENDBRANCH   3  22
TORSDOF 7
ENDMDL
MODEL 4
REMARK VINA RESULT:      -4.7     33.568     34.994
REMARK  7 active torsions:
REMARK  status: ('A' for Active; 'I' for Inactive)
REMARK    1  A    between atoms: C_2  and  C_3 
REMARK    2  A    between atoms: C_3  and  O_6 
REMARK    3  A    between atoms: C_3  and  C_4 
REMARK    4  A    between atoms: C_7  and  O_6 
REMARK    5  A    between atoms: C_9  and  C_10 
REMARK    6  A    between atoms: N_15  and  C_14 
REMARK    7  A    between atoms: N_20  and  C_19 
REMARK       I    between atoms: C_22  and  N_20 
ROOT
ATOM      1  C   LIG d   1      -5.388  93.515 119.194  0.00  0.00     0.161 C 
ATOM      2  C   LIG d   1      -6.659  93.294 118.638  0.00  0.00     0.016 C 
ATOM      3  C   LIG d   1      -7.742  94.190 118.791  0.00  0.00     0.038 C 
ATOM      4  C   LIG d   1      -7.583  95.450 119.388  0.00  0.00     0.028 C 
ATOM      5  C   LIG d   1      -6.448  95.499 120.406  0.00  0.00    -0.047 C 
ATOM      6  C   LIG d   1      -5.165  94.935 119.754  0.00  0.00     0.091 C 
ENDROOT
BRANCH   1   7
ATOM      7  O   LIG d   1      -4.369  93.192 118.227  0.00  0.00    -0.368 OA
BRANCH   7   8
ATOM      8  C   LIG d   1      -3.525  92.058 118.545  0.00  0.00     0.119 C 
BRANCH   8   9
ATOM      9  C   LIG d   1      -2.061  92.508 118.370  0.00  0.00     0.028 C 
ATOM     10  C   LIG d   1      -1.301  92.564 119.706  0.00  0.00     0.006 C 
ENDBRANCH   8   9
BRANCH   8  11
ATOM     11  C   LIG d   1      -3.722  90.918 117.542  0.00  0.00     0.028 C 
ATOM     12  C   LIG d   1      -2.701  89.783 117.723  0.00  0.00     0.006 C 
ENDBRANCH   8  11
ENDBRANCH   7   8
ENDBRANCH   1   7
BRANCH   6  13
ATOM     13  N   LIG d   1      -4.027  94.869 120.707  0.00  0.00    -0.311 N 
ATOM     14  C   LIG d   1      -3.107  95.825 120.818  0.00  0.00     0.210 C 
ATOM     15  C   LIG d   1      -2.007  95.549 121.849  0.00  0.00     0.109 C 
ATOM     16  O   LIG d   1      -3.114  96.891 120.184  0.00  0.00    -0.276 OA
ATOM     17  H   LIG d   1      -3.962  94.053 121.283  0.00  0.00     0.149 HD
ENDBRANCH   6  13
BRANCH   5  18
ATOM     18  N   LIG d   1      -6.306  96.899 120.847  0.00  0.00     0.381 N 
ATOM     19  H   LIG d   1      -5.467  97.001 121.383  0.00  0.00    -0.090 HD
ATOM     20  H   LIG d   1      -7.086  97.136 121.434  0.00  0.00    -0.090 HD
ATOM     21  H   LIG d   1      -6.279  97.505 120.057  0.00  0.00    -0.090 HD
ENDBRANCH   5  18
BRANCH   3  22
ATOM     22  C   LIG d   1      -9.011  93.812 118.379  0.00  0.00     0.382 C 
ATOM     23  O   LIG d   1      -9.824  93.339 119.209  0.00  0.00    -0.241 OA
ATOM     24  O   LIG d   1      -9.337  93.897 117.180  0.00  0.00    -0.241 OA
ENDBRANCH   3  22
TORSDOF 7
ENDMDL
MODEL 5
REMARK VINA RESULT:      -4.7     20.438     22.203
REMARK  7 active torsions:
REMARK  status: ('A' for Active; 'I' for Inactive)
REMARK    1  A    between atoms: C_2  and  C_3 
REMARK    2  A    between atoms: C_3  and  O_6 
REMARK    3  A    between atoms: C_3  and  C_4 
REMARK    4  A    between atoms: C_7  and  O_6 
REMARK    5  A    between atoms: C_9  and  C_10 
REMARK    6  A    between atoms: N_15  and  C_14 
REMARK    7  A    between atoms: N_20  and  C_19 
REMARK       I    between atoms: C_22  and  N_20 
ROOT
ATOM      1  C   LIG d   1     -10.339  79.278 119.334  0.00  0.00     0.161 C 
ATOM      2  C   LIG d   1      -9.369  79.957 118.578  0.00  0.00     0.016 C 
ATOM      3  C   LIG d   1      -8.449  80.874 119.135  0.00  0.00     0.038 C 
ATOM      4  C   LIG d   1      -8.337  81.062 120.521  0.00  0.00     0.028 C 
ATOM      5  C   LIG d   1      -9.631  80.779 121.277  0.00  0.00    -0.047 C 
ATOM      6  C   LIG d   1     -10.159  79.387 120.863  0.00  0.00     0.091 C 
ENDROOT
BRANCH   1   7
ATOM      7  O   LIG d   1     -10.392  77.895 118.933  0.00  0.00    -0.368 OA
BRANCH   7   8
ATOM      8  C   LIG d   1      -9.120  77.204 118.857  0.00  0.00     0.119 C 
BRANCH   8   9
ATOM      9  C   LIG d   1      -9.065  76.486 117.494  0.00  0.00     0.028 C 
ATOM     10  C   LIG d   1      -8.369  75.117 117.581  0.00  0.00     0.006 C 
ENDBRANCH   8   9
BRANCH   8  11
ATOM     11  C   LIG d   1      -9.026  76.092 119.906  0.00  0.00     0.028 C 
ATOM     12  C   LIG d   1      -8.095  76.452 121.074  0.00  0.00     0.006 C 
ENDBRANCH   8  11
ENDBRANCH   7   8
ENDBRANCH   1   7
BRANCH   6  13
ATOM     13  N   LIG d   1     -11.467  79.066 121.493  0.00  0.00    -0.311 N 
ATOM     14  C   LIG d   1     -11.621  78.125 122.423  0.00  0.00     0.210 C 
ATOM     15  C   LIG d   1     -13.057  77.943 122.926  0.00  0.00     0.109 C 
ATOM     16  O   LIG d   1     -10.700  77.447 122.902  0.00  0.00    -0.276 OA
ATOM     17  H   LIG d   1     -12.262  79.591 121.185  0.00  0.00     0.149 HD
ENDBRANCH   6  13
BRANCH   5  18
ATOM     18  N   LIG d   1      -9.335  80.880 122.719  0.00  0.00     0.381 N 
ATOM     19  H   LIG d   1      -8.532  80.326 122.940  0.00  0.00    -0.090 HD
ATOM     20  H   LIG d   1     -10.118  80.521 123.237  0.00  0.00    -0.090 HD
ATOM     21  H   LIG d   1      -9.171  81.830 122.968  0.00  0.00    -0.090 HD
ENDBRANCH   5  18
BRANCH   3  22
ATOM     22  C   LIG d   1      -7.655  81.645 118.300  0.00  0.00     0.382 C 
ATOM     23  O   LIG d   1      -7.305  81.198 117.181  0.00  0.00    -0.241 OA
ATOM     24  O   LIG d   1      -7.247  82.762 118.669  0.00  0.00    -0.241 OA
ENDBRANCH   3  22
TORSDOF 7
ENDMDL
MODEL 6
REMARK VINA RESULT:      -4.6     12.784     15.002
REMARK  7 active torsions:
REMARK  status: ('A' for Active; 'I' for Inactive)
REMARK    1  A    between atoms: C_2  and  C_3 
REMARK    2  A    between atoms: C_3  and  O_6 
REMARK    3  A    between atoms: C_3  and  C_4 
REMARK    4  A    between atoms: C_7  and  O_6 
REMARK    5  A    between atoms: C_9  and  C_10 
REMARK    6  A    between atoms: N_15  and  C_14 
REMARK    7  A    between atoms: N_20  and  C_19 
REMARK       I    between atoms: C_22  and  N_20 
ROOT
ATOM      1  C   LIG d   1     -12.483  66.610 121.984  0.00  0.00     0.161 C 
ATOM      2  C   LIG d   1     -11.306  66.272 122.672  0.00  0.00     0.016 C 
ATOM      3  C   LIG d   1     -10.660  65.021 122.542  0.00  0.00     0.038 C 
ATOM      4  C   LIG d   1     -11.067  64.072 121.592  0.00  0.00     0.028 C 
ATOM      5  C   LIG d   1     -12.547  64.168 121.236  0.00  0.00    -0.047 C 
ATOM      6  C   LIG d   1     -12.879  65.630 120.860  0.00  0.00     0.091 C 
ENDROOT
BRANCH   1   7
ATOM      7  O   LIG d   1     -12.377  67.951 121.465  0.00  0.00    -0.368 OA
BRANCH   7   8
ATOM      8  C   LIG d   1     -13.171  68.959 122.137  0.00  0.00     0.119 C 
BRANCH   8   9
ATOM      9  C   LIG d   1     -14.154  69.540 121.103  0.00  0.00     0.028 C 
ATOM     10  C   LIG d   1     -15.622  69.388 121.538  0.00  0.00     0.006 C 
ENDBRANCH   8   9
BRANCH   8  11
ATOM     11  C   LIG d   1     -12.307  70.142 122.585  0.00  0.00     0.028 C 
ATOM     12  C   LIG d   1     -12.061  70.160 124.102  0.00  0.00     0.006 C 
ENDBRANCH   8  11
ENDBRANCH   7   8
ENDBRANCH   1   7
BRANCH   6  13
ATOM     13  N   LIG d   1     -14.325  65.829 120.580  0.00  0.00    -0.311 N 
ATOM     14  C   LIG d   1     -14.792  66.261 119.409  0.00  0.00     0.210 C 
ATOM     15  C   LIG d   1     -16.315  66.415 119.338  0.00  0.00     0.109 C 
ATOM     16  O   LIG d   1     -14.093  66.500 118.414  0.00  0.00    -0.276 OA
ATOM     17  H   LIG d   1     -14.966  65.628 121.323  0.00  0.00     0.149 HD
ENDBRANCH   6  13
BRANCH   5  18
ATOM     18  N   LIG d   1     -12.804  63.216 120.139  0.00  0.00     0.381 N 
ATOM     19  H   LIG d   1     -13.762  63.277 119.855  0.00  0.00    -0.090 HD
ATOM     20  H   LIG d   1     -12.632  62.283 120.470  0.00  0.00    -0.090 HD
ATOM     21  H   LIG d   1     -12.208  63.417 119.366  0.00  0.00    -0.090 HD
ENDBRANCH   5  18
BRANCH   3  22
ATOM     22  C   LIG d   1      -9.618  64.693 123.395  0.00  0.00     0.382 C 
ATOM     23  O   LIG d   1      -9.263  65.498 124.289  0.00  0.00    -0.241 OA
ATOM     24  O   LIG d   1      -8.999  63.621 123.254  0.00  0.00    -0.241 OA
ENDBRANCH   3  22
TORSDOF 7
ENDMDL
MODEL 7
REMARK VINA RESULT:      -4.6     19.973     21.352
REMARK  7 active torsions:
REMARK  status: ('A' for Active; 'I' for Inactive)
REMARK    1  A    between atoms: C_2  and  C_3 
REMARK    2  A    between atoms: C_3  and  O_6 
REMARK    3  A    between atoms: C_3  and  C_4 
REMARK    4  A    between atoms: C_7  and  O_6 
REMARK    5  A    between atoms: C_9  and  C_10 
REMARK    6  A    between atoms: N_15  and  C_14 
REMARK    7  A    between atoms: N_20  and  C_19 
REMARK       I    between atoms: C_22  and  N_20 
ROOT
ATOM      1  C   LIG d   1      -7.516  79.253 117.465  0.00  0.00     0.161 C 
ATOM      2  C   LIG d   1      -7.775  80.613 117.704  0.00  0.00     0.016 C 
ATOM      3  C   LIG d   1      -8.866  81.073 118.477  0.00  0.00     0.038 C 
ATOM      4  C   LIG d   1      -9.690  80.192 119.194  0.00  0.00     0.028 C 
ATOM      5  C   LIG d   1      -9.772  78.801 118.576  0.00  0.00    -0.047 C 
ATOM      6  C   LIG d   1      -8.339  78.276 118.330  0.00  0.00     0.091 C 
ENDROOT
BRANCH   1   7
ATOM      7  O   LIG d   1      -6.107  78.990 117.616  0.00  0.00    -0.368 OA
BRANCH   7   8
ATOM      8  C   LIG d   1      -5.598  79.003 118.972  0.00  0.00     0.119 C 
BRANCH   8   9
ATOM      9  C   LIG d   1      -4.491  80.074 119.041  0.00  0.00     0.028 C 
ATOM     10  C   LIG d   1      -4.926  81.317 119.836  0.00  0.00     0.006 C 
ENDBRANCH   8   9
BRANCH   8  11
ATOM     11  C   LIG d   1      -4.906  77.682 119.321  0.00  0.00     0.028 C 
ATOM     12  C   LIG d   1      -4.684  76.784 118.094  0.00  0.00     0.006 C 
ENDBRANCH   8  11
ENDBRANCH   7   8
ENDBRANCH   1   7
BRANCH   6  13
ATOM     13  N   LIG d   1      -8.329  76.954 117.650  0.00  0.00    -0.311 N 
ATOM     14  C   LIG d   1      -8.334  75.793 118.303  0.00  0.00     0.210 C 
ATOM     15  C   LIG d   1      -8.301  74.549 117.410  0.00  0.00     0.109 C 
ATOM     16  O   LIG d   1      -8.396  75.676 119.536  0.00  0.00    -0.276 OA
ATOM     17  H   LIG d   1      -8.310  76.957 116.648  0.00  0.00     0.149 HD
ENDBRANCH   6  13
BRANCH   5  18
ATOM     18  N   LIG d   1     -10.550  77.950 119.496  0.00  0.00     0.381 N 
ATOM     19  H   LIG d   1     -10.083  77.889 120.378  0.00  0.00    -0.090 HD
ATOM     20  H   LIG d   1     -10.613  77.025 119.108  0.00  0.00    -0.090 HD
ATOM     21  H   LIG d   1     -11.463  78.328 119.620  0.00  0.00    -0.090 HD
ENDBRANCH   5  18
BRANCH   3  22
ATOM     22  C   LIG d   1      -9.165  82.426 118.506  0.00  0.00     0.382 C 
ATOM     23  O   LIG d   1     -10.195  82.853 117.931  0.00  0.00    -0.241 OA
ATOM     24  O   LIG d   1      -8.395  83.231 119.063  0.00  0.00    -0.241 OA
ENDBRANCH   3  22
TORSDOF 7
ENDMDL
MODEL 8
REMARK VINA RESULT:      -4.6     20.425     21.894
REMARK  7 active torsions:
REMARK  status: ('A' for Active; 'I' for Inactive)
REMARK    1  A    between atoms: C_2  and  C_3 
REMARK    2  A    between atoms: C_3  and  O_6 
REMARK    3  A    between atoms: C_3  and  C_4 
REMARK    4  A    between atoms: C_7  and  O_6 
REMARK    5  A    between atoms: C_9  and  C_10 
REMARK    6  A    between atoms: N_15  and  C_14 
REMARK    7  A    between atoms: N_20  and  C_19 
REMARK       I    between atoms: C_22  and  N_20 
ROOT
ATOM      1  C   LIG d   1      -9.492  78.668 119.577  0.00  0.00     0.161 C 
ATOM      2  C   LIG d   1     -10.268  77.876 120.440  0.00  0.00     0.016 C 
ATOM      3  C   LIG d   1     -10.997  78.400 121.532  0.00  0.00     0.038 C 
ATOM      4  C   LIG d   1     -11.122  79.781 121.746  0.00  0.00     0.028 C 
ATOM      5  C   LIG d   1      -9.947  80.587 121.202  0.00  0.00    -0.047 C 
ATOM      6  C   LIG d   1      -9.706  80.189 119.728  0.00  0.00     0.091 C 
ENDROOT
BRANCH   1   7
ATOM      7  O   LIG d   1      -9.715  78.264 118.211  0.00  0.00    -0.368 OA
BRANCH   7   8
ATOM      8  C   LIG d   1      -8.609  77.596 117.556  0.00  0.00     0.119 C 
BRANCH   8   9
ATOM      9  C   LIG d   1      -9.000  76.116 117.381  0.00  0.00     0.028 C 
ATOM     10  C   LIG d   1      -8.174  75.180 118.278  0.00  0.00     0.006 C 
ENDBRANCH   8   9
BRANCH   8  11
ATOM     11  C   LIG d   1      -7.361  77.583 118.444  0.00  0.00     0.028 C 
ATOM     12  C   LIG d   1      -6.195  78.386 117.845  0.00  0.00     0.006 C 
ENDBRANCH   8  11
ENDBRANCH   7   8
ENDBRANCH   1   7
BRANCH   6  13
ATOM     13  N   LIG d   1      -8.521  80.870 119.144  0.00  0.00    -0.311 N 
ATOM     14  C   LIG d   1      -8.518  81.427 117.934  0.00  0.00     0.210 C 
ATOM     15  C   LIG d   1      -7.187  82.059 117.516  0.00  0.00     0.109 C 
ATOM     16  O   LIG d   1      -9.502  81.487 117.180  0.00  0.00    -0.276 OA
ATOM     17  H   LIG d   1      -7.689  80.895 119.700  0.00  0.00     0.149 HD
ENDBRANCH   6  13
BRANCH   5  18
ATOM     18  N   LIG d   1     -10.272  82.016 121.369  0.00  0.00     0.381 N 
ATOM     19  H   LIG d   1     -11.158  82.214 120.949  0.00  0.00    -0.090 HD
ATOM     20  H   LIG d   1      -9.572  82.565 120.903  0.00  0.00    -0.090 HD
ATOM     21  H   LIG d   1     -10.297  82.249 122.338  0.00  0.00    -0.090 HD
ENDBRANCH   5  18
BRANCH   3  22
ATOM     22  C   LIG d   1     -11.578  77.536 122.448  0.00  0.00     0.382 C 
ATOM     23  O   LIG d   1     -11.290  77.627 123.666  0.00  0.00    -0.241 OA
ATOM     24  O   LIG d   1     -12.352  76.638 122.066  0.00  0.00    -0.241 OA
ENDBRANCH   3  22
TORSDOF 7
ENDMDL
MODEL 9
REMARK VINA RESULT:      -4.5     35.527     36.947
REMARK  7 active torsions:
REMARK  status: ('A' for Active; 'I' for Inactive)
REMARK    1  A    between atoms: C_2  and  C_3 
REMARK    2  A    between atoms: C_3  and  O_6 
REMARK    3  A    between atoms: C_3  and  C_4 
REMARK    4  A    between atoms: C_7  and  O_6 
REMARK    5  A    between atoms: C_9  and  C_10 
REMARK    6  A    between atoms: N_15  and  C_14 
REMARK    7  A    between atoms: N_20  and  C_19 
REMARK       I    between atoms: C_22  and  N_20 
ROOT
ATOM      1  C   LIG d   1      -6.713  96.348 120.581  0.00  0.00     0.161 C 
ATOM      2  C   LIG d   1      -7.544  95.216 120.632  0.00  0.00     0.016 C 
ATOM      3  C   LIG d   1      -8.482  94.894 119.624  0.00  0.00     0.038 C 
ATOM      4  C   LIG d   1      -8.545  95.604 118.416  0.00  0.00     0.028 C 
ATOM      5  C   LIG d   1      -8.077  97.051 118.538  0.00  0.00    -0.047 C 
ATOM      6  C   LIG d   1      -6.690  97.073 119.220  0.00  0.00     0.091 C 
ENDROOT
BRANCH   1   7
ATOM      7  O   LIG d   1      -5.375  95.989 120.981  0.00  0.00    -0.368 OA
BRANCH   7   8
ATOM      8  C   LIG d   1      -5.035  94.585 120.880  0.00  0.00     0.119 C 
BRANCH   8   9
ATOM      9  C   LIG d   1      -4.196  94.221 122.121  0.00  0.00     0.028 C 
ATOM     10  C   LIG d   1      -3.462  92.880 121.961  0.00  0.00     0.006 C 
ENDBRANCH   8   9
BRANCH   8  11
ATOM     11  C   LIG d   1      -4.121  94.317 119.681  0.00  0.00     0.028 C 
ATOM     12  C   LIG d   1      -4.836  93.576 118.540  0.00  0.00     0.006 C 
ENDBRANCH   8  11
ENDBRANCH   7   8
ENDBRANCH   1   7
BRANCH   6  13
ATOM     13  N   LIG d   1      -6.196  98.455 119.454  0.00  0.00    -0.311 N 
ATOM     14  C   LIG d   1      -5.041  98.912 118.973  0.00  0.00     0.210 C 
ATOM     15  C   LIG d   1      -4.712 100.360 119.350  0.00  0.00     0.109 C 
ATOM     16  O   LIG d   1      -4.274  98.267 118.243  0.00  0.00    -0.276 OA
ATOM     17  H   LIG d   1      -6.771  99.057 120.011  0.00  0.00     0.149 HD
ENDBRANCH   6  13
BRANCH   5  18
ATOM     18  N   LIG d   1      -8.065  97.632 117.183  0.00  0.00     0.381 N 
ATOM     19  H   LIG d   1      -7.132  97.895 116.935  0.00  0.00    -0.090 HD
ATOM     20  H   LIG d   1      -8.638  98.457 117.178  0.00  0.00    -0.090 HD
ATOM     21  H   LIG d   1      -8.416  96.971 116.525  0.00  0.00    -0.090 HD
ENDBRANCH   5  18
BRANCH   3  22
ATOM     22  C   LIG d   1      -9.396  93.874 119.837  0.00  0.00     0.382 C 
ATOM     23  O   LIG d   1      -9.608  93.455 121.000  0.00  0.00    -0.241 OA
ATOM     24  O   LIG d   1      -9.979  93.337 118.875  0.00  0.00    -0.241 OA
ENDBRANCH   3  22
TORSDOF 7
ENDMDL
