MODEL 1
REMARK VINA RESULT:      -4.9      0.000      0.000
REMARK  7 active torsions:
REMARK  status: ('A' for Active; 'I' for Inactive)
REMARK    1  A    between atoms: C_2  and  C_3 
REMARK    2  A    between atoms: C_3  and  O_6 
REMARK    3  A    between atoms: C_3  and  C_4 
REMARK    4  A    between atoms: C_7  and  O_6 
REMARK    5  A    between atoms: C_9  and  C_10 
REMARK    6  A    between atoms: N_15  and  C_14 
REMARK    7  A    between atoms: N_20  and  C_19 
REMARK       I    between atoms: C_22  and  N_20 
ROOT
ATOM      1  C   LIG d   1       4.553  68.122 121.787  0.00  0.00     0.161 C 
ATOM      2  C   LIG d   1       4.367  68.434 120.430  0.00  0.00     0.016 C 
ATOM      3  C   LIG d   1       4.667  67.539 119.378  0.00  0.00     0.038 C 
ATOM      4  C   LIG d   1       5.034  66.207 119.619  0.00  0.00     0.028 C 
ATOM      5  C   LIG d   1       5.719  66.002 120.966  0.00  0.00    -0.047 C 
ATOM      6  C   LIG d   1       4.847  66.635 122.075  0.00  0.00     0.091 C 
ENDROOT
BRANCH   1   7
ATOM      7  O   LIG d   1       3.413  68.564 122.551  0.00  0.00    -0.368 OA
BRANCH   7   8
ATOM      8  C   LIG d   1       2.982  69.928 122.322  0.00  0.00     0.119 C 
BRANCH   8   9
ATOM      9  C   LIG d   1       3.938  70.853 123.100  0.00  0.00     0.028 C 
ATOM     10  C   LIG d   1       4.661  71.855 122.185  0.00  0.00     0.006 C 
ENDBRANCH   8   9
BRANCH   8  11
ATOM     11  C   LIG d   1       1.595  70.183 122.919  0.00  0.00     0.028 C 
ATOM     12  C   LIG d   1       0.627  70.838 121.921  0.00  0.00     0.006 C 
ENDBRANCH   8  11
ENDBRANCH   7   8
ENDBRANCH   1   7
BRANCH   6  13
ATOM     13  N   LIG d   1       5.485  66.553 123.414  0.00  0.00    -0.311 N 
ATOM     14  C   LIG d   1       5.260  65.561 124.274  0.00  0.00     0.210 C 
ATOM     15  C   LIG d   1       6.004  65.680 125.608  0.00  0.00     0.109 C 
ATOM     16  O   LIG d   1       4.540  64.578 124.046  0.00  0.00    -0.276 OA
ATOM     17  H   LIG d   1       6.109  67.294 123.669  0.00  0.00     0.149 HD
ENDBRANCH   6  13
BRANCH   5  18
ATOM     18  N   LIG d   1       5.922  64.552 121.147  0.00  0.00     0.381 N 
ATOM     19  H   LIG d   1       5.206  64.181 121.739  0.00  0.00    -0.090 HD
ATOM     20  H   LIG d   1       6.810  64.402 121.594  0.00  0.00    -0.090 HD
ATOM     21  H   LIG d   1       5.904  64.093 120.264  0.00  0.00    -0.090 HD
ENDBRANCH   5  18
BRANCH   3  22
ATOM     22  C   LIG d   1       4.640  67.988 118.066  0.00  0.00     0.382 C 
ATOM     23  O   LIG d   1       4.077  67.300 117.180  0.00  0.00    -0.241 OA
ATOM     24  O   LIG d   1       5.210  69.049 117.749  0.00  0.00    -0.241 OA
ENDBRANCH   3  22
TORSDOF 7
ENDMDL
MODEL 2
REMARK VINA RESULT:      -4.9     24.114     26.926
REMARK  7 active torsions:
REMARK  status: ('A' for Active; 'I' for Inactive)
REMARK    1  A    between atoms: C_2  and  C_3 
REMARK    2  A    between atoms: C_3  and  O_6 
REMARK    3  A    between atoms: C_3  and  C_4 
REMARK    4  A    between atoms: C_7  and  O_6 
REMARK    5  A    between atoms: C_9  and  C_10 
REMARK    6  A    between atoms: N_15  and  C_14 
REMARK    7  A    between atoms: N_20  and  C_19 
REMARK       I    between atoms: C_22  and  N_20 
ROOT
ATOM      1  C   LIG d   1      -4.824  92.252 117.716  0.00  0.00     0.161 C 
ATOM      2  C   LIG d   1      -5.685  93.282 117.301  0.00  0.00     0.016 C 
ATOM      3  C   LIG d   1      -6.674  93.852 118.135  0.00  0.00     0.038 C 
ATOM      4  C   LIG d   1      -6.769  93.533 119.498  0.00  0.00     0.028 C 
ATOM      5  C   LIG d   1      -6.254  92.137 119.830  0.00  0.00    -0.047 C 
ATOM      6  C   LIG d   1      -4.839  91.968 119.232  0.00  0.00     0.091 C 
ENDROOT
BRANCH   1   7
ATOM      7  O   LIG d   1      -3.482  92.528 117.270  0.00  0.00    -0.368 OA
BRANCH   7   8
ATOM      8  C   LIG d   1      -2.584  93.087 118.260  0.00  0.00     0.119 C 
BRANCH   8   9
ATOM      9  C   LIG d   1      -2.409  94.583 117.935  0.00  0.00     0.028 C 
ATOM     10  C   LIG d   1      -3.158  95.491 118.925  0.00  0.00     0.006 C 
ENDBRANCH   8   9
BRANCH   8  11
ATOM     11  C   LIG d   1      -1.182  92.480 118.147  0.00  0.00     0.028 C 
ATOM     12  C   LIG d   1      -1.195  91.052 117.579  0.00  0.00     0.006 C 
ENDBRANCH   8  11
ENDBRANCH   7   8
ENDBRANCH   1   7
BRANCH   6  13
ATOM     13  N   LIG d   1      -4.295  90.600 119.439  0.00  0.00    -0.311 N 
ATOM     14  C   LIG d   1      -3.488  90.277 120.448  0.00  0.00     0.210 C 
ATOM     15  C   LIG d   1      -3.027  88.816 120.465  0.00  0.00     0.109 C 
ATOM     16  O   LIG d   1      -3.137  91.053 121.350  0.00  0.00    -0.276 OA
ATOM     17  H   LIG d   1      -4.554  89.901 118.772  0.00  0.00     0.149 HD
ENDBRANCH   6  13
BRANCH   5  18
ATOM     18  N   LIG d   1      -6.283  91.989 121.298  0.00  0.00     0.381 N 
ATOM     19  H   LIG d   1      -5.960  92.831 121.730  0.00  0.00    -0.090 HD
ATOM     20  H   LIG d   1      -5.664  91.242 121.561  0.00  0.00    -0.090 HD
ATOM     21  H   LIG d   1      -7.209  91.785 121.602  0.00  0.00    -0.090 HD
ENDBRANCH   5  18
BRANCH   3  22
ATOM     22  C   LIG d   1      -7.608  94.724 117.597  0.00  0.00     0.382 C 
ATOM     23  O   LIG d   1      -7.371  95.956 117.568  0.00  0.00    -0.241 OA
ATOM     24  O   LIG d   1      -8.702  94.300 117.180  0.00  0.00    -0.241 OA
ENDBRANCH   3  22
TORSDOF 7
ENDMDL
MODEL 3
REMARK VINA RESULT:      -4.7      2.614      5.220
REMARK  7 active torsions:
REMARK  status: ('A' for Active; 'I' for Inactive)
REMARK    1  A    between atoms: C_2  and  C_3 
REMARK    2  A    between atoms: C_3  and  O_6 
REMARK    3  A    between atoms: C_3  and  C_4 
REMARK    4  A    between atoms: C_7  and  O_6 
REMARK    5  A    between atoms: C_9  and  C_10 
REMARK    6  A    between atoms: N_15  and  C_14 
REMARK    7  A    between atoms: N_20  and  C_19 
REMARK       I    between atoms: C_22  and  N_20 
ROOT
ATOM      1  C   LIG d   1       4.924  65.507 120.767  0.00  0.00     0.161 C 
ATOM      2  C   LIG d   1       4.806  66.087 119.493  0.00  0.00     0.016 C 
ATOM      3  C   LIG d   1       5.085  67.447 119.229  0.00  0.00     0.038 C 
ATOM      4  C   LIG d   1       5.650  68.290 120.198  0.00  0.00     0.028 C 
ATOM      5  C   LIG d   1       5.312  67.881 121.628  0.00  0.00    -0.047 C 
ATOM      6  C   LIG d   1       5.645  66.383 121.813  0.00  0.00     0.091 C 
ENDROOT
BRANCH   1   7
ATOM      7  O   LIG d   1       5.567  64.221 120.661  0.00  0.00    -0.368 OA
BRANCH   7   8
ATOM      8  C   LIG d   1       6.416  64.027 119.504  0.00  0.00     0.119 C 
BRANCH   8   9
ATOM      9  C   LIG d   1       5.843  62.843 118.702  0.00  0.00     0.028 C 
ATOM     10  C   LIG d   1       6.919  61.806 118.337  0.00  0.00     0.006 C 
ENDBRANCH   8   9
BRANCH   8  11
ATOM     11  C   LIG d   1       7.827  63.595 119.914  0.00  0.00     0.028 C 
ATOM     12  C   LIG d   1       8.030  63.590 121.437  0.00  0.00     0.006 C 
ENDBRANCH   8  11
ENDBRANCH   7   8
ENDBRANCH   1   7
BRANCH   6  13
ATOM     13  N   LIG d   1       5.266  65.880 123.159  0.00  0.00    -0.311 N 
ATOM     14  C   LIG d   1       6.109  65.838 124.190  0.00  0.00     0.210 C 
ATOM     15  C   LIG d   1       5.521  65.265 125.483  0.00  0.00     0.109 C 
ATOM     16  O   LIG d   1       7.278  66.249 124.164  0.00  0.00    -0.276 OA
ATOM     17  H   LIG d   1       4.326  65.555 123.277  0.00  0.00     0.149 HD
ENDBRANCH   6  13
BRANCH   5  18
ATOM     18  N   LIG d   1       6.076  68.759 122.535  0.00  0.00     0.381 N 
ATOM     19  H   LIG d   1       5.452  69.380 123.010  0.00  0.00    -0.090 HD
ATOM     20  H   LIG d   1       6.716  69.310 121.991  0.00  0.00    -0.090 HD
ATOM     21  H   LIG d   1       6.578  68.211 123.197  0.00  0.00    -0.090 HD
ENDBRANCH   5  18
BRANCH   3  22
ATOM     22  C   LIG d   1       4.761  67.988 117.994  0.00  0.00     0.382 C 
ATOM     23  O   LIG d   1       4.074  67.325 117.180  0.00  0.00    -0.241 OA
ATOM     24  O   LIG d   1       5.183  69.113 117.667  0.00  0.00    -0.241 OA
ENDBRANCH   3  22
TORSDOF 7
ENDMDL
MODEL 4
REMARK VINA RESULT:      -4.6     10.913     12.588
REMARK  7 active torsions:
REMARK  status: ('A' for Active; 'I' for Inactive)
REMARK    1  A    between atoms: C_2  and  C_3 
REMARK    2  A    between atoms: C_3  and  O_6 
REMARK    3  A    between atoms: C_3  and  C_4 
REMARK    4  A    between atoms: C_7  and  O_6 
REMARK    5  A    between atoms: C_9  and  C_10 
REMARK    6  A    between atoms: N_15  and  C_14 
REMARK    7  A    between atoms: N_20  and  C_19 
REMARK       I    between atoms: C_22  and  N_20 
ROOT
ATOM      1  C   LIG d   1      -1.588  56.535 119.890  0.00  0.00     0.161 C 
ATOM      2  C   LIG d   1      -1.591  57.530 118.898  0.00  0.00     0.016 C 
ATOM      3  C   LIG d   1      -2.293  58.751 119.023  0.00  0.00     0.038 C 
ATOM      4  C   LIG d   1      -2.921  59.126 120.220  0.00  0.00     0.028 C 
ATOM      5  C   LIG d   1      -3.369  57.940 121.066  0.00  0.00    -0.047 C 
ATOM      6  C   LIG d   1      -2.176  56.973 121.247  0.00  0.00     0.091 C 
ENDROOT
BRANCH   1   7
ATOM      7  O   LIG d   1      -0.252  56.023 120.064  0.00  0.00    -0.368 OA
BRANCH   7   8
ATOM      8  C   LIG d   1       0.825  56.968 119.852  0.00  0.00     0.119 C 
BRANCH   8   9
ATOM      9  C   LIG d   1       1.894  56.265 118.993  0.00  0.00     0.028 C 
ATOM     10  C   LIG d   1       2.116  56.967 117.643  0.00  0.00     0.006 C 
ENDBRANCH   8   9
BRANCH   8  11
ATOM     11  C   LIG d   1       1.527  57.317 121.168  0.00  0.00     0.028 C 
ATOM     12  C   LIG d   1       1.860  58.812 121.287  0.00  0.00     0.006 C 
ENDBRANCH   8  11
ENDBRANCH   7   8
ENDBRANCH   1   7
BRANCH   6  13
ATOM     13  N   LIG d   1      -2.551  55.743 121.993  0.00  0.00    -0.311 N 
ATOM     14  C   LIG d   1      -2.416  55.616 123.312  0.00  0.00     0.210 C 
ATOM     15  C   LIG d   1      -2.844  54.258 123.877  0.00  0.00     0.109 C 
ATOM     16  O   LIG d   1      -2.012  56.509 124.071  0.00  0.00    -0.276 OA
ATOM     17  H   LIG d   1      -2.917  54.980 121.459  0.00  0.00     0.149 HD
ENDBRANCH   6  13
BRANCH   5  18
ATOM     18  N   LIG d   1      -3.881  58.471 122.344  0.00  0.00     0.381 N 
ATOM     19  H   LIG d   1      -3.240  59.146 122.711  0.00  0.00    -0.090 HD
ATOM     20  H   LIG d   1      -3.958  57.717 123.003  0.00  0.00    -0.090 HD
ATOM     21  H   LIG d   1      -4.774  58.892 122.204  0.00  0.00    -0.090 HD
ENDBRANCH   5  18
BRANCH   3  22
ATOM     22  C   LIG d   1      -2.405  59.595 117.928  0.00  0.00     0.382 C 
ATOM     23  O   LIG d   1      -3.409  59.521 117.180  0.00  0.00    -0.241 OA
ATOM     24  O   LIG d   1      -1.493  60.398 117.654  0.00  0.00    -0.241 OA
ENDBRANCH   3  22
TORSDOF 7
ENDMDL
MODEL 5
REMARK VINA RESULT:      -4.6      1.370      1.904
REMARK  7 active torsions:
REMARK  status: ('A' for Active; 'I' for Inactive)
REMARK    1  A    between atoms: C_2  and  C_3 
REMARK    2  A    between atoms: C_3  and  O_6 
REMARK    3  A    between atoms: C_3  and  C_4 
REMARK    4  A    between atoms: C_7  and  O_6 
REMARK    5  A    between atoms: C_9  and  C_10 
REMARK    6  A    between atoms: N_15  and  C_14 
REMARK    7  A    between atoms: N_20  and  C_19 
REMARK       I    between atoms: C_22  and  N_20 
ROOT
ATOM      1  C   LIG d   1       5.019  67.197 121.760  0.00  0.00     0.161 C 
ATOM      2  C   LIG d   1       4.695  67.780 120.524  0.00  0.00     0.016 C 
ATOM      3  C   LIG d   1       4.874  67.124 119.284  0.00  0.00     0.038 C 
ATOM      4  C   LIG d   1       5.250  65.774 119.207  0.00  0.00     0.028 C 
ATOM      5  C   LIG d   1       6.070  65.304 120.403  0.00  0.00    -0.047 C 
ATOM      6  C   LIG d   1       5.325  65.686 121.703  0.00  0.00     0.091 C 
ENDROOT
BRANCH   1   7
ATOM      7  O   LIG d   1       3.970  67.460 122.714  0.00  0.00    -0.368 OA
BRANCH   7   8
ATOM      8  C   LIG d   1       4.154  68.621 123.560  0.00  0.00     0.119 C 
BRANCH   8   9
ATOM      9  C   LIG d   1       4.133  68.136 125.023  0.00  0.00     0.028 C 
ATOM     10  C   LIG d   1       2.966  68.737 125.824  0.00  0.00     0.006 C 
ENDBRANCH   8   9
BRANCH   8  11
ATOM     11  C   LIG d   1       2.976  69.592 123.438  0.00  0.00     0.028 C 
ATOM     12  C   LIG d   1       3.226  70.704 122.407  0.00  0.00     0.006 C 
ENDBRANCH   8  11
ENDBRANCH   7   8
ENDBRANCH   1   7
BRANCH   6  13
ATOM     13  N   LIG d   1       6.099  65.337 122.923  0.00  0.00    -0.311 N 
ATOM     14  C   LIG d   1       5.551  64.795 124.009  0.00  0.00     0.210 C 
ATOM     15  C   LIG d   1       6.525  64.533 125.162  0.00  0.00     0.109 C 
ATOM     16  O   LIG d   1       4.357  64.477 124.115  0.00  0.00    -0.276 OA
ATOM     17  H   LIG d   1       7.081  65.533 122.911  0.00  0.00     0.149 HD
ENDBRANCH   6  13
BRANCH   5  18
ATOM     18  N   LIG d   1       6.275  63.851 120.260  0.00  0.00     0.381 N 
ATOM     19  H   LIG d   1       6.549  63.459 121.138  0.00  0.00    -0.090 HD
ATOM     20  H   LIG d   1       7.014  63.690 119.598  0.00  0.00    -0.090 HD
ATOM     21  H   LIG d   1       5.436  63.417 119.942  0.00  0.00    -0.090 HD
ENDBRANCH   5  18
BRANCH   3  22
ATOM     22  C   LIG d   1       4.714  67.832 118.103  0.00  0.00     0.382 C 
ATOM     23  O   LIG d   1       5.240  68.963 117.974  0.00  0.00    -0.241 OA
ATOM     24  O   LIG d   1       4.013  67.372 117.181  0.00  0.00    -0.241 OA
ENDBRANCH   3  22
TORSDOF 7
ENDMDL
MODEL 6
REMARK VINA RESULT:      -4.6      3.040      6.040
REMARK  7 active torsions:
REMARK  status: ('A' for Active; 'I' for Inactive)
REMARK    1  A    between atoms: C_2  and  C_3 
REMARK    2  A    between atoms: C_3  and  O_6 
REMARK    3  A    between atoms: C_3  and  C_4 
REMARK    4  A    between atoms: C_7  and  O_6 
REMARK    5  A    between atoms: C_9  and  C_10 
REMARK    6  A    between atoms: N_15  and  C_14 
REMARK    7  A    between atoms: N_20  and  C_19 
REMARK       I    between atoms: C_22  and  N_20 
ROOT
ATOM      1  C   LIG d   1       5.638  64.702 119.895  0.00  0.00     0.161 C 
ATOM      2  C   LIG d   1       5.381  65.599 118.845  0.00  0.00     0.016 C 
ATOM      3  C   LIG d   1       4.928  66.923 119.047  0.00  0.00     0.038 C 
ATOM      4  C   LIG d   1       4.845  67.492 120.327  0.00  0.00     0.028 C 
ATOM      5  C   LIG d   1       4.611  66.467 121.431  0.00  0.00    -0.047 C 
ATOM      6  C   LIG d   1       5.661  65.339 121.300  0.00  0.00     0.091 C 
ENDROOT
BRANCH   1   7
ATOM      7  O   LIG d   1       6.870  63.998 119.644  0.00  0.00    -0.368 OA
BRANCH   7   8
ATOM      8  C   LIG d   1       6.764  62.788 118.854  0.00  0.00     0.119 C 
BRANCH   8   9
ATOM      9  C   LIG d   1       6.148  61.700 119.754  0.00  0.00     0.028 C 
ATOM     10  C   LIG d   1       5.541  60.542 118.944  0.00  0.00     0.006 C 
ENDBRANCH   8   9
BRANCH   8  11
ATOM     11  C   LIG d   1       8.145  62.255 118.461  0.00  0.00     0.028 C 
ATOM     12  C   LIG d   1       9.039  61.963 119.677  0.00  0.00     0.006 C 
ENDBRANCH   8  11
ENDBRANCH   7   8
ENDBRANCH   1   7
BRANCH   6  13
ATOM     13  N   LIG d   1       5.451  64.252 122.291  0.00  0.00    -0.311 N 
ATOM     14  C   LIG d   1       6.435  63.717 123.012  0.00  0.00     0.210 C 
ATOM     15  C   LIG d   1       6.005  62.594 123.961  0.00  0.00     0.109 C 
ATOM     16  O   LIG d   1       7.618  64.089 122.980  0.00  0.00    -0.276 OA
ATOM     17  H   LIG d   1       4.516  63.911 122.403  0.00  0.00     0.149 HD
ENDBRANCH   6  13
BRANCH   5  18
ATOM     18  N   LIG d   1       4.684  67.177 122.722  0.00  0.00     0.381 N 
ATOM     19  H   LIG d   1       3.789  67.162 123.168  0.00  0.00    -0.090 HD
ATOM     20  H   LIG d   1       4.936  68.135 122.552  0.00  0.00    -0.090 HD
ATOM     21  H   LIG d   1       5.364  66.747 123.310  0.00  0.00    -0.090 HD
ENDBRANCH   5  18
BRANCH   3  22
ATOM     22  C   LIG d   1       4.513  67.681 117.962  0.00  0.00     0.382 C 
ATOM     23  O   LIG d   1       5.085  68.766 117.700  0.00  0.00    -0.241 OA
ATOM     24  O   LIG d   1       3.545  67.314 117.269  0.00  0.00    -0.241 OA
ENDBRANCH   3  22
TORSDOF 7
ENDMDL
MODEL 7
REMARK VINA RESULT:      -4.5     24.593     26.654
REMARK  7 active torsions:
REMARK  status: ('A' for Active; 'I' for Inactive)
REMARK    1  A    between atoms: C_2  and  C_3 
REMARK    2  A    between atoms: C_3  and  O_6 
REMARK    3  A    between atoms: C_3  and  C_4 
REMARK    4  A    between atoms: C_7  and  O_6 
REMARK    5  A    between atoms: C_9  and  C_10 
REMARK    6  A    between atoms: N_15  and  C_14 
REMARK    7  A    between atoms: N_20  and  C_19 
REMARK       I    between atoms: C_22  and  N_20 
ROOT
ATOM      1  C   LIG d   1      -3.122  93.301 117.630  0.00  0.00     0.161 C 
ATOM      2  C   LIG d   1      -4.521  93.173 117.635  0.00  0.00     0.016 C 
ATOM      3  C   LIG d   1      -5.200  92.081 118.224  0.00  0.00     0.038 C 
ATOM      4  C   LIG d   1      -4.528  91.113 118.984  0.00  0.00     0.028 C 
ATOM      5  C   LIG d   1      -3.070  90.929 118.578  0.00  0.00    -0.047 C 
ATOM      6  C   LIG d   1      -2.378  92.311 118.551  0.00  0.00     0.091 C 
ENDROOT
BRANCH   1   7
ATOM      7  O   LIG d   1      -2.754  94.657 117.951  0.00  0.00    -0.368 OA
BRANCH   7   8
ATOM      8  C   LIG d   1      -2.482  94.929 119.348  0.00  0.00     0.119 C 
BRANCH   8   9
ATOM      9  C   LIG d   1      -3.546  95.929 119.841  0.00  0.00     0.028 C 
ATOM     10  C   LIG d   1      -3.425  97.300 119.157  0.00  0.00     0.006 C 
ENDBRANCH   8   9
BRANCH   8  11
ATOM     11  C   LIG d   1      -1.140  95.647 119.524  0.00  0.00     0.028 C 
ATOM     12  C   LIG d   1      -0.474  95.342 120.876  0.00  0.00     0.006 C 
ENDBRANCH   8  11
ENDBRANCH   7   8
ENDBRANCH   1   7
BRANCH   6  13
ATOM     13  N   LIG d   1      -0.970  92.231 118.082  0.00  0.00    -0.311 N 
ATOM     14  C   LIG d   1       0.069  92.089 118.903  0.00  0.00     0.210 C 
ATOM     15  C   LIG d   1       1.436  92.048 118.214  0.00  0.00     0.109 C 
ATOM     16  O   LIG d   1      -0.015  91.959 120.134  0.00  0.00    -0.276 OA
ATOM     17  H   LIG d   1      -0.814  92.296 117.095  0.00  0.00     0.149 HD
ENDBRANCH   6  13
BRANCH   5  18
ATOM     18  N   LIG d   1      -2.455  89.993 119.539  0.00  0.00     0.381 N 
ATOM     19  H   LIG d   1      -3.160  89.609 120.136  0.00  0.00    -0.090 HD
ATOM     20  H   LIG d   1      -1.799  90.497 120.109  0.00  0.00    -0.090 HD
ATOM     21  H   LIG d   1      -1.987  89.261 119.050  0.00  0.00    -0.090 HD
ENDBRANCH   5  18
BRANCH   3  22
ATOM     22  C   LIG d   1      -6.563  91.930 118.020  0.00  0.00     0.382 C 
ATOM     23  O   LIG d   1      -7.082  90.788 118.070  0.00  0.00    -0.241 OA
ATOM     24  O   LIG d   1      -7.274  92.914 117.742  0.00  0.00    -0.241 OA
ENDBRANCH   3  22
TORSDOF 7
ENDMDL
MODEL 8
REMARK VINA RESULT:      -4.4      3.457      4.823
REMARK  7 active torsions:
REMARK  status: ('A' for Active; 'I' for Inactive)
REMARK    1  A    between atoms: C_2  and  C_3 
REMARK    2  A    between atoms: C_3  and  O_6 
REMARK    3  A    between atoms: C_3  and  C_4 
REMARK    4  A    between atoms: C_7  and  O_6 
REMARK    5  A    between atoms: C_9  and  C_10 
REMARK    6  A    between atoms: N_15  and  C_14 
REMARK    7  A    between atoms: N_20  and  C_19 
REMARK       I    between atoms: C_22  and  N_20 
ROOT
ATOM      1  C   LIG d   1       6.159  65.293 119.994  0.00  0.00     0.161 C 
ATOM      2  C   LIG d   1       5.886  64.094 119.314  0.00  0.00     0.016 C 
ATOM      3  C   LIG d   1       6.796  63.014 119.245  0.00  0.00     0.038 C 
ATOM      4  C   LIG d   1       7.988  63.001 119.984  0.00  0.00     0.028 C 
ATOM      5  C   LIG d   1       8.534  64.394 120.279  0.00  0.00    -0.047 C 
ATOM      6  C   LIG d   1       7.408  65.253 120.899  0.00  0.00     0.091 C 
ENDROOT
BRANCH   1   7
ATOM      7  O   LIG d   1       5.003  65.697 120.753  0.00  0.00    -0.368 OA
BRANCH   7   8
ATOM      8  C   LIG d   1       4.291  66.859 120.260  0.00  0.00     0.119 C 
BRANCH   8   9
ATOM      9  C   LIG d   1       5.066  67.393 119.040  0.00  0.00     0.028 C 
ATOM     10  C   LIG d   1       4.225  67.364 117.753  0.00  0.00     0.006 C 
ENDBRANCH   8   9
BRANCH   8  11
ATOM     11  C   LIG d   1       4.309  67.999 121.283  0.00  0.00     0.028 C 
ATOM     12  C   LIG d   1       5.207  69.170 120.854  0.00  0.00     0.006 C 
ENDBRANCH   8  11
ENDBRANCH   7   8
ENDBRANCH   1   7
BRANCH   6  13
ATOM     13  N   LIG d   1       7.834  66.656 121.140  0.00  0.00    -0.311 N 
ATOM     14  C   LIG d   1       8.273  67.097 122.318  0.00  0.00     0.210 C 
ATOM     15  C   LIG d   1       8.641  68.583 122.355  0.00  0.00     0.109 C 
ATOM     16  O   LIG d   1       8.424  66.390 123.326  0.00  0.00    -0.276 OA
ATOM     17  H   LIG d   1       7.774  67.290 120.368  0.00  0.00     0.149 HD
ENDBRANCH   6  13
BRANCH   5  18
ATOM     18  N   LIG d   1       9.699  64.237 121.170  0.00  0.00     0.381 N 
ATOM     19  H   LIG d   1       9.786  65.041 121.759  0.00  0.00    -0.090 HD
ATOM     20  H   LIG d   1      10.530  64.166 120.609  0.00  0.00    -0.090 HD
ATOM     21  H   LIG d   1       9.594  63.418 121.727  0.00  0.00    -0.090 HD
ENDBRANCH   5  18
BRANCH   3  22
ATOM     22  C   LIG d   1       6.535  61.948 118.397  0.00  0.00     0.382 C 
ATOM     23  O   LIG d   1       5.554  61.198 118.618  0.00  0.00    -0.241 OA
ATOM     24  O   LIG d   1       7.293  61.701 117.440  0.00  0.00    -0.241 OA
ENDBRANCH   3  22
TORSDOF 7
ENDMDL
MODEL 9
REMARK VINA RESULT:      -4.4     17.865     19.636
REMARK  7 active torsions:
REMARK  status: ('A' for Active; 'I' for Inactive)
REMARK    1  A    between atoms: C_2  and  C_3 
REMARK    2  A    between atoms: C_3  and  O_6 
REMARK    3  A    between atoms: C_3  and  C_4 
REMARK    4  A    between atoms: C_7  and  O_6 
REMARK    5  A    between atoms: C_9  and  C_10 
REMARK    6  A    between atoms: N_15  and  C_14 
REMARK    7  A    between atoms: N_20  and  C_19 
REMARK       I    between atoms: C_22  and  N_20 
ROOT
ATOM      1  C   LIG d   1      -8.062  81.821 119.811  0.00  0.00     0.161 C 
ATOM      2  C   LIG d   1      -8.398  80.625 119.154  0.00  0.00     0.016 C 
ATOM      3  C   LIG d   1      -9.606  79.926 119.380  0.00  0.00     0.038 C 
ATOM      4  C   LIG d   1     -10.633  80.459 120.172  0.00  0.00     0.028 C 
ATOM      5  C   LIG d   1     -10.133  81.415 121.250  0.00  0.00    -0.047 C 
ATOM      6  C   LIG d   1      -9.218  82.474 120.595  0.00  0.00     0.091 C 
ENDROOT
BRANCH   1   7
ATOM      7  O   LIG d   1      -7.504  82.757 118.867  0.00  0.00    -0.368 OA
BRANCH   7   8
ATOM      8  C   LIG d   1      -6.086  83.023 118.996  0.00  0.00     0.119 C 
BRANCH   8   9
ATOM      9  C   LIG d   1      -5.380  82.363 117.795  0.00  0.00     0.028 C 
ATOM     10  C   LIG d   1      -3.855  82.560 117.830  0.00  0.00     0.006 C 
ENDBRANCH   8   9
BRANCH   8  11
ATOM     11  C   LIG d   1      -5.501  82.341 120.236  0.00  0.00     0.028 C 
ATOM     12  C   LIG d   1      -5.010  83.343 121.292  0.00  0.00     0.006 C 
ENDBRANCH   8  11
ENDBRANCH   7   8
ENDBRANCH   1   7
BRANCH   6  13
ATOM     13  N   LIG d   1      -8.619  83.400 121.592  0.00  0.00    -0.311 N 
ATOM     14  C   LIG d   1      -9.169  84.563 121.937  0.00  0.00     0.210 C 
ATOM     15  C   LIG d   1      -8.377  85.372 122.968  0.00  0.00     0.109 C 
ATOM     16  O   LIG d   1     -10.254  84.986 121.510  0.00  0.00    -0.276 OA
ATOM     17  H   LIG d   1      -7.753  83.120 122.011  0.00  0.00     0.149 HD
ENDBRANCH   6  13
BRANCH   5  18
ATOM     18  N   LIG d   1     -11.316  82.000 121.910  0.00  0.00     0.381 N 
ATOM     19  H   LIG d   1     -11.037  82.772 122.482  0.00  0.00    -0.090 HD
ATOM     20  H   LIG d   1     -11.736  81.305 122.500  0.00  0.00    -0.090 HD
ATOM     21  H   LIG d   1     -11.972  82.306 121.225  0.00  0.00    -0.090 HD
ENDBRANCH   5  18
BRANCH   3  22
ATOM     22  C   LIG d   1      -9.778  78.660 118.841  0.00  0.00     0.382 C 
ATOM     23  O   LIG d   1      -8.817  78.082 118.279  0.00  0.00    -0.241 OA
ATOM     24  O   LIG d   1     -10.894  78.108 118.871  0.00  0.00    -0.241 OA
ENDBRANCH   3  22
TORSDOF 7
ENDMDL
