MODEL 1
REMARK VINA RESULT:      -5.4      0.000      0.000
REMARK  7 active torsions:
REMARK  status: ('A' for Active; 'I' for Inactive)
REMARK    1  A    between atoms: C_2  and  C_3 
REMARK    2  A    between atoms: C_3  and  O_6 
REMARK    3  A    between atoms: C_3  and  C_4 
REMARK    4  A    between atoms: C_7  and  O_6 
REMARK    5  A    between atoms: C_9  and  C_10 
REMARK    6  A    between atoms: N_15  and  C_14 
REMARK    7  A    between atoms: N_20  and  C_19 
REMARK       I    between atoms: C_22  and  N_20 
ROOT
ATOM      1  C   LIG d   1      -0.171  60.294 118.855  0.00  0.00     0.161 C 
ATOM      2  C   LIG d   1      -1.505  59.863 118.940  0.00  0.00     0.016 C 
ATOM      3  C   LIG d   1      -1.935  58.579 118.533  0.00  0.00     0.038 C 
ATOM      4  C   LIG d   1      -1.027  57.579 118.152  0.00  0.00     0.028 C 
ATOM      5  C   LIG d   1       0.271  58.130 117.571  0.00  0.00    -0.047 C 
ATOM      6  C   LIG d   1       0.851  59.180 118.546  0.00  0.00     0.091 C 
ENDROOT
BRANCH   1   7
ATOM      7  O   LIG d   1       0.196  60.989 120.064  0.00  0.00    -0.368 OA
BRANCH   7   8
ATOM      8  C   LIG d   1      -0.127  60.318 121.307  0.00  0.00     0.119 C 
BRANCH   8   9
ATOM      9  C   LIG d   1      -1.020  61.269 122.128  0.00  0.00     0.028 C 
ATOM     10  C   LIG d   1      -2.379  60.642 122.477  0.00  0.00     0.006 C 
ENDBRANCH   8   9
BRANCH   8  11
ATOM     11  C   LIG d   1       1.124  60.098 122.163  0.00  0.00     0.028 C 
ATOM     12  C   LIG d   1       2.373  60.777 121.578  0.00  0.00     0.006 C 
ENDBRANCH   8  11
ENDBRANCH   7   8
ENDBRANCH   1   7
BRANCH   6  13
ATOM     13  N   LIG d   1       2.078  59.830 118.015  0.00  0.00    -0.311 N 
ATOM     14  C   LIG d   1       3.310  59.399 118.281  0.00  0.00     0.210 C 
ATOM     15  C   LIG d   1       4.434  60.225 117.649  0.00  0.00     0.109 C 
ATOM     16  O   LIG d   1       3.576  58.392 118.953  0.00  0.00    -0.276 OA
ATOM     17  H   LIG d   1       1.952  60.636 117.434  0.00  0.00     0.149 HD
ENDBRANCH   6  13
BRANCH   5  18
ATOM     18  N   LIG d   1       1.178  56.989 117.345  0.00  0.00     0.381 N 
ATOM     19  H   LIG d   1       0.873  56.467 116.547  0.00  0.00    -0.090 HD
ATOM     20  H   LIG d   1       1.146  56.384 118.147  0.00  0.00    -0.090 HD
ATOM     21  H   LIG d   1       2.108  57.315 117.202  0.00  0.00    -0.090 HD
ENDBRANCH   5  18
BRANCH   3  22
ATOM     22  C   LIG d   1      -3.291  58.297 118.468  0.00  0.00     0.382 C 
ATOM     23  O   LIG d   1      -3.712  57.162 118.797  0.00  0.00    -0.241 OA
ATOM     24  O   LIG d   1      -4.093  59.149 118.041  0.00  0.00    -0.241 OA
ENDBRANCH   3  22
TORSDOF 7
ENDMDL
MODEL 2
REMARK VINA RESULT:      -5.2      2.264      5.774
REMARK  7 active torsions:
REMARK  status: ('A' for Active; 'I' for Inactive)
REMARK    1  A    between atoms: C_2  and  C_3 
REMARK    2  A    between atoms: C_3  and  O_6 
REMARK    3  A    between atoms: C_3  and  C_4 
REMARK    4  A    between atoms: C_7  and  O_6 
REMARK    5  A    between atoms: C_9  and  C_10 
REMARK    6  A    between atoms: N_15  and  C_14 
REMARK    7  A    between atoms: N_20  and  C_19 
REMARK       I    between atoms: C_22  and  N_20 
ROOT
ATOM      1  C   LIG d   1       0.165  60.043 118.432  0.00  0.00     0.161 C 
ATOM      2  C   LIG d   1       1.455  59.808 117.929  0.00  0.00     0.016 C 
ATOM      3  C   LIG d   1       2.559  59.471 118.745  0.00  0.00     0.038 C 
ATOM      4  C   LIG d   1       2.414  59.198 120.113  0.00  0.00     0.028 C 
ATOM      5  C   LIG d   1       1.229  59.914 120.752  0.00  0.00    -0.047 C 
ATOM      6  C   LIG d   1      -0.037  59.640 119.908  0.00  0.00     0.091 C 
ENDROOT
BRANCH   1   7
ATOM      7  O   LIG d   1      -0.812  59.390 117.597  0.00  0.00    -0.368 OA
BRANCH   7   8
ATOM      8  C   LIG d   1      -1.325  58.126 118.085  0.00  0.00     0.119 C 
BRANCH   8   9
ATOM      9  C   LIG d   1      -0.756  57.016 117.180  0.00  0.00     0.028 C 
ATOM     10  C   LIG d   1       0.408  56.260 117.841  0.00  0.00     0.006 C 
ENDBRANCH   8   9
BRANCH   8  11
ATOM     11  C   LIG d   1      -2.846  58.042 117.923  0.00  0.00     0.028 C 
ATOM     12  C   LIG d   1      -3.509  59.423 117.803  0.00  0.00     0.006 C 
ENDBRANCH   8  11
ENDBRANCH   7   8
ENDBRANCH   1   7
BRANCH   6  13
ATOM     13  N   LIG d   1      -1.226  60.373 120.416  0.00  0.00    -0.311 N 
ATOM     14  C   LIG d   1      -2.113  59.839 121.255  0.00  0.00     0.210 C 
ATOM     15  C   LIG d   1      -3.275  60.760 121.638  0.00  0.00     0.109 C 
ATOM     16  O   LIG d   1      -2.029  58.702 121.743  0.00  0.00    -0.276 OA
ATOM     17  H   LIG d   1      -1.354  61.312 120.095  0.00  0.00     0.149 HD
ENDBRANCH   6  13
BRANCH   5  18
ATOM     18  N   LIG d   1       1.113  59.433 122.141  0.00  0.00     0.381 N 
ATOM     19  H   LIG d   1       0.191  59.080 122.302  0.00  0.00    -0.090 HD
ATOM     20  H   LIG d   1       1.270  60.204 122.767  0.00  0.00    -0.090 HD
ATOM     21  H   LIG d   1       1.785  58.716 122.311  0.00  0.00    -0.090 HD
ENDBRANCH   5  18
BRANCH   3  22
ATOM     22  C   LIG d   1       3.834  59.445 118.200  0.00  0.00     0.382 C 
ATOM     23  O   LIG d   1       4.697  58.659 118.660  0.00  0.00    -0.241 OA
ATOM     24  O   LIG d   1       4.145  60.229 117.283  0.00  0.00    -0.241 OA
ENDBRANCH   3  22
TORSDOF 7
ENDMDL
MODEL 3
REMARK VINA RESULT:      -4.6     34.696     36.368
REMARK  7 active torsions:
REMARK  status: ('A' for Active; 'I' for Inactive)
REMARK    1  A    between atoms: C_2  and  C_3 
REMARK    2  A    between atoms: C_3  and  O_6 
REMARK    3  A    between atoms: C_3  and  C_4 
REMARK    4  A    between atoms: C_7  and  O_6 
REMARK    5  A    between atoms: C_9  and  C_10 
REMARK    6  A    between atoms: N_15  and  C_14 
REMARK    7  A    between atoms: N_20  and  C_19 
REMARK       I    between atoms: C_22  and  N_20 
ROOT
ATOM      1  C   LIG d   1      -5.616  94.803 119.961  0.00  0.00     0.161 C 
ATOM      2  C   LIG d   1      -6.767  94.164 119.471  0.00  0.00     0.016 C 
ATOM      3  C   LIG d   1      -7.733  94.810 118.666  0.00  0.00     0.038 C 
ATOM      4  C   LIG d   1      -7.536  96.107 118.168  0.00  0.00     0.028 C 
ATOM      5  C   LIG d   1      -6.632  96.963 119.048  0.00  0.00    -0.047 C 
ATOM      6  C   LIG d   1      -5.328  96.184 119.336  0.00  0.00     0.091 C 
ENDROOT
BRANCH   1   7
ATOM      7  O   LIG d   1      -4.475  93.936 119.809  0.00  0.00    -0.368 OA
BRANCH   7   8
ATOM      8  C   LIG d   1      -3.950  93.802 118.465  0.00  0.00     0.119 C 
BRANCH   8   9
ATOM      9  C   LIG d   1      -4.239  92.362 117.998  0.00  0.00     0.028 C 
ATOM     10  C   LIG d   1      -4.273  91.362 119.166  0.00  0.00     0.006 C 
ENDBRANCH   8   9
BRANCH   8  11
ATOM     11  C   LIG d   1      -2.425  93.936 118.446  0.00  0.00     0.028 C 
ATOM     12  C   LIG d   1      -1.822  94.084 119.852  0.00  0.00     0.006 C 
ENDBRANCH   8  11
ENDBRANCH   7   8
ENDBRANCH   1   7
BRANCH   6  13
ATOM     13  N   LIG d   1      -4.423  96.916 120.260  0.00  0.00    -0.311 N 
ATOM     14  C   LIG d   1      -3.269  97.461 119.878  0.00  0.00     0.210 C 
ATOM     15  C   LIG d   1      -2.480  98.152 120.993  0.00  0.00     0.109 C 
ATOM     16  O   LIG d   1      -2.841  97.466 118.714  0.00  0.00    -0.276 OA
ATOM     17  H   LIG d   1      -4.708  96.987 121.217  0.00  0.00     0.149 HD
ENDBRANCH   6  13
BRANCH   5  18
ATOM     18  N   LIG d   1      -6.400  98.238 118.343  0.00  0.00     0.381 N 
ATOM     19  H   LIG d   1      -7.105  98.372 117.645  0.00  0.00    -0.090 HD
ATOM     20  H   LIG d   1      -5.507  98.198 117.885  0.00  0.00    -0.090 HD
ATOM     21  H   LIG d   1      -6.416  98.994 118.991  0.00  0.00    -0.090 HD
ENDBRANCH   5  18
BRANCH   3  22
ATOM     22  C   LIG d   1      -8.932  94.172 118.385  0.00  0.00     0.382 C 
ATOM     23  O   LIG d   1      -9.043  93.476 117.347  0.00  0.00    -0.241 OA
ATOM     24  O   LIG d   1      -9.917  94.320 119.133  0.00  0.00    -0.241 OA
ENDBRANCH   3  22
TORSDOF 7
ENDMDL
MODEL 4
REMARK VINA RESULT:      -4.6      2.562      5.953
REMARK  7 active torsions:
REMARK  status: ('A' for Active; 'I' for Inactive)
REMARK    1  A    between atoms: C_2  and  C_3 
REMARK    2  A    between atoms: C_3  and  O_6 
REMARK    3  A    between atoms: C_3  and  C_4 
REMARK    4  A    between atoms: C_7  and  O_6 
REMARK    5  A    between atoms: C_9  and  C_10 
REMARK    6  A    between atoms: N_15  and  C_14 
REMARK    7  A    between atoms: N_20  and  C_19 
REMARK       I    between atoms: C_22  and  N_20 
ROOT
ATOM      1  C   LIG d   1       0.136  60.506 120.177  0.00  0.00     0.161 C 
ATOM      2  C   LIG d   1       1.077  60.913 121.138  0.00  0.00     0.016 C 
ATOM      3  C   LIG d   1       0.727  61.320 122.446  0.00  0.00     0.038 C 
ATOM      4  C   LIG d   1      -0.583  61.202 122.934  0.00  0.00     0.028 C 
ATOM      5  C   LIG d   1      -1.645  61.273 121.841  0.00  0.00    -0.047 C 
ATOM      6  C   LIG d   1      -1.286  60.265 120.726  0.00  0.00     0.091 C 
ENDROOT
BRANCH   1   7
ATOM      7  O   LIG d   1       0.615  59.331 119.493  0.00  0.00    -0.368 OA
BRANCH   7   8
ATOM      8  C   LIG d   1       1.105  59.535 118.145  0.00  0.00     0.119 C 
BRANCH   8   9
ATOM      9  C   LIG d   1       0.089  58.893 117.180  0.00  0.00     0.028 C 
ATOM     10  C   LIG d   1      -0.186  57.418 117.514  0.00  0.00     0.006 C 
ENDBRANCH   8   9
BRANCH   8  11
ATOM     11  C   LIG d   1       2.418  58.782 117.910  0.00  0.00     0.028 C 
ATOM     12  C   LIG d   1       3.630  59.720 117.796  0.00  0.00     0.006 C 
ENDBRANCH   8  11
ENDBRANCH   7   8
ENDBRANCH   1   7
BRANCH   6  13
ATOM     13  N   LIG d   1      -2.228  60.329 119.578  0.00  0.00    -0.311 N 
ATOM     14  C   LIG d   1      -2.978  59.301 119.187  0.00  0.00     0.210 C 
ATOM     15  C   LIG d   1      -3.866  59.575 117.969  0.00  0.00     0.109 C 
ATOM     16  O   LIG d   1      -3.017  58.198 119.753  0.00  0.00    -0.276 OA
ATOM     17  H   LIG d   1      -2.283  61.197 119.082  0.00  0.00     0.149 HD
ENDBRANCH   6  13
BRANCH   5  18
ATOM     18  N   LIG d   1      -2.951  60.999 122.470  0.00  0.00     0.381 N 
ATOM     19  H   LIG d   1      -2.999  61.452 123.361  0.00  0.00    -0.090 HD
ATOM     20  H   LIG d   1      -3.041  60.009 122.614  0.00  0.00    -0.090 HD
ATOM     21  H   LIG d   1      -3.687  61.325 121.883  0.00  0.00    -0.090 HD
ENDBRANCH   5  18
BRANCH   3  22
ATOM     22  C   LIG d   1       1.687  61.890 123.269  0.00  0.00     0.382 C 
ATOM     23  O   LIG d   1       1.345  62.701 124.163  0.00  0.00    -0.241 OA
ATOM     24  O   LIG d   1       2.895  61.637 123.099  0.00  0.00    -0.241 OA
ENDBRANCH   3  22
TORSDOF 7
ENDMDL
MODEL 5
REMARK VINA RESULT:      -4.5      2.358      6.065
REMARK  7 active torsions:
REMARK  status: ('A' for Active; 'I' for Inactive)
REMARK    1  A    between atoms: C_2  and  C_3 
REMARK    2  A    between atoms: C_3  and  O_6 
REMARK    3  A    between atoms: C_3  and  C_4 
REMARK    4  A    between atoms: C_7  and  O_6 
REMARK    5  A    between atoms: C_9  and  C_10 
REMARK    6  A    between atoms: N_15  and  C_14 
REMARK    7  A    between atoms: N_20  and  C_19 
REMARK       I    between atoms: C_22  and  N_20 
ROOT
ATOM      1  C   LIG d   1       0.896  58.690 117.689  0.00  0.00     0.161 C 
ATOM      2  C   LIG d   1       2.265  58.728 118.005  0.00  0.00     0.016 C 
ATOM      3  C   LIG d   1       2.778  59.356 119.163  0.00  0.00     0.038 C 
ATOM      4  C   LIG d   1       1.939  59.862 120.166  0.00  0.00     0.028 C 
ATOM      5  C   LIG d   1       0.570  60.295 119.650  0.00  0.00    -0.047 C 
ATOM      6  C   LIG d   1      -0.044  59.140 118.827  0.00  0.00     0.091 C 
ENDROOT
BRANCH   1   7
ATOM      7  O   LIG d   1       0.536  57.371 117.233  0.00  0.00    -0.368 OA
BRANCH   7   8
ATOM      8  C   LIG d   1       0.819  56.282 118.146  0.00  0.00     0.119 C 
BRANCH   8   9
ATOM      9  C   LIG d   1       1.454  55.142 117.326  0.00  0.00     0.028 C 
ATOM     10  C   LIG d   1       2.485  54.339 118.136  0.00  0.00     0.006 C 
ENDBRANCH   8   9
BRANCH   8  11
ATOM     11  C   LIG d   1      -0.469  55.694 118.728  0.00  0.00     0.028 C 
ATOM     12  C   LIG d   1      -0.493  55.713 120.265  0.00  0.00     0.006 C 
ENDBRANCH   8  11
ENDBRANCH   7   8
ENDBRANCH   1   7
BRANCH   6  13
ATOM     13  N   LIG d   1      -1.346  59.510 118.215  0.00  0.00    -0.311 N 
ATOM     14  C   LIG d   1      -2.524  59.170 118.736  0.00  0.00     0.210 C 
ATOM     15  C   LIG d   1      -3.744  59.636 117.934  0.00  0.00     0.109 C 
ATOM     16  O   LIG d   1      -2.675  58.555 119.802  0.00  0.00    -0.276 OA
ATOM     17  H   LIG d   1      -1.317  60.036 117.363  0.00  0.00     0.149 HD
ENDBRANCH   6  13
BRANCH   5  18
ATOM     18  N   LIG d   1      -0.248  60.671 120.818  0.00  0.00     0.381 N 
ATOM     19  H   LIG d   1      -0.210  61.661 120.954  0.00  0.00    -0.090 HD
ATOM     20  H   LIG d   1       0.129  60.226 121.636  0.00  0.00    -0.090 HD
ATOM     21  H   LIG d   1      -1.192  60.384 120.680  0.00  0.00    -0.090 HD
ENDBRANCH   5  18
BRANCH   3  22
ATOM     22  C   LIG d   1       4.148  59.518 119.306  0.00  0.00     0.382 C 
ATOM     23  O   LIG d   1       4.930  58.619 118.915  0.00  0.00    -0.241 OA
ATOM     24  O   LIG d   1       4.609  60.533 119.863  0.00  0.00    -0.241 OA
ENDBRANCH   3  22
TORSDOF 7
ENDMDL
MODEL 6
REMARK VINA RESULT:      -4.3     13.837     16.135
REMARK  7 active torsions:
REMARK  status: ('A' for Active; 'I' for Inactive)
REMARK    1  A    between atoms: C_2  and  C_3 
REMARK    2  A    between atoms: C_3  and  O_6 
REMARK    3  A    between atoms: C_3  and  C_4 
REMARK    4  A    between atoms: C_7  and  O_6 
REMARK    5  A    between atoms: C_9  and  C_10 
REMARK    6  A    between atoms: N_15  and  C_14 
REMARK    7  A    between atoms: N_20  and  C_19 
REMARK       I    between atoms: C_22  and  N_20 
ROOT
ATOM      1  C   LIG d   1     -14.590  66.173 120.747  0.00  0.00     0.161 C 
ATOM      2  C   LIG d   1     -14.230  67.471 121.147  0.00  0.00     0.016 C 
ATOM      3  C   LIG d   1     -12.948  67.805 121.642  0.00  0.00     0.038 C 
ATOM      4  C   LIG d   1     -11.887  66.888 121.630  0.00  0.00     0.028 C 
ATOM      5  C   LIG d   1     -12.341  65.434 121.708  0.00  0.00    -0.047 C 
ATOM      6  C   LIG d   1     -13.412  65.184 120.622  0.00  0.00     0.091 C 
ENDROOT
BRANCH   1   7
ATOM      7  O   LIG d   1     -15.330  66.230 119.511  0.00  0.00    -0.368 OA
BRANCH   7   8
ATOM      8  C   LIG d   1     -14.554  66.080 118.297  0.00  0.00     0.119 C 
BRANCH   8   9
ATOM      9  C   LIG d   1     -14.627  67.417 117.533  0.00  0.00     0.028 C 
ATOM     10  C   LIG d   1     -15.949  68.163 117.781  0.00  0.00     0.006 C 
ENDBRANCH   8   9
BRANCH   8  11
ATOM     11  C   LIG d   1     -15.180  65.043 117.360  0.00  0.00     0.028 C 
ATOM     12  C   LIG d   1     -16.360  64.297 118.001  0.00  0.00     0.006 C 
ENDBRANCH   8  11
ENDBRANCH   7   8
ENDBRANCH   1   7
BRANCH   6  13
ATOM     13  N   LIG d   1     -13.971  63.808 120.684  0.00  0.00    -0.311 N 
ATOM     14  C   LIG d   1     -13.498  62.792 119.966  0.00  0.00     0.210 C 
ATOM     15  C   LIG d   1     -14.232  61.462 120.164  0.00  0.00     0.109 C 
ATOM     16  O   LIG d   1     -12.519  62.857 119.207  0.00  0.00    -0.276 OA
ATOM     17  H   LIG d   1     -14.748  63.659 121.298  0.00  0.00     0.149 HD
ENDBRANCH   6  13
BRANCH   5  18
ATOM     18  N   LIG d   1     -11.146  64.584 121.548  0.00  0.00     0.381 N 
ATOM     19  H   LIG d   1     -11.230  63.769 122.121  0.00  0.00    -0.090 HD
ATOM     20  H   LIG d   1     -10.338  65.100 121.849  0.00  0.00    -0.090 HD
ATOM     21  H   LIG d   1     -11.042  64.319 120.593  0.00  0.00    -0.090 HD
ENDBRANCH   5  18
BRANCH   3  22
ATOM     22  C   LIG d   1     -12.730  69.058 122.195  0.00  0.00     0.382 C 
ATOM     23  O   LIG d   1     -12.967  70.089 121.521  0.00  0.00    -0.241 OA
ATOM     24  O   LIG d   1     -12.257  69.169 123.342  0.00  0.00    -0.241 OA
ENDBRANCH   3  22
TORSDOF 7
ENDMDL
MODEL 7
REMARK VINA RESULT:      -4.3      2.611      5.392
REMARK  7 active torsions:
REMARK  status: ('A' for Active; 'I' for Inactive)
REMARK    1  A    between atoms: C_2  and  C_3 
REMARK    2  A    between atoms: C_3  and  O_6 
REMARK    3  A    between atoms: C_3  and  C_4 
REMARK    4  A    between atoms: C_7  and  O_6 
REMARK    5  A    between atoms: C_9  and  C_10 
REMARK    6  A    between atoms: N_15  and  C_14 
REMARK    7  A    between atoms: N_20  and  C_19 
REMARK       I    between atoms: C_22  and  N_20 
ROOT
ATOM      1  C   LIG d   1       0.371  58.711 119.308  0.00  0.00     0.161 C 
ATOM      2  C   LIG d   1       1.475  59.171 118.571  0.00  0.00     0.016 C 
ATOM      3  C   LIG d   1       2.797  58.720 118.786  0.00  0.00     0.038 C 
ATOM      4  C   LIG d   1       3.086  57.659 119.657  0.00  0.00     0.028 C 
ATOM      5  C   LIG d   1       2.074  57.511 120.788  0.00  0.00    -0.047 C 
ATOM      6  C   LIG d   1       0.651  57.473 120.186  0.00  0.00     0.091 C 
ENDROOT
BRANCH   1   7
ATOM      7  O   LIG d   1      -0.737  58.457 118.422  0.00  0.00    -0.368 OA
BRANCH   7   8
ATOM      8  C   LIG d   1      -2.032  58.930 118.869  0.00  0.00     0.119 C 
BRANCH   8   9
ATOM      9  C   LIG d   1      -2.959  58.971 117.639  0.00  0.00     0.028 C 
ATOM     10  C   LIG d   1      -4.181  59.879 117.855  0.00  0.00     0.006 C 
ENDBRANCH   8   9
BRANCH   8  11
ATOM     11  C   LIG d   1      -1.955  60.376 119.368  0.00  0.00     0.028 C 
ATOM     12  C   LIG d   1      -2.324  60.514 120.853  0.00  0.00     0.006 C 
ENDBRANCH   8  11
ENDBRANCH   7   8
ENDBRANCH   1   7
BRANCH   6  13
ATOM     13  N   LIG d   1      -0.405  57.415 121.231  0.00  0.00    -0.311 N 
ATOM     14  C   LIG d   1      -1.034  56.293 121.576  0.00  0.00     0.210 C 
ATOM     15  C   LIG d   1      -2.103  56.458 122.661  0.00  0.00     0.109 C 
ATOM     16  O   LIG d   1      -0.785  55.171 121.109  0.00  0.00    -0.276 OA
ATOM     17  H   LIG d   1      -0.647  58.275 121.683  0.00  0.00     0.149 HD
ENDBRANCH   6  13
BRANCH   5  18
ATOM     18  N   LIG d   1       2.418  56.288 121.537  0.00  0.00     0.381 N 
ATOM     19  H   LIG d   1       3.247  55.878 121.155  0.00  0.00    -0.090 HD
ATOM     20  H   LIG d   1       1.667  55.627 121.443  0.00  0.00    -0.090 HD
ATOM     21  H   LIG d   1       2.559  56.505 122.499  0.00  0.00    -0.090 HD
ENDBRANCH   5  18
BRANCH   3  22
ATOM     22  C   LIG d   1       3.853  59.359 118.154  0.00  0.00     0.382 C 
ATOM     23  O   LIG d   1       5.021  59.222 118.591  0.00  0.00    -0.241 OA
ATOM     24  O   LIG d   1       3.646  60.108 117.180  0.00  0.00    -0.241 OA
ENDBRANCH   3  22
TORSDOF 7
ENDMDL
MODEL 8
REMARK VINA RESULT:      -4.2     22.074     23.873
REMARK  7 active torsions:
REMARK  status: ('A' for Active; 'I' for Inactive)
REMARK    1  A    between atoms: C_2  and  C_3 
REMARK    2  A    between atoms: C_3  and  O_6 
REMARK    3  A    between atoms: C_3  and  C_4 
REMARK    4  A    between atoms: C_7  and  O_6 
REMARK    5  A    between atoms: C_9  and  C_10 
REMARK    6  A    between atoms: N_15  and  C_14 
REMARK    7  A    between atoms: N_20  and  C_19 
REMARK       I    between atoms: C_22  and  N_20 
ROOT
ATOM      1  C   LIG d   1      -7.897  81.578 120.207  0.00  0.00     0.161 C 
ATOM      2  C   LIG d   1      -7.859  80.223 119.839  0.00  0.00     0.016 C 
ATOM      3  C   LIG d   1      -8.628  79.681 118.783  0.00  0.00     0.038 C 
ATOM      4  C   LIG d   1      -9.380  80.494 117.921  0.00  0.00     0.028 C 
ATOM      5  C   LIG d   1      -9.844  81.795 118.566  0.00  0.00    -0.047 C 
ATOM      6  C   LIG d   1      -8.626  82.500 119.207  0.00  0.00     0.091 C 
ENDROOT
BRANCH   1   7
ATOM      7  O   LIG d   1      -6.559  82.057 120.446  0.00  0.00    -0.368 OA
BRANCH   7   8
ATOM      8  C   LIG d   1      -5.495  81.340 119.772  0.00  0.00     0.119 C 
BRANCH   8   9
ATOM      9  C   LIG d   1      -4.219  81.500 120.621  0.00  0.00     0.028 C 
ATOM     10  C   LIG d   1      -3.245  82.532 120.029  0.00  0.00     0.006 C 
ENDBRANCH   8   9
BRANCH   8  11
ATOM     11  C   LIG d   1      -5.164  81.977 118.419  0.00  0.00     0.028 C 
ATOM     12  C   LIG d   1      -5.452  81.042 117.233  0.00  0.00     0.006 C 
ENDBRANCH   8  11
ENDBRANCH   7   8
ENDBRANCH   1   7
BRANCH   6  13
ATOM     13  N   LIG d   1      -9.006  83.740 119.933  0.00  0.00    -0.311 N 
ATOM     14  C   LIG d   1      -9.856  83.758 120.958  0.00  0.00     0.210 C 
ATOM     15  C   LIG d   1     -10.125  85.145 121.550  0.00  0.00     0.109 C 
ATOM     16  O   LIG d   1     -10.388  82.753 121.453  0.00  0.00    -0.276 OA
ATOM     17  H   LIG d   1      -8.597  84.597 119.616  0.00  0.00     0.149 HD
ENDBRANCH   6  13
BRANCH   5  18
ATOM     18  N   LIG d   1     -10.495  82.604 117.519  0.00  0.00     0.381 N 
ATOM     19  H   LIG d   1     -10.119  83.531 117.524  0.00  0.00    -0.090 HD
ATOM     20  H   LIG d   1     -11.478  82.662 117.717  0.00  0.00    -0.090 HD
ATOM     21  H   LIG d   1     -10.352  82.185 116.626  0.00  0.00    -0.090 HD
ENDBRANCH   5  18
BRANCH   3  22
ATOM     22  C   LIG d   1      -8.682  78.307 118.607  0.00  0.00     0.382 C 
ATOM     23  O   LIG d   1      -9.755  77.762 118.255  0.00  0.00    -0.241 OA
ATOM     24  O   LIG d   1      -7.682  77.601 118.839  0.00  0.00    -0.241 OA
ENDBRANCH   3  22
TORSDOF 7
ENDMDL
MODEL 9
REMARK VINA RESULT:      -4.2     32.912     34.683
REMARK  7 active torsions:
REMARK  status: ('A' for Active; 'I' for Inactive)
REMARK    1  A    between atoms: C_2  and  C_3 
REMARK    2  A    between atoms: C_3  and  O_6 
REMARK    3  A    between atoms: C_3  and  C_4 
REMARK    4  A    between atoms: C_7  and  O_6 
REMARK    5  A    between atoms: C_9  and  C_10 
REMARK    6  A    between atoms: N_15  and  C_14 
REMARK    7  A    between atoms: N_20  and  C_19 
REMARK       I    between atoms: C_22  and  N_20 
ROOT
ATOM      1  C   LIG d   1      -2.702  93.782 118.880  0.00  0.00     0.161 C 
ATOM      2  C   LIG d   1      -3.151  95.109 118.775  0.00  0.00     0.016 C 
ATOM      3  C   LIG d   1      -2.283  96.225 118.767  0.00  0.00     0.038 C 
ATOM      4  C   LIG d   1      -0.889  96.081 118.711  0.00  0.00     0.028 C 
ATOM      5  C   LIG d   1      -0.390  94.777 119.323  0.00  0.00    -0.047 C 
ATOM      6  C   LIG d   1      -1.179  93.599 118.707  0.00  0.00     0.091 C 
ENDROOT
BRANCH   1   7
ATOM      7  O   LIG d   1      -3.415  92.949 117.944  0.00  0.00    -0.368 OA
BRANCH   7   8
ATOM      8  C   LIG d   1      -4.305  91.961 118.520  0.00  0.00     0.119 C 
BRANCH   8   9
ATOM      9  C   LIG d   1      -4.082  90.639 117.760  0.00  0.00     0.028 C 
ATOM     10  C   LIG d   1      -3.203  89.652 118.546  0.00  0.00     0.006 C 
ENDBRANCH   8   9
BRANCH   8  11
ATOM     11  C   LIG d   1      -5.773  92.325 118.279  0.00  0.00     0.028 C 
ATOM     12  C   LIG d   1      -6.460  91.394 117.268  0.00  0.00     0.006 C 
ENDBRANCH   8  11
ENDBRANCH   7   8
ENDBRANCH   1   7
BRANCH   6  13
ATOM     13  N   LIG d   1      -0.812  92.292 119.312  0.00  0.00    -0.311 N 
ATOM     14  C   LIG d   1       0.094  91.469 118.787  0.00  0.00     0.210 C 
ATOM     15  C   LIG d   1       0.308  90.164 119.559  0.00  0.00     0.109 C 
ATOM     16  O   LIG d   1       0.764  91.711 117.772  0.00  0.00    -0.276 OA
ATOM     17  H   LIG d   1      -1.285  92.031 120.155  0.00  0.00     0.149 HD
ENDBRANCH   6  13
BRANCH   5  18
ATOM     18  N   LIG d   1       1.061  94.694 119.074  0.00  0.00     0.381 N 
ATOM     19  H   LIG d   1       1.558  95.164 119.803  0.00  0.00    -0.090 HD
ATOM     20  H   LIG d   1       1.268  95.153 118.204  0.00  0.00    -0.090 HD
ATOM     21  H   LIG d   1       1.346  93.740 119.030  0.00  0.00    -0.090 HD
ENDBRANCH   5  18
BRANCH   3  22
ATOM     22  C   LIG d   1      -2.810  97.505 118.856  0.00  0.00     0.382 C 
ATOM     23  O   LIG d   1      -2.256  98.454 118.250  0.00  0.00    -0.241 OA
ATOM     24  O   LIG d   1      -3.805  97.730 119.570  0.00  0.00    -0.241 OA
ENDBRANCH   3  22
TORSDOF 7
ENDMDL
