MODEL 1
REMARK VINA RESULT:      -4.8      0.000      0.000
REMARK  7 active torsions:
REMARK  status: ('A' for Active; 'I' for Inactive)
REMARK    1  A    between atoms: C_2  and  C_3 
REMARK    2  A    between atoms: C_3  and  O_6 
REMARK    3  A    between atoms: C_3  and  C_4 
REMARK    4  A    between atoms: C_7  and  O_6 
REMARK    5  A    between atoms: C_9  and  C_10 
REMARK    6  A    between atoms: N_15  and  C_14 
REMARK    7  A    between atoms: N_20  and  C_19 
REMARK       I    between atoms: C_22  and  N_20 
ROOT
ATOM      1  C   LIG d   1       0.145  57.890 118.010  0.00  0.00     0.161 C 
ATOM      2  C   LIG d   1       1.473  58.331 117.881  0.00  0.00     0.016 C 
ATOM      3  C   LIG d   1       2.078  59.247 118.771  0.00  0.00     0.038 C 
ATOM      4  C   LIG d   1       1.440  59.672 119.946  0.00  0.00     0.028 C 
ATOM      5  C   LIG d   1      -0.082  59.648 119.850  0.00  0.00    -0.047 C 
ATOM      6  C   LIG d   1      -0.531  58.257 119.347  0.00  0.00     0.091 C 
ENDROOT
BRANCH   1   7
ATOM      7  O   LIG d   1       0.079  56.467 117.789  0.00  0.00    -0.368 OA
BRANCH   7   8
ATOM      8  C   LIG d   1       0.620  55.632 118.842  0.00  0.00     0.119 C 
BRANCH   8   9
ATOM      9  C   LIG d   1       1.760  54.795 118.231  0.00  0.00     0.028 C 
ATOM     10  C   LIG d   1       3.134  55.157 118.818  0.00  0.00     0.006 C 
ENDBRANCH   8   9
BRANCH   8  11
ATOM     11  C   LIG d   1      -0.414  54.614 119.332  0.00  0.00     0.028 C 
ATOM     12  C   LIG d   1      -1.630  54.503 118.399  0.00  0.00     0.006 C 
ENDBRANCH   8  11
ENDBRANCH   7   8
ENDBRANCH   1   7
BRANCH   6  13
ATOM     13  N   LIG d   1      -2.001  58.174 119.146  0.00  0.00    -0.311 N 
ATOM     14  C   LIG d   1      -2.833  57.627 120.030  0.00  0.00     0.210 C 
ATOM     15  C   LIG d   1      -4.308  57.627 119.617  0.00  0.00     0.109 C 
ATOM     16  O   LIG d   1      -2.493  57.172 121.133  0.00  0.00    -0.276 OA
ATOM     17  H   LIG d   1      -2.366  58.548 118.292  0.00  0.00     0.149 HD
ENDBRANCH   6  13
BRANCH   5  18
ATOM     18  N   LIG d   1      -0.618  59.981 121.184  0.00  0.00     0.381 N 
ATOM     19  H   LIG d   1      -0.051  59.558 121.892  0.00  0.00    -0.090 HD
ATOM     20  H   LIG d   1      -1.548  59.611 121.262  0.00  0.00    -0.090 HD
ATOM     21  H   LIG d   1      -0.633  60.969 121.308  0.00  0.00    -0.090 HD
ENDBRANCH   5  18
BRANCH   3  22
ATOM     22  C   LIG d   1       3.322  59.780 118.468  0.00  0.00     0.382 C 
ATOM     23  O   LIG d   1       3.466  60.498 117.450  0.00  0.00    -0.241 OA
ATOM     24  O   LIG d   1       4.312  59.514 119.176  0.00  0.00    -0.241 OA
ENDBRANCH   3  22
TORSDOF 7
ENDMDL
MODEL 2
REMARK VINA RESULT:      -4.5     14.184     17.373
REMARK  7 active torsions:
REMARK  status: ('A' for Active; 'I' for Inactive)
REMARK    1  A    between atoms: C_2  and  C_3 
REMARK    2  A    between atoms: C_3  and  O_6 
REMARK    3  A    between atoms: C_3  and  C_4 
REMARK    4  A    between atoms: C_7  and  O_6 
REMARK    5  A    between atoms: C_9  and  C_10 
REMARK    6  A    between atoms: N_15  and  C_14 
REMARK    7  A    between atoms: N_20  and  C_19 
REMARK       I    between atoms: C_22  and  N_20 
ROOT
ATOM      1  C   LIG d   1     -14.445  65.289 121.136  0.00  0.00     0.161 C 
ATOM      2  C   LIG d   1     -13.478  64.954 122.099  0.00  0.00     0.016 C 
ATOM      3  C   LIG d   1     -12.592  63.860 121.964  0.00  0.00     0.038 C 
ATOM      4  C   LIG d   1     -12.511  63.114 120.779  0.00  0.00     0.028 C 
ATOM      5  C   LIG d   1     -13.812  63.099 119.982  0.00  0.00    -0.047 C 
ATOM      6  C   LIG d   1     -14.297  64.554 119.788  0.00  0.00     0.091 C 
ENDROOT
BRANCH   1   7
ATOM      7  O   LIG d   1     -14.455  66.716 120.930  0.00  0.00    -0.368 OA
BRANCH   7   8
ATOM      8  C   LIG d   1     -15.288  67.484 121.833  0.00  0.00     0.119 C 
BRANCH   8   9
ATOM      9  C   LIG d   1     -16.641  67.714 121.133  0.00  0.00     0.028 C 
ATOM     10  C   LIG d   1     -17.484  68.797 121.826  0.00  0.00     0.006 C 
ENDBRANCH   8   9
BRANCH   8  11
ATOM     11  C   LIG d   1     -14.711  68.883 122.069  0.00  0.00     0.028 C 
ATOM     12  C   LIG d   1     -14.157  69.067 123.491  0.00  0.00     0.006 C 
ENDBRANCH   8  11
ENDBRANCH   7   8
ENDBRANCH   1   7
BRANCH   6  13
ATOM     13  N   LIG d   1     -15.608  64.625 119.091  0.00  0.00    -0.311 N 
ATOM     14  C   LIG d   1     -15.766  65.158 117.880  0.00  0.00     0.210 C 
ATOM     15  C   LIG d   1     -17.204  65.149 117.353  0.00  0.00     0.109 C 
ATOM     16  O   LIG d   1     -14.847  65.609 117.180  0.00  0.00    -0.276 OA
ATOM     17  H   LIG d   1     -16.402  64.255 119.574  0.00  0.00     0.149 HD
ENDBRANCH   6  13
BRANCH   5  18
ATOM     18  N   LIG d   1     -13.546  62.403 118.709  0.00  0.00     0.381 N 
ATOM     19  H   LIG d   1     -13.387  61.430 118.881  0.00  0.00    -0.090 HD
ATOM     20  H   LIG d   1     -12.717  62.790 118.294  0.00  0.00    -0.090 HD
ATOM     21  H   LIG d   1     -14.320  62.516 118.091  0.00  0.00    -0.090 HD
ENDBRANCH   5  18
BRANCH   3  22
ATOM     22  C   LIG d   1     -11.802  63.479 123.037  0.00  0.00     0.382 C 
ATOM     23  O   LIG d   1     -10.951  62.568 122.897  0.00  0.00    -0.241 OA
ATOM     24  O   LIG d   1     -11.960  64.005 124.156  0.00  0.00    -0.241 OA
ENDBRANCH   3  22
TORSDOF 7
ENDMDL
MODEL 3
REMARK VINA RESULT:      -4.5     34.973     37.137
REMARK  7 active torsions:
REMARK  status: ('A' for Active; 'I' for Inactive)
REMARK    1  A    between atoms: C_2  and  C_3 
REMARK    2  A    between atoms: C_3  and  O_6 
REMARK    3  A    between atoms: C_3  and  C_4 
REMARK    4  A    between atoms: C_7  and  O_6 
REMARK    5  A    between atoms: C_9  and  C_10 
REMARK    6  A    between atoms: N_15  and  C_14 
REMARK    7  A    between atoms: N_20  and  C_19 
REMARK       I    between atoms: C_22  and  N_20 
ROOT
ATOM      1  C   LIG d   1      -4.854  94.185 119.559  0.00  0.00     0.161 C 
ATOM      2  C   LIG d   1      -3.646  93.671 119.057  0.00  0.00     0.016 C 
ATOM      3  C   LIG d   1      -3.573  92.538 118.215  0.00  0.00     0.038 C 
ATOM      4  C   LIG d   1      -4.723  91.928 117.691  0.00  0.00     0.028 C 
ATOM      5  C   LIG d   1      -5.955  92.101 118.573  0.00  0.00    -0.047 C 
ATOM      6  C   LIG d   1      -6.125  93.600 118.910  0.00  0.00     0.091 C 
ENDROOT
BRANCH   1   7
ATOM      7  O   LIG d   1      -4.854  95.622 119.456  0.00  0.00    -0.368 OA
BRANCH   7   8
ATOM      8  C   LIG d   1      -4.295  96.342 120.582  0.00  0.00     0.119 C 
BRANCH   8   9
ATOM      9  C   LIG d   1      -5.465  96.754 121.496  0.00  0.00     0.028 C 
ATOM     10  C   LIG d   1      -6.660  97.311 120.704  0.00  0.00     0.006 C 
ENDBRANCH   8   9
BRANCH   8  11
ATOM     11  C   LIG d   1      -3.647  97.657 120.136  0.00  0.00     0.028 C 
ATOM     12  C   LIG d   1      -3.349  97.693 118.628  0.00  0.00     0.006 C 
ENDBRANCH   8  11
ENDBRANCH   7   8
ENDBRANCH   1   7
BRANCH   6  13
ATOM     13  N   LIG d   1      -7.259  93.847 119.838  0.00  0.00    -0.311 N 
ATOM     14  C   LIG d   1      -8.465  94.241 119.433  0.00  0.00     0.210 C 
ATOM     15  C   LIG d   1      -9.485  94.458 120.556  0.00  0.00     0.109 C 
ATOM     16  O   LIG d   1      -8.796  94.402 118.249  0.00  0.00    -0.276 OA
ATOM     17  H   LIG d   1      -7.087  93.710 120.815  0.00  0.00     0.149 HD
ENDBRANCH   6  13
BRANCH   5  18
ATOM     18  N   LIG d   1      -7.107  91.537 117.843  0.00  0.00     0.381 N 
ATOM     19  H   LIG d   1      -6.838  91.313 116.906  0.00  0.00    -0.090 HD
ATOM     20  H   LIG d   1      -7.836  92.227 117.806  0.00  0.00    -0.090 HD
ATOM     21  H   LIG d   1      -7.437  90.719 118.307  0.00  0.00    -0.090 HD
ENDBRANCH   5  18
BRANCH   3  22
ATOM     22  C   LIG d   1      -2.339  91.980 117.920  0.00  0.00     0.382 C 
ATOM     23  O   LIG d   1      -2.239  90.744 117.730  0.00  0.00    -0.241 OA
ATOM     24  O   LIG d   1      -1.316  92.690 117.884  0.00  0.00    -0.241 OA
ENDBRANCH   3  22
TORSDOF 7
ENDMDL
MODEL 4
REMARK VINA RESULT:      -4.4     20.761     23.096
REMARK  7 active torsions:
REMARK  status: ('A' for Active; 'I' for Inactive)
REMARK    1  A    between atoms: C_2  and  C_3 
REMARK    2  A    between atoms: C_3  and  O_6 
REMARK    3  A    between atoms: C_3  and  C_4 
REMARK    4  A    between atoms: C_7  and  O_6 
REMARK    5  A    between atoms: C_9  and  C_10 
REMARK    6  A    between atoms: N_15  and  C_14 
REMARK    7  A    between atoms: N_20  and  C_19 
REMARK       I    between atoms: C_22  and  N_20 
ROOT
ATOM      1  C   LIG d   1      -9.490  78.006 118.697  0.00  0.00     0.161 C 
ATOM      2  C   LIG d   1     -10.707  77.307 118.769  0.00  0.00     0.016 C 
ATOM      3  C   LIG d   1     -10.859  75.964 118.352  0.00  0.00     0.038 C 
ATOM      4  C   LIG d   1      -9.762  75.177 117.972  0.00  0.00     0.028 C 
ATOM      5  C   LIG d   1      -8.602  75.988 117.405  0.00  0.00    -0.047 C 
ATOM      6  C   LIG d   1      -8.258  77.129 118.389  0.00  0.00     0.091 C 
ENDROOT
BRANCH   1   7
ATOM      7  O   LIG d   1      -9.284  78.753 119.912  0.00  0.00    -0.368 OA
BRANCH   7   8
ATOM      8  C   LIG d   1      -9.808  80.103 119.927  0.00  0.00     0.119 C 
BRANCH   8   9
ATOM      9  C   LIG d   1      -9.545  80.718 118.539  0.00  0.00     0.028 C 
ATOM     10  C   LIG d   1     -10.628  81.731 118.130  0.00  0.00     0.006 C 
ENDBRANCH   8   9
BRANCH   8  11
ATOM     11  C   LIG d   1      -9.042  80.988 120.915  0.00  0.00     0.028 C 
ATOM     12  C   LIG d   1      -7.547  81.102 120.577  0.00  0.00     0.006 C 
ENDBRANCH   8  11
ENDBRANCH   7   8
ENDBRANCH   1   7
BRANCH   6  13
ATOM     13  N   LIG d   1      -7.189  78.022 117.872  0.00  0.00    -0.311 N 
ATOM     14  C   LIG d   1      -6.109  78.357 118.575  0.00  0.00     0.210 C 
ATOM     15  C   LIG d   1      -5.140  79.305 117.861  0.00  0.00     0.109 C 
ATOM     16  O   LIG d   1      -5.845  77.933 119.711  0.00  0.00    -0.276 OA
ATOM     17  H   LIG d   1      -7.307  78.386 116.947  0.00  0.00     0.149 HD
ENDBRANCH   6  13
BRANCH   5  18
ATOM     18  N   LIG d   1      -7.477  75.060 117.180  0.00  0.00     0.381 N 
ATOM     19  H   LIG d   1      -6.624  75.481 117.490  0.00  0.00    -0.090 HD
ATOM     20  H   LIG d   1      -7.399  74.877 116.195  0.00  0.00    -0.090 HD
ATOM     21  H   LIG d   1      -7.634  74.209 117.672  0.00  0.00    -0.090 HD
ENDBRANCH   5  18
BRANCH   3  22
ATOM     22  C   LIG d   1     -12.127  75.408 118.274  0.00  0.00     0.382 C 
ATOM     23  O   LIG d   1     -13.133  76.098 118.568  0.00  0.00    -0.241 OA
ATOM     24  O   LIG d   1     -12.274  74.213 117.955  0.00  0.00    -0.241 OA
ENDBRANCH   3  22
TORSDOF 7
ENDMDL
MODEL 5
REMARK VINA RESULT:      -4.4     14.269     17.127
REMARK  7 active torsions:
REMARK  status: ('A' for Active; 'I' for Inactive)
REMARK    1  A    between atoms: C_2  and  C_3 
REMARK    2  A    between atoms: C_3  and  O_6 
REMARK    3  A    between atoms: C_3  and  C_4 
REMARK    4  A    between atoms: C_7  and  O_6 
REMARK    5  A    between atoms: C_9  and  C_10 
REMARK    6  A    between atoms: N_15  and  C_14 
REMARK    7  A    between atoms: N_20  and  C_19 
REMARK       I    between atoms: C_22  and  N_20 
ROOT
ATOM      1  C   LIG d   1     -15.109  64.502 121.498  0.00  0.00     0.161 C 
ATOM      2  C   LIG d   1     -14.015  64.481 122.379  0.00  0.00     0.016 C 
ATOM      3  C   LIG d   1     -12.793  63.831 122.087  0.00  0.00     0.038 C 
ATOM      4  C   LIG d   1     -12.528  63.283 120.823  0.00  0.00     0.028 C 
ATOM      5  C   LIG d   1     -13.784  62.840 120.080  0.00  0.00    -0.047 C 
ATOM      6  C   LIG d   1     -14.799  64.006 120.070  0.00  0.00     0.091 C 
ENDROOT
BRANCH   1   7
ATOM      7  O   LIG d   1     -15.676  65.826 121.456  0.00  0.00    -0.368 OA
BRANCH   7   8
ATOM      8  C   LIG d   1     -15.393  66.604 120.267  0.00  0.00     0.119 C 
BRANCH   8   9
ATOM      9  C   LIG d   1     -14.405  67.717 120.666  0.00  0.00     0.028 C 
ATOM     10  C   LIG d   1     -14.821  68.433 121.962  0.00  0.00     0.006 C 
ENDBRANCH   8   9
BRANCH   8  11
ATOM     11  C   LIG d   1     -16.644  67.332 119.766  0.00  0.00     0.028 C 
ATOM     12  C   LIG d   1     -16.759  67.333 118.233  0.00  0.00     0.006 C 
ENDBRANCH   8  11
ENDBRANCH   7   8
ENDBRANCH   1   7
BRANCH   6  13
ATOM     13  N   LIG d   1     -16.089  63.629 119.436  0.00  0.00    -0.311 N 
ATOM     14  C   LIG d   1     -16.328  63.752 118.131  0.00  0.00     0.210 C 
ATOM     15  C   LIG d   1     -17.731  63.324 117.688  0.00  0.00     0.109 C 
ATOM     16  O   LIG d   1     -15.501  64.146 117.295  0.00  0.00    -0.276 OA
ATOM     17  H   LIG d   1     -16.806  63.271 120.037  0.00  0.00     0.149 HD
ENDBRANCH   6  13
BRANCH   5  18
ATOM     18  N   LIG d   1     -13.375  62.418 118.727  0.00  0.00     0.381 N 
ATOM     19  H   LIG d   1     -13.077  63.215 118.199  0.00  0.00    -0.090 HD
ATOM     20  H   LIG d   1     -14.166  62.009 118.261  0.00  0.00    -0.090 HD
ATOM     21  H   LIG d   1     -12.635  61.754 118.786  0.00  0.00    -0.090 HD
ENDBRANCH   5  18
BRANCH   3  22
ATOM     22  C   LIG d   1     -11.836  63.689 123.080  0.00  0.00     0.382 C 
ATOM     23  O   LIG d   1     -11.817  64.484 124.051  0.00  0.00    -0.241 OA
ATOM     24  O   LIG d   1     -10.964  62.804 122.995  0.00  0.00    -0.241 OA
ENDBRANCH   3  22
TORSDOF 7
ENDMDL
MODEL 6
REMARK VINA RESULT:      -4.3     19.559     21.914
REMARK  7 active torsions:
REMARK  status: ('A' for Active; 'I' for Inactive)
REMARK    1  A    between atoms: C_2  and  C_3 
REMARK    2  A    between atoms: C_3  and  O_6 
REMARK    3  A    between atoms: C_3  and  C_4 
REMARK    4  A    between atoms: C_7  and  O_6 
REMARK    5  A    between atoms: C_9  and  C_10 
REMARK    6  A    between atoms: N_15  and  C_14 
REMARK    7  A    between atoms: N_20  and  C_19 
REMARK       I    between atoms: C_22  and  N_20 
ROOT
ATOM      1  C   LIG d   1      -8.785  76.989 118.547  0.00  0.00     0.161 C 
ATOM      2  C   LIG d   1     -10.169  76.778 118.660  0.00  0.00     0.016 C 
ATOM      3  C   LIG d   1     -10.802  75.562 118.314  0.00  0.00     0.038 C 
ATOM      4  C   LIG d   1     -10.069  74.416 117.973  0.00  0.00     0.028 C 
ATOM      5  C   LIG d   1      -8.708  74.728 117.360  0.00  0.00    -0.047 C 
ATOM      6  C   LIG d   1      -7.956  75.715 118.282  0.00  0.00     0.091 C 
ENDROOT
BRANCH   1   7
ATOM      7  O   LIG d   1      -8.297  77.669 119.720  0.00  0.00    -0.368 OA
BRANCH   7   8
ATOM      8  C   LIG d   1      -8.144  79.106 119.607  0.00  0.00     0.119 C 
BRANCH   8   9
ATOM      9  C   LIG d   1      -9.547  79.732 119.729  0.00  0.00     0.028 C 
ATOM     10  C   LIG d   1      -9.781  80.851 118.701  0.00  0.00     0.006 C 
ENDBRANCH   8   9
BRANCH   8  11
ATOM     11  C   LIG d   1      -7.642  79.505 118.216  0.00  0.00     0.028 C 
ATOM     12  C   LIG d   1      -6.118  79.703 118.167  0.00  0.00     0.006 C 
ENDBRANCH   8  11
ENDBRANCH   7   8
ENDBRANCH   1   7
BRANCH   6  13
ATOM     13  N   LIG d   1      -6.649  76.138 117.714  0.00  0.00    -0.311 N 
ATOM     14  C   LIG d   1      -5.481  75.907 118.312  0.00  0.00     0.210 C 
ATOM     15  C   LIG d   1      -4.256  76.446 117.566  0.00  0.00     0.109 C 
ATOM     16  O   LIG d   1      -5.341  75.280 119.372  0.00  0.00    -0.276 OA
ATOM     17  H   LIG d   1      -6.668  76.626 116.840  0.00  0.00     0.149 HD
ENDBRANCH   6  13
BRANCH   5  18
ATOM     18  N   LIG d   1      -7.996  73.448 117.180  0.00  0.00     0.381 N 
ATOM     19  H   LIG d   1      -8.473  72.723 117.677  0.00  0.00    -0.090 HD
ATOM     20  H   LIG d   1      -7.070  73.535 117.561  0.00  0.00    -0.090 HD
ATOM     21  H   LIG d   1      -7.944  73.220 116.212  0.00  0.00    -0.090 HD
ENDBRANCH   5  18
BRANCH   3  22
ATOM     22  C   LIG d   1     -12.186  75.496 118.270  0.00  0.00     0.382 C 
ATOM     23  O   LIG d   1     -12.751  74.455 117.856  0.00  0.00    -0.241 OA
ATOM     24  O   LIG d   1     -12.876  76.480 118.596  0.00  0.00    -0.241 OA
ENDBRANCH   3  22
TORSDOF 7
ENDMDL
MODEL 7
REMARK VINA RESULT:      -4.3     21.556     23.681
REMARK  7 active torsions:
REMARK  status: ('A' for Active; 'I' for Inactive)
REMARK    1  A    between atoms: C_2  and  C_3 
REMARK    2  A    between atoms: C_3  and  O_6 
REMARK    3  A    between atoms: C_3  and  C_4 
REMARK    4  A    between atoms: C_7  and  O_6 
REMARK    5  A    between atoms: C_9  and  C_10 
REMARK    6  A    between atoms: N_15  and  C_14 
REMARK    7  A    between atoms: N_20  and  C_19 
REMARK       I    between atoms: C_22  and  N_20 
ROOT
ATOM      1  C   LIG d   1     -11.060  77.475 120.088  0.00  0.00     0.161 C 
ATOM      2  C   LIG d   1     -11.954  76.822 120.951  0.00  0.00     0.016 C 
ATOM      3  C   LIG d   1     -12.643  77.475 121.999  0.00  0.00     0.038 C 
ATOM      4  C   LIG d   1     -12.598  78.868 122.160  0.00  0.00     0.028 C 
ATOM      5  C   LIG d   1     -11.315  79.498 121.627  0.00  0.00    -0.047 C 
ATOM      6  C   LIG d   1     -11.083  79.016 120.177  0.00  0.00     0.091 C 
ENDROOT
BRANCH   1   7
ATOM      7  O   LIG d   1     -11.291  77.049 118.730  0.00  0.00    -0.368 OA
BRANCH   7   8
ATOM      8  C   LIG d   1     -10.269  76.206 118.144  0.00  0.00     0.119 C 
BRANCH   8   9
ATOM      9  C   LIG d   1     -10.758  74.748 118.244  0.00  0.00     0.028 C 
ATOM     10  C   LIG d   1     -12.219  74.587 117.793  0.00  0.00     0.006 C 
ENDBRANCH   8   9
BRANCH   8  11
ATOM     11  C   LIG d   1      -8.972  76.256 118.957  0.00  0.00     0.028 C 
ATOM     12  C   LIG d   1      -7.790  76.827 118.158  0.00  0.00     0.006 C 
ENDBRANCH   8  11
ENDBRANCH   7   8
ENDBRANCH   1   7
BRANCH   6  13
ATOM     13  N   LIG d   1      -9.805  79.519 119.610  0.00  0.00    -0.311 N 
ATOM     14  C   LIG d   1      -9.741  80.397 118.611  0.00  0.00     0.210 C 
ATOM     15  C   LIG d   1      -8.323  80.767 118.165  0.00  0.00     0.109 C 
ATOM     16  O   LIG d   1     -10.724  80.928 118.073  0.00  0.00    -0.276 OA
ATOM     17  H   LIG d   1      -8.958  79.163 120.009  0.00  0.00     0.149 HD
ENDBRANCH   6  13
BRANCH   5  18
ATOM     18  N   LIG d   1     -11.461  80.963 121.733  0.00  0.00     0.381 N 
ATOM     19  H   LIG d   1     -11.239  81.389 120.856  0.00  0.00    -0.090 HD
ATOM     20  H   LIG d   1     -10.815  81.305 122.423  0.00  0.00    -0.090 HD
ATOM     21  H   LIG d   1     -12.393  81.194 121.997  0.00  0.00    -0.090 HD
ENDBRANCH   5  18
BRANCH   3  22
ATOM     22  C   LIG d   1     -13.355  76.728 122.924  0.00  0.00     0.382 C 
ATOM     23  O   LIG d   1     -14.482  76.266 122.623  0.00  0.00    -0.241 OA
ATOM     24  O   LIG d   1     -12.905  76.548 124.072  0.00  0.00    -0.241 OA
ENDBRANCH   3  22
TORSDOF 7
ENDMDL
MODEL 8
REMARK VINA RESULT:      -4.2      2.697      4.229
REMARK  7 active torsions:
REMARK  status: ('A' for Active; 'I' for Inactive)
REMARK    1  A    between atoms: C_2  and  C_3 
REMARK    2  A    between atoms: C_3  and  O_6 
REMARK    3  A    between atoms: C_3  and  C_4 
REMARK    4  A    between atoms: C_7  and  O_6 
REMARK    5  A    between atoms: C_9  and  C_10 
REMARK    6  A    between atoms: N_15  and  C_14 
REMARK    7  A    between atoms: N_20  and  C_19 
REMARK       I    between atoms: C_22  and  N_20 
ROOT
ATOM      1  C   LIG d   1      -1.302  60.411 120.115  0.00  0.00     0.161 C 
ATOM      2  C   LIG d   1      -0.365  60.026 119.142  0.00  0.00     0.016 C 
ATOM      3  C   LIG d   1       0.977  59.696 119.441  0.00  0.00     0.038 C 
ATOM      4  C   LIG d   1       1.436  59.582 120.762  0.00  0.00     0.028 C 
ATOM      5  C   LIG d   1       0.662  60.451 121.749  0.00  0.00    -0.047 C 
ATOM      6  C   LIG d   1      -0.850  60.185 121.573  0.00  0.00     0.091 C 
ENDROOT
BRANCH   1   7
ATOM      7  O   LIG d   1      -2.559  59.748 119.872  0.00  0.00    -0.368 OA
BRANCH   7   8
ATOM      8  C   LIG d   1      -2.768  58.499 120.575  0.00  0.00     0.119 C 
BRANCH   8   9
ATOM      9  C   LIG d   1      -2.896  57.387 119.516  0.00  0.00     0.028 C 
ATOM     10  C   LIG d   1      -4.350  57.172 119.063  0.00  0.00     0.006 C 
ENDBRANCH   8   9
BRANCH   8  11
ATOM     11  C   LIG d   1      -4.102  58.498 121.327  0.00  0.00     0.028 C 
ATOM     12  C   LIG d   1      -4.044  57.709 122.644  0.00  0.00     0.006 C 
ENDBRANCH   8  11
ENDBRANCH   7   8
ENDBRANCH   1   7
BRANCH   6  13
ATOM     13  N   LIG d   1      -1.683  61.055 122.443  0.00  0.00    -0.311 N 
ATOM     14  C   LIG d   1      -2.053  60.720 123.678  0.00  0.00     0.210 C 
ATOM     15  C   LIG d   1      -2.928  61.754 124.394  0.00  0.00     0.109 C 
ATOM     16  O   LIG d   1      -1.713  59.679 124.259  0.00  0.00    -0.276 OA
ATOM     17  H   LIG d   1      -1.978  61.933 122.061  0.00  0.00     0.149 HD
ENDBRANCH   6  13
BRANCH   5  18
ATOM     18  N   LIG d   1       1.153  60.131 123.103  0.00  0.00     0.381 N 
ATOM     19  H   LIG d   1       1.535  60.952 123.527  0.00  0.00    -0.090 HD
ATOM     20  H   LIG d   1       1.883  59.444 123.030  0.00  0.00    -0.090 HD
ATOM     21  H   LIG d   1       0.407  59.776 123.660  0.00  0.00    -0.090 HD
ENDBRANCH   5  18
BRANCH   3  22
ATOM     22  C   LIG d   1       1.886  59.516 118.410  0.00  0.00     0.382 C 
ATOM     23  O   LIG d   1       2.487  60.504 117.923  0.00  0.00    -0.241 OA
ATOM     24  O   LIG d   1       2.081  58.382 117.931  0.00  0.00    -0.241 OA
ENDBRANCH   3  22
TORSDOF 7
ENDMDL
MODEL 9
REMARK VINA RESULT:      -4.1     21.740     23.744
REMARK  7 active torsions:
REMARK  status: ('A' for Active; 'I' for Inactive)
REMARK    1  A    between atoms: C_2  and  C_3 
REMARK    2  A    between atoms: C_3  and  O_6 
REMARK    3  A    between atoms: C_3  and  C_4 
REMARK    4  A    between atoms: C_7  and  O_6 
REMARK    5  A    between atoms: C_9  and  C_10 
REMARK    6  A    between atoms: N_15  and  C_14 
REMARK    7  A    between atoms: N_20  and  C_19 
REMARK       I    between atoms: C_22  and  N_20 
ROOT
ATOM      1  C   LIG d   1     -10.312  78.014 119.832  0.00  0.00     0.161 C 
ATOM      2  C   LIG d   1     -11.251  77.494 120.739  0.00  0.00     0.016 C 
ATOM      3  C   LIG d   1     -11.975  78.293 121.653  0.00  0.00     0.038 C 
ATOM      4  C   LIG d   1     -11.920  79.695 121.618  0.00  0.00     0.028 C 
ATOM      5  C   LIG d   1     -10.609  80.236 121.058  0.00  0.00    -0.047 C 
ATOM      6  C   LIG d   1     -10.321  79.551 119.703  0.00  0.00     0.091 C 
ENDROOT
BRANCH   1   7
ATOM      7  O   LIG d   1     -10.491  77.401 118.540  0.00  0.00    -0.368 OA
BRANCH   7   8
ATOM      8  C   LIG d   1     -10.314  75.964 118.486  0.00  0.00     0.119 C 
BRANCH   8   9
ATOM      9  C   LIG d   1      -9.239  75.670 117.422  0.00  0.00     0.028 C 
ATOM     10  C   LIG d   1      -7.941  76.458 117.666  0.00  0.00     0.006 C 
ENDBRANCH   8   9
BRANCH   8  11
ATOM     11  C   LIG d   1     -11.582  75.265 117.985  0.00  0.00     0.028 C 
ATOM     12  C   LIG d   1     -11.376  73.762 117.740  0.00  0.00     0.006 C 
ENDBRANCH   8  11
ENDBRANCH   7   8
ENDBRANCH   1   7
BRANCH   6  13
ATOM     13  N   LIG d   1      -9.014  79.962 119.127  0.00  0.00    -0.311 N 
ATOM     14  C   LIG d   1      -8.878  80.957 118.252  0.00  0.00     0.210 C 
ATOM     15  C   LIG d   1      -7.446  81.202 117.769  0.00  0.00     0.109 C 
ATOM     16  O   LIG d   1      -9.804  81.681 117.855  0.00  0.00    -0.276 OA
ATOM     17  H   LIG d   1      -8.206  79.448 119.418  0.00  0.00     0.149 HD
ENDBRANCH   6  13
BRANCH   5  18
ATOM     18  N   LIG d   1     -10.742  81.701 120.950  0.00  0.00     0.381 N 
ATOM     19  H   LIG d   1     -11.677  81.974 121.177  0.00  0.00    -0.090 HD
ATOM     20  H   LIG d   1     -10.554  81.975 120.001  0.00  0.00    -0.090 HD
ATOM     21  H   LIG d   1     -10.099  82.148 121.566  0.00  0.00    -0.090 HD
ENDBRANCH   5  18
BRANCH   3  22
ATOM     22  C   LIG d   1     -12.735  77.689 122.643  0.00  0.00     0.382 C 
ATOM     23  O   LIG d   1     -12.391  76.574 123.105  0.00  0.00    -0.241 OA
ATOM     24  O   LIG d   1     -13.785  78.223 123.048  0.00  0.00    -0.241 OA
ENDBRANCH   3  22
TORSDOF 7
ENDMDL
