MODEL 1
REMARK VINA RESULT:      -5.1      0.000      0.000
REMARK  7 active torsions:
REMARK  status: ('A' for Active; 'I' for Inactive)
REMARK    1  A    between atoms: C_2  and  C_3 
REMARK    2  A    between atoms: C_3  and  O_6 
REMARK    3  A    between atoms: C_3  and  C_4 
REMARK    4  A    between atoms: C_7  and  O_6 
REMARK    5  A    between atoms: C_9  and  C_10 
REMARK    6  A    between atoms: N_15  and  C_14 
REMARK    7  A    between atoms: N_20  and  C_19 
REMARK       I    between atoms: C_22  and  N_20 
ROOT
ATOM      1  C   LIG d   1       0.485  59.517 121.116  0.00  0.00     0.161 C 
ATOM      2  C   LIG d   1      -0.008  59.848 119.843  0.00  0.00     0.016 C 
ATOM      3  C   LIG d   1      -1.299  60.379 119.623  0.00  0.00     0.038 C 
ATOM      4  C   LIG d   1      -2.136  60.759 120.683  0.00  0.00     0.028 C 
ATOM      5  C   LIG d   1      -1.880  59.976 121.966  0.00  0.00    -0.047 C 
ATOM      6  C   LIG d   1      -0.371  60.028 122.294  0.00  0.00     0.091 C 
ENDROOT
BRANCH   1   7
ATOM      7  O   LIG d   1       1.845  59.977 121.248  0.00  0.00    -0.368 OA
BRANCH   7   8
ATOM      8  C   LIG d   1       2.877  59.014 120.921  0.00  0.00     0.119 C 
BRANCH   8   9
ATOM      9  C   LIG d   1       3.878  58.993 122.093  0.00  0.00     0.028 C 
ATOM     10  C   LIG d   1       3.401  58.106 123.256  0.00  0.00     0.006 C 
ENDBRANCH   8   9
BRANCH   8  11
ATOM     11  C   LIG d   1       3.690  59.462 119.702  0.00  0.00     0.028 C 
ATOM     12  C   LIG d   1       3.242  58.774 118.403  0.00  0.00     0.006 C 
ENDBRANCH   8  11
ENDBRANCH   7   8
ENDBRANCH   1   7
BRANCH   6  13
ATOM     13  N   LIG d   1      -0.022  59.216 123.489  0.00  0.00    -0.311 N 
ATOM     14  C   LIG d   1       0.064  59.721 124.719  0.00  0.00     0.210 C 
ATOM     15  C   LIG d   1       0.457  58.715 125.805  0.00  0.00     0.109 C 
ATOM     16  O   LIG d   1      -0.180  60.900 125.018  0.00  0.00    -0.276 OA
ATOM     17  H   LIG d   1       0.161  58.243 123.342  0.00  0.00     0.149 HD
ENDBRANCH   6  13
BRANCH   5  18
ATOM     18  N   LIG d   1      -2.722  60.567 123.024  0.00  0.00     0.381 N 
ATOM     19  H   LIG d   1      -2.553  60.100 123.892  0.00  0.00    -0.090 HD
ATOM     20  H   LIG d   1      -3.689  60.438 122.780  0.00  0.00    -0.090 HD
ATOM     21  H   LIG d   1      -2.522  61.538 123.116  0.00  0.00    -0.090 HD
ENDBRANCH   5  18
BRANCH   3  22
ATOM     22  C   LIG d   1      -1.782  60.498 118.328  0.00  0.00     0.382 C 
ATOM     23  O   LIG d   1      -1.483  61.502 117.638  0.00  0.00    -0.241 OA
ATOM     24  O   LIG d   1      -2.548  59.636 117.858  0.00  0.00    -0.241 OA
ENDBRANCH   3  22
TORSDOF 7
ENDMDL
MODEL 2
REMARK VINA RESULT:      -4.6     12.984     16.094
REMARK  7 active torsions:
REMARK  status: ('A' for Active; 'I' for Inactive)
REMARK    1  A    between atoms: C_2  and  C_3 
REMARK    2  A    between atoms: C_3  and  O_6 
REMARK    3  A    between atoms: C_3  and  C_4 
REMARK    4  A    between atoms: C_7  and  O_6 
REMARK    5  A    between atoms: C_9  and  C_10 
REMARK    6  A    between atoms: N_15  and  C_14 
REMARK    7  A    between atoms: N_20  and  C_19 
REMARK       I    between atoms: C_22  and  N_20 
ROOT
ATOM      1  C   LIG d   1     -13.126  66.473 121.688  0.00  0.00     0.161 C 
ATOM      2  C   LIG d   1     -11.959  65.862 122.175  0.00  0.00     0.016 C 
ATOM      3  C   LIG d   1     -11.407  64.685 121.619  0.00  0.00     0.038 C 
ATOM      4  C   LIG d   1     -11.905  64.119 120.436  0.00  0.00     0.028 C 
ATOM      5  C   LIG d   1     -13.383  64.411 120.200  0.00  0.00    -0.047 C 
ATOM      6  C   LIG d   1     -13.620  65.933 120.329  0.00  0.00     0.091 C 
ENDROOT
BRANCH   1   7
ATOM      7  O   LIG d   1     -12.940  67.901 121.622  0.00  0.00    -0.368 OA
BRANCH   7   8
ATOM      8  C   LIG d   1     -13.224  68.638 122.836  0.00  0.00     0.119 C 
BRANCH   8   9
ATOM      9  C   LIG d   1     -14.692  68.359 123.214  0.00  0.00     0.028 C 
ATOM     10  C   LIG d   1     -15.673  69.288 122.479  0.00  0.00     0.006 C 
ENDBRANCH   8   9
BRANCH   8  11
ATOM     11  C   LIG d   1     -13.146  70.149 122.602  0.00  0.00     0.028 C 
ATOM     12  C   LIG d   1     -12.158  70.848 123.550  0.00  0.00     0.006 C 
ENDBRANCH   8  11
ENDBRANCH   7   8
ENDBRANCH   1   7
BRANCH   6  13
ATOM     13  N   LIG d   1     -15.055  66.296 120.196  0.00  0.00    -0.311 N 
ATOM     14  C   LIG d   1     -15.617  66.654 119.043  0.00  0.00     0.210 C 
ATOM     15  C   LIG d   1     -17.105  67.008 119.130  0.00  0.00     0.109 C 
ATOM     16  O   LIG d   1     -15.032  66.682 117.950  0.00  0.00    -0.276 OA
ATOM     17  H   LIG d   1     -15.612  66.271 121.028  0.00  0.00     0.149 HD
ENDBRANCH   6  13
BRANCH   5  18
ATOM     18  N   LIG d   1     -13.735  63.882 118.869  0.00  0.00     0.381 N 
ATOM     19  H   LIG d   1     -14.715  64.003 118.705  0.00  0.00    -0.090 HD
ATOM     20  H   LIG d   1     -13.531  62.898 118.846  0.00  0.00    -0.090 HD
ATOM     21  H   LIG d   1     -13.212  64.354 118.165  0.00  0.00    -0.090 HD
ENDBRANCH   5  18
BRANCH   3  22
ATOM     22  C   LIG d   1     -10.369  64.038 122.272  0.00  0.00     0.382 C 
ATOM     23  O   LIG d   1      -9.472  63.464 121.609  0.00  0.00    -0.241 OA
ATOM     24  O   LIG d   1     -10.342  63.983 123.517  0.00  0.00    -0.241 OA
ENDBRANCH   3  22
TORSDOF 7
ENDMDL
MODEL 3
REMARK VINA RESULT:      -4.3     21.271     23.004
REMARK  7 active torsions:
REMARK  status: ('A' for Active; 'I' for Inactive)
REMARK    1  A    between atoms: C_2  and  C_3 
REMARK    2  A    between atoms: C_3  and  O_6 
REMARK    3  A    between atoms: C_3  and  C_4 
REMARK    4  A    between atoms: C_7  and  O_6 
REMARK    5  A    between atoms: C_9  and  C_10 
REMARK    6  A    between atoms: N_15  and  C_14 
REMARK    7  A    between atoms: N_20  and  C_19 
REMARK       I    between atoms: C_22  and  N_20 
ROOT
ATOM      1  C   LIG d   1      -7.518  81.248 119.490  0.00  0.00     0.161 C 
ATOM      2  C   LIG d   1      -7.528  79.921 119.029  0.00  0.00     0.016 C 
ATOM      3  C   LIG d   1      -8.550  79.390 118.209  0.00  0.00     0.038 C 
ATOM      4  C   LIG d   1      -9.561  80.199 117.667  0.00  0.00     0.028 C 
ATOM      5  C   LIG d   1      -9.872  81.428 118.513  0.00  0.00    -0.047 C 
ATOM      6  C   LIG d   1      -8.553  82.174 118.818  0.00  0.00     0.091 C 
ENDROOT
BRANCH   1   7
ATOM      7  O   LIG d   1      -6.193  81.800 119.361  0.00  0.00    -0.368 OA
BRANCH   7   8
ATOM      8  C   LIG d   1      -5.096  80.896 119.642  0.00  0.00     0.119 C 
BRANCH   8   9
ATOM      9  C   LIG d   1      -4.313  81.475 120.837  0.00  0.00     0.028 C 
ATOM     10  C   LIG d   1      -2.863  81.834 120.471  0.00  0.00     0.006 C 
ENDBRANCH   8   9
BRANCH   8  11
ATOM     11  C   LIG d   1      -4.095  80.857 118.483  0.00  0.00     0.028 C 
ATOM     12  C   LIG d   1      -4.670  81.436 117.180  0.00  0.00     0.006 C 
ENDBRANCH   8  11
ENDBRANCH   7   8
ENDBRANCH   1   7
BRANCH   6  13
ATOM     13  N   LIG d   1      -8.757  83.344 119.712  0.00  0.00    -0.311 N 
ATOM     14  C   LIG d   1      -9.332  83.259 120.911  0.00  0.00     0.210 C 
ATOM     15  C   LIG d   1      -9.463  84.589 121.660  0.00  0.00     0.109 C 
ATOM     16  O   LIG d   1      -9.717  82.205 121.437  0.00  0.00    -0.276 OA
ATOM     17  H   LIG d   1      -8.446  84.234 119.377  0.00  0.00     0.149 HD
ENDBRANCH   6  13
BRANCH   5  18
ATOM     18  N   LIG d   1     -10.841  82.251 117.764  0.00  0.00     0.381 N 
ATOM     19  H   LIG d   1     -11.773  81.993 118.021  0.00  0.00    -0.090 HD
ATOM     20  H   LIG d   1     -10.725  82.076 116.782  0.00  0.00    -0.090 HD
ATOM     21  H   LIG d   1     -10.690  83.216 117.958  0.00  0.00    -0.090 HD
ENDBRANCH   5  18
BRANCH   3  22
ATOM     22  C   LIG d   1      -8.590  78.028 117.956  0.00  0.00     0.382 C 
ATOM     23  O   LIG d   1      -9.658  77.390 118.122  0.00  0.00    -0.241 OA
ATOM     24  O   LIG d   1      -7.561  77.419 117.608  0.00  0.00    -0.241 OA
ENDBRANCH   3  22
TORSDOF 7
ENDMDL
MODEL 4
REMARK VINA RESULT:      -4.2     13.118     16.452
REMARK  7 active torsions:
REMARK  status: ('A' for Active; 'I' for Inactive)
REMARK    1  A    between atoms: C_2  and  C_3 
REMARK    2  A    between atoms: C_3  and  O_6 
REMARK    3  A    between atoms: C_3  and  C_4 
REMARK    4  A    between atoms: C_7  and  O_6 
REMARK    5  A    between atoms: C_9  and  C_10 
REMARK    6  A    between atoms: N_15  and  C_14 
REMARK    7  A    between atoms: N_20  and  C_19 
REMARK       I    between atoms: C_22  and  N_20 
ROOT
ATOM      1  C   LIG d   1     -14.032  65.386 121.095  0.00  0.00     0.161 C 
ATOM      2  C   LIG d   1     -13.063  65.740 122.048  0.00  0.00     0.016 C 
ATOM      3  C   LIG d   1     -11.768  65.176 122.088  0.00  0.00     0.038 C 
ATOM      4  C   LIG d   1     -11.299  64.323 121.077  0.00  0.00     0.028 C 
ATOM      5  C   LIG d   1     -12.410  63.548 120.376  0.00  0.00    -0.047 C 
ATOM      6  C   LIG d   1     -13.503  64.540 119.918  0.00  0.00     0.091 C 
ENDROOT
BRANCH   1   7
ATOM      7  O   LIG d   1     -14.691  66.571 120.604  0.00  0.00    -0.368 OA
BRANCH   7   8
ATOM      8  C   LIG d   1     -15.971  66.883 121.205  0.00  0.00     0.119 C 
BRANCH   8   9
ATOM      9  C   LIG d   1     -16.808  67.631 120.149  0.00  0.00     0.028 C 
ATOM     10  C   LIG d   1     -16.484  67.178 118.715  0.00  0.00     0.006 C 
ENDBRANCH   8   9
BRANCH   8  11
ATOM     11  C   LIG d   1     -15.816  67.866 122.369  0.00  0.00     0.028 C 
ATOM     12  C   LIG d   1     -16.448  69.237 122.080  0.00  0.00     0.006 C 
ENDBRANCH   8  11
ENDBRANCH   7   8
ENDBRANCH   1   7
BRANCH   6  13
ATOM     13  N   LIG d   1     -14.667  63.855 119.298  0.00  0.00    -0.311 N 
ATOM     14  C   LIG d   1     -14.991  63.980 118.012  0.00  0.00     0.210 C 
ATOM     15  C   LIG d   1     -16.240  63.204 117.582  0.00  0.00     0.109 C 
ATOM     16  O   LIG d   1     -14.345  64.635 117.180  0.00  0.00    -0.276 OA
ATOM     17  H   LIG d   1     -15.228  63.278 119.894  0.00  0.00     0.149 HD
ENDBRANCH   6  13
BRANCH   5  18
ATOM     18  N   LIG d   1     -11.798  62.805 119.258  0.00  0.00     0.381 N 
ATOM     19  H   LIG d   1     -12.297  62.995 118.412  0.00  0.00    -0.090 HD
ATOM     20  H   LIG d   1     -11.862  61.820 119.448  0.00  0.00    -0.090 HD
ATOM     21  H   LIG d   1     -10.843  63.070 119.155  0.00  0.00    -0.090 HD
ENDBRANCH   5  18
BRANCH   3  22
ATOM     22  C   LIG d   1     -10.939  65.433 123.169  0.00  0.00     0.382 C 
ATOM     23  O   LIG d   1     -11.372  66.083 124.151  0.00  0.00    -0.241 OA
ATOM     24  O   LIG d   1      -9.750  65.061 123.156  0.00  0.00    -0.241 OA
ENDBRANCH   3  22
TORSDOF 7
ENDMDL
MODEL 5
REMARK VINA RESULT:      -4.2     32.543     34.175
REMARK  7 active torsions:
REMARK  status: ('A' for Active; 'I' for Inactive)
REMARK    1  A    between atoms: C_2  and  C_3 
REMARK    2  A    between atoms: C_3  and  O_6 
REMARK    3  A    between atoms: C_3  and  C_4 
REMARK    4  A    between atoms: C_7  and  O_6 
REMARK    5  A    between atoms: C_9  and  C_10 
REMARK    6  A    between atoms: N_15  and  C_14 
REMARK    7  A    between atoms: N_20  and  C_19 
REMARK       I    between atoms: C_22  and  N_20 
ROOT
ATOM      1  C   LIG d   1      -4.548  93.222 118.941  0.00  0.00     0.161 C 
ATOM      2  C   LIG d   1      -4.569  91.827 118.783  0.00  0.00     0.016 C 
ATOM      3  C   LIG d   1      -3.407  91.050 118.571  0.00  0.00     0.038 C 
ATOM      4  C   LIG d   1      -2.120  91.603 118.654  0.00  0.00     0.028 C 
ATOM      5  C   LIG d   1      -2.076  93.087 118.309  0.00  0.00    -0.047 C 
ATOM      6  C   LIG d   1      -3.144  93.829 119.145  0.00  0.00     0.091 C 
ENDROOT
BRANCH   1   7
ATOM      7  O   LIG d   1      -5.421  93.605 120.022  0.00  0.00    -0.368 OA
BRANCH   7   8
ATOM      8  C   LIG d   1      -6.832  93.343 119.825  0.00  0.00     0.119 C 
BRANCH   8   9
ATOM      9  C   LIG d   1      -7.370  94.410 118.852  0.00  0.00     0.028 C 
ATOM     10  C   LIG d   1      -8.038  93.791 117.612  0.00  0.00     0.006 C 
ENDBRANCH   8   9
BRANCH   8  11
ATOM     11  C   LIG d   1      -7.622  93.541 121.121  0.00  0.00     0.028 C 
ATOM     12  C   LIG d   1      -7.425  92.391 122.121  0.00  0.00     0.006 C 
ENDBRANCH   8  11
ENDBRANCH   7   8
ENDBRANCH   1   7
BRANCH   6  13
ATOM     13  N   LIG d   1      -3.225  95.274 118.807  0.00  0.00    -0.311 N 
ATOM     14  C   LIG d   1      -2.841  96.243 119.637  0.00  0.00     0.210 C 
ATOM     15  C   LIG d   1      -3.028  97.666 119.100  0.00  0.00     0.109 C 
ATOM     16  O   LIG d   1      -2.334  96.059 120.753  0.00  0.00    -0.276 OA
ATOM     17  H   LIG d   1      -3.595  95.512 117.908  0.00  0.00     0.149 HD
ENDBRANCH   6  13
BRANCH   5  18
ATOM     18  N   LIG d   1      -0.704  93.564 118.569  0.00  0.00     0.381 N 
ATOM     19  H   LIG d   1      -0.568  94.456 118.136  0.00  0.00    -0.090 HD
ATOM     20  H   LIG d   1      -0.052  92.915 118.166  0.00  0.00    -0.090 HD
ATOM     21  H   LIG d   1      -0.549  93.637 119.551  0.00  0.00    -0.090 HD
ENDBRANCH   5  18
BRANCH   3  22
ATOM     22  C   LIG d   1      -3.528  89.710 118.233  0.00  0.00     0.382 C 
ATOM     23  O   LIG d   1      -3.017  88.830 118.968  0.00  0.00    -0.241 OA
ATOM     24  O   LIG d   1      -4.102  89.374 117.181  0.00  0.00    -0.241 OA
ENDBRANCH   3  22
TORSDOF 7
ENDMDL
MODEL 6
REMARK VINA RESULT:      -4.2     32.801     34.384
REMARK  7 active torsions:
REMARK  status: ('A' for Active; 'I' for Inactive)
REMARK    1  A    between atoms: C_2  and  C_3 
REMARK    2  A    between atoms: C_3  and  O_6 
REMARK    3  A    between atoms: C_3  and  C_4 
REMARK    4  A    between atoms: C_7  and  O_6 
REMARK    5  A    between atoms: C_9  and  C_10 
REMARK    6  A    between atoms: N_15  and  C_14 
REMARK    7  A    between atoms: N_20  and  C_19 
REMARK       I    between atoms: C_22  and  N_20 
ROOT
ATOM      1  C   LIG d   1      -5.137  92.838 120.021  0.00  0.00     0.161 C 
ATOM      2  C   LIG d   1      -4.030  92.156 119.489  0.00  0.00     0.016 C 
ATOM      3  C   LIG d   1      -4.075  91.418 118.284  0.00  0.00     0.038 C 
ATOM      4  C   LIG d   1      -5.200  91.436 117.446  0.00  0.00     0.028 C 
ATOM      5  C   LIG d   1      -6.505  91.697 118.189  0.00  0.00    -0.047 C 
ATOM      6  C   LIG d   1      -6.341  92.961 119.063  0.00  0.00     0.091 C 
ENDROOT
BRANCH   1   7
ATOM      7  O   LIG d   1      -4.732  94.140 120.486  0.00  0.00    -0.368 OA
BRANCH   7   8
ATOM      8  C   LIG d   1      -4.573  95.160 119.469  0.00  0.00     0.119 C 
BRANCH   8   9
ATOM      9  C   LIG d   1      -3.093  95.589 119.471  0.00  0.00     0.028 C 
ATOM     10  C   LIG d   1      -2.822  96.760 120.430  0.00  0.00     0.006 C 
ENDBRANCH   8   9
BRANCH   8  11
ATOM     11  C   LIG d   1      -5.362  96.425 119.820  0.00  0.00     0.028 C 
ATOM     12  C   LIG d   1      -6.298  96.877 118.688  0.00  0.00     0.006 C 
ENDBRANCH   8  11
ENDBRANCH   7   8
ENDBRANCH   1   7
BRANCH   6  13
ATOM     13  N   LIG d   1      -7.545  93.240 119.889  0.00  0.00    -0.311 N 
ATOM     14  C   LIG d   1      -8.591  93.936 119.447  0.00  0.00     0.210 C 
ATOM     15  C   LIG d   1      -9.719  94.125 120.467  0.00  0.00     0.109 C 
ATOM     16  O   LIG d   1      -8.706  94.388 118.298  0.00  0.00    -0.276 OA
ATOM     17  H   LIG d   1      -7.550  92.883 120.824  0.00  0.00     0.149 HD
ENDBRANCH   6  13
BRANCH   5  18
ATOM     18  N   LIG d   1      -7.574  91.827 117.180  0.00  0.00     0.381 N 
ATOM     19  H   LIG d   1      -8.200  92.561 117.443  0.00  0.00    -0.090 HD
ATOM     20  H   LIG d   1      -8.093  90.967 117.144  0.00  0.00    -0.090 HD
ATOM     21  H   LIG d   1      -7.178  92.022 116.287  0.00  0.00    -0.090 HD
ENDBRANCH   5  18
BRANCH   3  22
ATOM     22  C   LIG d   1      -3.000  90.618 117.928  0.00  0.00     0.382 C 
ATOM     23  O   LIG d   1      -1.837  91.087 117.944  0.00  0.00    -0.241 OA
ATOM     24  O   LIG d   1      -3.184  89.446 117.547  0.00  0.00    -0.241 OA
ENDBRANCH   3  22
TORSDOF 7
ENDMDL
MODEL 7
REMARK VINA RESULT:      -4.2     23.900     26.285
REMARK  7 active torsions:
REMARK  status: ('A' for Active; 'I' for Inactive)
REMARK    1  A    between atoms: C_2  and  C_3 
REMARK    2  A    between atoms: C_3  and  O_6 
REMARK    3  A    between atoms: C_3  and  C_4 
REMARK    4  A    between atoms: C_7  and  O_6 
REMARK    5  A    between atoms: C_9  and  C_10 
REMARK    6  A    between atoms: N_15  and  C_14 
REMARK    7  A    between atoms: N_20  and  C_19 
REMARK       I    between atoms: C_22  and  N_20 
ROOT
ATOM      1  C   LIG d   1     -18.126  78.845 122.319  0.00  0.00     0.161 C 
ATOM      2  C   LIG d   1     -18.668  79.949 121.641  0.00  0.00     0.016 C 
ATOM      3  C   LIG d   1     -18.003  81.190 121.517  0.00  0.00     0.038 C 
ATOM      4  C   LIG d   1     -16.676  81.365 121.937  0.00  0.00     0.028 C 
ATOM      5  C   LIG d   1     -16.273  80.434 123.076  0.00  0.00    -0.047 C 
ATOM      6  C   LIG d   1     -16.634  78.982 122.688  0.00  0.00     0.091 C 
ENDROOT
BRANCH   1   7
ATOM      7  O   LIG d   1     -18.345  77.644 121.553  0.00  0.00    -0.368 OA
BRANCH   7   8
ATOM      8  C   LIG d   1     -17.613  77.542 120.306  0.00  0.00     0.119 C 
BRANCH   8   9
ATOM      9  C   LIG d   1     -18.635  77.234 119.194  0.00  0.00     0.028 C 
ATOM     10  C   LIG d   1     -20.045  76.974 119.748  0.00  0.00     0.006 C 
ENDBRANCH   8   9
BRANCH   8  11
ATOM     11  C   LIG d   1     -16.655  76.347 120.319  0.00  0.00     0.028 C 
ATOM     12  C   LIG d   1     -17.051  75.276 121.348  0.00  0.00     0.006 C 
ENDBRANCH   8  11
ENDBRANCH   7   8
ENDBRANCH   1   7
BRANCH   6  13
ATOM     13  N   LIG d   1     -16.350  78.016 123.781  0.00  0.00    -0.311 N 
ATOM     14  C   LIG d   1     -15.221  77.314 123.865  0.00  0.00     0.210 C 
ATOM     15  C   LIG d   1     -15.140  76.360 125.061  0.00  0.00     0.109 C 
ATOM     16  O   LIG d   1     -14.265  77.416 123.081  0.00  0.00    -0.276 OA
ATOM     17  H   LIG d   1     -17.059  77.895 124.478  0.00  0.00     0.149 HD
ENDBRANCH   6  13
BRANCH   5  18
ATOM     18  N   LIG d   1     -14.831  80.626 123.320  0.00  0.00     0.381 N 
ATOM     19  H   LIG d   1     -14.346  80.691 122.447  0.00  0.00    -0.090 HD
ATOM     20  H   LIG d   1     -14.477  79.829 123.819  0.00  0.00    -0.090 HD
ATOM     21  H   LIG d   1     -14.683  81.454 123.853  0.00  0.00    -0.090 HD
ENDBRANCH   5  18
BRANCH   3  22
ATOM     22  C   LIG d   1     -18.681  82.285 121.003  0.00  0.00     0.382 C 
ATOM     23  O   LIG d   1     -18.430  82.690 119.842  0.00  0.00    -0.241 OA
ATOM     24  O   LIG d   1     -19.508  82.900 121.702  0.00  0.00    -0.241 OA
ENDBRANCH   3  22
TORSDOF 7
ENDMDL
MODEL 8
REMARK VINA RESULT:      -4.2     34.311     35.812
REMARK  7 active torsions:
REMARK  status: ('A' for Active; 'I' for Inactive)
REMARK    1  A    between atoms: C_2  and  C_3 
REMARK    2  A    between atoms: C_3  and  O_6 
REMARK    3  A    between atoms: C_3  and  C_4 
REMARK    4  A    between atoms: C_7  and  O_6 
REMARK    5  A    between atoms: C_9  and  C_10 
REMARK    6  A    between atoms: N_15  and  C_14 
REMARK    7  A    between atoms: N_20  and  C_19 
REMARK       I    between atoms: C_22  and  N_20 
ROOT
ATOM      1  C   LIG d   1      -5.765  94.654 120.176  0.00  0.00     0.161 C 
ATOM      2  C   LIG d   1      -6.917  93.883 120.404  0.00  0.00     0.016 C 
ATOM      3  C   LIG d   1      -8.230  94.392 120.283  0.00  0.00     0.038 C 
ATOM      4  C   LIG d   1      -8.484  95.675 119.774  0.00  0.00     0.028 C 
ATOM      5  C   LIG d   1      -7.342  96.657 120.010  0.00  0.00    -0.047 C 
ATOM      6  C   LIG d   1      -6.023  96.023 119.513  0.00  0.00     0.091 C 
ENDROOT
BRANCH   1   7
ATOM      7  O   LIG d   1      -4.814  93.894 119.403  0.00  0.00    -0.368 OA
BRANCH   7   8
ATOM      8  C   LIG d   1      -5.058  92.468 119.316  0.00  0.00     0.119 C 
BRANCH   8   9
ATOM      9  C   LIG d   1      -3.868  91.754 119.985  0.00  0.00     0.028 C 
ATOM     10  C   LIG d   1      -2.511  92.298 119.506  0.00  0.00     0.006 C 
ENDBRANCH   8   9
BRANCH   8  11
ATOM     11  C   LIG d   1      -5.053  91.990 117.861  0.00  0.00     0.028 C 
ATOM     12  C   LIG d   1      -6.467  91.840 117.278  0.00  0.00     0.006 C 
ENDBRANCH   8  11
ENDBRANCH   7   8
ENDBRANCH   1   7
BRANCH   6  13
ATOM     13  N   LIG d   1      -4.842  96.884 119.783  0.00  0.00    -0.311 N 
ATOM     14  C   LIG d   1      -4.347  97.748 118.899  0.00  0.00     0.210 C 
ATOM     15  C   LIG d   1      -3.113  98.522 119.373  0.00  0.00     0.109 C 
ATOM     16  O   LIG d   1      -4.832  97.970 117.779  0.00  0.00    -0.276 OA
ATOM     17  H   LIG d   1      -4.406  96.790 120.679  0.00  0.00     0.149 HD
ENDBRANCH   6  13
BRANCH   5  18
ATOM     18  N   LIG d   1      -7.680  97.911 119.310  0.00  0.00     0.381 N 
ATOM     19  H   LIG d   1      -7.392  97.854 118.354  0.00  0.00    -0.090 HD
ATOM     20  H   LIG d   1      -7.184  98.669 119.745  0.00  0.00    -0.090 HD
ATOM     21  H   LIG d   1      -8.662  98.075 119.360  0.00  0.00    -0.090 HD
ENDBRANCH   5  18
BRANCH   3  22
ATOM     22  C   LIG d   1      -9.306  93.629 120.710  0.00  0.00     0.382 C 
ATOM     23  O   LIG d   1     -10.378  93.636 120.059  0.00  0.00    -0.241 OA
ATOM     24  O   LIG d   1      -9.232  92.967 121.763  0.00  0.00    -0.241 OA
ENDBRANCH   3  22
TORSDOF 7
ENDMDL
MODEL 9
REMARK VINA RESULT:      -4.0     21.021     23.071
REMARK  7 active torsions:
REMARK  status: ('A' for Active; 'I' for Inactive)
REMARK    1  A    between atoms: C_2  and  C_3 
REMARK    2  A    between atoms: C_3  and  O_6 
REMARK    3  A    between atoms: C_3  and  C_4 
REMARK    4  A    between atoms: C_7  and  O_6 
REMARK    5  A    between atoms: C_9  and  C_10 
REMARK    6  A    between atoms: N_15  and  C_14 
REMARK    7  A    between atoms: N_20  and  C_19 
REMARK       I    between atoms: C_22  and  N_20 
ROOT
ATOM      1  C   LIG d   1      -9.896  79.976 120.911  0.00  0.00     0.161 C 
ATOM      2  C   LIG d   1      -9.775  78.753 120.230  0.00  0.00     0.016 C 
ATOM      3  C   LIG d   1      -9.423  78.655 118.864  0.00  0.00     0.038 C 
ATOM      4  C   LIG d   1      -9.017  79.773 118.121  0.00  0.00     0.028 C 
ATOM      5  C   LIG d   1      -9.608  81.084 118.627  0.00  0.00    -0.047 C 
ATOM      6  C   LIG d   1      -9.348  81.199 120.146  0.00  0.00     0.091 C 
ENDROOT
BRANCH   1   7
ATOM      7  O   LIG d   1      -9.273  79.876 122.207  0.00  0.00    -0.368 OA
BRANCH   7   8
ATOM      8  C   LIG d   1     -10.171  79.838 123.344  0.00  0.00     0.119 C 
BRANCH   8   9
ATOM      9  C   LIG d   1      -9.834  81.045 124.240  0.00  0.00     0.028 C 
ATOM     10  C   LIG d   1      -8.330  81.367 124.250  0.00  0.00     0.006 C 
ENDBRANCH   8   9
BRANCH   8  11
ATOM     11  C   LIG d   1      -9.917  78.604 124.214  0.00  0.00     0.028 C 
ATOM     12  C   LIG d   1      -8.772  77.726 123.684  0.00  0.00     0.006 C 
ENDBRANCH   8  11
ENDBRANCH   7   8
ENDBRANCH   1   7
BRANCH   6  13
ATOM     13  N   LIG d   1      -9.968  82.413 120.738  0.00  0.00    -0.311 N 
ATOM     14  C   LIG d   1      -9.267  83.389 121.312  0.00  0.00     0.210 C 
ATOM     15  C   LIG d   1     -10.104  84.542 121.876  0.00  0.00     0.109 C 
ATOM     16  O   LIG d   1      -8.029  83.425 121.380  0.00  0.00    -0.276 OA
ATOM     17  H   LIG d   1     -10.966  82.481 120.698  0.00  0.00     0.149 HD
ENDBRANCH   6  13
BRANCH   5  18
ATOM     18  N   LIG d   1      -8.995  82.179 117.851  0.00  0.00     0.381 N 
ATOM     19  H   LIG d   1      -8.568  81.810 117.025  0.00  0.00    -0.090 HD
ATOM     20  H   LIG d   1      -8.281  82.613 118.409  0.00  0.00    -0.090 HD
ATOM     21  H   LIG d   1      -9.688  82.851 117.604  0.00  0.00    -0.090 HD
ENDBRANCH   5  18
BRANCH   3  22
ATOM     22  C   LIG d   1      -9.513  77.432 118.217  0.00  0.00     0.382 C 
ATOM     23  O   LIG d   1      -8.542  77.002 117.549  0.00  0.00    -0.241 OA
ATOM     24  O   LIG d   1     -10.570  76.773 118.257  0.00  0.00    -0.241 OA
ENDBRANCH   3  22
TORSDOF 7
ENDMDL
