MODEL 1
REMARK VINA RESULT:      -5.0      0.000      0.000
REMARK  7 active torsions:
REMARK  status: ('A' for Active; 'I' for Inactive)
REMARK    1  A    between atoms: C_2  and  C_3 
REMARK    2  A    between atoms: C_3  and  O_6 
REMARK    3  A    between atoms: C_3  and  C_4 
REMARK    4  A    between atoms: C_7  and  O_6 
REMARK    5  A    between atoms: C_9  and  C_10 
REMARK    6  A    between atoms: N_15  and  C_14 
REMARK    7  A    between atoms: N_20  and  C_19 
REMARK       I    between atoms: C_22  and  N_20 
ROOT
ATOM      1  C   LIG d   1      -7.782  76.681 118.188  0.00  0.00     0.161 C 
ATOM      2  C   LIG d   1      -9.011  77.164 118.669  0.00  0.00     0.016 C 
ATOM      3  C   LIG d   1      -9.173  78.448 119.239  0.00  0.00     0.038 C 
ATOM      4  C   LIG d   1      -8.142  79.400 119.228  0.00  0.00     0.028 C 
ATOM      5  C   LIG d   1      -6.748  78.782 119.210  0.00  0.00    -0.047 C 
ATOM      6  C   LIG d   1      -6.672  77.746 118.066  0.00  0.00     0.091 C 
ENDROOT
BRANCH   1   7
ATOM      7  O   LIG d   1      -7.980  76.016 116.925  0.00  0.00    -0.368 OA
BRANCH   7   8
ATOM      8  C   LIG d   1      -7.812  74.577 116.928  0.00  0.00     0.119 C 
BRANCH   8   9
ATOM      9  C   LIG d   1      -7.070  74.194 115.633  0.00  0.00     0.028 C 
ATOM     10  C   LIG d   1      -6.386  75.402 114.970  0.00  0.00     0.006 C 
ENDBRANCH   8   9
BRANCH   8  11
ATOM     11  C   LIG d   1      -9.162  73.858 116.850  0.00  0.00     0.028 C 
ATOM     12  C   LIG d   1      -9.019  72.347 116.612  0.00  0.00     0.006 C 
ENDBRANCH   8  11
ENDBRANCH   7   8
ENDBRANCH   1   7
BRANCH   6  13
ATOM     13  N   LIG d   1      -5.368  77.034 118.032  0.00  0.00    -0.311 N 
ATOM     14  C   LIG d   1      -4.328  77.443 117.308  0.00  0.00     0.210 C 
ATOM     15  C   LIG d   1      -3.085  76.552 117.400  0.00  0.00     0.109 C 
ATOM     16  O   LIG d   1      -4.305  78.478 116.624  0.00  0.00    -0.276 OA
ATOM     17  H   LIG d   1      -5.288  76.201 118.582  0.00  0.00     0.149 HD
ENDBRANCH   6  13
BRANCH   5  18
ATOM     18  N   LIG d   1      -5.775  79.881 119.061  0.00  0.00     0.381 N 
ATOM     19  H   LIG d   1      -5.521  79.979 118.098  0.00  0.00    -0.090 HD
ATOM     20  H   LIG d   1      -4.948  79.657 119.584  0.00  0.00    -0.090 HD
ATOM     21  H   LIG d   1      -6.169  80.733 119.396  0.00  0.00    -0.090 HD
ENDBRANCH   5  18
BRANCH   3  22
ATOM     22  C   LIG d   1     -10.366  78.777 119.864  0.00  0.00     0.382 C 
ATOM     23  O   LIG d   1     -11.315  77.957 119.874  0.00  0.00    -0.241 OA
ATOM     24  O   LIG d   1     -10.521  79.901 120.379  0.00  0.00    -0.241 OA
ENDBRANCH   3  22
TORSDOF 7
ENDMDL
MODEL 2
REMARK VINA RESULT:      -4.8      1.105      1.960
REMARK  7 active torsions:
REMARK  status: ('A' for Active; 'I' for Inactive)
REMARK    1  A    between atoms: C_2  and  C_3 
REMARK    2  A    between atoms: C_3  and  O_6 
REMARK    3  A    between atoms: C_3  and  C_4 
REMARK    4  A    between atoms: C_7  and  O_6 
REMARK    5  A    between atoms: C_9  and  C_10 
REMARK    6  A    between atoms: N_15  and  C_14 
REMARK    7  A    between atoms: N_20  and  C_19 
REMARK       I    between atoms: C_22  and  N_20 
ROOT
ATOM      1  C   LIG d   1      -7.601  77.215 119.463  0.00  0.00     0.161 C 
ATOM      2  C   LIG d   1      -8.793  77.916 119.707  0.00  0.00     0.016 C 
ATOM      3  C   LIG d   1      -8.948  79.299 119.456  0.00  0.00     0.038 C 
ATOM      4  C   LIG d   1      -7.962  80.047 118.796  0.00  0.00     0.028 C 
ATOM      5  C   LIG d   1      -6.553  79.496 118.989  0.00  0.00    -0.047 C 
ATOM      6  C   LIG d   1      -6.551  77.990 118.641  0.00  0.00     0.091 C 
ENDROOT
BRANCH   1   7
ATOM      7  O   LIG d   1      -7.897  75.952 118.834  0.00  0.00    -0.368 OA
BRANCH   7   8
ATOM      8  C   LIG d   1      -8.416  76.019 117.483  0.00  0.00     0.119 C 
BRANCH   8   9
ATOM      9  C   LIG d   1      -9.817  75.379 117.492  0.00  0.00     0.028 C 
ATOM     10  C   LIG d   1      -9.786  73.893 117.098  0.00  0.00     0.006 C 
ENDBRANCH   8   9
BRANCH   8  11
ATOM     11  C   LIG d   1      -7.585  75.162 116.524  0.00  0.00     0.028 C 
ATOM     12  C   LIG d   1      -6.893  75.991 115.430  0.00  0.00     0.006 C 
ENDBRANCH   8  11
ENDBRANCH   7   8
ENDBRANCH   1   7
BRANCH   6  13
ATOM     13  N   LIG d   1      -5.230  77.354 118.883  0.00  0.00    -0.311 N 
ATOM     14  C   LIG d   1      -4.268  77.289 117.965  0.00  0.00     0.210 C 
ATOM     15  C   LIG d   1      -2.991  76.572 118.415  0.00  0.00     0.109 C 
ATOM     16  O   LIG d   1      -4.339  77.784 116.830  0.00  0.00    -0.276 OA
ATOM     17  H   LIG d   1      -5.076  76.954 119.788  0.00  0.00     0.149 HD
ENDBRANCH   6  13
BRANCH   5  18
ATOM     18  N   LIG d   1      -5.645  80.288 118.139  0.00  0.00     0.381 N 
ATOM     19  H   LIG d   1      -4.695  80.041 118.336  0.00  0.00    -0.090 HD
ATOM     20  H   LIG d   1      -5.768  81.263 118.351  0.00  0.00    -0.090 HD
ATOM     21  H   LIG d   1      -5.846  80.122 117.178  0.00  0.00    -0.090 HD
ENDBRANCH   5  18
BRANCH   3  22
ATOM     22  C   LIG d   1     -10.086  79.955 119.901  0.00  0.00     0.382 C 
ATOM     23  O   LIG d   1     -10.955  79.330 120.555  0.00  0.00    -0.241 OA
ATOM     24  O   LIG d   1     -10.274  81.154 119.620  0.00  0.00    -0.241 OA
ENDBRANCH   3  22
TORSDOF 7
ENDMDL
MODEL 3
REMARK VINA RESULT:      -4.7      2.021      2.958
REMARK  7 active torsions:
REMARK  status: ('A' for Active; 'I' for Inactive)
REMARK    1  A    between atoms: C_2  and  C_3 
REMARK    2  A    between atoms: C_3  and  O_6 
REMARK    3  A    between atoms: C_3  and  C_4 
REMARK    4  A    between atoms: C_7  and  O_6 
REMARK    5  A    between atoms: C_9  and  C_10 
REMARK    6  A    between atoms: N_15  and  C_14 
REMARK    7  A    between atoms: N_20  and  C_19 
REMARK       I    between atoms: C_22  and  N_20 
ROOT
ATOM      1  C   LIG d   1      -6.548  76.844 117.624  0.00  0.00     0.161 C 
ATOM      2  C   LIG d   1      -7.837  76.305 117.473  0.00  0.00     0.016 C 
ATOM      3  C   LIG d   1      -8.969  76.790 118.167  0.00  0.00     0.038 C 
ATOM      4  C   LIG d   1      -8.917  77.952 118.951  0.00  0.00     0.028 C 
ATOM      5  C   LIG d   1      -7.535  78.230 119.531  0.00  0.00    -0.047 C 
ATOM      6  C   LIG d   1      -6.493  78.183 118.390  0.00  0.00     0.091 C 
ENDROOT
BRANCH   1   7
ATOM      7  O   LIG d   1      -5.920  76.979 116.334  0.00  0.00    -0.368 OA
BRANCH   7   8
ATOM      8  C   LIG d   1      -5.106  75.861 115.902  0.00  0.00     0.119 C 
BRANCH   8   9
ATOM      9  C   LIG d   1      -3.635  76.222 116.185  0.00  0.00     0.028 C 
ATOM     10  C   LIG d   1      -2.898  76.711 114.927  0.00  0.00     0.006 C 
ENDBRANCH   8   9
BRANCH   8  11
ATOM     11  C   LIG d   1      -5.191  75.664 114.385  0.00  0.00     0.028 C 
ATOM     12  C   LIG d   1      -6.560  76.058 113.808  0.00  0.00     0.006 C 
ENDBRANCH   8  11
ENDBRANCH   7   8
ENDBRANCH   1   7
BRANCH   6  13
ATOM     13  N   LIG d   1      -5.103  78.361 118.885  0.00  0.00    -0.311 N 
ATOM     14  C   LIG d   1      -4.199  79.124 118.272  0.00  0.00     0.210 C 
ATOM     15  C   LIG d   1      -2.820  79.153 118.938  0.00  0.00     0.109 C 
ATOM     16  O   LIG d   1      -4.418  79.804 117.259  0.00  0.00    -0.276 OA
ATOM     17  H   LIG d   1      -4.849  77.869 119.719  0.00  0.00     0.149 HD
ENDBRANCH   6  13
BRANCH   5  18
ATOM     18  N   LIG d   1      -7.591  79.539 120.209  0.00  0.00     0.381 N 
ATOM     19  H   LIG d   1      -7.546  79.409 121.200  0.00  0.00    -0.090 HD
ATOM     20  H   LIG d   1      -8.465  79.982 119.988  0.00  0.00    -0.090 HD
ATOM     21  H   LIG d   1      -6.834  80.112 119.907  0.00  0.00    -0.090 HD
ENDBRANCH   5  18
BRANCH   3  22
ATOM     22  C   LIG d   1     -10.163  76.086 118.111  0.00  0.00     0.382 C 
ATOM     23  O   LIG d   1     -10.200  74.958 117.564  0.00  0.00    -0.241 OA
ATOM     24  O   LIG d   1     -11.212  76.584 118.562  0.00  0.00    -0.241 OA
ENDBRANCH   3  22
TORSDOF 7
ENDMDL
MODEL 4
REMARK VINA RESULT:      -4.7      2.190      5.054
REMARK  7 active torsions:
REMARK  status: ('A' for Active; 'I' for Inactive)
REMARK    1  A    between atoms: C_2  and  C_3 
REMARK    2  A    between atoms: C_3  and  O_6 
REMARK    3  A    between atoms: C_3  and  C_4 
REMARK    4  A    between atoms: C_7  and  O_6 
REMARK    5  A    between atoms: C_9  and  C_10 
REMARK    6  A    between atoms: N_15  and  C_14 
REMARK    7  A    between atoms: N_20  and  C_19 
REMARK       I    between atoms: C_22  and  N_20 
ROOT
ATOM      1  C   LIG d   1      -6.662  76.691 116.908  0.00  0.00     0.161 C 
ATOM      2  C   LIG d   1      -5.855  75.882 116.091  0.00  0.00     0.016 C 
ATOM      3  C   LIG d   1      -4.446  75.989 116.037  0.00  0.00     0.038 C 
ATOM      4  C   LIG d   1      -3.732  76.816 116.916  0.00  0.00     0.028 C 
ATOM      5  C   LIG d   1      -4.535  78.017 117.406  0.00  0.00    -0.047 C 
ATOM      6  C   LIG d   1      -5.892  77.522 117.956  0.00  0.00     0.091 C 
ENDROOT
BRANCH   1   7
ATOM      7  O   LIG d   1      -7.670  75.885 117.550  0.00  0.00    -0.368 OA
BRANCH   7   8
ATOM      8  C   LIG d   1      -8.535  75.127 116.670  0.00  0.00     0.119 C 
BRANCH   8   9
ATOM      9  C   LIG d   1      -9.924  75.058 117.333  0.00  0.00     0.028 C 
ATOM     10  C   LIG d   1     -10.189  76.251 118.266  0.00  0.00     0.006 C 
ENDBRANCH   8   9
BRANCH   8  11
ATOM     11  C   LIG d   1      -8.071  73.672 116.550  0.00  0.00     0.028 C 
ATOM     12  C   LIG d   1      -9.208  72.663 116.772  0.00  0.00     0.006 C 
ENDBRANCH   8  11
ENDBRANCH   7   8
ENDBRANCH   1   7
BRANCH   6  13
ATOM     13  N   LIG d   1      -6.774  78.641 118.379  0.00  0.00    -0.311 N 
ATOM     14  C   LIG d   1      -6.812  79.115 119.623  0.00  0.00     0.210 C 
ATOM     15  C   LIG d   1      -7.806  80.258 119.850  0.00  0.00     0.109 C 
ATOM     16  O   LIG d   1      -6.094  78.718 120.553  0.00  0.00    -0.276 OA
ATOM     17  H   LIG d   1      -7.368  79.043 117.680  0.00  0.00     0.149 HD
ENDBRANCH   6  13
BRANCH   5  18
ATOM     18  N   LIG d   1      -3.720  78.715 118.419  0.00  0.00     0.381 N 
ATOM     19  H   LIG d   1      -2.924  78.157 118.656  0.00  0.00    -0.090 HD
ATOM     20  H   LIG d   1      -4.273  78.844 119.248  0.00  0.00    -0.090 HD
ATOM     21  H   LIG d   1      -3.424  79.599 118.068  0.00  0.00    -0.090 HD
ENDBRANCH   5  18
BRANCH   3  22
ATOM     22  C   LIG d   1      -3.741  75.293 115.068  0.00  0.00     0.382 C 
ATOM     23  O   LIG d   1      -4.272  74.316 114.486  0.00  0.00    -0.241 OA
ATOM     24  O   LIG d   1      -2.564  75.601 114.799  0.00  0.00    -0.241 OA
ENDBRANCH   3  22
TORSDOF 7
ENDMDL
MODEL 5
REMARK VINA RESULT:      -4.6     13.575     16.274
REMARK  7 active torsions:
REMARK  status: ('A' for Active; 'I' for Inactive)
REMARK    1  A    between atoms: C_2  and  C_3 
REMARK    2  A    between atoms: C_3  and  O_6 
REMARK    3  A    between atoms: C_3  and  C_4 
REMARK    4  A    between atoms: C_7  and  O_6 
REMARK    5  A    between atoms: C_9  and  C_10 
REMARK    6  A    between atoms: N_15  and  C_14 
REMARK    7  A    between atoms: N_20  and  C_19 
REMARK       I    between atoms: C_22  and  N_20 
ROOT
ATOM      1  C   LIG d   1       2.128  89.366 116.928  0.00  0.00     0.161 C 
ATOM      2  C   LIG d   1       2.599  90.657 117.221  0.00  0.00     0.016 C 
ATOM      3  C   LIG d   1       3.791  91.191 116.681  0.00  0.00     0.038 C 
ATOM      4  C   LIG d   1       4.520  90.521 115.687  0.00  0.00     0.028 C 
ATOM      5  C   LIG d   1       4.358  89.006 115.734  0.00  0.00    -0.047 C 
ATOM      6  C   LIG d   1       2.851  88.663 115.760  0.00  0.00     0.091 C 
ENDROOT
BRANCH   1   7
ATOM      7  O   LIG d   1       0.708  89.407 116.686  0.00  0.00    -0.368 OA
BRANCH   7   8
ATOM      8  C   LIG d   1      -0.142  89.202 117.842  0.00  0.00     0.119 C 
BRANCH   8   9
ATOM      9  C   LIG d   1      -0.803  87.818 117.692  0.00  0.00     0.028 C 
ATOM     10  C   LIG d   1      -0.037  86.717 118.445  0.00  0.00     0.006 C 
ENDBRANCH   8   9
BRANCH   8  11
ATOM     11  C   LIG d   1      -1.300  90.204 117.867  0.00  0.00     0.028 C 
ATOM     12  C   LIG d   1      -2.642  89.554 118.238  0.00  0.00     0.006 C 
ENDBRANCH   8  11
ENDBRANCH   7   8
ENDBRANCH   1   7
BRANCH   6  13
ATOM     13  N   LIG d   1       2.604  87.203 115.891  0.00  0.00    -0.311 N 
ATOM     14  C   LIG d   1       2.023  86.470 114.943  0.00  0.00     0.210 C 
ATOM     15  C   LIG d   1       1.846  84.988 115.290  0.00  0.00     0.109 C 
ATOM     16  O   LIG d   1       1.668  86.899 113.835  0.00  0.00    -0.276 OA
ATOM     17  H   LIG d   1       2.889  86.767 116.746  0.00  0.00     0.149 HD
ENDBRANCH   6  13
BRANCH   5  18
ATOM     18  N   LIG d   1       5.058  88.446 114.562  0.00  0.00     0.381 N 
ATOM     19  H   LIG d   1       4.765  88.923 113.733  0.00  0.00    -0.090 HD
ATOM     20  H   LIG d   1       4.814  87.476 114.471  0.00  0.00    -0.090 HD
ATOM     21  H   LIG d   1       6.043  88.539 114.677  0.00  0.00    -0.090 HD
ENDBRANCH   5  18
BRANCH   3  22
ATOM     22  C   LIG d   1       4.287  92.392 117.165  0.00  0.00     0.382 C 
ATOM     23  O   LIG d   1       3.764  93.475 116.810  0.00  0.00    -0.241 OA
ATOM     24  O   LIG d   1       5.279  92.408 117.918  0.00  0.00    -0.241 OA
ENDBRANCH   3  22
TORSDOF 7
ENDMDL
MODEL 6
REMARK VINA RESULT:      -4.6      2.085      5.039
REMARK  7 active torsions:
REMARK  status: ('A' for Active; 'I' for Inactive)
REMARK    1  A    between atoms: C_2  and  C_3 
REMARK    2  A    between atoms: C_3  and  O_6 
REMARK    3  A    between atoms: C_3  and  C_4 
REMARK    4  A    between atoms: C_7  and  O_6 
REMARK    5  A    between atoms: C_9  and  C_10 
REMARK    6  A    between atoms: N_15  and  C_14 
REMARK    7  A    between atoms: N_20  and  C_19 
REMARK       I    between atoms: C_22  and  N_20 
ROOT
ATOM      1  C   LIG d   1      -6.654  77.107 117.664  0.00  0.00     0.161 C 
ATOM      2  C   LIG d   1      -6.421  76.326 116.520  0.00  0.00     0.016 C 
ATOM      3  C   LIG d   1      -5.128  76.027 116.032  0.00  0.00     0.038 C 
ATOM      4  C   LIG d   1      -3.969  76.367 116.745  0.00  0.00     0.028 C 
ATOM      5  C   LIG d   1      -4.145  77.591 117.639  0.00  0.00    -0.047 C 
ATOM      6  C   LIG d   1      -5.401  77.394 118.518  0.00  0.00     0.091 C 
ENDROOT
BRANCH   1   7
ATOM      7  O   LIG d   1      -7.682  76.499 118.470  0.00  0.00    -0.368 OA
BRANCH   7   8
ATOM      8  C   LIG d   1      -9.005  77.078 118.360  0.00  0.00     0.119 C 
BRANCH   8   9
ATOM      9  C   LIG d   1      -9.265  77.887 119.646  0.00  0.00     0.028 C 
ATOM     10  C   LIG d   1      -9.551  79.370 119.359  0.00  0.00     0.006 C 
ENDBRANCH   8   9
BRANCH   8  11
ATOM     11  C   LIG d   1     -10.088  75.995 118.336  0.00  0.00     0.028 C 
ATOM     12  C   LIG d   1      -9.876  74.965 117.216  0.00  0.00     0.006 C 
ENDBRANCH   8  11
ENDBRANCH   7   8
ENDBRANCH   1   7
BRANCH   6  13
ATOM     13  N   LIG d   1      -5.694  78.581 119.362  0.00  0.00    -0.311 N 
ATOM     14  C   LIG d   1      -5.864  79.807 118.870  0.00  0.00     0.210 C 
ATOM     15  C   LIG d   1      -6.138  80.892 119.916  0.00  0.00     0.109 C 
ATOM     16  O   LIG d   1      -5.846  80.093 117.663  0.00  0.00    -0.276 OA
ATOM     17  H   LIG d   1      -5.758  78.434 120.350  0.00  0.00     0.149 HD
ENDBRANCH   6  13
BRANCH   5  18
ATOM     18  N   LIG d   1      -2.908  77.749 118.426  0.00  0.00     0.381 N 
ATOM     19  H   LIG d   1      -2.512  78.652 118.257  0.00  0.00    -0.090 HD
ATOM     20  H   LIG d   1      -2.244  77.054 118.133  0.00  0.00    -0.090 HD
ATOM     21  H   LIG d   1      -3.105  77.642 119.397  0.00  0.00    -0.090 HD
ENDBRANCH   5  18
BRANCH   3  22
ATOM     22  C   LIG d   1      -4.984  75.416 114.795  0.00  0.00     0.382 C 
ATOM     23  O   LIG d   1      -4.136  74.504 114.642  0.00  0.00    -0.241 OA
ATOM     24  O   LIG d   1      -5.661  75.795 113.821  0.00  0.00    -0.241 OA
ENDBRANCH   3  22
TORSDOF 7
ENDMDL
MODEL 7
REMARK VINA RESULT:      -4.4     14.378     16.976
REMARK  7 active torsions:
REMARK  status: ('A' for Active; 'I' for Inactive)
REMARK    1  A    between atoms: C_2  and  C_3 
REMARK    2  A    between atoms: C_3  and  O_6 
REMARK    3  A    between atoms: C_3  and  C_4 
REMARK    4  A    between atoms: C_7  and  O_6 
REMARK    5  A    between atoms: C_9  and  C_10 
REMARK    6  A    between atoms: N_15  and  C_14 
REMARK    7  A    between atoms: N_20  and  C_19 
REMARK       I    between atoms: C_22  and  N_20 
ROOT
ATOM      1  C   LIG d   1       0.042  91.093 117.542  0.00  0.00     0.161 C 
ATOM      2  C   LIG d   1       1.434  91.164 117.364  0.00  0.00     0.016 C 
ATOM      3  C   LIG d   1       2.153  92.381 117.327  0.00  0.00     0.038 C 
ATOM      4  C   LIG d   1       1.544  93.611 117.620  0.00  0.00     0.028 C 
ATOM      5  C   LIG d   1       0.052  93.637 117.307  0.00  0.00    -0.047 C 
ATOM      6  C   LIG d   1      -0.623  92.417 117.974  0.00  0.00     0.091 C 
ENDROOT
BRANCH   1   7
ATOM      7  O   LIG d   1      -0.278  90.043 118.477  0.00  0.00    -0.368 OA
BRANCH   7   8
ATOM      8  C   LIG d   1      -1.091  88.960 117.964  0.00  0.00     0.119 C 
BRANCH   8   9
ATOM      9  C   LIG d   1      -2.375  88.902 118.815  0.00  0.00     0.028 C 
ATOM     10  C   LIG d   1      -2.203  89.582 120.184  0.00  0.00     0.006 C 
ENDBRANCH   8   9
BRANCH   8  11
ATOM     11  C   LIG d   1      -0.408  87.605 118.169  0.00  0.00     0.028 C 
ATOM     12  C   LIG d   1       0.548  87.240 117.023  0.00  0.00     0.006 C 
ENDBRANCH   8  11
ENDBRANCH   7   8
ENDBRANCH   1   7
BRANCH   6  13
ATOM     13  N   LIG d   1      -2.070  92.320 117.648  0.00  0.00    -0.311 N 
ATOM     14  C   LIG d   1      -3.031  92.819 118.424  0.00  0.00     0.210 C 
ATOM     15  C   LIG d   1      -4.457  92.593 117.912  0.00  0.00     0.109 C 
ATOM     16  O   LIG d   1      -2.836  93.455 119.470  0.00  0.00    -0.276 OA
ATOM     17  H   LIG d   1      -2.316  91.847 116.801  0.00  0.00     0.149 HD
ENDBRANCH   6  13
BRANCH   5  18
ATOM     18  N   LIG d   1      -0.481  94.926 117.787  0.00  0.00     0.381 N 
ATOM     19  H   LIG d   1      -1.194  94.765 118.470  0.00  0.00    -0.090 HD
ATOM     20  H   LIG d   1      -0.892  95.417 117.013  0.00  0.00    -0.090 HD
ATOM     21  H   LIG d   1       0.252  95.472 118.184  0.00  0.00    -0.090 HD
ENDBRANCH   5  18
BRANCH   3  22
ATOM     22  C   LIG d   1       3.489  92.379 116.956  0.00  0.00     0.382 C 
ATOM     23  O   LIG d   1       4.073  91.294 116.724  0.00  0.00    -0.241 OA
ATOM     24  O   LIG d   1       4.128  93.446 116.893  0.00  0.00    -0.241 OA
ENDBRANCH   3  22
TORSDOF 7
ENDMDL
MODEL 8
REMARK VINA RESULT:      -4.4     17.085     19.664
REMARK  7 active torsions:
REMARK  status: ('A' for Active; 'I' for Inactive)
REMARK    1  A    between atoms: C_2  and  C_3 
REMARK    2  A    between atoms: C_3  and  O_6 
REMARK    3  A    between atoms: C_3  and  C_4 
REMARK    4  A    between atoms: C_7  and  O_6 
REMARK    5  A    between atoms: C_9  and  C_10 
REMARK    6  A    between atoms: N_15  and  C_14 
REMARK    7  A    between atoms: N_20  and  C_19 
REMARK       I    between atoms: C_22  and  N_20 
ROOT
ATOM      1  C   LIG d   1       3.760  92.558 117.822  0.00  0.00     0.161 C 
ATOM      2  C   LIG d   1       4.364  93.584 118.569  0.00  0.00     0.016 C 
ATOM      3  C   LIG d   1       5.751  93.639 118.836  0.00  0.00     0.038 C 
ATOM      4  C   LIG d   1       6.656  92.747 118.243  0.00  0.00     0.028 C 
ATOM      5  C   LIG d   1       6.037  91.399 117.892  0.00  0.00    -0.047 C 
ATOM      6  C   LIG d   1       4.747  91.637 117.074  0.00  0.00     0.091 C 
ENDROOT
BRANCH   1   7
ATOM      7  O   LIG d   1       2.804  93.121 116.903  0.00  0.00    -0.368 OA
BRANCH   7   8
ATOM      8  C   LIG d   1       1.409  92.861 117.195  0.00  0.00     0.119 C 
BRANCH   8   9
ATOM      9  C   LIG d   1       0.797  94.170 117.730  0.00  0.00     0.028 C 
ATOM     10  C   LIG d   1      -0.348  94.688 116.843  0.00  0.00     0.006 C 
ENDBRANCH   8   9
BRANCH   8  11
ATOM     11  C   LIG d   1       1.258  91.848 118.334  0.00  0.00     0.028 C 
ATOM     12  C   LIG d   1       0.535  90.564 117.897  0.00  0.00     0.006 C 
ENDBRANCH   8  11
ENDBRANCH   7   8
ENDBRANCH   1   7
BRANCH   6  13
ATOM     13  N   LIG d   1       4.032  90.372 116.761  0.00  0.00    -0.311 N 
ATOM     14  C   LIG d   1       3.755  89.974 115.521  0.00  0.00     0.210 C 
ATOM     15  C   LIG d   1       2.993  88.649 115.422  0.00  0.00     0.109 C 
ATOM     16  O   LIG d   1       4.095  90.577 114.492  0.00  0.00    -0.276 OA
ATOM     17  H   LIG d   1       3.747  89.806 117.536  0.00  0.00     0.149 HD
ENDBRANCH   6  13
BRANCH   5  18
ATOM     18  N   LIG d   1       7.051  90.619 117.158  0.00  0.00     0.381 N 
ATOM     19  H   LIG d   1       7.232  91.048 116.272  0.00  0.00    -0.090 HD
ATOM     20  H   LIG d   1       6.695  89.694 116.994  0.00  0.00    -0.090 HD
ATOM     21  H   LIG d   1       7.893  90.570 117.688  0.00  0.00    -0.090 HD
ENDBRANCH   5  18
BRANCH   3  22
ATOM     22  C   LIG d   1       6.240  94.572 119.738  0.00  0.00     0.382 C 
ATOM     23  O   LIG d   1       7.418  94.477 120.161  0.00  0.00    -0.241 OA
ATOM     24  O   LIG d   1       5.505  95.481 120.168  0.00  0.00    -0.241 OA
ENDBRANCH   3  22
TORSDOF 7
ENDMDL
MODEL 9
REMARK VINA RESULT:      -4.3      5.207      6.820
REMARK  7 active torsions:
REMARK  status: ('A' for Active; 'I' for Inactive)
REMARK    1  A    between atoms: C_2  and  C_3 
REMARK    2  A    between atoms: C_3  and  O_6 
REMARK    3  A    between atoms: C_3  and  C_4 
REMARK    4  A    between atoms: C_7  and  O_6 
REMARK    5  A    between atoms: C_9  and  C_10 
REMARK    6  A    between atoms: N_15  and  C_14 
REMARK    7  A    between atoms: N_20  and  C_19 
REMARK       I    between atoms: C_22  and  N_20 
ROOT
ATOM      1  C   LIG d   1      -2.540  76.637 117.321  0.00  0.00     0.161 C 
ATOM      2  C   LIG d   1      -3.467  75.910 116.556  0.00  0.00     0.016 C 
ATOM      3  C   LIG d   1      -3.820  76.252 115.230  0.00  0.00     0.038 C 
ATOM      4  C   LIG d   1      -3.152  77.262 114.522  0.00  0.00     0.028 C 
ATOM      5  C   LIG d   1      -2.565  78.345 115.421  0.00  0.00    -0.047 C 
ATOM      6  C   LIG d   1      -1.719  77.675 116.527  0.00  0.00     0.091 C 
ENDROOT
BRANCH   1   7
ATOM      7  O   LIG d   1      -1.662  75.729 118.016  0.00  0.00    -0.368 OA
BRANCH   7   8
ATOM      8  C   LIG d   1      -1.492  74.421 117.415  0.00  0.00     0.119 C 
BRANCH   8   9
ATOM      9  C   LIG d   1      -1.318  73.405 118.561  0.00  0.00     0.028 C 
ATOM     10  C   LIG d   1       0.118  72.861 118.648  0.00  0.00     0.006 C 
ENDBRANCH   8   9
BRANCH   8  11
ATOM     11  C   LIG d   1      -0.196  74.344 116.604  0.00  0.00     0.028 C 
ATOM     12  C   LIG d   1      -0.428  74.509 115.093  0.00  0.00     0.006 C 
ENDBRANCH   8  11
ENDBRANCH   7   8
ENDBRANCH   1   7
BRANCH   6  13
ATOM     13  N   LIG d   1      -1.177  78.658 117.500  0.00  0.00    -0.311 N 
ATOM     14  C   LIG d   1       0.028  79.216 117.385  0.00  0.00     0.210 C 
ATOM     15  C   LIG d   1       0.400  80.189 118.509  0.00  0.00     0.109 C 
ATOM     16  O   LIG d   1       0.810  79.021 116.443  0.00  0.00    -0.276 OA
ATOM     17  H   LIG d   1      -1.758  78.897 118.280  0.00  0.00     0.149 HD
ENDBRANCH   6  13
BRANCH   5  18
ATOM     18  N   LIG d   1      -1.782  79.257 114.566  0.00  0.00     0.381 N 
ATOM     19  H   LIG d   1      -2.398  79.872 114.073  0.00  0.00    -0.090 HD
ATOM     20  H   LIG d   1      -1.273  78.713 113.892  0.00  0.00    -0.090 HD
ATOM     21  H   LIG d   1      -1.148  79.786 115.124  0.00  0.00    -0.090 HD
ENDBRANCH   5  18
BRANCH   3  22
ATOM     22  C   LIG d   1      -4.880  75.605 114.613  0.00  0.00     0.382 C 
ATOM     23  O   LIG d   1      -4.753  74.417 114.231  0.00  0.00    -0.241 OA
ATOM     24  O   LIG d   1      -5.947  76.209 114.393  0.00  0.00    -0.241 OA
ENDBRANCH   3  22
TORSDOF 7
ENDMDL
