MODEL 1
REMARK VINA RESULT:      -5.1      0.000      0.000
REMARK  7 active torsions:
REMARK  status: ('A' for Active; 'I' for Inactive)
REMARK    1  A    between atoms: C_2  and  C_3 
REMARK    2  A    between atoms: C_3  and  O_6 
REMARK    3  A    between atoms: C_3  and  C_4 
REMARK    4  A    between atoms: C_7  and  O_6 
REMARK    5  A    between atoms: C_9  and  C_10 
REMARK    6  A    between atoms: N_15  and  C_14 
REMARK    7  A    between atoms: N_20  and  C_19 
REMARK       I    between atoms: C_22  and  N_20 
ROOT
ATOM      1  C   LIG d   1      -5.762  77.378 116.927  0.00  0.00     0.161 C 
ATOM      2  C   LIG d   1      -7.143  77.191 117.104  0.00  0.00     0.016 C 
ATOM      3  C   LIG d   1      -7.961  78.079 117.840  0.00  0.00     0.038 C 
ATOM      4  C   LIG d   1      -7.476  79.302 118.327  0.00  0.00     0.028 C 
ATOM      5  C   LIG d   1      -5.977  79.292 118.607  0.00  0.00    -0.047 C 
ATOM      6  C   LIG d   1      -5.237  78.764 117.357  0.00  0.00     0.091 C 
ENDROOT
BRANCH   1   7
ATOM      7  O   LIG d   1      -5.404  77.109 115.558  0.00  0.00    -0.368 OA
BRANCH   7   8
ATOM      8  C   LIG d   1      -4.784  75.824 115.302  0.00  0.00     0.119 C 
BRANCH   8   9
ATOM      9  C   LIG d   1      -3.558  76.073 114.402  0.00  0.00     0.028 C 
ATOM     10  C   LIG d   1      -2.250  75.579 115.042  0.00  0.00     0.006 C 
ENDBRANCH   8   9
BRANCH   8  11
ATOM     11  C   LIG d   1      -5.706  74.913 114.487  0.00  0.00     0.028 C 
ATOM     12  C   LIG d   1      -6.415  73.858 115.351  0.00  0.00     0.006 C 
ENDBRANCH   8  11
ENDBRANCH   7   8
ENDBRANCH   1   7
BRANCH   6  13
ATOM     13  N   LIG d   1      -3.772  78.642 117.575  0.00  0.00    -0.311 N 
ATOM     14  C   LIG d   1      -2.865  78.956 116.652  0.00  0.00     0.210 C 
ATOM     15  C   LIG d   1      -1.409  78.737 117.075  0.00  0.00     0.109 C 
ATOM     16  O   LIG d   1      -3.126  79.425 115.534  0.00  0.00    -0.276 OA
ATOM     17  H   LIG d   1      -3.470  78.299 118.466  0.00  0.00     0.149 HD
ENDBRANCH   6  13
BRANCH   5  18
ATOM     18  N   LIG d   1      -5.583  80.665 118.976  0.00  0.00     0.381 N 
ATOM     19  H   LIG d   1      -5.764  81.285 118.212  0.00  0.00    -0.090 HD
ATOM     20  H   LIG d   1      -4.597  80.679 119.168  0.00  0.00    -0.090 HD
ATOM     21  H   LIG d   1      -6.090  80.960 119.781  0.00  0.00    -0.090 HD
ENDBRANCH   5  18
BRANCH   3  22
ATOM     22  C   LIG d   1      -9.270  77.727 118.131  0.00  0.00     0.382 C 
ATOM     23  O   LIG d   1      -9.680  76.569 117.872  0.00  0.00    -0.241 OA
ATOM     24  O   LIG d   1     -10.059  78.564 118.608  0.00  0.00    -0.241 OA
ENDBRANCH   3  22
TORSDOF 7
ENDMDL
MODEL 2
REMARK VINA RESULT:      -4.8     13.560     16.267
REMARK  7 active torsions:
REMARK  status: ('A' for Active; 'I' for Inactive)
REMARK    1  A    between atoms: C_2  and  C_3 
REMARK    2  A    between atoms: C_3  and  O_6 
REMARK    3  A    between atoms: C_3  and  C_4 
REMARK    4  A    between atoms: C_7  and  O_6 
REMARK    5  A    between atoms: C_9  and  C_10 
REMARK    6  A    between atoms: N_15  and  C_14 
REMARK    7  A    between atoms: N_20  and  C_19 
REMARK       I    between atoms: C_22  and  N_20 
ROOT
ATOM      1  C   LIG d   1     -15.914  65.569 117.149  0.00  0.00     0.161 C 
ATOM      2  C   LIG d   1     -15.953  66.882 116.651  0.00  0.00     0.016 C 
ATOM      3  C   LIG d   1     -15.269  67.963 117.253  0.00  0.00     0.038 C 
ATOM      4  C   LIG d   1     -14.372  67.774 118.315  0.00  0.00     0.028 C 
ATOM      5  C   LIG d   1     -14.691  66.550 119.167  0.00  0.00    -0.047 C 
ATOM      6  C   LIG d   1     -14.852  65.322 118.241  0.00  0.00     0.091 C 
ENDROOT
BRANCH   1   7
ATOM      7  O   LIG d   1     -15.739  64.639 116.061  0.00  0.00    -0.368 OA
BRANCH   7   8
ATOM      8  C   LIG d   1     -16.846  63.739 115.808  0.00  0.00     0.119 C 
BRANCH   8   9
ATOM      9  C   LIG d   1     -17.359  64.025 114.384  0.00  0.00     0.028 C 
ATOM     10  C   LIG d   1     -18.556  64.992 114.374  0.00  0.00     0.006 C 
ENDBRANCH   8   9
BRANCH   8  11
ATOM     11  C   LIG d   1     -18.030  64.038 116.733  0.00  0.00     0.028 C 
ATOM     12  C   LIG d   1     -18.422  62.836 117.607  0.00  0.00     0.006 C 
ENDBRANCH   8  11
ENDBRANCH   7   8
ENDBRANCH   1   7
BRANCH   6  13
ATOM     13  N   LIG d   1     -15.247  64.099 118.985  0.00  0.00    -0.311 N 
ATOM     14  C   LIG d   1     -14.594  62.942 118.895  0.00  0.00     0.210 C 
ATOM     15  C   LIG d   1     -15.181  61.800 119.731  0.00  0.00     0.109 C 
ATOM     16  O   LIG d   1     -13.565  62.761 118.226  0.00  0.00    -0.276 OA
ATOM     17  H   LIG d   1     -16.053  64.165 119.576  0.00  0.00     0.149 HD
ENDBRANCH   6  13
BRANCH   5  18
ATOM     18  N   LIG d   1     -13.601  66.394 120.149  0.00  0.00     0.381 N 
ATOM     19  H   LIG d   1     -12.796  66.003 119.702  0.00  0.00    -0.090 HD
ATOM     20  H   LIG d   1     -13.901  65.761 120.869  0.00  0.00    -0.090 HD
ATOM     21  H   LIG d   1     -13.373  67.278 120.547  0.00  0.00    -0.090 HD
ENDBRANCH   5  18
BRANCH   3  22
ATOM     22  C   LIG d   1     -15.512  69.257 116.818  0.00  0.00     0.382 C 
ATOM     23  O   LIG d   1     -16.234  70.023 117.501  0.00  0.00    -0.241 OA
ATOM     24  O   LIG d   1     -15.053  69.654 115.730  0.00  0.00    -0.241 OA
ENDBRANCH   3  22
TORSDOF 7
ENDMDL
MODEL 3
REMARK VINA RESULT:      -4.8     13.652     15.926
REMARK  7 active torsions:
REMARK  status: ('A' for Active; 'I' for Inactive)
REMARK    1  A    between atoms: C_2  and  C_3 
REMARK    2  A    between atoms: C_3  and  O_6 
REMARK    3  A    between atoms: C_3  and  C_4 
REMARK    4  A    between atoms: C_7  and  O_6 
REMARK    5  A    between atoms: C_9  and  C_10 
REMARK    6  A    between atoms: N_15  and  C_14 
REMARK    7  A    between atoms: N_20  and  C_19 
REMARK       I    between atoms: C_22  and  N_20 
ROOT
ATOM      1  C   LIG d   1      -4.914  92.281 119.083  0.00  0.00     0.161 C 
ATOM      2  C   LIG d   1      -4.373  91.248 118.299  0.00  0.00     0.016 C 
ATOM      3  C   LIG d   1      -4.954  90.804 117.089  0.00  0.00     0.038 C 
ATOM      4  C   LIG d   1      -6.039  91.469 116.500  0.00  0.00     0.028 C 
ATOM      5  C   LIG d   1      -6.923  92.196 117.507  0.00  0.00    -0.047 C 
ATOM      6  C   LIG d   1      -6.035  93.092 118.400  0.00  0.00     0.091 C 
ENDROOT
BRANCH   1   7
ATOM      7  O   LIG d   1      -3.862  93.159 119.529  0.00  0.00    -0.368 OA
BRANCH   7   8
ATOM      8  C   LIG d   1      -2.631  93.118 118.766  0.00  0.00     0.119 C 
BRANCH   8   9
ATOM      9  C   LIG d   1      -1.518  92.618 119.707  0.00  0.00     0.028 C 
ATOM     10  C   LIG d   1      -0.207  92.320 118.960  0.00  0.00     0.006 C 
ENDBRANCH   8   9
BRANCH   8  11
ATOM     11  C   LIG d   1      -2.197  94.521 118.333  0.00  0.00     0.028 C 
ATOM     12  C   LIG d   1      -2.857  95.632 119.166  0.00  0.00     0.006 C 
ENDBRANCH   8  11
ENDBRANCH   7   8
ENDBRANCH   1   7
BRANCH   6  13
ATOM     13  N   LIG d   1      -6.811  93.775 119.468  0.00  0.00    -0.311 N 
ATOM     14  C   LIG d   1      -7.347  94.986 119.324  0.00  0.00     0.210 C 
ATOM     15  C   LIG d   1      -8.090  95.514 120.555  0.00  0.00     0.109 C 
ATOM     16  O   LIG d   1      -7.306  95.658 118.283  0.00  0.00    -0.276 OA
ATOM     17  H   LIG d   1      -6.920  93.287 120.335  0.00  0.00     0.149 HD
ENDBRANCH   6  13
BRANCH   5  18
ATOM     18  N   LIG d   1      -7.932  92.957 116.746  0.00  0.00     0.381 N 
ATOM     19  H   LIG d   1      -8.080  92.527 115.855  0.00  0.00    -0.090 HD
ATOM     20  H   LIG d   1      -7.589  93.889 116.593  0.00  0.00    -0.090 HD
ATOM     21  H   LIG d   1      -8.789  92.989 117.254  0.00  0.00    -0.090 HD
ENDBRANCH   5  18
BRANCH   3  22
ATOM     22  C   LIG d   1      -4.472  89.657 116.476  0.00  0.00     0.382 C 
ATOM     23  O   LIG d   1      -3.480  89.058 116.958  0.00  0.00    -0.241 OA
ATOM     24  O   LIG d   1      -4.988  89.239 115.423  0.00  0.00    -0.241 OA
ENDBRANCH   3  22
TORSDOF 7
ENDMDL
MODEL 4
REMARK VINA RESULT:      -4.7     13.858     16.117
REMARK  7 active torsions:
REMARK  status: ('A' for Active; 'I' for Inactive)
REMARK    1  A    between atoms: C_2  and  C_3 
REMARK    2  A    between atoms: C_3  and  O_6 
REMARK    3  A    between atoms: C_3  and  C_4 
REMARK    4  A    between atoms: C_7  and  O_6 
REMARK    5  A    between atoms: C_9  and  C_10 
REMARK    6  A    between atoms: N_15  and  C_14 
REMARK    7  A    between atoms: N_20  and  C_19 
REMARK       I    between atoms: C_22  and  N_20 
ROOT
ATOM      1  C   LIG d   1      -3.681  92.580 119.561  0.00  0.00     0.161 C 
ATOM      2  C   LIG d   1      -3.625  93.982 119.486  0.00  0.00     0.016 C 
ATOM      3  C   LIG d   1      -2.583  94.686 118.839  0.00  0.00     0.038 C 
ATOM      4  C   LIG d   1      -1.599  94.027 118.087  0.00  0.00     0.028 C 
ATOM      5  C   LIG d   1      -1.332  92.601 118.555  0.00  0.00    -0.047 C 
ATOM      6  C   LIG d   1      -2.676  91.843 118.651  0.00  0.00     0.091 C 
ENDROOT
BRANCH   1   7
ATOM      7  O   LIG d   1      -5.024  92.130 119.292  0.00  0.00    -0.368 OA
BRANCH   7   8
ATOM      8  C   LIG d   1      -5.673  92.717 118.138  0.00  0.00     0.119 C 
BRANCH   8   9
ATOM      9  C   LIG d   1      -7.084  93.157 118.574  0.00  0.00     0.028 C 
ATOM     10  C   LIG d   1      -7.193  94.680 118.760  0.00  0.00     0.006 C 
ENDBRANCH   8   9
BRANCH   8  11
ATOM     11  C   LIG d   1      -5.896  91.678 117.035  0.00  0.00     0.028 C 
ATOM     12  C   LIG d   1      -6.965  92.108 116.018  0.00  0.00     0.006 C 
ENDBRANCH   8  11
ENDBRANCH   7   8
ENDBRANCH   1   7
BRANCH   6  13
ATOM     13  N   LIG d   1      -2.514  90.465 119.183  0.00  0.00    -0.311 N 
ATOM     14  C   LIG d   1      -2.883  89.374 118.515  0.00  0.00     0.210 C 
ATOM     15  C   LIG d   1      -2.646  88.053 119.254  0.00  0.00     0.109 C 
ATOM     16  O   LIG d   1      -3.355  89.372 117.368  0.00  0.00    -0.276 OA
ATOM     17  H   LIG d   1      -2.110  90.373 120.094  0.00  0.00     0.149 HD
ENDBRANCH   6  13
BRANCH   5  18
ATOM     18  N   LIG d   1      -0.389  91.987 117.601  0.00  0.00     0.381 N 
ATOM     19  H   LIG d   1       0.544  92.279 117.812  0.00  0.00    -0.090 HD
ATOM     20  H   LIG d   1      -0.615  92.300 116.674  0.00  0.00    -0.090 HD
ATOM     21  H   LIG d   1      -0.453  90.994 117.649  0.00  0.00    -0.090 HD
ENDBRANCH   5  18
BRANCH   3  22
ATOM     22  C   LIG d   1      -2.496  96.063 118.975  0.00  0.00     0.382 C 
ATOM     23  O   LIG d   1      -1.372  96.620 119.013  0.00  0.00    -0.241 OA
ATOM     24  O   LIG d   1      -3.526  96.751 119.104  0.00  0.00    -0.241 OA
ENDBRANCH   3  22
TORSDOF 7
ENDMDL
MODEL 5
REMARK VINA RESULT:      -4.7     11.502     13.234
REMARK  7 active torsions:
REMARK  status: ('A' for Active; 'I' for Inactive)
REMARK    1  A    between atoms: C_2  and  C_3 
REMARK    2  A    between atoms: C_3  and  O_6 
REMARK    3  A    between atoms: C_3  and  C_4 
REMARK    4  A    between atoms: C_7  and  O_6 
REMARK    5  A    between atoms: C_9  and  C_10 
REMARK    6  A    between atoms: N_15  and  C_14 
REMARK    7  A    between atoms: N_20  and  C_19 
REMARK       I    between atoms: C_22  and  N_20 
ROOT
ATOM      1  C   LIG d   1       1.013  88.413 117.115  0.00  0.00     0.161 C 
ATOM      2  C   LIG d   1      -0.384  88.274 117.159  0.00  0.00     0.016 C 
ATOM      3  C   LIG d   1      -1.231  89.151 117.874  0.00  0.00     0.038 C 
ATOM      4  C   LIG d   1      -0.748  90.323 118.475  0.00  0.00     0.028 C 
ATOM      5  C   LIG d   1       0.719  90.234 118.884  0.00  0.00    -0.047 C 
ATOM      6  C   LIG d   1       1.548  89.749 117.673  0.00  0.00     0.091 C 
ENDROOT
BRANCH   1   7
ATOM      7  O   LIG d   1       1.482  88.208 115.768  0.00  0.00    -0.368 OA
BRANCH   7   8
ATOM      8  C   LIG d   1       2.302  87.033 115.550  0.00  0.00     0.119 C 
BRANCH   8   9
ATOM      9  C   LIG d   1       3.261  87.347 114.386  0.00  0.00     0.028 C 
ATOM     10  C   LIG d   1       4.134  88.582 114.661  0.00  0.00     0.006 C 
ENDBRANCH   8   9
BRANCH   8  11
ATOM     11  C   LIG d   1       1.459  85.847 115.073  0.00  0.00     0.028 C 
ATOM     12  C   LIG d   1       2.024  85.186 113.805  0.00  0.00     0.006 C 
ENDBRANCH   8  11
ENDBRANCH   7   8
ENDBRANCH   1   7
BRANCH   6  13
ATOM     13  N   LIG d   1       2.982  89.553 118.010  0.00  0.00    -0.311 N 
ATOM     14  C   LIG d   1       3.904  90.504 117.869  0.00  0.00     0.210 C 
ATOM     15  C   LIG d   1       5.327  90.087 118.255  0.00  0.00     0.109 C 
ATOM     16  O   LIG d   1       3.674  91.662 117.491  0.00  0.00    -0.276 OA
ATOM     17  H   LIG d   1       3.251  88.652 118.353  0.00  0.00     0.149 HD
ENDBRANCH   6  13
BRANCH   5  18
ATOM     18  N   LIG d   1       1.128  91.565 119.369  0.00  0.00     0.381 N 
ATOM     19  H   LIG d   1       0.604  91.804 120.186  0.00  0.00    -0.090 HD
ATOM     20  H   LIG d   1       0.929  92.246 118.657  0.00  0.00    -0.090 HD
ATOM     21  H   LIG d   1       2.102  91.567 119.577  0.00  0.00    -0.090 HD
ENDBRANCH   5  18
BRANCH   3  22
ATOM     22  C   LIG d   1      -2.573  88.838 118.028  0.00  0.00     0.382 C 
ATOM     23  O   LIG d   1      -3.413  89.250 117.192  0.00  0.00    -0.241 OA
ATOM     24  O   LIG d   1      -2.961  88.185 119.016  0.00  0.00    -0.241 OA
ENDBRANCH   3  22
TORSDOF 7
ENDMDL
MODEL 6
REMARK VINA RESULT:      -4.5     12.045     13.582
REMARK  7 active torsions:
REMARK  status: ('A' for Active; 'I' for Inactive)
REMARK    1  A    between atoms: C_2  and  C_3 
REMARK    2  A    between atoms: C_3  and  O_6 
REMARK    3  A    between atoms: C_3  and  C_4 
REMARK    4  A    between atoms: C_7  and  O_6 
REMARK    5  A    between atoms: C_9  and  C_10 
REMARK    6  A    between atoms: N_15  and  C_14 
REMARK    7  A    between atoms: N_20  and  C_19 
REMARK       I    between atoms: C_22  and  N_20 
ROOT
ATOM      1  C   LIG d   1      -3.305  90.201 118.026  0.00  0.00     0.161 C 
ATOM      2  C   LIG d   1      -4.529  90.098 117.344  0.00  0.00     0.016 C 
ATOM      3  C   LIG d   1      -5.436  91.174 117.205  0.00  0.00     0.038 C 
ATOM      4  C   LIG d   1      -5.108  92.476 117.611  0.00  0.00     0.028 C 
ATOM      5  C   LIG d   1      -4.098  92.519 118.752  0.00  0.00    -0.047 C 
ATOM      6  C   LIG d   1      -2.881  91.642 118.378  0.00  0.00     0.091 C 
ENDROOT
BRANCH   1   7
ATOM      7  O   LIG d   1      -2.268  89.545 117.270  0.00  0.00    -0.368 OA
BRANCH   7   8
ATOM      8  C   LIG d   1      -1.803  88.277 117.795  0.00  0.00     0.119 C 
BRANCH   8   9
ATOM      9  C   LIG d   1      -2.362  88.134 119.223  0.00  0.00     0.028 C 
ATOM     10  C   LIG d   1      -1.251  87.975 120.275  0.00  0.00     0.006 C 
ENDBRANCH   8   9
BRANCH   8  11
ATOM     11  C   LIG d   1      -0.279  88.265 117.952  0.00  0.00     0.028 C 
ATOM     12  C   LIG d   1       0.448  88.918 116.766  0.00  0.00     0.006 C 
ENDBRANCH   8  11
ENDBRANCH   7   8
ENDBRANCH   1   7
BRANCH   6  13
ATOM     13  N   LIG d   1      -1.882  91.562 119.476  0.00  0.00    -0.311 N 
ATOM     14  C   LIG d   1      -0.576  91.748 119.293  0.00  0.00     0.210 C 
ATOM     15  C   LIG d   1       0.281  91.600 120.555  0.00  0.00     0.109 C 
ATOM     16  O   LIG d   1      -0.049  92.054 118.213  0.00  0.00    -0.276 OA
ATOM     17  H   LIG d   1      -2.227  91.349 120.391  0.00  0.00     0.149 HD
ENDBRANCH   6  13
BRANCH   5  18
ATOM     18  N   LIG d   1      -3.744  93.933 118.980  0.00  0.00     0.381 N 
ATOM     19  H   LIG d   1      -2.753  94.021 119.086  0.00  0.00    -0.090 HD
ATOM     20  H   LIG d   1      -4.180  94.244 119.830  0.00  0.00    -0.090 HD
ATOM     21  H   LIG d   1      -4.055  94.490 118.216  0.00  0.00    -0.090 HD
ENDBRANCH   5  18
BRANCH   3  22
ATOM     22  C   LIG d   1      -6.702  90.943 116.690  0.00  0.00     0.382 C 
ATOM     23  O   LIG d   1      -7.612  91.789 116.862  0.00  0.00    -0.241 OA
ATOM     24  O   LIG d   1      -6.958  89.879 116.095  0.00  0.00    -0.241 OA
ENDBRANCH   3  22
TORSDOF 7
ENDMDL
MODEL 7
REMARK VINA RESULT:      -4.4      2.580      3.547
REMARK  7 active torsions:
REMARK  status: ('A' for Active; 'I' for Inactive)
REMARK    1  A    between atoms: C_2  and  C_3 
REMARK    2  A    between atoms: C_3  and  O_6 
REMARK    3  A    between atoms: C_3  and  C_4 
REMARK    4  A    between atoms: C_7  and  O_6 
REMARK    5  A    between atoms: C_9  and  C_10 
REMARK    6  A    between atoms: N_15  and  C_14 
REMARK    7  A    between atoms: N_20  and  C_19 
REMARK       I    between atoms: C_22  and  N_20 
ROOT
ATOM      1  C   LIG d   1      -6.871  79.739 118.394  0.00  0.00     0.161 C 
ATOM      2  C   LIG d   1      -8.072  80.405 118.096  0.00  0.00     0.016 C 
ATOM      3  C   LIG d   1      -8.352  81.727 118.512  0.00  0.00     0.038 C 
ATOM      4  C   LIG d   1      -7.382  82.531 119.129  0.00  0.00     0.028 C 
ATOM      5  C   LIG d   1      -6.334  81.734 119.897  0.00  0.00    -0.047 C 
ATOM      6  C   LIG d   1      -5.758  80.638 118.971  0.00  0.00     0.091 C 
ENDROOT
BRANCH   1   7
ATOM      7  O   LIG d   1      -6.396  79.041 117.225  0.00  0.00    -0.368 OA
BRANCH   7   8
ATOM      8  C   LIG d   1      -6.225  77.609 117.364  0.00  0.00     0.119 C 
BRANCH   8   9
ATOM      9  C   LIG d   1      -4.882  77.238 116.706  0.00  0.00     0.028 C 
ATOM     10  C   LIG d   1      -5.009  76.042 115.747  0.00  0.00     0.006 C 
ENDBRANCH   8   9
BRANCH   8  11
ATOM     11  C   LIG d   1      -7.289  76.842 116.574  0.00  0.00     0.028 C 
ATOM     12  C   LIG d   1      -8.587  76.632 117.370  0.00  0.00     0.006 C 
ENDBRANCH   8  11
ENDBRANCH   7   8
ENDBRANCH   1   7
BRANCH   6  13
ATOM     13  N   LIG d   1      -4.786  79.758 119.669  0.00  0.00    -0.311 N 
ATOM     14  C   LIG d   1      -3.476  79.998 119.709  0.00  0.00     0.210 C 
ATOM     15  C   LIG d   1      -2.650  78.954 120.466  0.00  0.00     0.109 C 
ATOM     16  O   LIG d   1      -2.925  80.994 119.216  0.00  0.00    -0.276 OA
ATOM     17  H   LIG d   1      -5.151  78.944 120.123  0.00  0.00     0.149 HD
ENDBRANCH   6  13
BRANCH   5  18
ATOM     18  N   LIG d   1      -5.311  82.684 120.373  0.00  0.00     0.381 N 
ATOM     19  H   LIG d   1      -5.262  82.657 121.372  0.00  0.00    -0.090 HD
ATOM     20  H   LIG d   1      -5.576  83.613 120.096  0.00  0.00    -0.090 HD
ATOM     21  H   LIG d   1      -4.424  82.454 119.983  0.00  0.00    -0.090 HD
ENDBRANCH   5  18
BRANCH   3  22
ATOM     22  C   LIG d   1      -9.628  82.244 118.346  0.00  0.00     0.382 C 
ATOM     23  O   LIG d   1      -9.864  83.439 118.644  0.00  0.00    -0.241 OA
ATOM     24  O   LIG d   1     -10.556  81.517 117.943  0.00  0.00    -0.241 OA
ENDBRANCH   3  22
TORSDOF 7
ENDMDL
MODEL 8
REMARK VINA RESULT:      -4.4     13.836     16.578
REMARK  7 active torsions:
REMARK  status: ('A' for Active; 'I' for Inactive)
REMARK    1  A    between atoms: C_2  and  C_3 
REMARK    2  A    between atoms: C_3  and  O_6 
REMARK    3  A    between atoms: C_3  and  C_4 
REMARK    4  A    between atoms: C_7  and  O_6 
REMARK    5  A    between atoms: C_9  and  C_10 
REMARK    6  A    between atoms: N_15  and  C_14 
REMARK    7  A    between atoms: N_20  and  C_19 
REMARK       I    between atoms: C_22  and  N_20 
ROOT
ATOM      1  C   LIG d   1     -16.692  65.813 117.713  0.00  0.00     0.161 C 
ATOM      2  C   LIG d   1     -17.317  64.635 118.157  0.00  0.00     0.016 C 
ATOM      3  C   LIG d   1     -17.520  63.504 117.333  0.00  0.00     0.038 C 
ATOM      4  C   LIG d   1     -16.973  63.418 116.044  0.00  0.00     0.028 C 
ATOM      5  C   LIG d   1     -16.772  64.776 115.379  0.00  0.00    -0.047 C 
ATOM      6  C   LIG d   1     -15.990  65.696 116.344  0.00  0.00     0.091 C 
ENDROOT
BRANCH   1   7
ATOM      7  O   LIG d   1     -15.766  66.281 118.713  0.00  0.00    -0.368 OA
BRANCH   7   8
ATOM      8  C   LIG d   1     -16.278  67.261 119.648  0.00  0.00     0.119 C 
BRANCH   8   9
ATOM      9  C   LIG d   1     -17.208  68.207 118.863  0.00  0.00     0.028 C 
ATOM     10  C   LIG d   1     -16.616  69.618 118.708  0.00  0.00     0.006 C 
ENDBRANCH   8   9
BRANCH   8  11
ATOM     11  C   LIG d   1     -15.158  68.153 120.190  0.00  0.00     0.028 C 
ATOM     12  C   LIG d   1     -13.791  67.450 120.205  0.00  0.00     0.006 C 
ENDBRANCH   8  11
ENDBRANCH   7   8
ENDBRANCH   1   7
BRANCH   6  13
ATOM     13  N   LIG d   1     -15.824  67.071 115.805  0.00  0.00    -0.311 N 
ATOM     14  C   LIG d   1     -14.752  67.826 116.040  0.00  0.00     0.210 C 
ATOM     15  C   LIG d   1     -14.791  69.220 115.407  0.00  0.00     0.109 C 
ATOM     16  O   LIG d   1     -13.758  67.461 116.685  0.00  0.00    -0.276 OA
ATOM     17  H   LIG d   1     -16.570  67.435 115.245  0.00  0.00     0.149 HD
ENDBRANCH   6  13
BRANCH   5  18
ATOM     18  N   LIG d   1     -16.070  64.547 114.102  0.00  0.00     0.381 N 
ATOM     19  H   LIG d   1     -16.689  64.732 113.338  0.00  0.00    -0.090 HD
ATOM     20  H   LIG d   1     -15.788  63.584 114.054  0.00  0.00    -0.090 HD
ATOM     21  H   LIG d   1     -15.271  65.139 114.041  0.00  0.00    -0.090 HD
ENDBRANCH   5  18
BRANCH   3  22
ATOM     22  C   LIG d   1     -18.312  62.459 117.783  0.00  0.00     0.382 C 
ATOM     23  O   LIG d   1     -18.771  62.478 118.951  0.00  0.00    -0.241 OA
ATOM     24  O   LIG d   1     -18.536  61.476 117.052  0.00  0.00    -0.241 OA
ENDBRANCH   3  22
TORSDOF 7
ENDMDL
MODEL 9
REMARK VINA RESULT:      -4.4      3.916      5.151
REMARK  7 active torsions:
REMARK  status: ('A' for Active; 'I' for Inactive)
REMARK    1  A    between atoms: C_2  and  C_3 
REMARK    2  A    between atoms: C_3  and  O_6 
REMARK    3  A    between atoms: C_3  and  C_4 
REMARK    4  A    between atoms: C_7  and  O_6 
REMARK    5  A    between atoms: C_9  and  C_10 
REMARK    6  A    between atoms: N_15  and  C_14 
REMARK    7  A    between atoms: N_20  and  C_19 
REMARK       I    between atoms: C_22  and  N_20 
ROOT
ATOM      1  C   LIG d   1      -2.184  77.185 116.940  0.00  0.00     0.161 C 
ATOM      2  C   LIG d   1      -3.124  76.486 116.164  0.00  0.00     0.016 C 
ATOM      3  C   LIG d   1      -3.483  76.865 114.850  0.00  0.00     0.038 C 
ATOM      4  C   LIG d   1      -2.812  77.886 114.163  0.00  0.00     0.028 C 
ATOM      5  C   LIG d   1      -2.209  78.941 115.084  0.00  0.00    -0.047 C 
ATOM      6  C   LIG d   1      -1.360  78.236 116.167  0.00  0.00     0.091 C 
ENDROOT
BRANCH   1   7
ATOM      7  O   LIG d   1      -1.309  76.253 117.605  0.00  0.00    -0.368 OA
BRANCH   7   8
ATOM      8  C   LIG d   1      -1.356  74.885 117.130  0.00  0.00     0.119 C 
BRANCH   8   9
ATOM      9  C   LIG d   1      -1.450  73.968 118.365  0.00  0.00     0.028 C 
ATOM     10  C   LIG d   1      -2.131  74.660 119.558  0.00  0.00     0.006 C 
ENDBRANCH   8   9
BRANCH   8  11
ATOM     11  C   LIG d   1      -0.049  74.492 116.433  0.00  0.00     0.028 C 
ATOM     12  C   LIG d   1      -0.180  74.453 114.902  0.00  0.00     0.006 C 
ENDBRANCH   8  11
ENDBRANCH   7   8
ENDBRANCH   1   7
BRANCH   6  13
ATOM     13  N   LIG d   1      -0.802  79.190 117.160  0.00  0.00    -0.311 N 
ATOM     14  C   LIG d   1       0.390  79.769 117.031  0.00  0.00     0.210 C 
ATOM     15  C   LIG d   1       0.783  80.704 118.179  0.00  0.00     0.109 C 
ATOM     16  O   LIG d   1       1.147  79.622 116.059  0.00  0.00    -0.276 OA
ATOM     17  H   LIG d   1      -1.363  79.391 117.965  0.00  0.00     0.149 HD
ENDBRANCH   6  13
BRANCH   5  18
ATOM     18  N   LIG d   1      -1.423  79.868 114.247  0.00  0.00     0.381 N 
ATOM     19  H   LIG d   1      -1.301  80.737 114.727  0.00  0.00    -0.090 HD
ATOM     20  H   LIG d   1      -1.929  80.045 113.397  0.00  0.00    -0.090 HD
ATOM     21  H   LIG d   1      -0.535  79.468 114.037  0.00  0.00    -0.090 HD
ENDBRANCH   5  18
BRANCH   3  22
ATOM     22  C   LIG d   1      -4.553  76.243 114.225  0.00  0.00     0.382 C 
ATOM     23  O   LIG d   1      -5.651  76.841 114.118  0.00  0.00    -0.241 OA
ATOM     24  O   LIG d   1      -4.448  75.075 113.805  0.00  0.00    -0.241 OA
ENDBRANCH   3  22
TORSDOF 7
ENDMDL
