MODEL 1
REMARK VINA RESULT:      -5.9      0.000      0.000
REMARK  7 active torsions:
REMARK  status: ('A' for Active; 'I' for Inactive)
REMARK    1  A    between atoms: C_2  and  C_3 
REMARK    2  A    between atoms: C_3  and  O_6 
REMARK    3  A    between atoms: C_3  and  C_4 
REMARK    4  A    between atoms: C_7  and  O_6 
REMARK    5  A    between atoms: C_9  and  C_10 
REMARK    6  A    between atoms: N_15  and  C_14 
REMARK    7  A    between atoms: N_20  and  C_19 
REMARK       I    between atoms: C_22  and  N_20 
ROOT
ATOM      1  C   LIG d   1      -7.091  75.322 117.433  0.00  0.00     0.161 C 
ATOM      2  C   LIG d   1      -8.261  75.897 117.955  0.00  0.00     0.016 C 
ATOM      3  C   LIG d   1      -8.481  77.292 118.019  0.00  0.00     0.038 C 
ATOM      4  C   LIG d   1      -7.604  78.209 117.422  0.00  0.00     0.028 C 
ATOM      5  C   LIG d   1      -6.168  77.703 117.331  0.00  0.00    -0.047 C 
ATOM      6  C   LIG d   1      -6.171  76.303 116.676  0.00  0.00     0.091 C 
ENDROOT
BRANCH   1   7
ATOM      7  O   LIG d   1      -7.430  74.202 116.591  0.00  0.00    -0.368 OA
BRANCH   7   8
ATOM      8  C   LIG d   1      -7.993  73.048 117.262  0.00  0.00     0.119 C 
BRANCH   8   9
ATOM      9  C   LIG d   1      -7.260  71.801 116.731  0.00  0.00     0.028 C 
ATOM     10  C   LIG d   1      -6.208  72.148 115.664  0.00  0.00     0.006 C 
ENDBRANCH   8   9
BRANCH   8  11
ATOM     11  C   LIG d   1      -9.463  72.846 116.884  0.00  0.00     0.028 C 
ATOM     12  C   LIG d   1      -9.882  71.367 116.891  0.00  0.00     0.006 C 
ENDBRANCH   8  11
ENDBRANCH   7   8
ENDBRANCH   1   7
BRANCH   6  13
ATOM     13  N   LIG d   1      -4.814  75.699 116.625  0.00  0.00    -0.311 N 
ATOM     14  C   LIG d   1      -4.196  75.379 115.489  0.00  0.00     0.210 C 
ATOM     15  C   LIG d   1      -2.810  74.749 115.662  0.00  0.00     0.109 C 
ATOM     16  O   LIG d   1      -4.650  75.588 114.354  0.00  0.00    -0.276 OA
ATOM     17  H   LIG d   1      -4.359  75.524 117.500  0.00  0.00     0.149 HD
ENDBRANCH   6  13
BRANCH   5  18
ATOM     18  N   LIG d   1      -5.392  78.698 116.567  0.00  0.00     0.381 N 
ATOM     19  H   LIG d   1      -5.774  78.791 115.647  0.00  0.00    -0.090 HD
ATOM     20  H   LIG d   1      -4.444  78.376 116.483  0.00  0.00    -0.090 HD
ATOM     21  H   LIG d   1      -5.413  79.578 117.033  0.00  0.00    -0.090 HD
ENDBRANCH   5  18
BRANCH   3  22
ATOM     22  C   LIG d   1      -9.571  77.784 118.721  0.00  0.00     0.382 C 
ATOM     23  O   LIG d   1     -10.067  78.894 118.411  0.00  0.00    -0.241 OA
ATOM     24  O   LIG d   1     -10.036  77.153 119.689  0.00  0.00    -0.241 OA
ENDBRANCH   3  22
TORSDOF 7
ENDMDL
MODEL 2
REMARK VINA RESULT:      -5.8      2.005      2.950
REMARK  7 active torsions:
REMARK  status: ('A' for Active; 'I' for Inactive)
REMARK    1  A    between atoms: C_2  and  C_3 
REMARK    2  A    between atoms: C_3  and  O_6 
REMARK    3  A    between atoms: C_3  and  C_4 
REMARK    4  A    between atoms: C_7  and  O_6 
REMARK    5  A    between atoms: C_9  and  C_10 
REMARK    6  A    between atoms: N_15  and  C_14 
REMARK    7  A    between atoms: N_20  and  C_19 
REMARK       I    between atoms: C_22  and  N_20 
ROOT
ATOM      1  C   LIG d   1      -6.018  76.841 117.967  0.00  0.00     0.161 C 
ATOM      2  C   LIG d   1      -7.338  76.520 118.328  0.00  0.00     0.016 C 
ATOM      3  C   LIG d   1      -8.387  77.468 118.363  0.00  0.00     0.038 C 
ATOM      4  C   LIG d   1      -8.219  78.778 117.892  0.00  0.00     0.028 C 
ATOM      5  C   LIG d   1      -6.782  79.279 117.995  0.00  0.00    -0.047 C 
ATOM      6  C   LIG d   1      -5.840  78.241 117.343  0.00  0.00     0.091 C 
ENDROOT
BRANCH   1   7
ATOM      7  O   LIG d   1      -5.493  75.829 117.086  0.00  0.00    -0.368 OA
BRANCH   7   8
ATOM      8  C   LIG d   1      -6.412  75.307 116.094  0.00  0.00     0.119 C 
BRANCH   8   9
ATOM      9  C   LIG d   1      -6.334  73.770 116.154  0.00  0.00     0.028 C 
ATOM     10  C   LIG d   1      -7.528  73.150 116.900  0.00  0.00     0.006 C 
ENDBRANCH   8   9
BRANCH   8  11
ATOM     11  C   LIG d   1      -5.973  75.681 114.676  0.00  0.00     0.028 C 
ATOM     12  C   LIG d   1      -7.070  76.410 113.885  0.00  0.00     0.006 C 
ENDBRANCH   8  11
ENDBRANCH   7   8
ENDBRANCH   1   7
BRANCH   6  13
ATOM     13  N   LIG d   1      -4.408  78.613 117.475  0.00  0.00    -0.311 N 
ATOM     14  C   LIG d   1      -3.616  78.861 116.433  0.00  0.00     0.210 C 
ATOM     15  C   LIG d   1      -2.167  79.208 116.791  0.00  0.00     0.109 C 
ATOM     16  O   LIG d   1      -3.984  78.859 115.249  0.00  0.00    -0.276 OA
ATOM     17  H   LIG d   1      -4.035  78.669 118.403  0.00  0.00     0.149 HD
ENDBRANCH   6  13
BRANCH   5  18
ATOM     18  N   LIG d   1      -6.724  80.602 117.344  0.00  0.00     0.381 N 
ATOM     19  H   LIG d   1      -7.581  80.779 116.860  0.00  0.00    -0.090 HD
ATOM     20  H   LIG d   1      -5.977  80.600 116.672  0.00  0.00    -0.090 HD
ATOM     21  H   LIG d   1      -6.565  81.311 118.026  0.00  0.00    -0.090 HD
ENDBRANCH   5  18
BRANCH   3  22
ATOM     22  C   LIG d   1      -9.611  77.117 118.913  0.00  0.00     0.382 C 
ATOM     23  O   LIG d   1     -10.554  76.762 118.166  0.00  0.00    -0.241 OA
ATOM     24  O   LIG d   1      -9.797  77.194 120.142  0.00  0.00    -0.241 OA
ENDBRANCH   3  22
TORSDOF 7
ENDMDL
MODEL 3
REMARK VINA RESULT:      -5.5      2.215      4.822
REMARK  7 active torsions:
REMARK  status: ('A' for Active; 'I' for Inactive)
REMARK    1  A    between atoms: C_2  and  C_3 
REMARK    2  A    between atoms: C_3  and  O_6 
REMARK    3  A    between atoms: C_3  and  C_4 
REMARK    4  A    between atoms: C_7  and  O_6 
REMARK    5  A    between atoms: C_9  and  C_10 
REMARK    6  A    between atoms: N_15  and  C_14 
REMARK    7  A    between atoms: N_20  and  C_19 
REMARK       I    between atoms: C_22  and  N_20 
ROOT
ATOM      1  C   LIG d   1      -6.767  77.058 116.697  0.00  0.00     0.161 C 
ATOM      2  C   LIG d   1      -8.114  76.850 117.037  0.00  0.00     0.016 C 
ATOM      3  C   LIG d   1      -8.713  75.570 117.097  0.00  0.00     0.038 C 
ATOM      4  C   LIG d   1      -7.961  74.393 116.968  0.00  0.00     0.028 C 
ATOM      5  C   LIG d   1      -6.702  74.568 116.126  0.00  0.00    -0.047 C 
ATOM      6  C   LIG d   1      -5.904  75.779 116.661  0.00  0.00     0.091 C 
ENDROOT
BRANCH   1   7
ATOM      7  O   LIG d   1      -6.184  78.031 117.586  0.00  0.00    -0.368 OA
BRANCH   7   8
ATOM      8  C   LIG d   1      -5.844  79.310 116.996  0.00  0.00     0.119 C 
BRANCH   8   9
ATOM      9  C   LIG d   1      -4.314  79.346 116.817  0.00  0.00     0.028 C 
ATOM     10  C   LIG d   1      -3.565  78.878 118.077  0.00  0.00     0.006 C 
ENDBRANCH   8   9
BRANCH   8  11
ATOM     11  C   LIG d   1      -6.169  80.466 117.946  0.00  0.00     0.028 C 
ATOM     12  C   LIG d   1      -7.581  81.034 117.733  0.00  0.00     0.006 C 
ENDBRANCH   8  11
ENDBRANCH   7   8
ENDBRANCH   1   7
BRANCH   6  13
ATOM     13  N   LIG d   1      -4.700  76.072 115.841  0.00  0.00    -0.311 N 
ATOM     14  C   LIG d   1      -3.483  75.620 116.138  0.00  0.00     0.210 C 
ATOM     15  C   LIG d   1      -2.377  76.056 115.172  0.00  0.00     0.109 C 
ATOM     16  O   LIG d   1      -3.220  74.872 117.092  0.00  0.00    -0.276 OA
ATOM     17  H   LIG d   1      -4.828  76.646 115.031  0.00  0.00     0.149 HD
ENDBRANCH   6  13
BRANCH   5  18
ATOM     18  N   LIG d   1      -5.944  73.304 116.188  0.00  0.00     0.381 N 
ATOM     19  H   LIG d   1      -5.049  73.424 115.757  0.00  0.00    -0.090 HD
ATOM     20  H   LIG d   1      -6.448  72.598 115.679  0.00  0.00    -0.090 HD
ATOM     21  H   LIG d   1      -5.830  73.022 117.137  0.00  0.00    -0.090 HD
ENDBRANCH   5  18
BRANCH   3  22
ATOM     22  C   LIG d   1     -10.087  75.461 117.250  0.00  0.00     0.382 C 
ATOM     23  O   LIG d   1     -10.719  76.340 117.884  0.00  0.00    -0.241 OA
ATOM     24  O   LIG d   1     -10.696  74.472 116.799  0.00  0.00    -0.241 OA
ENDBRANCH   3  22
TORSDOF 7
ENDMDL
MODEL 4
REMARK VINA RESULT:      -5.2      2.153      4.862
REMARK  7 active torsions:
REMARK  status: ('A' for Active; 'I' for Inactive)
REMARK    1  A    between atoms: C_2  and  C_3 
REMARK    2  A    between atoms: C_3  and  O_6 
REMARK    3  A    between atoms: C_3  and  C_4 
REMARK    4  A    between atoms: C_7  and  O_6 
REMARK    5  A    between atoms: C_9  and  C_10 
REMARK    6  A    between atoms: N_15  and  C_14 
REMARK    7  A    between atoms: N_20  and  C_19 
REMARK       I    between atoms: C_22  and  N_20 
ROOT
ATOM      1  C   LIG d   1      -6.846  77.283 116.825  0.00  0.00     0.161 C 
ATOM      2  C   LIG d   1      -8.181  77.000 117.158  0.00  0.00     0.016 C 
ATOM      3  C   LIG d   1      -8.722  75.694 117.163  0.00  0.00     0.038 C 
ATOM      4  C   LIG d   1      -7.919  74.558 116.979  0.00  0.00     0.028 C 
ATOM      5  C   LIG d   1      -6.673  74.826 116.143  0.00  0.00    -0.047 C 
ATOM      6  C   LIG d   1      -5.927  76.047 116.730  0.00  0.00     0.091 C 
ENDROOT
BRANCH   1   7
ATOM      7  O   LIG d   1      -6.302  78.241 117.754  0.00  0.00    -0.368 OA
BRANCH   7   8
ATOM      8  C   LIG d   1      -7.194  79.304 118.168  0.00  0.00     0.119 C 
BRANCH   8   9
ATOM      9  C   LIG d   1      -6.627  80.626 117.617  0.00  0.00     0.028 C 
ATOM     10  C   LIG d   1      -7.703  81.717 117.483  0.00  0.00     0.006 C 
ENDBRANCH   8   9
BRANCH   8  11
ATOM     11  C   LIG d   1      -7.197  79.468 119.691  0.00  0.00     0.028 C 
ATOM     12  C   LIG d   1      -8.461  78.895 120.350  0.00  0.00     0.006 C 
ENDBRANCH   8  11
ENDBRANCH   7   8
ENDBRANCH   1   7
BRANCH   6  13
ATOM     13  N   LIG d   1      -4.741  76.429 115.920  0.00  0.00    -0.311 N 
ATOM     14  C   LIG d   1      -4.811  76.784 114.639  0.00  0.00     0.210 C 
ATOM     15  C   LIG d   1      -3.467  77.121 113.986  0.00  0.00     0.109 C 
ATOM     16  O   LIG d   1      -5.863  76.883 113.989  0.00  0.00    -0.276 OA
ATOM     17  H   LIG d   1      -3.851  76.407 116.378  0.00  0.00     0.149 HD
ENDBRANCH   6  13
BRANCH   5  18
ATOM     18  N   LIG d   1      -5.860  73.595 116.146  0.00  0.00     0.381 N 
ATOM     19  H   LIG d   1      -5.989  73.108 117.010  0.00  0.00    -0.090 HD
ATOM     20  H   LIG d   1      -4.891  73.846 116.067  0.00  0.00    -0.090 HD
ATOM     21  H   LIG d   1      -6.124  73.010 115.384  0.00  0.00    -0.090 HD
ENDBRANCH   5  18
BRANCH   3  22
ATOM     22  C   LIG d   1     -10.089  75.517 117.314  0.00  0.00     0.382 C 
ATOM     23  O   LIG d   1     -10.652  74.517 116.806  0.00  0.00    -0.241 OA
ATOM     24  O   LIG d   1     -10.774  76.367 117.914  0.00  0.00    -0.241 OA
ENDBRANCH   3  22
TORSDOF 7
ENDMDL
MODEL 5
REMARK VINA RESULT:      -5.2      2.129      5.265
REMARK  7 active torsions:
REMARK  status: ('A' for Active; 'I' for Inactive)
REMARK    1  A    between atoms: C_2  and  C_3 
REMARK    2  A    between atoms: C_3  and  O_6 
REMARK    3  A    between atoms: C_3  and  C_4 
REMARK    4  A    between atoms: C_7  and  O_6 
REMARK    5  A    between atoms: C_9  and  C_10 
REMARK    6  A    between atoms: N_15  and  C_14 
REMARK    7  A    between atoms: N_20  and  C_19 
REMARK       I    between atoms: C_22  and  N_20 
ROOT
ATOM      1  C   LIG d   1      -5.072  76.008 116.002  0.00  0.00     0.161 C 
ATOM      2  C   LIG d   1      -3.906  75.266 115.750  0.00  0.00     0.016 C 
ATOM      3  C   LIG d   1      -2.782  75.267 116.609  0.00  0.00     0.038 C 
ATOM      4  C   LIG d   1      -2.808  75.896 117.863  0.00  0.00     0.028 C 
ATOM      5  C   LIG d   1      -3.777  77.071 117.931  0.00  0.00    -0.047 C 
ATOM      6  C   LIG d   1      -5.161  76.611 117.419  0.00  0.00     0.091 C 
ENDROOT
BRANCH   1   7
ATOM      7  O   LIG d   1      -6.234  75.200 115.727  0.00  0.00    -0.368 OA
BRANCH   7   8
ATOM      8  C   LIG d   1      -6.578  74.216 116.734  0.00  0.00     0.119 C 
BRANCH   8   9
ATOM      9  C   LIG d   1      -6.509  72.828 116.067  0.00  0.00     0.028 C 
ATOM     10  C   LIG d   1      -7.435  71.805 116.746  0.00  0.00     0.006 C 
ENDBRANCH   8   9
BRANCH   8  11
ATOM     11  C   LIG d   1      -8.031  74.374 117.193  0.00  0.00     0.028 C 
ATOM     12  C   LIG d   1      -8.774  75.492 116.445  0.00  0.00     0.006 C 
ENDBRANCH   8  11
ENDBRANCH   7   8
ENDBRANCH   1   7
BRANCH   6  13
ATOM     13  N   LIG d   1      -6.147  77.723 117.373  0.00  0.00    -0.311 N 
ATOM     14  C   LIG d   1      -7.010  77.978 118.355  0.00  0.00     0.210 C 
ATOM     15  C   LIG d   1      -7.952  79.158 118.097  0.00  0.00     0.109 C 
ATOM     16  O   LIG d   1      -7.063  77.360 119.429  0.00  0.00    -0.276 OA
ATOM     17  H   LIG d   1      -6.151  78.295 116.551  0.00  0.00     0.149 HD
ENDBRANCH   6  13
BRANCH   5  18
ATOM     18  N   LIG d   1      -3.805  77.545 119.327  0.00  0.00     0.381 N 
ATOM     19  H   LIG d   1      -4.620  77.193 119.788  0.00  0.00    -0.090 HD
ATOM     20  H   LIG d   1      -3.851  78.549 119.329  0.00  0.00    -0.090 HD
ATOM     21  H   LIG d   1      -2.986  77.242 119.807  0.00  0.00    -0.090 HD
ENDBRANCH   5  18
BRANCH   3  22
ATOM     22  C   LIG d   1      -1.602  74.666 116.197  0.00  0.00     0.382 C 
ATOM     23  O   LIG d   1      -1.163  74.874 115.041  0.00  0.00    -0.241 OA
ATOM     24  O   LIG d   1      -0.995  73.884 116.953  0.00  0.00    -0.241 OA
ENDBRANCH   3  22
TORSDOF 7
ENDMDL
MODEL 6
REMARK VINA RESULT:      -5.1      2.065      5.452
REMARK  7 active torsions:
REMARK  status: ('A' for Active; 'I' for Inactive)
REMARK    1  A    between atoms: C_2  and  C_3 
REMARK    2  A    between atoms: C_3  and  O_6 
REMARK    3  A    between atoms: C_3  and  C_4 
REMARK    4  A    between atoms: C_7  and  O_6 
REMARK    5  A    between atoms: C_9  and  C_10 
REMARK    6  A    between atoms: N_15  and  C_14 
REMARK    7  A    between atoms: N_20  and  C_19 
REMARK       I    between atoms: C_22  and  N_20 
ROOT
ATOM      1  C   LIG d   1      -5.462  75.589 116.239  0.00  0.00     0.161 C 
ATOM      2  C   LIG d   1      -5.895  74.264 116.070  0.00  0.00     0.016 C 
ATOM      3  C   LIG d   1      -7.074  73.750 116.659  0.00  0.00     0.038 C 
ATOM      4  C   LIG d   1      -7.984  74.574 117.337  0.00  0.00     0.028 C 
ATOM      5  C   LIG d   1      -7.337  75.807 117.960  0.00  0.00    -0.047 C 
ATOM      6  C   LIG d   1      -6.499  76.532 116.883  0.00  0.00     0.091 C 
ENDROOT
BRANCH   1   7
ATOM      7  O   LIG d   1      -5.017  76.122 114.975  0.00  0.00    -0.368 OA
BRANCH   7   8
ATOM      8  C   LIG d   1      -3.585  76.136 114.758  0.00  0.00     0.119 C 
BRANCH   8   9
ATOM      9  C   LIG d   1      -2.906  76.072 116.140  0.00  0.00     0.028 C 
ATOM     10  C   LIG d   1      -1.773  75.034 116.190  0.00  0.00     0.006 C 
ENDBRANCH   8   9
BRANCH   8  11
ATOM     11  C   LIG d   1      -3.127  77.462 114.143  0.00  0.00     0.028 C 
ATOM     12  C   LIG d   1      -3.092  78.611 115.164  0.00  0.00     0.006 C 
ENDBRANCH   8  11
ENDBRANCH   7   8
ENDBRANCH   1   7
BRANCH   6  13
ATOM     13  N   LIG d   1      -5.764  77.703 117.430  0.00  0.00    -0.311 N 
ATOM     14  C   LIG d   1      -6.248  78.943 117.417  0.00  0.00     0.210 C 
ATOM     15  C   LIG d   1      -5.319  80.006 118.013  0.00  0.00     0.109 C 
ATOM     16  O   LIG d   1      -7.372  79.260 116.999  0.00  0.00    -0.276 OA
ATOM     17  H   LIG d   1      -4.857  77.531 117.818  0.00  0.00     0.149 HD
ENDBRANCH   6  13
BRANCH   5  18
ATOM     18  N   LIG d   1      -8.417  76.645 118.514  0.00  0.00     0.381 N 
ATOM     19  H   LIG d   1      -9.000  76.980 117.773  0.00  0.00    -0.090 HD
ATOM     20  H   LIG d   1      -8.008  77.438 118.977  0.00  0.00    -0.090 HD
ATOM     21  H   LIG d   1      -8.960  76.117 119.162  0.00  0.00    -0.090 HD
ENDBRANCH   5  18
BRANCH   3  22
ATOM     22  C   LIG d   1      -7.332  72.388 116.606  0.00  0.00     0.382 C 
ATOM     23  O   LIG d   1      -8.144  71.872 117.411  0.00  0.00    -0.241 OA
ATOM     24  O   LIG d   1      -6.729  71.663 115.793  0.00  0.00    -0.241 OA
ENDBRANCH   3  22
TORSDOF 7
ENDMDL
MODEL 7
REMARK VINA RESULT:      -5.1      2.605      5.973
REMARK  7 active torsions:
REMARK  status: ('A' for Active; 'I' for Inactive)
REMARK    1  A    between atoms: C_2  and  C_3 
REMARK    2  A    between atoms: C_3  and  O_6 
REMARK    3  A    between atoms: C_3  and  C_4 
REMARK    4  A    between atoms: C_7  and  O_6 
REMARK    5  A    between atoms: C_9  and  C_10 
REMARK    6  A    between atoms: N_15  and  C_14 
REMARK    7  A    between atoms: N_20  and  C_19 
REMARK       I    between atoms: C_22  and  N_20 
ROOT
ATOM      1  C   LIG d   1      -6.288  77.869 117.267  0.00  0.00     0.161 C 
ATOM      2  C   LIG d   1      -6.373  76.528 116.857  0.00  0.00     0.016 C 
ATOM      3  C   LIG d   1      -7.509  75.717 117.079  0.00  0.00     0.038 C 
ATOM      4  C   LIG d   1      -8.704  76.239 117.597  0.00  0.00     0.028 C 
ATOM      5  C   LIG d   1      -8.495  77.459 118.488  0.00  0.00    -0.047 C 
ATOM      6  C   LIG d   1      -7.623  78.488 117.734  0.00  0.00     0.091 C 
ENDROOT
BRANCH   1   7
ATOM      7  O   LIG d   1      -5.707  78.666 116.216  0.00  0.00    -0.368 OA
BRANCH   7   8
ATOM      8  C   LIG d   1      -4.382  79.192 116.474  0.00  0.00     0.119 C 
BRANCH   8   9
ATOM      9  C   LIG d   1      -3.399  78.445 115.552  0.00  0.00     0.028 C 
ATOM     10  C   LIG d   1      -2.665  77.306 116.278  0.00  0.00     0.006 C 
ENDBRANCH   8   9
BRANCH   8  11
ATOM     11  C   LIG d   1      -3.923  78.872 117.900  0.00  0.00     0.028 C 
ATOM     12  C   LIG d   1      -3.653  80.133 118.736  0.00  0.00     0.006 C 
ENDBRANCH   8  11
ENDBRANCH   7   8
ENDBRANCH   1   7
BRANCH   6  13
ATOM     13  N   LIG d   1      -7.300  79.676 118.566  0.00  0.00    -0.311 N 
ATOM     14  C   LIG d   1      -7.409  80.929 118.128  0.00  0.00     0.210 C 
ATOM     15  C   LIG d   1      -7.007  82.006 119.141  0.00  0.00     0.109 C 
ATOM     16  O   LIG d   1      -7.830  81.253 117.007  0.00  0.00    -0.276 OA
ATOM     17  H   LIG d   1      -6.981  79.506 119.499  0.00  0.00     0.149 HD
ENDBRANCH   6  13
BRANCH   5  18
ATOM     18  N   LIG d   1      -9.827  77.982 118.845  0.00  0.00     0.381 N 
ATOM     19  H   LIG d   1     -10.082  78.717 118.217  0.00  0.00    -0.090 HD
ATOM     20  H   LIG d   1      -9.789  78.361 119.775  0.00  0.00    -0.090 HD
ATOM     21  H   LIG d   1     -10.503  77.251 118.805  0.00  0.00    -0.090 HD
ENDBRANCH   5  18
BRANCH   3  22
ATOM     22  C   LIG d   1      -7.443  74.356 116.819  0.00  0.00     0.382 C 
ATOM     23  O   LIG d   1      -6.490  73.891 116.149  0.00  0.00    -0.241 OA
ATOM     24  O   LIG d   1      -8.348  73.594 117.209  0.00  0.00    -0.241 OA
ENDBRANCH   3  22
TORSDOF 7
ENDMDL
MODEL 8
REMARK VINA RESULT:      -5.1      2.109      2.696
REMARK  7 active torsions:
REMARK  status: ('A' for Active; 'I' for Inactive)
REMARK    1  A    between atoms: C_2  and  C_3 
REMARK    2  A    between atoms: C_3  and  O_6 
REMARK    3  A    between atoms: C_3  and  C_4 
REMARK    4  A    between atoms: C_7  and  O_6 
REMARK    5  A    between atoms: C_9  and  C_10 
REMARK    6  A    between atoms: N_15  and  C_14 
REMARK    7  A    between atoms: N_20  and  C_19 
REMARK       I    between atoms: C_22  and  N_20 
ROOT
ATOM      1  C   LIG d   1      -6.484  77.265 117.478  0.00  0.00     0.161 C 
ATOM      2  C   LIG d   1      -7.385  78.342 117.498  0.00  0.00     0.016 C 
ATOM      3  C   LIG d   1      -6.980  79.696 117.519  0.00  0.00     0.038 C 
ATOM      4  C   LIG d   1      -5.636  80.070 117.368  0.00  0.00     0.028 C 
ATOM      5  C   LIG d   1      -4.654  79.009 117.853  0.00  0.00    -0.047 C 
ATOM      6  C   LIG d   1      -5.017  77.655 117.201  0.00  0.00     0.091 C 
ENDROOT
BRANCH   1   7
ATOM      7  O   LIG d   1      -6.926  76.274 116.529  0.00  0.00    -0.368 OA
BRANCH   7   8
ATOM      8  C   LIG d   1      -6.886  74.898 116.979  0.00  0.00     0.119 C 
BRANCH   8   9
ATOM      9  C   LIG d   1      -6.138  74.082 115.907  0.00  0.00     0.028 C 
ATOM     10  C   LIG d   1      -5.688  74.948 114.719  0.00  0.00     0.006 C 
ENDBRANCH   8   9
BRANCH   8  11
ATOM     11  C   LIG d   1      -8.291  74.291 117.043  0.00  0.00     0.028 C 
ATOM     12  C   LIG d   1      -9.398  75.321 116.766  0.00  0.00     0.006 C 
ENDBRANCH   8  11
ENDBRANCH   7   8
ENDBRANCH   1   7
BRANCH   6  13
ATOM     13  N   LIG d   1      -4.157  76.544 117.686  0.00  0.00    -0.311 N 
ATOM     14  C   LIG d   1      -3.067  76.126 117.044  0.00  0.00     0.210 C 
ATOM     15  C   LIG d   1      -2.336  74.954 117.707  0.00  0.00     0.109 C 
ATOM     16  O   LIG d   1      -2.619  76.636 116.007  0.00  0.00    -0.276 OA
ATOM     17  H   LIG d   1      -4.430  76.094 118.538  0.00  0.00     0.149 HD
ENDBRANCH   6  13
BRANCH   5  18
ATOM     18  N   LIG d   1      -3.295  79.469 117.511  0.00  0.00     0.381 N 
ATOM     19  H   LIG d   1      -2.953  78.959 116.721  0.00  0.00    -0.090 HD
ATOM     20  H   LIG d   1      -2.686  79.291 118.289  0.00  0.00    -0.090 HD
ATOM     21  H   LIG d   1      -3.307  80.444 117.306  0.00  0.00    -0.090 HD
ENDBRANCH   5  18
BRANCH   3  22
ATOM     22  C   LIG d   1      -7.920  80.692 117.732  0.00  0.00     0.382 C 
ATOM     23  O   LIG d   1      -7.941  81.705 116.992  0.00  0.00    -0.241 OA
ATOM     24  O   LIG d   1      -8.720  80.612 118.684  0.00  0.00    -0.241 OA
ENDBRANCH   3  22
TORSDOF 7
ENDMDL
MODEL 9
REMARK VINA RESULT:      -4.9     16.428     18.857
REMARK  7 active torsions:
REMARK  status: ('A' for Active; 'I' for Inactive)
REMARK    1  A    between atoms: C_2  and  C_3 
REMARK    2  A    between atoms: C_3  and  O_6 
REMARK    3  A    between atoms: C_3  and  C_4 
REMARK    4  A    between atoms: C_7  and  O_6 
REMARK    5  A    between atoms: C_9  and  C_10 
REMARK    6  A    between atoms: N_15  and  C_14 
REMARK    7  A    between atoms: N_20  and  C_19 
REMARK       I    between atoms: C_22  and  N_20 
ROOT
ATOM      1  C   LIG d   1       0.323  59.281 116.718  0.00  0.00     0.161 C 
ATOM      2  C   LIG d   1       1.698  59.240 117.002  0.00  0.00     0.016 C 
ATOM      3  C   LIG d   1       2.237  59.520 118.279  0.00  0.00     0.038 C 
ATOM      4  C   LIG d   1       1.421  59.713 119.403  0.00  0.00     0.028 C 
ATOM      5  C   LIG d   1       0.039  60.261 119.061  0.00  0.00    -0.047 C 
ATOM      6  C   LIG d   1      -0.591  59.380 117.957  0.00  0.00     0.091 C 
ENDROOT
BRANCH   1   7
ATOM      7  O   LIG d   1      -0.044  58.141 115.915  0.00  0.00    -0.368 OA
BRANCH   7   8
ATOM      8  C   LIG d   1      -0.618  57.018 116.628  0.00  0.00     0.119 C 
BRANCH   8   9
ATOM      9  C   LIG d   1       0.291  55.799 116.381  0.00  0.00     0.028 C 
ATOM     10  C   LIG d   1       1.283  55.563 117.533  0.00  0.00     0.006 C 
ENDBRANCH   8   9
BRANCH   8  11
ATOM     11  C   LIG d   1      -1.982  56.630 116.050  0.00  0.00     0.028 C 
ATOM     12  C   LIG d   1      -2.807  55.753 117.006  0.00  0.00     0.006 C 
ENDBRANCH   8  11
ENDBRANCH   7   8
ENDBRANCH   1   7
BRANCH   6  13
ATOM     13  N   LIG d   1      -1.909  59.896 117.504  0.00  0.00    -0.311 N 
ATOM     14  C   LIG d   1      -3.071  59.480 118.005  0.00  0.00     0.210 C 
ATOM     15  C   LIG d   1      -4.312  60.127 117.382  0.00  0.00     0.109 C 
ATOM     16  O   LIG d   1      -3.190  58.661 118.928  0.00  0.00    -0.276 OA
ATOM     17  H   LIG d   1      -1.904  60.587 116.779  0.00  0.00     0.149 HD
ENDBRANCH   6  13
BRANCH   5  18
ATOM     18  N   LIG d   1      -0.752  60.283 120.305  0.00  0.00     0.381 N 
ATOM     19  H   LIG d   1      -0.441  59.555 120.917  0.00  0.00    -0.090 HD
ATOM     20  H   LIG d   1      -1.717  60.114 120.080  0.00  0.00    -0.090 HD
ATOM     21  H   LIG d   1      -0.658  61.167 120.754  0.00  0.00    -0.090 HD
ENDBRANCH   5  18
BRANCH   3  22
ATOM     22  C   LIG d   1       3.610  59.648 118.432  0.00  0.00     0.382 C 
ATOM     23  O   LIG d   1       4.171  59.196 119.459  0.00  0.00    -0.241 OA
ATOM     24  O   LIG d   1       4.287  60.250 117.578  0.00  0.00    -0.241 OA
ENDBRANCH   3  22
TORSDOF 7
ENDMDL
