MODEL 1
REMARK VINA RESULT:      -5.6      0.000      0.000
REMARK  7 active torsions:
REMARK  status: ('A' for Active; 'I' for Inactive)
REMARK    1  A    between atoms: C_2  and  C_3 
REMARK    2  A    between atoms: C_3  and  O_6 
REMARK    3  A    between atoms: C_3  and  C_4 
REMARK    4  A    between atoms: C_7  and  O_6 
REMARK    5  A    between atoms: C_9  and  C_10 
REMARK    6  A    between atoms: N_15  and  C_14 
REMARK    7  A    between atoms: N_20  and  C_19 
REMARK       I    between atoms: C_22  and  N_20 
ROOT
ATOM      1  C   LIG d   1      -7.876  75.284 116.677  0.00  0.00     0.161 C 
ATOM      2  C   LIG d   1      -6.878  74.540 116.025  0.00  0.00     0.016 C 
ATOM      3  C   LIG d   1      -5.523  74.942 115.963  0.00  0.00     0.038 C 
ATOM      4  C   LIG d   1      -5.044  76.045 116.684  0.00  0.00     0.028 C 
ATOM      5  C   LIG d   1      -6.106  77.108 116.943  0.00  0.00    -0.047 C 
ATOM      6  C   LIG d   1      -7.351  76.433 117.563  0.00  0.00     0.091 C 
ENDROOT
BRANCH   1   7
ATOM      7  O   LIG d   1      -8.718  74.402 117.446  0.00  0.00    -0.368 OA
BRANCH   7   8
ATOM      8  C   LIG d   1      -8.136  73.129 117.818  0.00  0.00     0.119 C 
BRANCH   8   9
ATOM      9  C   LIG d   1      -8.884  72.032 117.036  0.00  0.00     0.028 C 
ATOM     10  C   LIG d   1      -8.773  70.653 117.708  0.00  0.00     0.006 C 
ENDBRANCH   8   9
BRANCH   8  11
ATOM     11  C   LIG d   1      -8.383  72.814 119.296  0.00  0.00     0.028 C 
ATOM     12  C   LIG d   1      -8.637  74.073 120.139  0.00  0.00     0.006 C 
ENDBRANCH   8  11
ENDBRANCH   7   8
ENDBRANCH   1   7
BRANCH   6  13
ATOM     13  N   LIG d   1      -8.470  77.388 117.770  0.00  0.00    -0.311 N 
ATOM     14  C   LIG d   1      -8.702  78.006 118.927  0.00  0.00     0.210 C 
ATOM     15  C   LIG d   1      -9.920  78.936 118.931  0.00  0.00     0.109 C 
ATOM     16  O   LIG d   1      -7.995  77.898 119.941  0.00  0.00    -0.276 OA
ATOM     17  H   LIG d   1      -9.074  77.559 116.990  0.00  0.00     0.149 HD
ENDBRANCH   6  13
BRANCH   5  18
ATOM     18  N   LIG d   1      -5.507  78.132 117.819  0.00  0.00     0.381 N 
ATOM     19  H   LIG d   1      -6.228  78.612 118.321  0.00  0.00    -0.090 HD
ATOM     20  H   LIG d   1      -5.020  78.802 117.250  0.00  0.00    -0.090 HD
ATOM     21  H   LIG d   1      -4.874  77.706 118.459  0.00  0.00    -0.090 HD
ENDBRANCH   5  18
BRANCH   3  22
ATOM     22  C   LIG d   1      -4.641  74.258 115.141  0.00  0.00     0.382 C 
ATOM     23  O   LIG d   1      -5.078  73.568 114.188  0.00  0.00    -0.241 OA
ATOM     24  O   LIG d   1      -3.416  74.286 115.367  0.00  0.00    -0.241 OA
ENDBRANCH   3  22
TORSDOF 7
ENDMDL
MODEL 2
REMARK VINA RESULT:      -5.6      2.345      4.405
REMARK  7 active torsions:
REMARK  status: ('A' for Active; 'I' for Inactive)
REMARK    1  A    between atoms: C_2  and  C_3 
REMARK    2  A    between atoms: C_3  and  O_6 
REMARK    3  A    between atoms: C_3  and  C_4 
REMARK    4  A    between atoms: C_7  and  O_6 
REMARK    5  A    between atoms: C_9  and  C_10 
REMARK    6  A    between atoms: N_15  and  C_14 
REMARK    7  A    between atoms: N_20  and  C_19 
REMARK       I    between atoms: C_22  and  N_20 
ROOT
ATOM      1  C   LIG d   1      -6.440  75.481 116.803  0.00  0.00     0.161 C 
ATOM      2  C   LIG d   1      -5.517  76.047 115.907  0.00  0.00     0.016 C 
ATOM      3  C   LIG d   1      -4.765  75.287 114.982  0.00  0.00     0.038 C 
ATOM      4  C   LIG d   1      -4.996  73.917 114.786  0.00  0.00     0.028 C 
ATOM      5  C   LIG d   1      -5.559  73.215 116.017  0.00  0.00    -0.047 C 
ATOM      6  C   LIG d   1      -6.788  74.004 116.526  0.00  0.00     0.091 C 
ENDROOT
BRANCH   1   7
ATOM      7  O   LIG d   1      -7.640  76.280 116.837  0.00  0.00    -0.368 OA
BRANCH   7   8
ATOM      8  C   LIG d   1      -7.979  76.867 118.117  0.00  0.00     0.119 C 
BRANCH   8   9
ATOM      9  C   LIG d   1      -9.399  76.393 118.483  0.00  0.00     0.028 C 
ATOM     10  C   LIG d   1      -9.452  75.705 119.857  0.00  0.00     0.006 C 
ENDBRANCH   8   9
BRANCH   8  11
ATOM     11  C   LIG d   1      -8.072  78.393 118.023  0.00  0.00     0.028 C 
ATOM     12  C   LIG d   1      -6.720  79.054 117.710  0.00  0.00     0.006 C 
ENDBRANCH   8  11
ENDBRANCH   7   8
ENDBRANCH   1   7
BRANCH   6  13
ATOM     13  N   LIG d   1      -7.349  73.432 117.778  0.00  0.00    -0.311 N 
ATOM     14  C   LIG d   1      -8.322  72.523 117.797  0.00  0.00     0.210 C 
ATOM     15  C   LIG d   1      -8.768  72.081 119.194  0.00  0.00     0.109 C 
ATOM     16  O   LIG d   1      -8.836  72.016 116.788  0.00  0.00    -0.276 OA
ATOM     17  H   LIG d   1      -6.968  73.764 118.642  0.00  0.00     0.149 HD
ENDBRANCH   6  13
BRANCH   5  18
ATOM     18  N   LIG d   1      -5.882  71.829 115.630  0.00  0.00     0.381 N 
ATOM     19  H   LIG d   1      -5.230  71.199 116.054  0.00  0.00    -0.090 HD
ATOM     20  H   LIG d   1      -5.802  71.742 114.633  0.00  0.00    -0.090 HD
ATOM     21  H   LIG d   1      -6.808  71.601 115.917  0.00  0.00    -0.090 HD
ENDBRANCH   5  18
BRANCH   3  22
ATOM     22  C   LIG d   1      -3.739  75.890 114.271  0.00  0.00     0.382 C 
ATOM     23  O   LIG d   1      -2.641  75.299 114.130  0.00  0.00    -0.241 OA
ATOM     24  O   LIG d   1      -3.883  77.037 113.805  0.00  0.00    -0.241 OA
ENDBRANCH   3  22
TORSDOF 7
ENDMDL
MODEL 3
REMARK VINA RESULT:      -5.3      2.089      5.060
REMARK  7 active torsions:
REMARK  status: ('A' for Active; 'I' for Inactive)
REMARK    1  A    between atoms: C_2  and  C_3 
REMARK    2  A    between atoms: C_3  and  O_6 
REMARK    3  A    between atoms: C_3  and  C_4 
REMARK    4  A    between atoms: C_7  and  O_6 
REMARK    5  A    between atoms: C_9  and  C_10 
REMARK    6  A    between atoms: N_15  and  C_14 
REMARK    7  A    between atoms: N_20  and  C_19 
REMARK       I    between atoms: C_22  and  N_20 
ROOT
ATOM      1  C   LIG d   1      -6.520  76.176 116.963  0.00  0.00     0.161 C 
ATOM      2  C   LIG d   1      -6.276  77.553 117.100  0.00  0.00     0.016 C 
ATOM      3  C   LIG d   1      -7.130  78.427 117.812  0.00  0.00     0.038 C 
ATOM      4  C   LIG d   1      -8.213  77.954 118.567  0.00  0.00     0.028 C 
ATOM      5  C   LIG d   1      -8.788  76.641 118.046  0.00  0.00    -0.047 C 
ATOM      6  C   LIG d   1      -7.637  75.623 117.873  0.00  0.00     0.091 C 
ENDROOT
BRANCH   1   7
ATOM      7  O   LIG d   1      -5.298  75.441 117.168  0.00  0.00    -0.368 OA
BRANCH   7   8
ATOM      8  C   LIG d   1      -4.489  75.208 115.988  0.00  0.00     0.119 C 
BRANCH   8   9
ATOM      9  C   LIG d   1      -5.344  74.399 114.994  0.00  0.00     0.028 C 
ATOM     10  C   LIG d   1      -5.472  72.920 115.397  0.00  0.00     0.006 C 
ENDBRANCH   8   9
BRANCH   8  11
ATOM     11  C   LIG d   1      -3.284  74.317 116.306  0.00  0.00     0.028 C 
ATOM     12  C   LIG d   1      -2.618  74.671 117.645  0.00  0.00     0.006 C 
ENDBRANCH   8  11
ENDBRANCH   7   8
ENDBRANCH   1   7
BRANCH   6  13
ATOM     13  N   LIG d   1      -8.100  74.338 117.288  0.00  0.00    -0.311 N 
ATOM     14  C   LIG d   1      -8.439  73.279 118.020  0.00  0.00     0.210 C 
ATOM     15  C   LIG d   1      -8.870  72.048 117.216  0.00  0.00     0.109 C 
ATOM     16  O   LIG d   1      -8.455  73.252 119.260  0.00  0.00    -0.276 OA
ATOM     17  H   LIG d   1      -8.147  74.283 116.289  0.00  0.00     0.149 HD
ENDBRANCH   6  13
BRANCH   5  18
ATOM     18  N   LIG d   1      -9.817  76.194 119.003  0.00  0.00     0.381 N 
ATOM     19  H   LIG d   1      -9.593  76.525 119.920  0.00  0.00    -0.090 HD
ATOM     20  H   LIG d   1      -9.827  75.189 119.024  0.00  0.00    -0.090 HD
ATOM     21  H   LIG d   1     -10.711  76.537 118.728  0.00  0.00    -0.090 HD
ENDBRANCH   5  18
BRANCH   3  22
ATOM     22  C   LIG d   1      -6.925  79.797 117.739  0.00  0.00     0.382 C 
ATOM     23  O   LIG d   1      -5.774  80.268 117.898  0.00  0.00    -0.241 OA
ATOM     24  O   LIG d   1      -7.886  80.570 117.560  0.00  0.00    -0.241 OA
ENDBRANCH   3  22
TORSDOF 7
ENDMDL
MODEL 4
REMARK VINA RESULT:      -5.2      2.242      5.400
REMARK  7 active torsions:
REMARK  status: ('A' for Active; 'I' for Inactive)
REMARK    1  A    between atoms: C_2  and  C_3 
REMARK    2  A    between atoms: C_3  and  O_6 
REMARK    3  A    between atoms: C_3  and  C_4 
REMARK    4  A    between atoms: C_7  and  O_6 
REMARK    5  A    between atoms: C_9  and  C_10 
REMARK    6  A    between atoms: N_15  and  C_14 
REMARK    7  A    between atoms: N_20  and  C_19 
REMARK       I    between atoms: C_22  and  N_20 
ROOT
ATOM      1  C   LIG d   1      -8.053  75.216 116.704  0.00  0.00     0.161 C 
ATOM      2  C   LIG d   1      -7.961  76.592 116.973  0.00  0.00     0.016 C 
ATOM      3  C   LIG d   1      -8.150  77.148 118.259  0.00  0.00     0.038 C 
ATOM      4  C   LIG d   1      -8.296  76.345 119.400  0.00  0.00     0.028 C 
ATOM      5  C   LIG d   1      -8.898  74.976 119.104  0.00  0.00    -0.047 C 
ATOM      6  C   LIG d   1      -8.101  74.315 117.956  0.00  0.00     0.091 C 
ENDROOT
BRANCH   1   7
ATOM      7  O   LIG d   1      -6.973  74.815 115.839  0.00  0.00    -0.368 OA
BRANCH   7   8
ATOM      8  C   LIG d   1      -5.639  74.909 116.397  0.00  0.00     0.119 C 
BRANCH   8   9
ATOM      9  C   LIG d   1      -4.849  75.918 115.542  0.00  0.00     0.028 C 
ATOM     10  C   LIG d   1      -5.100  75.734 114.036  0.00  0.00     0.006 C 
ENDBRANCH   8   9
BRANCH   8  11
ATOM     11  C   LIG d   1      -4.884  73.583 116.262  0.00  0.00     0.028 C 
ATOM     12  C   LIG d   1      -5.736  72.473 115.627  0.00  0.00     0.006 C 
ENDBRANCH   8  11
ENDBRANCH   7   8
ENDBRANCH   1   7
BRANCH   6  13
ATOM     13  N   LIG d   1      -8.675  73.007 117.546  0.00  0.00    -0.311 N 
ATOM     14  C   LIG d   1      -8.376  71.855 118.144  0.00  0.00     0.210 C 
ATOM     15  C   LIG d   1      -9.064  70.621 117.552  0.00  0.00     0.109 C 
ATOM     16  O   LIG d   1      -7.631  71.742 119.129  0.00  0.00    -0.276 OA
ATOM     17  H   LIG d   1      -9.314  73.011 116.775  0.00  0.00     0.149 HD
ENDBRANCH   6  13
BRANCH   5  18
ATOM     18  N   LIG d   1      -8.865  74.195 120.355  0.00  0.00     0.381 N 
ATOM     19  H   LIG d   1      -8.009  74.371 120.842  0.00  0.00    -0.090 HD
ATOM     20  H   LIG d   1      -8.903  73.216 120.128  0.00  0.00    -0.090 HD
ATOM     21  H   LIG d   1      -9.640  74.440 120.930  0.00  0.00    -0.090 HD
ENDBRANCH   5  18
BRANCH   3  22
ATOM     22  C   LIG d   1      -8.235  78.524 118.407  0.00  0.00     0.382 C 
ATOM     23  O   LIG d   1      -7.572  79.278 117.654  0.00  0.00    -0.241 OA
ATOM     24  O   LIG d   1      -8.931  79.021 119.313  0.00  0.00    -0.241 OA
ENDBRANCH   3  22
TORSDOF 7
ENDMDL
MODEL 5
REMARK VINA RESULT:      -5.0      2.218      4.950
REMARK  7 active torsions:
REMARK  status: ('A' for Active; 'I' for Inactive)
REMARK    1  A    between atoms: C_2  and  C_3 
REMARK    2  A    between atoms: C_3  and  O_6 
REMARK    3  A    between atoms: C_3  and  C_4 
REMARK    4  A    between atoms: C_7  and  O_6 
REMARK    5  A    between atoms: C_9  and  C_10 
REMARK    6  A    between atoms: N_15  and  C_14 
REMARK    7  A    between atoms: N_20  and  C_19 
REMARK       I    between atoms: C_22  and  N_20 
ROOT
ATOM      1  C   LIG d   1      -5.395  74.345 116.712  0.00  0.00     0.161 C 
ATOM      2  C   LIG d   1      -6.117  73.142 116.636  0.00  0.00     0.016 C 
ATOM      3  C   LIG d   1      -7.438  72.995 117.117  0.00  0.00     0.038 C 
ATOM      4  C   LIG d   1      -8.186  74.089 117.575  0.00  0.00     0.028 C 
ATOM      5  C   LIG d   1      -7.329  75.218 118.137  0.00  0.00    -0.047 C 
ATOM      6  C   LIG d   1      -6.235  75.579 117.106  0.00  0.00     0.091 C 
ENDROOT
BRANCH   1   7
ATOM      7  O   LIG d   1      -4.709  74.583 115.467  0.00  0.00    -0.368 OA
BRANCH   7   8
ATOM      8  C   LIG d   1      -3.269  74.433 115.495  0.00  0.00     0.119 C 
BRANCH   8   9
ATOM      9  C   LIG d   1      -2.862  74.134 116.951  0.00  0.00     0.028 C 
ATOM     10  C   LIG d   1      -1.435  73.570 117.057  0.00  0.00     0.006 C 
ENDBRANCH   8   9
BRANCH   8  11
ATOM     11  C   LIG d   1      -2.564  75.746 115.138  0.00  0.00     0.028 C 
ATOM     12  C   LIG d   1      -3.491  76.744 114.426  0.00  0.00     0.006 C 
ENDBRANCH   8  11
ENDBRANCH   7   8
ENDBRANCH   1   7
BRANCH   6  13
ATOM     13  N   LIG d   1      -5.299  76.616 117.612  0.00  0.00    -0.311 N 
ATOM     14  C   LIG d   1      -5.467  77.921 117.401  0.00  0.00     0.210 C 
ATOM     15  C   LIG d   1      -4.375  78.818 117.992  0.00  0.00     0.109 C 
ATOM     16  O   LIG d   1      -6.434  78.422 116.807  0.00  0.00    -0.276 OA
ATOM     17  H   LIG d   1      -4.504  76.300 118.131  0.00  0.00     0.149 HD
ENDBRANCH   6  13
BRANCH   5  18
ATOM     18  N   LIG d   1      -8.225  76.347 118.448  0.00  0.00     0.381 N 
ATOM     19  H   LIG d   1      -9.076  76.257 117.930  0.00  0.00    -0.090 HD
ATOM     20  H   LIG d   1      -7.777  77.203 118.173  0.00  0.00    -0.090 HD
ATOM     21  H   LIG d   1      -8.423  76.366 119.425  0.00  0.00    -0.090 HD
ENDBRANCH   5  18
BRANCH   3  22
ATOM     22  C   LIG d   1      -8.009  71.733 117.182  0.00  0.00     0.382 C 
ATOM     23  O   LIG d   1      -7.353  70.771 117.649  0.00  0.00    -0.241 OA
ATOM     24  O   LIG d   1      -9.156  71.536 116.738  0.00  0.00    -0.241 OA
ENDBRANCH   3  22
TORSDOF 7
ENDMDL
MODEL 6
REMARK VINA RESULT:      -4.8      1.821      2.824
REMARK  7 active torsions:
REMARK  status: ('A' for Active; 'I' for Inactive)
REMARK    1  A    between atoms: C_2  and  C_3 
REMARK    2  A    between atoms: C_3  and  O_6 
REMARK    3  A    between atoms: C_3  and  C_4 
REMARK    4  A    between atoms: C_7  and  O_6 
REMARK    5  A    between atoms: C_9  and  C_10 
REMARK    6  A    between atoms: N_15  and  C_14 
REMARK    7  A    between atoms: N_20  and  C_19 
REMARK       I    between atoms: C_22  and  N_20 
ROOT
ATOM      1  C   LIG d   1      -5.496  75.787 116.968  0.00  0.00     0.161 C 
ATOM      2  C   LIG d   1      -4.502  74.837 116.680  0.00  0.00     0.016 C 
ATOM      3  C   LIG d   1      -3.118  75.121 116.724  0.00  0.00     0.038 C 
ATOM      4  C   LIG d   1      -2.626  76.341 117.211  0.00  0.00     0.028 C 
ATOM      5  C   LIG d   1      -3.601  77.501 117.034  0.00  0.00    -0.047 C 
ATOM      6  C   LIG d   1      -4.976  77.092 117.608  0.00  0.00     0.091 C 
ENDROOT
BRANCH   1   7
ATOM      7  O   LIG d   1      -6.514  75.193 117.798  0.00  0.00    -0.368 OA
BRANCH   7   8
ATOM      8  C   LIG d   1      -7.607  74.547 117.100  0.00  0.00     0.119 C 
BRANCH   8   9
ATOM      9  C   LIG d   1      -8.610  75.644 116.694  0.00  0.00     0.028 C 
ATOM     10  C   LIG d   1      -9.411  76.179 117.892  0.00  0.00     0.006 C 
ENDBRANCH   8   9
BRANCH   8  11
ATOM     11  C   LIG d   1      -8.384  73.610 118.030  0.00  0.00     0.028 C 
ATOM     12  C   LIG d   1      -8.753  72.277 117.360  0.00  0.00     0.006 C 
ENDBRANCH   8  11
ENDBRANCH   7   8
ENDBRANCH   1   7
BRANCH   6  13
ATOM     13  N   LIG d   1      -6.011  78.138 117.400  0.00  0.00    -0.311 N 
ATOM     14  C   LIG d   1      -6.689  78.708 118.395  0.00  0.00     0.210 C 
ATOM     15  C   LIG d   1      -7.724  79.749 117.960  0.00  0.00     0.109 C 
ATOM     16  O   LIG d   1      -6.507  78.473 119.599  0.00  0.00    -0.276 OA
ATOM     17  H   LIG d   1      -6.200  78.411 116.455  0.00  0.00     0.149 HD
ENDBRANCH   6  13
BRANCH   5  18
ATOM     18  N   LIG d   1      -3.020  78.678 117.706  0.00  0.00     0.381 N 
ATOM     19  H   LIG d   1      -3.066  78.559 118.698  0.00  0.00    -0.090 HD
ATOM     20  H   LIG d   1      -3.558  79.491 117.461  0.00  0.00    -0.090 HD
ATOM     21  H   LIG d   1      -2.073  78.800 117.422  0.00  0.00    -0.090 HD
ENDBRANCH   5  18
BRANCH   3  22
ATOM     22  C   LIG d   1      -2.210  74.191 116.241  0.00  0.00     0.382 C 
ATOM     23  O   LIG d   1      -1.680  73.366 117.025  0.00  0.00    -0.241 OA
ATOM     24  O   LIG d   1      -1.880  74.195 115.040  0.00  0.00    -0.241 OA
ENDBRANCH   3  22
TORSDOF 7
ENDMDL
MODEL 7
REMARK VINA RESULT:      -4.7     10.859     13.331
REMARK  7 active torsions:
REMARK  status: ('A' for Active; 'I' for Inactive)
REMARK    1  A    between atoms: C_2  and  C_3 
REMARK    2  A    between atoms: C_3  and  O_6 
REMARK    3  A    between atoms: C_3  and  C_4 
REMARK    4  A    between atoms: C_7  and  O_6 
REMARK    5  A    between atoms: C_9  and  C_10 
REMARK    6  A    between atoms: N_15  and  C_14 
REMARK    7  A    between atoms: N_20  and  C_19 
REMARK       I    between atoms: C_22  and  N_20 
ROOT
ATOM      1  C   LIG d   1     -16.226  65.903 118.534  0.00  0.00     0.161 C 
ATOM      2  C   LIG d   1     -16.241  67.306 118.590  0.00  0.00     0.016 C 
ATOM      3  C   LIG d   1     -15.232  68.072 119.219  0.00  0.00     0.038 C 
ATOM      4  C   LIG d   1     -14.053  67.487 119.705  0.00  0.00     0.028 C 
ATOM      5  C   LIG d   1     -14.226  66.030 120.120  0.00  0.00    -0.047 C 
ATOM      6  C   LIG d   1     -14.893  65.254 118.962  0.00  0.00     0.091 C 
ENDROOT
BRANCH   1   7
ATOM      7  O   LIG d   1     -16.596  65.462 117.213  0.00  0.00    -0.368 OA
BRANCH   7   8
ATOM      8  C   LIG d   1     -16.932  66.505 116.265  0.00  0.00     0.119 C 
BRANCH   8   9
ATOM      9  C   LIG d   1     -18.230  66.081 115.550  0.00  0.00     0.028 C 
ATOM     10  C   LIG d   1     -19.477  66.289 116.426  0.00  0.00     0.006 C 
ENDBRANCH   8   9
BRANCH   8  11
ATOM     11  C   LIG d   1     -15.878  66.613 115.159  0.00  0.00     0.028 C 
ATOM     12  C   LIG d   1     -15.918  67.965 114.428  0.00  0.00     0.006 C 
ENDBRANCH   8  11
ENDBRANCH   7   8
ENDBRANCH   1   7
BRANCH   6  13
ATOM     13  N   LIG d   1     -15.175  63.838 119.316  0.00  0.00    -0.311 N 
ATOM     14  C   LIG d   1     -14.315  62.843 119.103  0.00  0.00     0.210 C 
ATOM     15  C   LIG d   1     -14.813  61.457 119.525  0.00  0.00     0.109 C 
ATOM     16  O   LIG d   1     -13.175  62.982 118.635  0.00  0.00    -0.276 OA
ATOM     17  H   LIG d   1     -16.065  63.641 119.730  0.00  0.00     0.149 HD
ENDBRANCH   6  13
BRANCH   5  18
ATOM     18  N   LIG d   1     -12.894  65.507 120.476  0.00  0.00     0.381 N 
ATOM     19  H   LIG d   1     -12.899  64.507 120.432  0.00  0.00    -0.090 HD
ATOM     20  H   LIG d   1     -12.678  65.779 121.419  0.00  0.00    -0.090 HD
ATOM     21  H   LIG d   1     -12.207  65.870 119.852  0.00  0.00    -0.090 HD
ENDBRANCH   5  18
BRANCH   3  22
ATOM     22  C   LIG d   1     -15.415  69.434 119.401  0.00  0.00     0.382 C 
ATOM     23  O   LIG d   1     -15.367  69.924 120.555  0.00  0.00    -0.241 OA
ATOM     24  O   LIG d   1     -15.672  70.172 118.431  0.00  0.00    -0.241 OA
ENDBRANCH   3  22
TORSDOF 7
ENDMDL
MODEL 8
REMARK VINA RESULT:      -4.6      4.553      6.565
REMARK  7 active torsions:
REMARK  status: ('A' for Active; 'I' for Inactive)
REMARK    1  A    between atoms: C_2  and  C_3 
REMARK    2  A    between atoms: C_3  and  O_6 
REMARK    3  A    between atoms: C_3  and  C_4 
REMARK    4  A    between atoms: C_7  and  O_6 
REMARK    5  A    between atoms: C_9  and  C_10 
REMARK    6  A    between atoms: N_15  and  C_14 
REMARK    7  A    between atoms: N_20  and  C_19 
REMARK       I    between atoms: C_22  and  N_20 
ROOT
ATOM      1  C   LIG d   1      -2.451  75.330 117.496  0.00  0.00     0.161 C 
ATOM      2  C   LIG d   1      -3.333  74.384 116.949  0.00  0.00     0.016 C 
ATOM      3  C   LIG d   1      -3.958  74.539 115.690  0.00  0.00     0.038 C 
ATOM      4  C   LIG d   1      -3.623  75.587 114.820  0.00  0.00     0.028 C 
ATOM      5  C   LIG d   1      -3.117  76.832 115.539  0.00  0.00    -0.047 C 
ATOM      6  C   LIG d   1      -1.987  76.426 116.513  0.00  0.00     0.091 C 
ENDROOT
BRANCH   1   7
ATOM      7  O   LIG d   1      -1.312  74.660 118.072  0.00  0.00    -0.368 OA
BRANCH   7   8
ATOM      8  C   LIG d   1      -0.983  73.365 117.512  0.00  0.00     0.119 C 
BRANCH   8   9
ATOM      9  C   LIG d   1      -0.534  72.458 118.674  0.00  0.00     0.028 C 
ATOM     10  C   LIG d   1      -0.967  73.004 120.046  0.00  0.00     0.006 C 
ENDBRANCH   8   9
BRANCH   8  11
ATOM     11  C   LIG d   1       0.226  73.453 116.576  0.00  0.00     0.028 C 
ATOM     12  C   LIG d   1      -0.171  73.491 115.092  0.00  0.00     0.006 C 
ENDBRANCH   8  11
ENDBRANCH   7   8
ENDBRANCH   1   7
BRANCH   6  13
ATOM     13  N   LIG d   1      -1.493  77.572 117.319  0.00  0.00    -0.311 N 
ATOM     14  C   LIG d   1      -0.201  77.846 117.488  0.00  0.00     0.210 C 
ATOM     15  C   LIG d   1       0.092  79.063 118.372  0.00  0.00     0.109 C 
ATOM     16  O   LIG d   1       0.730  77.217 116.964  0.00  0.00    -0.276 OA
ATOM     17  H   LIG d   1      -2.181  78.154 117.754  0.00  0.00     0.149 HD
ENDBRANCH   6  13
BRANCH   5  18
ATOM     18  N   LIG d   1      -2.675  77.793 114.510  0.00  0.00     0.381 N 
ATOM     19  H   LIG d   1      -1.680  77.891 114.544  0.00  0.00    -0.090 HD
ATOM     20  H   LIG d   1      -3.087  78.688 114.703  0.00  0.00    -0.090 HD
ATOM     21  H   LIG d   1      -2.955  77.478 113.607  0.00  0.00    -0.090 HD
ENDBRANCH   5  18
BRANCH   3  22
ATOM     22  C   LIG d   1      -4.960  73.660 115.308  0.00  0.00     0.382 C 
ATOM     23  O   LIG d   1      -5.685  73.118 116.177  0.00  0.00    -0.241 OA
ATOM     24  O   LIG d   1      -5.119  73.367 114.107  0.00  0.00    -0.241 OA
ENDBRANCH   3  22
TORSDOF 7
ENDMDL
MODEL 9
REMARK VINA RESULT:      -4.5     13.653     15.655
REMARK  7 active torsions:
REMARK  status: ('A' for Active; 'I' for Inactive)
REMARK    1  A    between atoms: C_2  and  C_3 
REMARK    2  A    between atoms: C_3  and  O_6 
REMARK    3  A    between atoms: C_3  and  C_4 
REMARK    4  A    between atoms: C_7  and  O_6 
REMARK    5  A    between atoms: C_9  and  C_10 
REMARK    6  A    between atoms: N_15  and  C_14 
REMARK    7  A    between atoms: N_20  and  C_19 
REMARK       I    between atoms: C_22  and  N_20 
ROOT
ATOM      1  C   LIG d   1       2.061  87.117 116.370  0.00  0.00     0.161 C 
ATOM      2  C   LIG d   1       3.252  87.361 115.667  0.00  0.00     0.016 C 
ATOM      3  C   LIG d   1       4.104  88.457 115.935  0.00  0.00     0.038 C 
ATOM      4  C   LIG d   1       3.899  89.304 117.034  0.00  0.00     0.028 C 
ATOM      5  C   LIG d   1       2.438  89.396 117.463  0.00  0.00    -0.047 C 
ATOM      6  C   LIG d   1       1.878  87.966 117.645  0.00  0.00     0.091 C 
ENDROOT
BRANCH   1   7
ATOM      7  O   LIG d   1       1.958  85.714 116.684  0.00  0.00    -0.368 OA
BRANCH   7   8
ATOM      8  C   LIG d   1       2.969  85.184 117.577  0.00  0.00     0.119 C 
BRANCH   8   9
ATOM      9  C   LIG d   1       3.640  83.995 116.864  0.00  0.00     0.028 C 
ATOM     10  C   LIG d   1       2.858  83.540 115.620  0.00  0.00     0.006 C 
ENDBRANCH   8   9
BRANCH   8  11
ATOM     11  C   LIG d   1       2.340  84.595 118.844  0.00  0.00     0.028 C 
ATOM     12  C   LIG d   1       0.829  84.353 118.701  0.00  0.00     0.006 C 
ENDBRANCH   8  11
ENDBRANCH   7   8
ENDBRANCH   1   7
BRANCH   6  13
ATOM     13  N   LIG d   1       0.431  87.964 117.983  0.00  0.00    -0.311 N 
ATOM     14  C   LIG d   1      -0.031  87.886 119.230  0.00  0.00     0.210 C 
ATOM     15  C   LIG d   1      -1.558  87.878 119.355  0.00  0.00     0.109 C 
ATOM     16  O   LIG d   1       0.679  87.855 120.246  0.00  0.00    -0.276 OA
ATOM     17  H   LIG d   1      -0.216  88.017 117.220  0.00  0.00     0.149 HD
ENDBRANCH   6  13
BRANCH   5  18
ATOM     18  N   LIG d   1       2.386  90.199 118.699  0.00  0.00     0.381 N 
ATOM     19  H   LIG d   1       1.834  91.019 118.548  0.00  0.00    -0.090 HD
ATOM     20  H   LIG d   1       3.318  90.487 118.939  0.00  0.00    -0.090 HD
ATOM     21  H   LIG d   1       1.996  89.659 119.440  0.00  0.00    -0.090 HD
ENDBRANCH   5  18
BRANCH   3  22
ATOM     22  C   LIG d   1       5.155  88.738 115.075  0.00  0.00     0.382 C 
ATOM     23  O   LIG d   1       6.337  88.532 115.441  0.00  0.00    -0.241 OA
ATOM     24  O   LIG d   1       4.938  89.235 113.954  0.00  0.00    -0.241 OA
ENDBRANCH   3  22
TORSDOF 7
ENDMDL
