MODEL 1
REMARK VINA RESULT:      -6.0      0.000      0.000
REMARK  7 active torsions:
REMARK  status: ('A' for Active; 'I' for Inactive)
REMARK    1  A    between atoms: C_2  and  C_3 
REMARK    2  A    between atoms: C_3  and  O_6 
REMARK    3  A    between atoms: C_3  and  C_4 
REMARK    4  A    between atoms: C_7  and  O_6 
REMARK    5  A    between atoms: C_9  and  C_10 
REMARK    6  A    between atoms: N_15  and  C_14 
REMARK    7  A    between atoms: N_20  and  C_19 
REMARK       I    between atoms: C_22  and  N_20 
ROOT
ATOM      1  C   LIG d   1      -7.944  76.181 116.361  0.00  0.00     0.161 C 
ATOM      2  C   LIG d   1      -6.858  75.879 115.522  0.00  0.00     0.016 C 
ATOM      3  C   LIG d   1      -5.621  76.561 115.575  0.00  0.00     0.038 C 
ATOM      4  C   LIG d   1      -5.331  77.495 116.580  0.00  0.00     0.028 C 
ATOM      5  C   LIG d   1      -6.570  78.192 117.134  0.00  0.00    -0.047 C 
ATOM      6  C   LIG d   1      -7.609  77.122 117.538  0.00  0.00     0.091 C 
ENDROOT
BRANCH   1   7
ATOM      7  O   LIG d   1      -8.538  74.962 116.848  0.00  0.00    -0.368 OA
BRANCH   7   8
ATOM      8  C   LIG d   1      -7.622  73.973 117.378  0.00  0.00     0.119 C 
BRANCH   8   9
ATOM      9  C   LIG d   1      -7.696  72.735 116.463  0.00  0.00     0.028 C 
ATOM     10  C   LIG d   1      -8.401  71.547 117.138  0.00  0.00     0.006 C 
ENDBRANCH   8   9
BRANCH   8  11
ATOM     11  C   LIG d   1      -8.068  73.483 118.759  0.00  0.00     0.028 C 
ATOM     12  C   LIG d   1      -8.333  74.634 119.742  0.00  0.00     0.006 C 
ENDBRANCH   8  11
ENDBRANCH   7   8
ENDBRANCH   1   7
BRANCH   6  13
ATOM     13  N   LIG d   1      -8.884  77.720 118.012  0.00  0.00    -0.311 N 
ATOM     14  C   LIG d   1      -9.090  78.106 119.270  0.00  0.00     0.210 C 
ATOM     15  C   LIG d   1     -10.483  78.679 119.551  0.00  0.00     0.109 C 
ATOM     16  O   LIG d   1      -8.241  78.058 120.172  0.00  0.00    -0.276 OA
ATOM     17  H   LIG d   1      -9.617  77.825 117.338  0.00  0.00     0.149 HD
ENDBRANCH   6  13
BRANCH   5  18
ATOM     18  N   LIG d   1      -6.138  79.035 118.265  0.00  0.00     0.381 N 
ATOM     19  H   LIG d   1      -6.155  79.998 117.995  0.00  0.00    -0.090 HD
ATOM     20  H   LIG d   1      -5.195  78.792 118.510  0.00  0.00    -0.090 HD
ATOM     21  H   LIG d   1      -6.740  78.891 119.046  0.00  0.00    -0.090 HD
ENDBRANCH   5  18
BRANCH   3  22
ATOM     22  C   LIG d   1      -4.671  76.338 114.590  0.00  0.00     0.382 C 
ATOM     23  O   LIG d   1      -4.017  77.300 114.120  0.00  0.00    -0.241 OA
ATOM     24  O   LIG d   1      -4.491  75.193 114.133  0.00  0.00    -0.241 OA
ENDBRANCH   3  22
TORSDOF 7
ENDMDL
MODEL 2
REMARK VINA RESULT:      -6.0      2.075      4.211
REMARK  7 active torsions:
REMARK  status: ('A' for Active; 'I' for Inactive)
REMARK    1  A    between atoms: C_2  and  C_3 
REMARK    2  A    between atoms: C_3  and  O_6 
REMARK    3  A    between atoms: C_3  and  C_4 
REMARK    4  A    between atoms: C_7  and  O_6 
REMARK    5  A    between atoms: C_9  and  C_10 
REMARK    6  A    between atoms: N_15  and  C_14 
REMARK    7  A    between atoms: N_20  and  C_19 
REMARK       I    between atoms: C_22  and  N_20 
ROOT
ATOM      1  C   LIG d   1      -7.067  77.529 117.362  0.00  0.00     0.161 C 
ATOM      2  C   LIG d   1      -6.074  77.513 116.370  0.00  0.00     0.016 C 
ATOM      3  C   LIG d   1      -5.782  76.378 115.579  0.00  0.00     0.038 C 
ATOM      4  C   LIG d   1      -6.572  75.219 115.625  0.00  0.00     0.028 C 
ATOM      5  C   LIG d   1      -7.267  75.012 116.966  0.00  0.00    -0.047 C 
ATOM      6  C   LIG d   1      -8.014  76.310 117.350  0.00  0.00     0.091 C 
ENDROOT
BRANCH   1   7
ATOM      7  O   LIG d   1      -7.825  78.752 117.276  0.00  0.00    -0.368 OA
BRANCH   7   8
ATOM      8  C   LIG d   1      -7.563  79.738 118.305  0.00  0.00     0.119 C 
BRANCH   8   9
ATOM      9  C   LIG d   1      -6.780  79.036 119.430  0.00  0.00     0.028 C 
ATOM     10  C   LIG d   1      -5.518  79.813 119.841  0.00  0.00     0.006 C 
ENDBRANCH   8   9
BRANCH   8  11
ATOM     11  C   LIG d   1      -8.862  80.223 118.955  0.00  0.00     0.028 C 
ATOM     12  C   LIG d   1      -9.831  80.861 117.948  0.00  0.00     0.006 C 
ENDBRANCH   8  11
ENDBRANCH   7   8
ENDBRANCH   1   7
BRANCH   6  13
ATOM     13  N   LIG d   1      -8.652  76.222 118.689  0.00  0.00    -0.311 N 
ATOM     14  C   LIG d   1      -9.878  76.673 118.948  0.00  0.00     0.210 C 
ATOM     15  C   LIG d   1     -10.336  76.502 120.400  0.00  0.00     0.109 C 
ATOM     16  O   LIG d   1     -10.642  77.169 118.107  0.00  0.00    -0.276 OA
ATOM     17  H   LIG d   1      -8.114  75.805 119.424  0.00  0.00     0.149 HD
ENDBRANCH   6  13
BRANCH   5  18
ATOM     18  N   LIG d   1      -8.162  73.849 116.829  0.00  0.00     0.381 N 
ATOM     19  H   LIG d   1      -7.706  73.129 116.305  0.00  0.00    -0.090 HD
ATOM     20  H   LIG d   1      -8.986  74.130 116.328  0.00  0.00    -0.090 HD
ATOM     21  H   LIG d   1      -8.414  73.504 117.730  0.00  0.00    -0.090 HD
ENDBRANCH   5  18
BRANCH   3  22
ATOM     22  C   LIG d   1      -4.663  76.380 114.759  0.00  0.00     0.382 C 
ATOM     23  O   LIG d   1      -4.109  77.465 114.459  0.00  0.00    -0.241 OA
ATOM     24  O   LIG d   1      -4.229  75.316 114.280  0.00  0.00    -0.241 OA
ENDBRANCH   3  22
TORSDOF 7
ENDMDL
MODEL 3
REMARK VINA RESULT:      -5.8      2.130      5.054
REMARK  7 active torsions:
REMARK  status: ('A' for Active; 'I' for Inactive)
REMARK    1  A    between atoms: C_2  and  C_3 
REMARK    2  A    between atoms: C_3  and  O_6 
REMARK    3  A    between atoms: C_3  and  C_4 
REMARK    4  A    between atoms: C_7  and  O_6 
REMARK    5  A    between atoms: C_9  and  C_10 
REMARK    6  A    between atoms: N_15  and  C_14 
REMARK    7  A    between atoms: N_20  and  C_19 
REMARK       I    between atoms: C_22  and  N_20 
ROOT
ATOM      1  C   LIG d   1      -6.887  77.056 116.916  0.00  0.00     0.161 C 
ATOM      2  C   LIG d   1      -6.968  78.428 117.203  0.00  0.00     0.016 C 
ATOM      3  C   LIG d   1      -7.914  78.982 118.096  0.00  0.00     0.038 C 
ATOM      4  C   LIG d   1      -8.749  78.176 118.885  0.00  0.00     0.028 C 
ATOM      5  C   LIG d   1      -9.048  76.819 118.258  0.00  0.00    -0.047 C 
ATOM      6  C   LIG d   1      -7.716  76.150 117.850  0.00  0.00     0.091 C 
ENDROOT
BRANCH   1   7
ATOM      7  O   LIG d   1      -5.507  76.639 116.909  0.00  0.00    -0.368 OA
BRANCH   7   8
ATOM      8  C   LIG d   1      -4.831  76.694 115.629  0.00  0.00     0.119 C 
BRANCH   8   9
ATOM      9  C   LIG d   1      -5.686  75.904 114.619  0.00  0.00     0.028 C 
ATOM     10  C   LIG d   1      -5.374  74.398 114.638  0.00  0.00     0.006 C 
ENDBRANCH   8   9
BRANCH   8  11
ATOM     11  C   LIG d   1      -3.485  75.966 115.678  0.00  0.00     0.028 C 
ATOM     12  C   LIG d   1      -2.367  76.730 114.951  0.00  0.00     0.006 C 
ENDBRANCH   8  11
ENDBRANCH   7   8
ENDBRANCH   1   7
BRANCH   6  13
ATOM     13  N   LIG d   1      -7.923  74.854 117.153  0.00  0.00    -0.311 N 
ATOM     14  C   LIG d   1      -7.967  73.681 117.783  0.00  0.00     0.210 C 
ATOM     15  C   LIG d   1      -8.169  72.465 116.873  0.00  0.00     0.109 C 
ATOM     16  O   LIG d   1      -7.891  73.535 119.012  0.00  0.00    -0.276 OA
ATOM     17  H   LIG d   1      -8.025  74.883 116.157  0.00  0.00     0.149 HD
ENDBRANCH   6  13
BRANCH   5  18
ATOM     18  N   LIG d   1      -9.813  76.032 119.244  0.00  0.00     0.381 N 
ATOM     19  H   LIG d   1     -10.478  76.620 119.704  0.00  0.00    -0.090 HD
ATOM     20  H   LIG d   1      -9.178  75.672 119.936  0.00  0.00    -0.090 HD
ATOM     21  H   LIG d   1     -10.281  75.279 118.790  0.00  0.00    -0.090 HD
ENDBRANCH   5  18
BRANCH   3  22
ATOM     22  C   LIG d   1      -8.058  80.359 118.179  0.00  0.00     0.382 C 
ATOM     23  O   LIG d   1      -7.697  80.966 119.215  0.00  0.00    -0.241 OA
ATOM     24  O   LIG d   1      -8.585  80.995 117.247  0.00  0.00    -0.241 OA
ENDBRANCH   3  22
TORSDOF 7
ENDMDL
MODEL 4
REMARK VINA RESULT:      -5.8     15.283     17.697
REMARK  7 active torsions:
REMARK  status: ('A' for Active; 'I' for Inactive)
REMARK    1  A    between atoms: C_2  and  C_3 
REMARK    2  A    between atoms: C_3  and  O_6 
REMARK    3  A    between atoms: C_3  and  C_4 
REMARK    4  A    between atoms: C_7  and  O_6 
REMARK    5  A    between atoms: C_9  and  C_10 
REMARK    6  A    between atoms: N_15  and  C_14 
REMARK    7  A    between atoms: N_20  and  C_19 
REMARK       I    between atoms: C_22  and  N_20 
ROOT
ATOM      1  C   LIG d   1      -6.520  93.279 117.744  0.00  0.00     0.161 C 
ATOM      2  C   LIG d   1      -7.004  92.093 117.167  0.00  0.00     0.016 C 
ATOM      3  C   LIG d   1      -6.164  91.061 116.689  0.00  0.00     0.038 C 
ATOM      4  C   LIG d   1      -4.776  91.080 116.895  0.00  0.00     0.028 C 
ATOM      5  C   LIG d   1      -4.201  92.487 117.021  0.00  0.00    -0.047 C 
ATOM      6  C   LIG d   1      -5.014  93.268 118.078  0.00  0.00     0.091 C 
ENDROOT
BRANCH   1   7
ATOM      7  O   LIG d   1      -7.292  93.601 118.918  0.00  0.00    -0.368 OA
BRANCH   7   8
ATOM      8  C   LIG d   1      -7.867  94.930 118.959  0.00  0.00     0.119 C 
BRANCH   8   9
ATOM      9  C   LIG d   1      -9.380  94.772 119.209  0.00  0.00     0.028 C 
ATOM     10  C   LIG d   1      -9.720  93.463 119.940  0.00  0.00     0.006 C 
ENDBRANCH   8   9
BRANCH   8  11
ATOM     11  C   LIG d   1      -7.752  95.628 117.601  0.00  0.00     0.028 C 
ATOM     12  C   LIG d   1      -7.392  97.117 117.725  0.00  0.00     0.006 C 
ENDBRANCH   8  11
ENDBRANCH   7   8
ENDBRANCH   1   7
BRANCH   6  13
ATOM     13  N   LIG d   1      -4.571  94.681 118.203  0.00  0.00    -0.311 N 
ATOM     14  C   LIG d   1      -4.133  95.214 119.343  0.00  0.00     0.210 C 
ATOM     15  C   LIG d   1      -3.744  96.693 119.257  0.00  0.00     0.109 C 
ATOM     16  O   LIG d   1      -3.999  94.594 120.408  0.00  0.00    -0.276 OA
ATOM     17  H   LIG d   1      -4.617  95.248 117.380  0.00  0.00     0.149 HD
ENDBRANCH   6  13
BRANCH   5  18
ATOM     18  N   LIG d   1      -2.774  92.355 117.370  0.00  0.00     0.381 N 
ATOM     19  H   LIG d   1      -2.632  91.524 117.909  0.00  0.00    -0.090 HD
ATOM     20  H   LIG d   1      -2.502  93.144 117.930  0.00  0.00    -0.090 HD
ATOM     21  H   LIG d   1      -2.222  92.321 116.541  0.00  0.00    -0.090 HD
ENDBRANCH   5  18
BRANCH   3  22
ATOM     22  C   LIG d   1      -6.708  90.014 115.960  0.00  0.00     0.382 C 
ATOM     23  O   LIG d   1      -6.200  89.686 114.861  0.00  0.00    -0.241 OA
ATOM     24  O   LIG d   1      -7.726  89.423 116.368  0.00  0.00    -0.241 OA
ENDBRANCH   3  22
TORSDOF 7
ENDMDL
MODEL 5
REMARK VINA RESULT:      -5.7     14.379     16.881
REMARK  7 active torsions:
REMARK  status: ('A' for Active; 'I' for Inactive)
REMARK    1  A    between atoms: C_2  and  C_3 
REMARK    2  A    between atoms: C_3  and  O_6 
REMARK    3  A    between atoms: C_3  and  C_4 
REMARK    4  A    between atoms: C_7  and  O_6 
REMARK    5  A    between atoms: C_9  and  C_10 
REMARK    6  A    between atoms: N_15  and  C_14 
REMARK    7  A    between atoms: N_20  and  C_19 
REMARK       I    between atoms: C_22  and  N_20 
ROOT
ATOM      1  C   LIG d   1      -6.131  92.514 117.938  0.00  0.00     0.161 C 
ATOM      2  C   LIG d   1      -7.059  91.775 117.186  0.00  0.00     0.016 C 
ATOM      3  C   LIG d   1      -6.701  90.677 116.370  0.00  0.00     0.038 C 
ATOM      4  C   LIG d   1      -5.403  90.145 116.370  0.00  0.00     0.028 C 
ATOM      5  C   LIG d   1      -4.329  91.169 116.724  0.00  0.00    -0.047 C 
ATOM      6  C   LIG d   1      -4.727  91.881 118.037  0.00  0.00     0.091 C 
ENDROOT
BRANCH   1   7
ATOM      7  O   LIG d   1      -6.660  92.768 119.254  0.00  0.00    -0.368 OA
BRANCH   7   8
ATOM      8  C   LIG d   1      -7.205  94.092 119.478  0.00  0.00     0.119 C 
BRANCH   8   9
ATOM      9  C   LIG d   1      -8.673  94.073 119.008  0.00  0.00     0.028 C 
ATOM     10  C   LIG d   1      -9.619  93.477 120.064  0.00  0.00     0.006 C 
ENDBRANCH   8   9
BRANCH   8  11
ATOM     11  C   LIG d   1      -6.511  95.136 118.598  0.00  0.00     0.028 C 
ATOM     12  C   LIG d   1      -7.503  95.996 117.799  0.00  0.00     0.006 C 
ENDBRANCH   8  11
ENDBRANCH   7   8
ENDBRANCH   1   7
BRANCH   6  13
ATOM     13  N   LIG d   1      -3.773  92.957 118.411  0.00  0.00    -0.311 N 
ATOM     14  C   LIG d   1      -2.747  92.772 119.240  0.00  0.00     0.210 C 
ATOM     15  C   LIG d   1      -1.898  94.019 119.506  0.00  0.00     0.109 C 
ATOM     16  O   LIG d   1      -2.441  91.686 119.755  0.00  0.00    -0.276 OA
ATOM     17  H   LIG d   1      -3.929  93.863 118.013  0.00  0.00     0.149 HD
ENDBRANCH   6  13
BRANCH   5  18
ATOM     18  N   LIG d   1      -3.044  90.451 116.822  0.00  0.00     0.381 N 
ATOM     19  H   LIG d   1      -2.583  90.697 117.675  0.00  0.00    -0.090 HD
ATOM     20  H   LIG d   1      -2.457  90.729 116.055  0.00  0.00    -0.090 HD
ATOM     21  H   LIG d   1      -3.200  89.468 116.791  0.00  0.00    -0.090 HD
ENDBRANCH   5  18
BRANCH   3  22
ATOM     22  C   LIG d   1      -7.639  90.123 115.513  0.00  0.00     0.382 C 
ATOM     23  O   LIG d   1      -7.835  90.634 114.383  0.00  0.00    -0.241 OA
ATOM     24  O   LIG d   1      -8.325  89.147 115.872  0.00  0.00    -0.241 OA
ENDBRANCH   3  22
TORSDOF 7
ENDMDL
MODEL 6
REMARK VINA RESULT:      -5.7      1.813      4.878
REMARK  7 active torsions:
REMARK  status: ('A' for Active; 'I' for Inactive)
REMARK    1  A    between atoms: C_2  and  C_3 
REMARK    2  A    between atoms: C_3  and  O_6 
REMARK    3  A    between atoms: C_3  and  C_4 
REMARK    4  A    between atoms: C_7  and  O_6 
REMARK    5  A    between atoms: C_9  and  C_10 
REMARK    6  A    between atoms: N_15  and  C_14 
REMARK    7  A    between atoms: N_20  and  C_19 
REMARK       I    between atoms: C_22  and  N_20 
ROOT
ATOM      1  C   LIG d   1      -7.753  76.077 117.872  0.00  0.00     0.161 C 
ATOM      2  C   LIG d   1      -9.121  76.044 118.191  0.00  0.00     0.016 C 
ATOM      3  C   LIG d   1      -9.841  77.171 118.650  0.00  0.00     0.038 C 
ATOM      4  C   LIG d   1      -9.273  78.453 118.677  0.00  0.00     0.028 C 
ATOM      5  C   LIG d   1      -7.757  78.440 118.845  0.00  0.00    -0.047 C 
ATOM      6  C   LIG d   1      -7.143  77.492 117.790  0.00  0.00     0.091 C 
ENDROOT
BRANCH   1   7
ATOM      7  O   LIG d   1      -7.520  75.359 116.645  0.00  0.00    -0.368 OA
BRANCH   7   8
ATOM      8  C   LIG d   1      -7.119  73.973 116.784  0.00  0.00     0.119 C 
BRANCH   8   9
ATOM      9  C   LIG d   1      -6.086  73.677 115.679  0.00  0.00     0.028 C 
ATOM     10  C   LIG d   1      -5.810  74.901 114.791  0.00  0.00     0.006 C 
ENDBRANCH   8   9
BRANCH   8  11
ATOM     11  C   LIG d   1      -8.290  73.025 116.509  0.00  0.00     0.028 C 
ATOM     12  C   LIG d   1      -8.186  71.707 117.293  0.00  0.00     0.006 C 
ENDBRANCH   8  11
ENDBRANCH   7   8
ENDBRANCH   1   7
BRANCH   6  13
ATOM     13  N   LIG d   1      -5.671  77.356 117.938  0.00  0.00    -0.311 N 
ATOM     14  C   LIG d   1      -4.810  77.592 116.950  0.00  0.00     0.210 C 
ATOM     15  C   LIG d   1      -3.337  77.372 117.310  0.00  0.00     0.109 C 
ATOM     16  O   LIG d   1      -5.123  77.992 115.819  0.00  0.00    -0.276 OA
ATOM     17  H   LIG d   1      -5.327  77.066 118.833  0.00  0.00     0.149 HD
ENDBRANCH   6  13
BRANCH   5  18
ATOM     18  N   LIG d   1      -7.283  79.831 118.718  0.00  0.00     0.381 N 
ATOM     19  H   LIG d   1      -7.659  80.243 117.888  0.00  0.00    -0.090 HD
ATOM     20  H   LIG d   1      -6.281  79.828 118.643  0.00  0.00    -0.090 HD
ATOM     21  H   LIG d   1      -7.562  80.360 119.515  0.00  0.00    -0.090 HD
ENDBRANCH   5  18
BRANCH   3  22
ATOM     22  C   LIG d   1     -11.134  77.013 119.125  0.00  0.00     0.382 C 
ATOM     23  O   LIG d   1     -12.068  76.752 118.329  0.00  0.00    -0.241 OA
ATOM     24  O   LIG d   1     -11.386  77.172 120.335  0.00  0.00    -0.241 OA
ENDBRANCH   3  22
TORSDOF 7
ENDMDL
MODEL 7
REMARK VINA RESULT:      -5.6     15.714     18.151
REMARK  7 active torsions:
REMARK  status: ('A' for Active; 'I' for Inactive)
REMARK    1  A    between atoms: C_2  and  C_3 
REMARK    2  A    between atoms: C_3  and  O_6 
REMARK    3  A    between atoms: C_3  and  C_4 
REMARK    4  A    between atoms: C_7  and  O_6 
REMARK    5  A    between atoms: C_9  and  C_10 
REMARK    6  A    between atoms: N_15  and  C_14 
REMARK    7  A    between atoms: N_20  and  C_19 
REMARK       I    between atoms: C_22  and  N_20 
ROOT
ATOM      1  C   LIG d   1      -6.764  93.964 117.584  0.00  0.00     0.161 C 
ATOM      2  C   LIG d   1      -7.283  92.808 116.977  0.00  0.00     0.016 C 
ATOM      3  C   LIG d   1      -6.482  91.714 116.576  0.00  0.00     0.038 C 
ATOM      4  C   LIG d   1      -5.118  91.637 116.895  0.00  0.00     0.028 C 
ATOM      5  C   LIG d   1      -4.456  93.002 117.057  0.00  0.00    -0.047 C 
ATOM      6  C   LIG d   1      -5.294  93.851 118.040  0.00  0.00     0.091 C 
ENDROOT
BRANCH   1   7
ATOM      7  O   LIG d   1      -7.603  94.354 118.689  0.00  0.00    -0.368 OA
BRANCH   7   8
ATOM      8  C   LIG d   1      -8.840  95.024 118.345  0.00  0.00     0.119 C 
BRANCH   8   9
ATOM      9  C   LIG d   1      -8.583  96.542 118.427  0.00  0.00     0.028 C 
ATOM     10  C   LIG d   1      -7.707  96.923 119.633  0.00  0.00     0.006 C 
ENDBRANCH   8   9
BRANCH   8  11
ATOM     11  C   LIG d   1      -9.934  94.742 119.379  0.00  0.00     0.028 C 
ATOM     12  C   LIG d   1      -9.646  93.491 120.224  0.00  0.00     0.006 C 
ENDBRANCH   8  11
ENDBRANCH   7   8
ENDBRANCH   1   7
BRANCH   6  13
ATOM     13  N   LIG d   1      -4.763  95.231 118.191  0.00  0.00    -0.311 N 
ATOM     14  C   LIG d   1      -3.976  95.608 119.197  0.00  0.00     0.210 C 
ATOM     15  C   LIG d   1      -3.557  97.081 119.174  0.00  0.00     0.109 C 
ATOM     16  O   LIG d   1      -3.558  94.853 120.089  0.00  0.00    -0.276 OA
ATOM     17  H   LIG d   1      -5.027  95.900 117.494  0.00  0.00     0.149 HD
ENDBRANCH   6  13
BRANCH   5  18
ATOM     18  N   LIG d   1      -3.075  92.775 117.522  0.00  0.00     0.381 N 
ATOM     19  H   LIG d   1      -2.549  93.622 117.448  0.00  0.00    -0.090 HD
ATOM     20  H   LIG d   1      -2.644  92.083 116.934  0.00  0.00    -0.090 HD
ATOM     21  H   LIG d   1      -3.081  92.460 118.468  0.00  0.00    -0.090 HD
ENDBRANCH   5  18
BRANCH   3  22
ATOM     22  C   LIG d   1      -7.038  90.698 115.813  0.00  0.00     0.382 C 
ATOM     23  O   LIG d   1      -6.827  89.499 116.116  0.00  0.00    -0.241 OA
ATOM     24  O   LIG d   1      -7.711  90.966 114.800  0.00  0.00    -0.241 OA
ENDBRANCH   3  22
TORSDOF 7
ENDMDL
MODEL 8
REMARK VINA RESULT:      -5.3      2.474      5.202
REMARK  7 active torsions:
REMARK  status: ('A' for Active; 'I' for Inactive)
REMARK    1  A    between atoms: C_2  and  C_3 
REMARK    2  A    between atoms: C_3  and  O_6 
REMARK    3  A    between atoms: C_3  and  C_4 
REMARK    4  A    between atoms: C_7  and  O_6 
REMARK    5  A    between atoms: C_9  and  C_10 
REMARK    6  A    between atoms: N_15  and  C_14 
REMARK    7  A    between atoms: N_20  and  C_19 
REMARK       I    between atoms: C_22  and  N_20 
ROOT
ATOM      1  C   LIG d   1      -6.585  77.484 117.013  0.00  0.00     0.161 C 
ATOM      2  C   LIG d   1      -7.901  77.955 117.158  0.00  0.00     0.016 C 
ATOM      3  C   LIG d   1      -8.277  78.935 118.105  0.00  0.00     0.038 C 
ATOM      4  C   LIG d   1      -7.329  79.625 118.874  0.00  0.00     0.028 C 
ATOM      5  C   LIG d   1      -6.053  78.827 119.121  0.00  0.00    -0.047 C 
ATOM      6  C   LIG d   1      -5.518  78.305 117.767  0.00  0.00     0.091 C 
ENDROOT
BRANCH   1   7
ATOM      7  O   LIG d   1      -6.250  77.392 115.614  0.00  0.00    -0.368 OA
BRANCH   7   8
ATOM      8  C   LIG d   1      -6.476  76.105 114.988  0.00  0.00     0.119 C 
BRANCH   8   9
ATOM      9  C   LIG d   1      -6.621  75.062 116.113  0.00  0.00     0.028 C 
ATOM     10  C   LIG d   1      -6.126  73.669 115.690  0.00  0.00     0.006 C 
ENDBRANCH   8   9
BRANCH   8  11
ATOM     11  C   LIG d   1      -5.256  75.659 114.177  0.00  0.00     0.028 C 
ATOM     12  C   LIG d   1      -4.032  76.562 114.395  0.00  0.00     0.006 C 
ENDBRANCH   8  11
ENDBRANCH   7   8
ENDBRANCH   1   7
BRANCH   6  13
ATOM     13  N   LIG d   1      -4.318  77.444 117.926  0.00  0.00    -0.311 N 
ATOM     14  C   LIG d   1      -3.076  77.921 117.985  0.00  0.00     0.210 C 
ATOM     15  C   LIG d   1      -1.981  76.860 118.131  0.00  0.00     0.109 C 
ATOM     16  O   LIG d   1      -2.779  79.125 117.962  0.00  0.00    -0.276 OA
ATOM     17  H   LIG d   1      -4.469  76.456 117.985  0.00  0.00     0.149 HD
ENDBRANCH   6  13
BRANCH   5  18
ATOM     18  N   LIG d   1      -5.100  79.714 119.815  0.00  0.00     0.381 N 
ATOM     19  H   LIG d   1      -4.475  80.126 119.151  0.00  0.00    -0.090 HD
ATOM     20  H   LIG d   1      -4.558  79.168 120.461  0.00  0.00    -0.090 HD
ATOM     21  H   LIG d   1      -5.594  80.428 120.305  0.00  0.00    -0.090 HD
ENDBRANCH   5  18
BRANCH   3  22
ATOM     22  C   LIG d   1      -9.621  79.204 118.317  0.00  0.00     0.382 C 
ATOM     23  O   LIG d   1     -10.381  78.303 118.747  0.00  0.00    -0.241 OA
ATOM     24  O   LIG d   1     -10.091  80.325 118.043  0.00  0.00    -0.241 OA
ENDBRANCH   3  22
TORSDOF 7
ENDMDL
MODEL 9
REMARK VINA RESULT:      -5.2      2.049      4.978
REMARK  7 active torsions:
REMARK  status: ('A' for Active; 'I' for Inactive)
REMARK    1  A    between atoms: C_2  and  C_3 
REMARK    2  A    between atoms: C_3  and  O_6 
REMARK    3  A    between atoms: C_3  and  C_4 
REMARK    4  A    between atoms: C_7  and  O_6 
REMARK    5  A    between atoms: C_9  and  C_10 
REMARK    6  A    between atoms: N_15  and  C_14 
REMARK    7  A    between atoms: N_20  and  C_19 
REMARK       I    between atoms: C_22  and  N_20 
ROOT
ATOM      1  C   LIG d   1      -7.612  76.632 118.859  0.00  0.00     0.161 C 
ATOM      2  C   LIG d   1      -8.979  76.322 118.954  0.00  0.00     0.016 C 
ATOM      3  C   LIG d   1     -10.000  77.300 118.973  0.00  0.00     0.038 C 
ATOM      4  C   LIG d   1      -9.730  78.657 118.745  0.00  0.00     0.028 C 
ATOM      5  C   LIG d   1      -8.319  79.071 119.148  0.00  0.00    -0.047 C 
ATOM      6  C   LIG d   1      -7.307  78.101 118.497  0.00  0.00     0.091 C 
ENDROOT
BRANCH   1   7
ATOM      7  O   LIG d   1      -6.973  75.742 117.923  0.00  0.00    -0.368 OA
BRANCH   7   8
ATOM      8  C   LIG d   1      -7.797  75.266 116.831  0.00  0.00     0.119 C 
BRANCH   8   9
ATOM      9  C   LIG d   1      -7.449  73.782 116.602  0.00  0.00     0.028 C 
ATOM     10  C   LIG d   1      -7.820  72.899 117.805  0.00  0.00     0.006 C 
ENDBRANCH   8   9
BRANCH   8  11
ATOM     11  C   LIG d   1      -7.447  75.972 115.519  0.00  0.00     0.028 C 
ATOM     12  C   LIG d   1      -6.145  75.451 114.890  0.00  0.00     0.006 C 
ENDBRANCH   8  11
ENDBRANCH   7   8
ENDBRANCH   1   7
BRANCH   6  13
ATOM     13  N   LIG d   1      -5.907  78.383 118.908  0.00  0.00    -0.311 N 
ATOM     14  C   LIG d   1      -4.870  78.318 118.074  0.00  0.00     0.210 C 
ATOM     15  C   LIG d   1      -3.510  78.628 118.707  0.00  0.00     0.109 C 
ATOM     16  O   LIG d   1      -4.952  78.066 116.863  0.00  0.00    -0.276 OA
ATOM     17  H   LIG d   1      -5.753  78.627 119.867  0.00  0.00     0.149 HD
ENDBRANCH   6  13
BRANCH   5  18
ATOM     18  N   LIG d   1      -8.129  80.472 118.729  0.00  0.00     0.381 N 
ATOM     19  H   LIG d   1      -8.397  80.579 117.771  0.00  0.00    -0.090 HD
ATOM     20  H   LIG d   1      -7.155  80.707 118.812  0.00  0.00    -0.090 HD
ATOM     21  H   LIG d   1      -8.674  81.077 119.304  0.00  0.00    -0.090 HD
ENDBRANCH   5  18
BRANCH   3  22
ATOM     22  C   LIG d   1     -11.304  76.927 119.262  0.00  0.00     0.382 C 
ATOM     23  O   LIG d   1     -11.652  76.736 120.453  0.00  0.00    -0.241 OA
ATOM     24  O   LIG d   1     -12.124  76.735 118.345  0.00  0.00    -0.241 OA
ENDBRANCH   3  22
TORSDOF 7
ENDMDL
