MODEL 1
REMARK VINA RESULT:      -6.0      0.000      0.000
REMARK  7 active torsions:
REMARK  status: ('A' for Active; 'I' for Inactive)
REMARK    1  A    between atoms: C_2  and  C_3 
REMARK    2  A    between atoms: C_3  and  O_6 
REMARK    3  A    between atoms: C_3  and  C_4 
REMARK    4  A    between atoms: C_7  and  O_6 
REMARK    5  A    between atoms: C_9  and  C_10 
REMARK    6  A    between atoms: N_15  and  C_14 
REMARK    7  A    between atoms: N_20  and  C_19 
REMARK       I    between atoms: C_22  and  N_20 
ROOT
ATOM      1  C   LIG d   1      -7.892  74.914 116.638  0.00  0.00     0.161 C 
ATOM      2  C   LIG d   1      -6.743  74.940 115.829  0.00  0.00     0.016 C 
ATOM      3  C   LIG d   1      -5.919  76.080 115.686  0.00  0.00     0.038 C 
ATOM      4  C   LIG d   1      -6.103  77.232 116.465  0.00  0.00     0.028 C 
ATOM      5  C   LIG d   1      -7.545  77.430 116.921  0.00  0.00    -0.047 C 
ATOM      6  C   LIG d   1      -8.046  76.125 117.582  0.00  0.00     0.091 C 
ENDROOT
BRANCH   1   7
ATOM      7  O   LIG d   1      -7.931  73.685 117.391  0.00  0.00    -0.368 OA
BRANCH   7   8
ATOM      8  C   LIG d   1      -9.222  73.033 117.478  0.00  0.00     0.119 C 
BRANCH   8   9
ATOM      9  C   LIG d   1      -9.501  72.757 118.968  0.00  0.00     0.028 C 
ATOM     10  C   LIG d   1      -8.249  72.938 119.843  0.00  0.00     0.006 C 
ENDBRANCH   8   9
BRANCH   8  11
ATOM     11  C   LIG d   1      -9.197  71.656 116.808  0.00  0.00     0.028 C 
ATOM     12  C   LIG d   1      -7.771  71.160 116.518  0.00  0.00     0.006 C 
ENDBRANCH   8  11
ENDBRANCH   7   8
ENDBRANCH   1   7
BRANCH   6  13
ATOM     13  N   LIG d   1      -9.475  76.205 117.981  0.00  0.00    -0.311 N 
ATOM     14  C   LIG d   1      -9.876  76.426 119.232  0.00  0.00     0.210 C 
ATOM     15  C   LIG d   1     -11.394  76.450 119.430  0.00  0.00     0.109 C 
ATOM     16  O   LIG d   1      -9.117  76.636 120.191  0.00  0.00    -0.276 OA
ATOM     17  H   LIG d   1     -10.158  76.077 117.260  0.00  0.00     0.149 HD
ENDBRANCH   6  13
BRANCH   5  18
ATOM     18  N   LIG d   1      -7.568  78.587 117.835  0.00  0.00     0.381 N 
ATOM     19  H   LIG d   1      -7.098  78.355 118.687  0.00  0.00    -0.090 HD
ATOM     20  H   LIG d   1      -8.523  78.811 118.053  0.00  0.00    -0.090 HD
ATOM     21  H   LIG d   1      -7.126  79.370 117.406  0.00  0.00    -0.090 HD
ENDBRANCH   5  18
BRANCH   3  22
ATOM     22  C   LIG d   1      -4.920  76.088 114.724  0.00  0.00     0.382 C 
ATOM     23  O   LIG d   1      -4.244  77.127 114.531  0.00  0.00    -0.241 OA
ATOM     24  O   LIG d   1      -4.715  75.083 114.017  0.00  0.00    -0.241 OA
ENDBRANCH   3  22
TORSDOF 7
ENDMDL
MODEL 2
REMARK VINA RESULT:      -5.6      2.221      4.653
REMARK  7 active torsions:
REMARK  status: ('A' for Active; 'I' for Inactive)
REMARK    1  A    between atoms: C_2  and  C_3 
REMARK    2  A    between atoms: C_3  and  O_6 
REMARK    3  A    between atoms: C_3  and  C_4 
REMARK    4  A    between atoms: C_7  and  O_6 
REMARK    5  A    between atoms: C_9  and  C_10 
REMARK    6  A    between atoms: N_15  and  C_14 
REMARK    7  A    between atoms: N_20  and  C_19 
REMARK       I    between atoms: C_22  and  N_20 
ROOT
ATOM      1  C   LIG d   1      -7.450  74.794 118.412  0.00  0.00     0.161 C 
ATOM      2  C   LIG d   1      -7.442  73.479 117.919  0.00  0.00     0.016 C 
ATOM      3  C   LIG d   1      -8.544  72.888 117.259  0.00  0.00     0.038 C 
ATOM      4  C   LIG d   1      -9.683  73.628 116.912  0.00  0.00     0.028 C 
ATOM      5  C   LIG d   1      -9.939  74.815 117.833  0.00  0.00    -0.047 C 
ATOM      6  C   LIG d   1      -8.644  75.652 117.944  0.00  0.00     0.091 C 
ENDROOT
BRANCH   1   7
ATOM      7  O   LIG d   1      -6.207  75.446 118.087  0.00  0.00    -0.368 OA
BRANCH   7   8
ATOM      8  C   LIG d   1      -5.559  75.011 116.866  0.00  0.00     0.119 C 
BRANCH   8   9
ATOM      9  C   LIG d   1      -4.050  74.903 117.156  0.00  0.00     0.028 C 
ATOM     10  C   LIG d   1      -3.197  75.642 116.111  0.00  0.00     0.006 C 
ENDBRANCH   8   9
BRANCH   8  11
ATOM     11  C   LIG d   1      -5.685  76.066 115.763  0.00  0.00     0.028 C 
ATOM     12  C   LIG d   1      -6.740  75.699 114.706  0.00  0.00     0.006 C 
ENDBRANCH   8  11
ENDBRANCH   7   8
ENDBRANCH   1   7
BRANCH   6  13
ATOM     13  N   LIG d   1      -8.782  76.787 118.894  0.00  0.00    -0.311 N 
ATOM     14  C   LIG d   1      -8.491  78.048 118.578  0.00  0.00     0.210 C 
ATOM     15  C   LIG d   1      -8.685  79.060 119.711  0.00  0.00     0.109 C 
ATOM     16  O   LIG d   1      -8.122  78.428 117.457  0.00  0.00    -0.276 OA
ATOM     17  H   LIG d   1      -9.106  76.572 119.817  0.00  0.00     0.149 HD
ENDBRANCH   6  13
BRANCH   5  18
ATOM     18  N   LIG d   1     -11.073  75.576 117.276  0.00  0.00     0.381 N 
ATOM     19  H   LIG d   1     -11.419  76.219 117.961  0.00  0.00    -0.090 HD
ATOM     20  H   LIG d   1     -11.812  74.936 117.044  0.00  0.00    -0.090 HD
ATOM     21  H   LIG d   1     -10.785  76.071 116.461  0.00  0.00    -0.090 HD
ENDBRANCH   5  18
BRANCH   3  22
ATOM     22  C   LIG d   1      -8.527  71.531 116.975  0.00  0.00     0.382 C 
ATOM     23  O   LIG d   1      -7.704  71.073 116.146  0.00  0.00    -0.241 OA
ATOM     24  O   LIG d   1      -9.355  70.765 117.504  0.00  0.00    -0.241 OA
ENDBRANCH   3  22
TORSDOF 7
ENDMDL
MODEL 3
REMARK VINA RESULT:      -5.5      1.620      2.175
REMARK  7 active torsions:
REMARK  status: ('A' for Active; 'I' for Inactive)
REMARK    1  A    between atoms: C_2  and  C_3 
REMARK    2  A    between atoms: C_3  and  O_6 
REMARK    3  A    between atoms: C_3  and  C_4 
REMARK    4  A    between atoms: C_7  and  O_6 
REMARK    5  A    between atoms: C_9  and  C_10 
REMARK    6  A    between atoms: N_15  and  C_14 
REMARK    7  A    between atoms: N_20  and  C_19 
REMARK       I    between atoms: C_22  and  N_20 
ROOT
ATOM      1  C   LIG d   1      -7.796  76.287 116.754  0.00  0.00     0.161 C 
ATOM      2  C   LIG d   1      -6.837  75.621 115.973  0.00  0.00     0.016 C 
ATOM      3  C   LIG d   1      -5.553  76.147 115.702  0.00  0.00     0.038 C 
ATOM      4  C   LIG d   1      -5.083  77.314 116.322  0.00  0.00     0.028 C 
ATOM      5  C   LIG d   1      -6.196  78.279 116.718  0.00  0.00    -0.047 C 
ATOM      6  C   LIG d   1      -7.262  77.509 117.530  0.00  0.00     0.091 C 
ENDROOT
BRANCH   1   7
ATOM      7  O   LIG d   1      -8.423  75.355 117.657  0.00  0.00    -0.368 OA
BRANCH   7   8
ATOM      8  C   LIG d   1      -9.610  74.687 117.161  0.00  0.00     0.119 C 
BRANCH   8   9
ATOM      9  C   LIG d   1     -10.824  75.555 117.545  0.00  0.00     0.028 C 
ATOM     10  C   LIG d   1     -10.820  75.943 119.034  0.00  0.00     0.006 C 
ENDBRANCH   8   9
BRANCH   8  11
ATOM     11  C   LIG d   1      -9.830  73.346 117.867  0.00  0.00     0.028 C 
ATOM     12  C   LIG d   1      -9.093  72.184 117.182  0.00  0.00     0.006 C 
ENDBRANCH   8  11
ENDBRANCH   7   8
ENDBRANCH   1   7
BRANCH   6  13
ATOM     13  N   LIG d   1      -8.428  78.360 117.885  0.00  0.00    -0.311 N 
ATOM     14  C   LIG d   1      -8.537  79.008 119.044  0.00  0.00     0.210 C 
ATOM     15  C   LIG d   1      -9.828  79.813 119.216  0.00  0.00     0.109 C 
ATOM     16  O   LIG d   1      -7.672  79.017 119.933  0.00  0.00    -0.276 OA
ATOM     17  H   LIG d   1      -9.162  78.433 117.209  0.00  0.00     0.149 HD
ENDBRANCH   6  13
BRANCH   5  18
ATOM     18  N   LIG d   1      -5.579  79.384 117.475  0.00  0.00     0.381 N 
ATOM     19  H   LIG d   1      -5.275  79.054 118.369  0.00  0.00    -0.090 HD
ATOM     20  H   LIG d   1      -6.267  80.102 117.621  0.00  0.00    -0.090 HD
ATOM     21  H   LIG d   1      -4.805  79.754 116.968  0.00  0.00    -0.090 HD
ENDBRANCH   5  18
BRANCH   3  22
ATOM     22  C   LIG d   1      -4.738  75.523 114.769  0.00  0.00     0.382 C 
ATOM     23  O   LIG d   1      -3.490  75.611 114.868  0.00  0.00    -0.241 OA
ATOM     24  O   LIG d   1      -5.235  74.911 113.805  0.00  0.00    -0.241 OA
ENDBRANCH   3  22
TORSDOF 7
ENDMDL
MODEL 4
REMARK VINA RESULT:      -5.4      2.534      4.338
REMARK  7 active torsions:
REMARK  status: ('A' for Active; 'I' for Inactive)
REMARK    1  A    between atoms: C_2  and  C_3 
REMARK    2  A    between atoms: C_3  and  O_6 
REMARK    3  A    between atoms: C_3  and  C_4 
REMARK    4  A    between atoms: C_7  and  O_6 
REMARK    5  A    between atoms: C_9  and  C_10 
REMARK    6  A    between atoms: N_15  and  C_14 
REMARK    7  A    between atoms: N_20  and  C_19 
REMARK       I    between atoms: C_22  and  N_20 
ROOT
ATOM      1  C   LIG d   1      -7.592  74.145 118.650  0.00  0.00     0.161 C 
ATOM      2  C   LIG d   1      -6.852  75.223 118.136  0.00  0.00     0.016 C 
ATOM      3  C   LIG d   1      -6.111  75.155 116.934  0.00  0.00     0.038 C 
ATOM      4  C   LIG d   1      -6.182  74.044 116.081  0.00  0.00     0.028 C 
ATOM      5  C   LIG d   1      -6.513  72.744 116.805  0.00  0.00    -0.047 C 
ATOM      6  C   LIG d   1      -7.771  72.961 117.676  0.00  0.00     0.091 C 
ENDROOT
BRANCH   1   7
ATOM      7  O   LIG d   1      -8.874  74.609 119.115  0.00  0.00    -0.368 OA
BRANCH   7   8
ATOM      8  C   LIG d   1      -9.378  75.817 118.494  0.00  0.00     0.119 C 
BRANCH   8   9
ATOM      9  C   LIG d   1      -9.777  76.787 119.622  0.00  0.00     0.028 C 
ATOM     10  C   LIG d   1     -11.273  77.144 119.589  0.00  0.00     0.006 C 
ENDBRANCH   8   9
BRANCH   8  11
ATOM     11  C   LIG d   1     -10.670  75.547 117.716  0.00  0.00     0.028 C 
ATOM     12  C   LIG d   1     -10.428  74.780 116.406  0.00  0.00     0.006 C 
ENDBRANCH   8  11
ENDBRANCH   7   8
ENDBRANCH   1   7
BRANCH   6  13
ATOM     13  N   LIG d   1      -8.115  71.762 118.485  0.00  0.00    -0.311 N 
ATOM     14  C   LIG d   1      -8.904  70.783 118.045  0.00  0.00     0.210 C 
ATOM     15  C   LIG d   1      -9.146  69.649 119.046  0.00  0.00     0.109 C 
ATOM     16  O   LIG d   1      -9.401  70.731 116.910  0.00  0.00    -0.276 OA
ATOM     17  H   LIG d   1      -7.729  71.708 119.407  0.00  0.00     0.149 HD
ENDBRANCH   6  13
BRANCH   5  18
ATOM     18  N   LIG d   1      -6.692  71.697 115.782  0.00  0.00     0.381 N 
ATOM     19  H   LIG d   1      -7.621  71.738 115.413  0.00  0.00    -0.090 HD
ATOM     20  H   LIG d   1      -6.563  70.797 116.211  0.00  0.00    -0.090 HD
ATOM     21  H   LIG d   1      -6.029  71.820 115.048  0.00  0.00    -0.090 HD
ENDBRANCH   5  18
BRANCH   3  22
ATOM     22  C   LIG d   1      -5.255  76.193 116.595  0.00  0.00     0.382 C 
ATOM     23  O   LIG d   1      -4.119  76.265 117.121  0.00  0.00    -0.241 OA
ATOM     24  O   LIG d   1      -5.623  77.081 115.804  0.00  0.00    -0.241 OA
ENDBRANCH   3  22
TORSDOF 7
ENDMDL
MODEL 5
REMARK VINA RESULT:      -5.4      2.021      4.751
REMARK  7 active torsions:
REMARK  status: ('A' for Active; 'I' for Inactive)
REMARK    1  A    between atoms: C_2  and  C_3 
REMARK    2  A    between atoms: C_3  and  O_6 
REMARK    3  A    between atoms: C_3  and  C_4 
REMARK    4  A    between atoms: C_7  and  O_6 
REMARK    5  A    between atoms: C_9  and  C_10 
REMARK    6  A    between atoms: N_15  and  C_14 
REMARK    7  A    between atoms: N_20  and  C_19 
REMARK       I    between atoms: C_22  and  N_20 
ROOT
ATOM      1  C   LIG d   1      -7.578  75.561 119.025  0.00  0.00     0.161 C 
ATOM      2  C   LIG d   1      -8.796  76.230 119.229  0.00  0.00     0.016 C 
ATOM      3  C   LIG d   1      -9.116  77.466 118.622  0.00  0.00     0.038 C 
ATOM      4  C   LIG d   1      -8.295  78.047 117.644  0.00  0.00     0.028 C 
ATOM      5  C   LIG d   1      -6.825  77.663 117.781  0.00  0.00    -0.047 C 
ATOM      6  C   LIG d   1      -6.716  76.124 117.875  0.00  0.00     0.091 C 
ENDROOT
BRANCH   1   7
ATOM      7  O   LIG d   1      -7.820  74.154 118.827  0.00  0.00    -0.368 OA
BRANCH   7   8
ATOM      8  C   LIG d   1      -9.195  73.774 118.576  0.00  0.00     0.119 C 
BRANCH   8   9
ATOM      9  C   LIG d   1      -9.419  72.393 119.224  0.00  0.00     0.028 C 
ATOM     10  C   LIG d   1      -8.282  71.407 118.910  0.00  0.00     0.006 C 
ENDBRANCH   8   9
BRANCH   8  11
ATOM     11  C   LIG d   1      -9.453  73.566 117.081  0.00  0.00     0.028 C 
ATOM     12  C   LIG d   1     -10.355  74.653 116.475  0.00  0.00     0.006 C 
ENDBRANCH   8  11
ENDBRANCH   7   8
ENDBRANCH   1   7
BRANCH   6  13
ATOM     13  N   LIG d   1      -5.318  75.668 118.096  0.00  0.00    -0.311 N 
ATOM     14  C   LIG d   1      -4.497  75.316 117.108  0.00  0.00     0.210 C 
ATOM     15  C   LIG d   1      -3.106  74.857 117.556  0.00  0.00     0.109 C 
ATOM     16  O   LIG d   1      -4.778  75.371 115.901  0.00  0.00    -0.276 OA
ATOM     17  H   LIG d   1      -4.997  75.623 119.043  0.00  0.00     0.149 HD
ENDBRANCH   6  13
BRANCH   5  18
ATOM     18  N   LIG d   1      -6.108  78.224 116.621  0.00  0.00     0.381 N 
ATOM     19  H   LIG d   1      -6.176  77.596 115.845  0.00  0.00    -0.090 HD
ATOM     20  H   LIG d   1      -5.137  78.328 116.858  0.00  0.00    -0.090 HD
ATOM     21  H   LIG d   1      -6.494  79.109 116.377  0.00  0.00    -0.090 HD
ENDBRANCH   5  18
BRANCH   3  22
ATOM     22  C   LIG d   1     -10.251  78.155 119.022  0.00  0.00     0.382 C 
ATOM     23  O   LIG d   1     -10.997  77.673 119.909  0.00  0.00    -0.241 OA
ATOM     24  O   LIG d   1     -10.563  79.230 118.476  0.00  0.00    -0.241 OA
ENDBRANCH   3  22
TORSDOF 7
ENDMDL
MODEL 6
REMARK VINA RESULT:      -5.3      2.321      4.430
REMARK  7 active torsions:
REMARK  status: ('A' for Active; 'I' for Inactive)
REMARK    1  A    between atoms: C_2  and  C_3 
REMARK    2  A    between atoms: C_3  and  O_6 
REMARK    3  A    between atoms: C_3  and  C_4 
REMARK    4  A    between atoms: C_7  and  O_6 
REMARK    5  A    between atoms: C_9  and  C_10 
REMARK    6  A    between atoms: N_15  and  C_14 
REMARK    7  A    between atoms: N_20  and  C_19 
REMARK       I    between atoms: C_22  and  N_20 
ROOT
ATOM      1  C   LIG d   1      -7.718  76.292 117.503  0.00  0.00     0.161 C 
ATOM      2  C   LIG d   1      -7.576  77.687 117.417  0.00  0.00     0.016 C 
ATOM      3  C   LIG d   1      -8.567  78.598 117.851  0.00  0.00     0.038 C 
ATOM      4  C   LIG d   1      -9.711  78.175 118.544  0.00  0.00     0.028 C 
ATOM      5  C   LIG d   1     -10.132  76.749 118.204  0.00  0.00    -0.047 C 
ATOM      6  C   LIG d   1      -8.911  75.814 118.358  0.00  0.00     0.091 C 
ENDROOT
BRANCH   1   7
ATOM      7  O   LIG d   1      -6.491  75.705 117.983  0.00  0.00    -0.368 OA
BRANCH   7   8
ATOM      8  C   LIG d   1      -5.831  74.784 117.081  0.00  0.00     0.119 C 
BRANCH   8   9
ATOM      9  C   LIG d   1      -4.407  75.319 116.834  0.00  0.00     0.028 C 
ATOM     10  C   LIG d   1      -3.792  75.954 118.093  0.00  0.00     0.006 C 
ENDBRANCH   8   9
BRANCH   8  11
ATOM     11  C   LIG d   1      -6.503  74.772 115.705  0.00  0.00     0.028 C 
ATOM     12  C   LIG d   1      -5.538  75.136 114.566  0.00  0.00     0.006 C 
ENDBRANCH   8  11
ENDBRANCH   7   8
ENDBRANCH   1   7
BRANCH   6  13
ATOM     13  N   LIG d   1      -9.215  74.414 117.963  0.00  0.00    -0.311 N 
ATOM     14  C   LIG d   1      -8.992  73.365 118.753  0.00  0.00     0.210 C 
ATOM     15  C   LIG d   1      -9.359  72.008 118.144  0.00  0.00     0.109 C 
ATOM     16  O   LIG d   1      -8.556  73.432 119.912  0.00  0.00    -0.276 OA
ATOM     17  H   LIG d   1      -9.600  74.271 117.051  0.00  0.00     0.149 HD
ENDBRANCH   6  13
BRANCH   5  18
ATOM     18  N   LIG d   1     -11.251  76.390 119.096  0.00  0.00     0.381 N 
ATOM     19  H   LIG d   1     -12.017  77.015 118.947  0.00  0.00    -0.090 HD
ATOM     20  H   LIG d   1     -10.949  76.484 120.050  0.00  0.00    -0.090 HD
ATOM     21  H   LIG d   1     -11.539  75.452 118.922  0.00  0.00    -0.090 HD
ENDBRANCH   5  18
BRANCH   3  22
ATOM     22  C   LIG d   1      -8.437  79.946 117.556  0.00  0.00     0.382 C 
ATOM     23  O   LIG d   1      -9.406  80.723 117.731  0.00  0.00    -0.241 OA
ATOM     24  O   LIG d   1      -7.376  80.388 117.075  0.00  0.00    -0.241 OA
ENDBRANCH   3  22
TORSDOF 7
ENDMDL
MODEL 7
REMARK VINA RESULT:      -5.2      2.332      5.181
REMARK  7 active torsions:
REMARK  status: ('A' for Active; 'I' for Inactive)
REMARK    1  A    between atoms: C_2  and  C_3 
REMARK    2  A    between atoms: C_3  and  O_6 
REMARK    3  A    between atoms: C_3  and  C_4 
REMARK    4  A    between atoms: C_7  and  O_6 
REMARK    5  A    between atoms: C_9  and  C_10 
REMARK    6  A    between atoms: N_15  and  C_14 
REMARK    7  A    between atoms: N_20  and  C_19 
REMARK       I    between atoms: C_22  and  N_20 
ROOT
ATOM      1  C   LIG d   1      -7.151  76.772 117.049  0.00  0.00     0.161 C 
ATOM      2  C   LIG d   1      -7.899  75.582 117.051  0.00  0.00     0.016 C 
ATOM      3  C   LIG d   1      -9.219  75.494 117.548  0.00  0.00     0.038 C 
ATOM      4  C   LIG d   1      -9.940  76.631 117.943  0.00  0.00     0.028 C 
ATOM      5  C   LIG d   1      -9.053  77.772 118.431  0.00  0.00    -0.047 C 
ATOM      6  C   LIG d   1      -7.960  78.045 117.373  0.00  0.00     0.091 C 
ENDROOT
BRANCH   1   7
ATOM      7  O   LIG d   1      -6.469  76.918 115.788  0.00  0.00    -0.368 OA
BRANCH   7   8
ATOM      8  C   LIG d   1      -5.023  76.830 115.831  0.00  0.00     0.119 C 
BRANCH   8   9
ATOM      9  C   LIG d   1      -4.601  75.690 114.883  0.00  0.00     0.028 C 
ATOM     10  C   LIG d   1      -5.777  75.155 114.048  0.00  0.00     0.006 C 
ENDBRANCH   8   9
BRANCH   8  11
ATOM     11  C   LIG d   1      -4.532  76.406 117.218  0.00  0.00     0.028 C 
ATOM     12  C   LIG d   1      -3.774  75.069 117.199  0.00  0.00     0.006 C 
ENDBRANCH   8  11
ENDBRANCH   7   8
ENDBRANCH   1   7
BRANCH   6  13
ATOM     13  N   LIG d   1      -6.998  79.090 117.809  0.00  0.00    -0.311 N 
ATOM     14  C   LIG d   1      -7.129  80.380 117.505  0.00  0.00     0.210 C 
ATOM     15  C   LIG d   1      -6.015  81.287 118.038  0.00  0.00     0.109 C 
ATOM     16  O   LIG d   1      -8.079  80.865 116.872  0.00  0.00    -0.276 OA
ATOM     17  H   LIG d   1      -6.213  78.790 118.354  0.00  0.00     0.149 HD
ENDBRANCH   6  13
BRANCH   5  18
ATOM     18  N   LIG d   1      -9.923  78.937 118.678  0.00  0.00     0.381 N 
ATOM     19  H   LIG d   1     -10.823  78.781 118.271  0.00  0.00    -0.090 HD
ATOM     20  H   LIG d   1      -9.515  79.745 118.241  0.00  0.00    -0.090 HD
ATOM     21  H   LIG d   1     -10.015  79.092 119.658  0.00  0.00    -0.090 HD
ENDBRANCH   5  18
BRANCH   3  22
ATOM     22  C   LIG d   1      -9.817  74.252 117.692  0.00  0.00     0.382 C 
ATOM     23  O   LIG d   1     -10.157  73.848 118.831  0.00  0.00    -0.241 OA
ATOM     24  O   LIG d   1      -9.981  73.511 116.705  0.00  0.00    -0.241 OA
ENDBRANCH   3  22
TORSDOF 7
ENDMDL
MODEL 8
REMARK VINA RESULT:      -5.1      2.917      5.964
REMARK  7 active torsions:
REMARK  status: ('A' for Active; 'I' for Inactive)
REMARK    1  A    between atoms: C_2  and  C_3 
REMARK    2  A    between atoms: C_3  and  O_6 
REMARK    3  A    between atoms: C_3  and  C_4 
REMARK    4  A    between atoms: C_7  and  O_6 
REMARK    5  A    between atoms: C_9  and  C_10 
REMARK    6  A    between atoms: N_15  and  C_14 
REMARK    7  A    between atoms: N_20  and  C_19 
REMARK       I    between atoms: C_22  and  N_20 
ROOT
ATOM      1  C   LIG d   1      -6.395  77.843 116.956  0.00  0.00     0.161 C 
ATOM      2  C   LIG d   1      -7.766  77.769 117.251  0.00  0.00     0.016 C 
ATOM      3  C   LIG d   1      -8.525  78.871 117.707  0.00  0.00     0.038 C 
ATOM      4  C   LIG d   1      -7.993  80.168 117.757  0.00  0.00     0.028 C 
ATOM      5  C   LIG d   1      -6.480  80.195 117.951  0.00  0.00    -0.047 C 
ATOM      6  C   LIG d   1      -5.822  79.275 116.898  0.00  0.00     0.091 C 
ENDROOT
BRANCH   1   7
ATOM      7  O   LIG d   1      -6.120  77.143 115.727  0.00  0.00    -0.368 OA
BRANCH   7   8
ATOM      8  C   LIG d   1      -5.325  75.938 115.843  0.00  0.00     0.119 C 
BRANCH   8   9
ATOM      9  C   LIG d   1      -4.148  76.062 114.857  0.00  0.00     0.028 C 
ATOM     10  C   LIG d   1      -2.798  75.711 115.506  0.00  0.00     0.006 C 
ENDBRANCH   8   9
BRANCH   8  11
ATOM     11  C   LIG d   1      -6.110  74.706 115.384  0.00  0.00     0.028 C 
ATOM     12  C   LIG d   1      -6.463  73.758 116.541  0.00  0.00     0.006 C 
ENDBRANCH   8  11
ENDBRANCH   7   8
ENDBRANCH   1   7
BRANCH   6  13
ATOM     13  N   LIG d   1      -4.349  79.178 117.071  0.00  0.00    -0.311 N 
ATOM     14  C   LIG d   1      -3.478  79.443 116.099  0.00  0.00     0.210 C 
ATOM     15  C   LIG d   1      -2.006  79.261 116.483  0.00  0.00     0.109 C 
ATOM     16  O   LIG d   1      -3.783  79.842 114.965  0.00  0.00    -0.276 OA
ATOM     17  H   LIG d   1      -4.014  78.891 117.970  0.00  0.00     0.149 HD
ENDBRANCH   6  13
BRANCH   5  18
ATOM     18  N   LIG d   1      -6.043  81.600 117.846  0.00  0.00     0.381 N 
ATOM     19  H   LIG d   1      -5.055  81.636 117.689  0.00  0.00    -0.090 HD
ATOM     20  H   LIG d   1      -6.241  82.068 118.713  0.00  0.00    -0.090 HD
ATOM     21  H   LIG d   1      -6.522  82.051 117.098  0.00  0.00    -0.090 HD
ENDBRANCH   5  18
BRANCH   3  22
ATOM     22  C   LIG d   1      -9.821  78.674 118.159  0.00  0.00     0.382 C 
ATOM     23  O   LIG d   1     -10.315  77.520 118.161  0.00  0.00    -0.241 OA
ATOM     24  O   LIG d   1     -10.518  79.640 118.521  0.00  0.00    -0.241 OA
ENDBRANCH   3  22
TORSDOF 7
ENDMDL
MODEL 9
REMARK VINA RESULT:      -5.1      2.539      5.375
REMARK  7 active torsions:
REMARK  status: ('A' for Active; 'I' for Inactive)
REMARK    1  A    between atoms: C_2  and  C_3 
REMARK    2  A    between atoms: C_3  and  O_6 
REMARK    3  A    between atoms: C_3  and  C_4 
REMARK    4  A    between atoms: C_7  and  O_6 
REMARK    5  A    between atoms: C_9  and  C_10 
REMARK    6  A    between atoms: N_15  and  C_14 
REMARK    7  A    between atoms: N_20  and  C_19 
REMARK       I    between atoms: C_22  and  N_20 
ROOT
ATOM      1  C   LIG d   1      -7.133  77.501 117.401  0.00  0.00     0.161 C 
ATOM      2  C   LIG d   1      -8.297  78.200 117.758  0.00  0.00     0.016 C 
ATOM      3  C   LIG d   1      -8.372  79.611 117.815  0.00  0.00     0.038 C 
ATOM      4  C   LIG d   1      -7.322  80.427 117.368  0.00  0.00     0.028 C 
ATOM      5  C   LIG d   1      -5.952  79.766 117.476  0.00  0.00    -0.047 C 
ATOM      6  C   LIG d   1      -6.011  78.376 116.803  0.00  0.00     0.091 C 
ENDROOT
BRANCH   1   7
ATOM      7  O   LIG d   1      -7.465  76.427 116.499  0.00  0.00    -0.368 OA
BRANCH   7   8
ATOM      8  C   LIG d   1      -7.757  75.147 117.112  0.00  0.00     0.119 C 
BRANCH   8   9
ATOM      9  C   LIG d   1      -6.821  74.103 116.473  0.00  0.00     0.028 C 
ATOM     10  C   LIG d   1      -6.040  74.670 115.276  0.00  0.00     0.006 C 
ENDBRANCH   8   9
BRANCH   8  11
ATOM     11  C   LIG d   1      -9.176  74.679 116.776  0.00  0.00     0.028 C 
ATOM     12  C   LIG d   1      -9.627  73.483 117.630  0.00  0.00     0.006 C 
ENDBRANCH   8  11
ENDBRANCH   7   8
ENDBRANCH   1   7
BRANCH   6  13
ATOM     13  N   LIG d   1      -4.735  77.625 116.938  0.00  0.00    -0.311 N 
ATOM     14  C   LIG d   1      -3.790  77.612 116.001  0.00  0.00     0.210 C 
ATOM     15  C   LIG d   1      -2.561  76.759 116.333  0.00  0.00     0.109 C 
ATOM     16  O   LIG d   1      -3.837  78.251 114.939  0.00  0.00    -0.276 OA
ATOM     17  H   LIG d   1      -4.600  77.104 117.783  0.00  0.00     0.149 HD
ENDBRANCH   6  13
BRANCH   5  18
ATOM     18  N   LIG d   1      -4.969  80.670 116.850  0.00  0.00     0.381 N 
ATOM     19  H   LIG d   1      -4.063  80.247 116.863  0.00  0.00    -0.090 HD
ATOM     20  H   LIG d   1      -4.927  81.522 117.382  0.00  0.00    -0.090 HD
ATOM     21  H   LIG d   1      -5.238  80.869 115.912  0.00  0.00    -0.090 HD
ENDBRANCH   5  18
BRANCH   3  22
ATOM     22  C   LIG d   1      -9.492  80.219 118.360  0.00  0.00     0.382 C 
ATOM     23  O   LIG d   1      -9.380  81.311 118.968  0.00  0.00    -0.241 OA
ATOM     24  O   LIG d   1     -10.607  79.667 118.291  0.00  0.00    -0.241 OA
ENDBRANCH   3  22
TORSDOF 7
ENDMDL
