MODEL 1
REMARK VINA RESULT:      -5.9      0.000      0.000
REMARK  7 active torsions:
REMARK  status: ('A' for Active; 'I' for Inactive)
REMARK    1  A    between atoms: C_2  and  C_3 
REMARK    2  A    between atoms: C_3  and  O_6 
REMARK    3  A    between atoms: C_3  and  C_4 
REMARK    4  A    between atoms: C_7  and  O_6 
REMARK    5  A    between atoms: C_9  and  C_10 
REMARK    6  A    between atoms: N_15  and  C_14 
REMARK    7  A    between atoms: N_20  and  C_19 
REMARK       I    between atoms: C_22  and  N_20 
ROOT
ATOM      1  C   LIG d   1      -7.790  74.514 117.706  0.00  0.00     0.161 C 
ATOM      2  C   LIG d   1      -9.003  75.209 117.839  0.00  0.00     0.016 C 
ATOM      3  C   LIG d   1      -9.095  76.620 117.851  0.00  0.00     0.038 C 
ATOM      4  C   LIG d   1      -7.988  77.437 117.576  0.00  0.00     0.028 C 
ATOM      5  C   LIG d   1      -6.654  76.791 117.937  0.00  0.00    -0.047 C 
ATOM      6  C   LIG d   1      -6.586  75.387 117.294  0.00  0.00     0.091 C 
ENDROOT
BRANCH   1   7
ATOM      7  O   LIG d   1      -7.953  73.418 116.784  0.00  0.00    -0.368 OA
BRANCH   7   8
ATOM      8  C   LIG d   1      -7.954  72.091 117.364  0.00  0.00     0.119 C 
BRANCH   8   9
ATOM      9  C   LIG d   1      -6.878  71.265 116.634  0.00  0.00     0.028 C 
ATOM     10  C   LIG d   1      -6.375  71.957 115.355  0.00  0.00     0.006 C 
ENDBRANCH   8   9
BRANCH   8  11
ATOM     11  C   LIG d   1      -9.276  71.365 117.093  0.00  0.00     0.028 C 
ATOM     12  C   LIG d   1      -9.193  69.855 117.367  0.00  0.00     0.006 C 
ENDBRANCH   8  11
ENDBRANCH   7   8
ENDBRANCH   1   7
BRANCH   6  13
ATOM     13  N   LIG d   1      -5.349  74.652 117.667  0.00  0.00    -0.311 N 
ATOM     14  C   LIG d   1      -4.262  74.610 116.899  0.00  0.00     0.210 C 
ATOM     15  C   LIG d   1      -3.105  73.779 117.462  0.00  0.00     0.109 C 
ATOM     16  O   LIG d   1      -4.135  75.207 115.820  0.00  0.00    -0.276 OA
ATOM     17  H   LIG d   1      -5.354  74.165 118.542  0.00  0.00     0.149 HD
ENDBRANCH   6  13
BRANCH   5  18
ATOM     18  N   LIG d   1      -5.583  77.692 117.473  0.00  0.00     0.381 N 
ATOM     19  H   LIG d   1      -5.802  78.636 117.722  0.00  0.00    -0.090 HD
ATOM     20  H   LIG d   1      -5.522  77.636 116.472  0.00  0.00    -0.090 HD
ATOM     21  H   LIG d   1      -4.713  77.427 117.881  0.00  0.00    -0.090 HD
ENDBRANCH   5  18
BRANCH   3  22
ATOM     22  C   LIG d   1     -10.297  77.228 118.179  0.00  0.00     0.382 C 
ATOM     23  O   LIG d   1     -10.315  78.433 118.528  0.00  0.00    -0.241 OA
ATOM     24  O   LIG d   1     -11.358  76.575 118.172  0.00  0.00    -0.241 OA
ENDBRANCH   3  22
TORSDOF 7
ENDMDL
MODEL 2
REMARK VINA RESULT:      -5.6      1.575      2.420
REMARK  7 active torsions:
REMARK  status: ('A' for Active; 'I' for Inactive)
REMARK    1  A    between atoms: C_2  and  C_3 
REMARK    2  A    between atoms: C_3  and  O_6 
REMARK    3  A    between atoms: C_3  and  C_4 
REMARK    4  A    between atoms: C_7  and  O_6 
REMARK    5  A    between atoms: C_9  and  C_10 
REMARK    6  A    between atoms: N_15  and  C_14 
REMARK    7  A    between atoms: N_20  and  C_19 
REMARK       I    between atoms: C_22  and  N_20 
ROOT
ATOM      1  C   LIG d   1      -7.029  74.545 118.347  0.00  0.00     0.161 C 
ATOM      2  C   LIG d   1      -8.379  74.627 117.969  0.00  0.00     0.016 C 
ATOM      3  C   LIG d   1      -9.051  75.851 117.745  0.00  0.00     0.038 C 
ATOM      4  C   LIG d   1      -8.372  77.079 117.737  0.00  0.00     0.028 C 
ATOM      5  C   LIG d   1      -7.121  77.085 118.608  0.00  0.00    -0.047 C 
ATOM      6  C   LIG d   1      -6.243  75.868 118.234  0.00  0.00     0.091 C 
ENDROOT
BRANCH   1   7
ATOM      7  O   LIG d   1      -6.373  73.507 117.591  0.00  0.00    -0.368 OA
BRANCH   7   8
ATOM      8  C   LIG d   1      -6.820  73.335 116.224  0.00  0.00     0.119 C 
BRANCH   8   9
ATOM      9  C   LIG d   1      -7.051  71.828 115.999  0.00  0.00     0.028 C 
ATOM     10  C   LIG d   1      -8.434  71.366 116.489  0.00  0.00     0.006 C 
ENDBRANCH   8   9
BRANCH   8  11
ATOM     11  C   LIG d   1      -5.728  73.731 115.226  0.00  0.00     0.028 C 
ATOM     12  C   LIG d   1      -5.849  75.190 114.758  0.00  0.00     0.006 C 
ENDBRANCH   8  11
ENDBRANCH   7   8
ENDBRANCH   1   7
BRANCH   6  13
ATOM     13  N   LIG d   1      -5.039  75.751 119.097  0.00  0.00    -0.311 N 
ATOM     14  C   LIG d   1      -3.808  75.583 118.618  0.00  0.00     0.210 C 
ATOM     15  C   LIG d   1      -2.711  75.466 119.681  0.00  0.00     0.109 C 
ATOM     16  O   LIG d   1      -3.515  75.553 117.414  0.00  0.00    -0.276 OA
ATOM     17  H   LIG d   1      -5.181  75.797 120.087  0.00  0.00     0.149 HD
ENDBRANCH   6  13
BRANCH   5  18
ATOM     18  N   LIG d   1      -6.438  78.376 118.399  0.00  0.00     0.381 N 
ATOM     19  H   LIG d   1      -5.880  78.597 119.199  0.00  0.00    -0.090 HD
ATOM     20  H   LIG d   1      -7.131  79.095 118.289  0.00  0.00    -0.090 HD
ATOM     21  H   LIG d   1      -5.864  78.330 117.586  0.00  0.00    -0.090 HD
ENDBRANCH   5  18
BRANCH   3  22
ATOM     22  C   LIG d   1     -10.426  75.857 117.565  0.00  0.00     0.382 C 
ATOM     23  O   LIG d   1     -11.105  76.835 117.960  0.00  0.00    -0.241 OA
ATOM     24  O   LIG d   1     -11.001  74.878 117.053  0.00  0.00    -0.241 OA
ENDBRANCH   3  22
TORSDOF 7
ENDMDL
MODEL 3
REMARK VINA RESULT:      -5.2      2.391      4.359
REMARK  7 active torsions:
REMARK  status: ('A' for Active; 'I' for Inactive)
REMARK    1  A    between atoms: C_2  and  C_3 
REMARK    2  A    between atoms: C_3  and  O_6 
REMARK    3  A    between atoms: C_3  and  C_4 
REMARK    4  A    between atoms: C_7  and  O_6 
REMARK    5  A    between atoms: C_9  and  C_10 
REMARK    6  A    between atoms: N_15  and  C_14 
REMARK    7  A    between atoms: N_20  and  C_19 
REMARK       I    between atoms: C_22  and  N_20 
ROOT
ATOM      1  C   LIG d   1      -6.789  75.879 117.013  0.00  0.00     0.161 C 
ATOM      2  C   LIG d   1      -6.315  77.197 117.130  0.00  0.00     0.016 C 
ATOM      3  C   LIG d   1      -7.098  78.264 117.629  0.00  0.00     0.038 C 
ATOM      4  C   LIG d   1      -8.366  78.054 118.190  0.00  0.00     0.028 C 
ATOM      5  C   LIG d   1      -9.080  76.827 117.631  0.00  0.00    -0.047 C 
ATOM      6  C   LIG d   1      -8.132  75.610 117.723  0.00  0.00     0.091 C 
ENDROOT
BRANCH   1   7
ATOM      7  O   LIG d   1      -5.784  74.956 117.476  0.00  0.00    -0.368 OA
BRANCH   7   8
ATOM      8  C   LIG d   1      -5.161  74.131 116.461  0.00  0.00     0.119 C 
BRANCH   8   9
ATOM      9  C   LIG d   1      -3.688  74.567 116.349  0.00  0.00     0.028 C 
ATOM     10  C   LIG d   1      -2.808  73.952 117.450  0.00  0.00     0.006 C 
ENDBRANCH   8   9
BRANCH   8  11
ATOM     11  C   LIG d   1      -5.768  74.393 115.079  0.00  0.00     0.028 C 
ATOM     12  C   LIG d   1      -4.711  74.750 114.022  0.00  0.00     0.006 C 
ENDBRANCH   8  11
ENDBRANCH   7   8
ENDBRANCH   1   7
BRANCH   6  13
ATOM     13  N   LIG d   1      -8.722  74.386 117.121  0.00  0.00    -0.311 N 
ATOM     14  C   LIG d   1      -8.550  73.165 117.625  0.00  0.00     0.210 C 
ATOM     15  C   LIG d   1      -9.228  72.039 116.838  0.00  0.00     0.109 C 
ATOM     16  O   LIG d   1      -7.929  72.911 118.668  0.00  0.00    -0.276 OA
ATOM     17  H   LIG d   1      -9.268  74.504 116.290  0.00  0.00     0.149 HD
ENDBRANCH   6  13
BRANCH   5  18
ATOM     18  N   LIG d   1     -10.327  76.649 118.399  0.00  0.00     0.381 N 
ATOM     19  H   LIG d   1     -10.897  77.467 118.314  0.00  0.00    -0.090 HD
ATOM     20  H   LIG d   1     -10.096  76.525 119.369  0.00  0.00    -0.090 HD
ATOM     21  H   LIG d   1     -10.823  75.853 118.064  0.00  0.00    -0.090 HD
ENDBRANCH   5  18
BRANCH   3  22
ATOM     22  C   LIG d   1      -6.627  79.564 117.532  0.00  0.00     0.382 C 
ATOM     23  O   LIG d   1      -7.434  80.514 117.389  0.00  0.00    -0.241 OA
ATOM     24  O   LIG d   1      -5.403  79.796 117.543  0.00  0.00    -0.241 OA
ENDBRANCH   3  22
TORSDOF 7
ENDMDL
MODEL 4
REMARK VINA RESULT:      -5.2      2.206      4.859
REMARK  7 active torsions:
REMARK  status: ('A' for Active; 'I' for Inactive)
REMARK    1  A    between atoms: C_2  and  C_3 
REMARK    2  A    between atoms: C_3  and  O_6 
REMARK    3  A    between atoms: C_3  and  C_4 
REMARK    4  A    between atoms: C_7  and  O_6 
REMARK    5  A    between atoms: C_9  and  C_10 
REMARK    6  A    between atoms: N_15  and  C_14 
REMARK    7  A    between atoms: N_20  and  C_19 
REMARK       I    between atoms: C_22  and  N_20 
ROOT
ATOM      1  C   LIG d   1      -6.354  74.878 117.362  0.00  0.00     0.161 C 
ATOM      2  C   LIG d   1      -6.757  73.600 116.940  0.00  0.00     0.016 C 
ATOM      3  C   LIG d   1      -8.106  73.179 116.914  0.00  0.00     0.038 C 
ATOM      4  C   LIG d   1      -9.165  74.064 117.167  0.00  0.00     0.028 C 
ATOM      5  C   LIG d   1      -8.781  75.220 118.084  0.00  0.00    -0.047 C 
ATOM      6  C   LIG d   1      -7.502  75.893 117.535  0.00  0.00     0.091 C 
ENDROOT
BRANCH   1   7
ATOM      7  O   LIG d   1      -5.357  75.398 116.460  0.00  0.00    -0.368 OA
BRANCH   7   8
ATOM      8  C   LIG d   1      -4.429  74.431 115.909  0.00  0.00     0.119 C 
BRANCH   8   9
ATOM      9  C   LIG d   1      -3.054  74.689 116.554  0.00  0.00     0.028 C 
ATOM     10  C   LIG d   1      -2.696  73.636 117.616  0.00  0.00     0.006 C 
ENDBRANCH   8   9
BRANCH   8  11
ATOM     11  C   LIG d   1      -4.221  74.652 114.408  0.00  0.00     0.028 C 
ATOM     12  C   LIG d   1      -5.231  75.641 113.805  0.00  0.00     0.006 C 
ENDBRANCH   8  11
ENDBRANCH   7   8
ENDBRANCH   1   7
BRANCH   6  13
ATOM     13  N   LIG d   1      -7.010  76.982 118.420  0.00  0.00    -0.311 N 
ATOM     14  C   LIG d   1      -6.558  78.148 117.965  0.00  0.00     0.210 C 
ATOM     15  C   LIG d   1      -6.079  79.123 119.046  0.00  0.00     0.109 C 
ATOM     16  O   LIG d   1      -6.537  78.481 116.770  0.00  0.00    -0.276 OA
ATOM     17  H   LIG d   1      -7.021  76.808 119.406  0.00  0.00     0.149 HD
ENDBRANCH   6  13
BRANCH   5  18
ATOM     18  N   LIG d   1      -9.934  76.137 118.152  0.00  0.00     0.381 N 
ATOM     19  H   LIG d   1     -10.677  75.790 117.580  0.00  0.00    -0.090 HD
ATOM     20  H   LIG d   1      -9.656  77.035 117.797  0.00  0.00    -0.090 HD
ATOM     21  H   LIG d   1     -10.244  76.226 119.095  0.00  0.00    -0.090 HD
ENDBRANCH   5  18
BRANCH   3  22
ATOM     22  C   LIG d   1      -8.406  71.847 116.671  0.00  0.00     0.382 C 
ATOM     23  O   LIG d   1      -9.379  71.307 117.250  0.00  0.00    -0.241 OA
ATOM     24  O   LIG d   1      -7.689  71.166 115.913  0.00  0.00    -0.241 OA
ENDBRANCH   3  22
TORSDOF 7
ENDMDL
MODEL 5
REMARK VINA RESULT:      -5.0      2.554      4.246
REMARK  7 active torsions:
REMARK  status: ('A' for Active; 'I' for Inactive)
REMARK    1  A    between atoms: C_2  and  C_3 
REMARK    2  A    between atoms: C_3  and  O_6 
REMARK    3  A    between atoms: C_3  and  C_4 
REMARK    4  A    between atoms: C_7  and  O_6 
REMARK    5  A    between atoms: C_9  and  C_10 
REMARK    6  A    between atoms: N_15  and  C_14 
REMARK    7  A    between atoms: N_20  and  C_19 
REMARK       I    between atoms: C_22  and  N_20 
ROOT
ATOM      1  C   LIG d   1      -6.845  77.004 116.997  0.00  0.00     0.161 C 
ATOM      2  C   LIG d   1      -8.092  76.359 116.983  0.00  0.00     0.016 C 
ATOM      3  C   LIG d   1      -9.236  76.863 117.644  0.00  0.00     0.038 C 
ATOM      4  C   LIG d   1      -9.248  78.132 118.242  0.00  0.00     0.028 C 
ATOM      5  C   LIG d   1      -7.874  78.591 118.715  0.00  0.00    -0.047 C 
ATOM      6  C   LIG d   1      -6.867  78.444 117.551  0.00  0.00     0.091 C 
ENDROOT
BRANCH   1   7
ATOM      7  O   LIG d   1      -6.269  76.985 115.676  0.00  0.00    -0.368 OA
BRANCH   7   8
ATOM      8  C   LIG d   1      -5.108  76.136 115.498  0.00  0.00     0.119 C 
BRANCH   8   9
ATOM      9  C   LIG d   1      -5.529  74.957 114.601  0.00  0.00     0.028 C 
ATOM     10  C   LIG d   1      -5.884  73.699 115.413  0.00  0.00     0.006 C 
ENDBRANCH   8   9
BRANCH   8  11
ATOM     11  C   LIG d   1      -4.673  75.503 116.823  0.00  0.00     0.028 C 
ATOM     12  C   LIG d   1      -3.263  75.935 117.256  0.00  0.00     0.006 C 
ENDBRANCH   8  11
ENDBRANCH   7   8
ENDBRANCH   1   7
BRANCH   6  13
ATOM     13  N   LIG d   1      -5.480  78.793 117.954  0.00  0.00    -0.311 N 
ATOM     14  C   LIG d   1      -4.929  79.984 117.728  0.00  0.00     0.210 C 
ATOM     15  C   LIG d   1      -3.480  80.128 118.206  0.00  0.00     0.109 C 
ATOM     16  O   LIG d   1      -5.512  80.946 117.207  0.00  0.00    -0.276 OA
ATOM     17  H   LIG d   1      -4.945  78.081 118.411  0.00  0.00     0.149 HD
ENDBRANCH   6  13
BRANCH   5  18
ATOM     18  N   LIG d   1      -8.008  79.981 119.191  0.00  0.00     0.381 N 
ATOM     19  H   LIG d   1      -8.191  80.588 118.417  0.00  0.00    -0.090 HD
ATOM     20  H   LIG d   1      -7.142  80.264 119.616  0.00  0.00    -0.090 HD
ATOM     21  H   LIG d   1      -8.748  80.044 119.855  0.00  0.00    -0.090 HD
ENDBRANCH   5  18
BRANCH   3  22
ATOM     22  C   LIG d   1     -10.374  76.076 117.745  0.00  0.00     0.382 C 
ATOM     23  O   LIG d   1     -10.337  74.873 117.391  0.00  0.00    -0.241 OA
ATOM     24  O   LIG d   1     -11.447  76.566 118.144  0.00  0.00    -0.241 OA
ENDBRANCH   3  22
TORSDOF 7
ENDMDL
MODEL 6
REMARK VINA RESULT:      -4.9      1.798      4.645
REMARK  7 active torsions:
REMARK  status: ('A' for Active; 'I' for Inactive)
REMARK    1  A    between atoms: C_2  and  C_3 
REMARK    2  A    between atoms: C_3  and  O_6 
REMARK    3  A    between atoms: C_3  and  C_4 
REMARK    4  A    between atoms: C_7  and  O_6 
REMARK    5  A    between atoms: C_9  and  C_10 
REMARK    6  A    between atoms: N_15  and  C_14 
REMARK    7  A    between atoms: N_20  and  C_19 
REMARK       I    between atoms: C_22  and  N_20 
ROOT
ATOM      1  C   LIG d   1      -6.620  74.705 117.170  0.00  0.00     0.161 C 
ATOM      2  C   LIG d   1      -5.766  74.419 116.093  0.00  0.00     0.016 C 
ATOM      3  C   LIG d   1      -4.470  74.969 115.960  0.00  0.00     0.038 C 
ATOM      4  C   LIG d   1      -3.879  75.729 116.981  0.00  0.00     0.028 C 
ATOM      5  C   LIG d   1      -4.892  76.457 117.858  0.00  0.00    -0.047 C 
ATOM      6  C   LIG d   1      -5.951  75.443 118.348  0.00  0.00     0.091 C 
ENDROOT
BRANCH   1   7
ATOM      7  O   LIG d   1      -7.248  73.492 117.631  0.00  0.00    -0.368 OA
BRANCH   7   8
ATOM      8  C   LIG d   1      -8.022  72.761 116.648  0.00  0.00     0.119 C 
BRANCH   8   9
ATOM      9  C   LIG d   1      -9.501  72.840 117.072  0.00  0.00     0.028 C 
ATOM     10  C   LIG d   1     -10.037  74.282 117.070  0.00  0.00     0.006 C 
ENDBRANCH   8   9
BRANCH   8  11
ATOM     11  C   LIG d   1      -7.675  71.270 116.661  0.00  0.00     0.028 C 
ATOM     12  C   LIG d   1      -8.861  70.386 117.079  0.00  0.00     0.006 C 
ENDBRANCH   8  11
ENDBRANCH   7   8
ENDBRANCH   1   7
BRANCH   6  13
ATOM     13  N   LIG d   1      -7.028  76.089 119.144  0.00  0.00    -0.311 N 
ATOM     14  C   LIG d   1      -7.892  76.964 118.634  0.00  0.00     0.210 C 
ATOM     15  C   LIG d   1      -8.910  77.525 119.632  0.00  0.00     0.109 C 
ATOM     16  O   LIG d   1      -7.933  77.306 117.442  0.00  0.00    -0.276 OA
ATOM     17  H   LIG d   1      -7.087  75.845 120.113  0.00  0.00     0.149 HD
ENDBRANCH   6  13
BRANCH   5  18
ATOM     18  N   LIG d   1      -4.149  77.096 118.960  0.00  0.00     0.381 N 
ATOM     19  H   LIG d   1      -3.194  76.799 118.942  0.00  0.00    -0.090 HD
ATOM     20  H   LIG d   1      -4.553  76.808 119.834  0.00  0.00    -0.090 HD
ATOM     21  H   LIG d   1      -4.198  78.087 118.875  0.00  0.00    -0.090 HD
ENDBRANCH   5  18
BRANCH   3  22
ATOM     22  C   LIG d   1      -3.766  74.793 114.779  0.00  0.00     0.382 C 
ATOM     23  O   LIG d   1      -2.601  75.246 114.669  0.00  0.00    -0.241 OA
ATOM     24  O   LIG d   1      -4.297  74.225 113.805  0.00  0.00    -0.241 OA
ENDBRANCH   3  22
TORSDOF 7
ENDMDL
MODEL 7
REMARK VINA RESULT:      -4.7      2.188      4.721
REMARK  7 active torsions:
REMARK  status: ('A' for Active; 'I' for Inactive)
REMARK    1  A    between atoms: C_2  and  C_3 
REMARK    2  A    between atoms: C_3  and  O_6 
REMARK    3  A    between atoms: C_3  and  C_4 
REMARK    4  A    between atoms: C_7  and  O_6 
REMARK    5  A    between atoms: C_9  and  C_10 
REMARK    6  A    between atoms: N_15  and  C_14 
REMARK    7  A    between atoms: N_20  and  C_19 
REMARK       I    between atoms: C_22  and  N_20 
ROOT
ATOM      1  C   LIG d   1      -6.897  76.674 116.477  0.00  0.00     0.161 C 
ATOM      2  C   LIG d   1      -8.245  76.760 116.862  0.00  0.00     0.016 C 
ATOM      3  C   LIG d   1      -8.991  75.656 117.334  0.00  0.00     0.038 C 
ATOM      4  C   LIG d   1      -8.393  74.415 117.597  0.00  0.00     0.028 C 
ATOM      5  C   LIG d   1      -7.155  74.147 116.748  0.00  0.00    -0.047 C 
ATOM      6  C   LIG d   1      -6.197  75.354 116.862  0.00  0.00     0.091 C 
ENDROOT
BRANCH   1   7
ATOM      7  O   LIG d   1      -6.166  77.800 117.002  0.00  0.00    -0.368 OA
BRANCH   7   8
ATOM      8  C   LIG d   1      -6.836  78.572 118.029  0.00  0.00     0.119 C 
BRANCH   8   9
ATOM      9  C   LIG d   1      -6.521  80.058 117.771  0.00  0.00     0.028 C 
ATOM     10  C   LIG d   1      -7.778  80.943 117.830  0.00  0.00     0.006 C 
ENDBRANCH   8   9
BRANCH   8  11
ATOM     11  C   LIG d   1      -6.260  78.271 119.416  0.00  0.00     0.028 C 
ATOM     12  C   LIG d   1      -7.278  77.597 120.350  0.00  0.00     0.006 C 
ENDBRANCH   8  11
ENDBRANCH   7   8
ENDBRANCH   1   7
BRANCH   6  13
ATOM     13  N   LIG d   1      -4.998  75.211 115.995  0.00  0.00    -0.311 N 
ATOM     14  C   LIG d   1      -3.818  74.781 116.440  0.00  0.00     0.210 C 
ATOM     15  C   LIG d   1      -2.710  74.727 115.384  0.00  0.00     0.109 C 
ATOM     16  O   LIG d   1      -3.593  74.410 117.602  0.00  0.00    -0.276 OA
ATOM     17  H   LIG d   1      -5.100  75.461 115.031  0.00  0.00     0.149 HD
ENDBRANCH   6  13
BRANCH   5  18
ATOM     18  N   LIG d   1      -6.554  72.885 117.221  0.00  0.00     0.381 N 
ATOM     19  H   LIG d   1      -7.114  72.497 117.954  0.00  0.00    -0.090 HD
ATOM     20  H   LIG d   1      -5.640  73.079 117.591  0.00  0.00    -0.090 HD
ATOM     21  H   LIG d   1      -6.485  72.237 116.468  0.00  0.00    -0.090 HD
ENDBRANCH   5  18
BRANCH   3  22
ATOM     22  C   LIG d   1     -10.361  75.777 117.510  0.00  0.00     0.382 C 
ATOM     23  O   LIG d   1     -10.838  76.817 118.024  0.00  0.00    -0.241 OA
ATOM     24  O   LIG d   1     -11.123  74.841 117.201  0.00  0.00    -0.241 OA
ENDBRANCH   3  22
TORSDOF 7
ENDMDL
MODEL 8
REMARK VINA RESULT:      -4.7      1.775      3.006
REMARK  7 active torsions:
REMARK  status: ('A' for Active; 'I' for Inactive)
REMARK    1  A    between atoms: C_2  and  C_3 
REMARK    2  A    between atoms: C_3  and  O_6 
REMARK    3  A    between atoms: C_3  and  C_4 
REMARK    4  A    between atoms: C_7  and  O_6 
REMARK    5  A    between atoms: C_9  and  C_10 
REMARK    6  A    between atoms: N_15  and  C_14 
REMARK    7  A    between atoms: N_20  and  C_19 
REMARK       I    between atoms: C_22  and  N_20 
ROOT
ATOM      1  C   LIG d   1      -6.314  76.111 116.946  0.00  0.00     0.161 C 
ATOM      2  C   LIG d   1      -7.702  76.002 117.136  0.00  0.00     0.016 C 
ATOM      3  C   LIG d   1      -8.504  77.052 117.639  0.00  0.00     0.038 C 
ATOM      4  C   LIG d   1      -7.992  78.342 117.846  0.00  0.00     0.028 C 
ATOM      5  C   LIG d   1      -6.497  78.359 118.147  0.00  0.00    -0.047 C 
ATOM      6  C   LIG d   1      -5.757  77.546 117.061  0.00  0.00     0.091 C 
ENDROOT
BRANCH   1   7
ATOM      7  O   LIG d   1      -5.947  75.531 115.679  0.00  0.00    -0.368 OA
BRANCH   7   8
ATOM      8  C   LIG d   1      -5.173  74.308 115.738  0.00  0.00     0.119 C 
BRANCH   8   9
ATOM      9  C   LIG d   1      -6.101  73.152 115.314  0.00  0.00     0.028 C 
ATOM     10  C   LIG d   1      -6.702  72.410 116.520  0.00  0.00     0.006 C 
ENDBRANCH   8   9
BRANCH   8  11
ATOM     11  C   LIG d   1      -4.753  73.983 117.175  0.00  0.00     0.028 C 
ATOM     12  C   LIG d   1      -3.227  73.958 117.357  0.00  0.00     0.006 C 
ENDBRANCH   8  11
ENDBRANCH   7   8
ENDBRANCH   1   7
BRANCH   6  13
ATOM     13  N   LIG d   1      -4.298  77.441 117.327  0.00  0.00    -0.311 N 
ATOM     14  C   LIG d   1      -3.368  77.632 116.394  0.00  0.00     0.210 C 
ATOM     15  C   LIG d   1      -1.924  77.457 116.875  0.00  0.00     0.109 C 
ATOM     16  O   LIG d   1      -3.600  77.962 115.221  0.00  0.00    -0.276 OA
ATOM     17  H   LIG d   1      -4.020  77.209 118.260  0.00  0.00     0.149 HD
ENDBRANCH   6  13
BRANCH   5  18
ATOM     18  N   LIG d   1      -6.071  79.770 118.204  0.00  0.00     0.381 N 
ATOM     19  H   LIG d   1      -5.100  79.840 117.973  0.00  0.00    -0.090 HD
ATOM     20  H   LIG d   1      -6.197  80.111 119.141  0.00  0.00    -0.090 HD
ATOM     21  H   LIG d   1      -6.610  80.316 117.569  0.00  0.00    -0.090 HD
ENDBRANCH   5  18
BRANCH   3  22
ATOM     22  C   LIG d   1      -9.825  76.805 117.979  0.00  0.00     0.382 C 
ATOM     23  O   LIG d   1     -10.554  77.743 118.385  0.00  0.00    -0.241 OA
ATOM     24  O   LIG d   1     -10.286  75.649 117.926  0.00  0.00    -0.241 OA
ENDBRANCH   3  22
TORSDOF 7
ENDMDL
MODEL 9
REMARK VINA RESULT:      -4.6      2.256      5.140
REMARK  7 active torsions:
REMARK  status: ('A' for Active; 'I' for Inactive)
REMARK    1  A    between atoms: C_2  and  C_3 
REMARK    2  A    between atoms: C_3  and  O_6 
REMARK    3  A    between atoms: C_3  and  C_4 
REMARK    4  A    between atoms: C_7  and  O_6 
REMARK    5  A    between atoms: C_9  and  C_10 
REMARK    6  A    between atoms: N_15  and  C_14 
REMARK    7  A    between atoms: N_20  and  C_19 
REMARK       I    between atoms: C_22  and  N_20 
ROOT
ATOM      1  C   LIG d   1      -6.776  75.531 117.406  0.00  0.00     0.161 C 
ATOM      2  C   LIG d   1      -7.529  74.345 117.391  0.00  0.00     0.016 C 
ATOM      3  C   LIG d   1      -7.260  73.263 116.522  0.00  0.00     0.038 C 
ATOM      4  C   LIG d   1      -6.119  73.233 115.707  0.00  0.00     0.028 C 
ATOM      5  C   LIG d   1      -5.614  74.619 115.321  0.00  0.00    -0.047 C 
ATOM      6  C   LIG d   1      -5.461  75.471 116.601  0.00  0.00     0.091 C 
ENDROOT
BRANCH   1   7
ATOM      7  O   LIG d   1      -6.514  75.927 118.766  0.00  0.00    -0.368 OA
BRANCH   7   8
ATOM      8  C   LIG d   1      -7.181  77.130 119.220  0.00  0.00     0.119 C 
BRANCH   8   9
ATOM      9  C   LIG d   1      -8.308  76.701 120.180  0.00  0.00     0.028 C 
ATOM     10  C   LIG d   1      -9.689  76.704 119.503  0.00  0.00     0.006 C 
ENDBRANCH   8   9
BRANCH   8  11
ATOM     11  C   LIG d   1      -7.885  77.847 118.064  0.00  0.00     0.028 C 
ATOM     12  C   LIG d   1      -7.362  79.274 117.841  0.00  0.00     0.006 C 
ENDBRANCH   8  11
ENDBRANCH   7   8
ENDBRANCH   1   7
BRANCH   6  13
ATOM     13  N   LIG d   1      -5.050  76.869 116.306  0.00  0.00    -0.311 N 
ATOM     14  C   LIG d   1      -4.027  77.475 116.906  0.00  0.00     0.210 C 
ATOM     15  C   LIG d   1      -3.787  78.923 116.469  0.00  0.00     0.109 C 
ATOM     16  O   LIG d   1      -3.275  76.940 117.734  0.00  0.00    -0.276 OA
ATOM     17  H   LIG d   1      -5.587  77.367 115.623  0.00  0.00     0.149 HD
ENDBRANCH   6  13
BRANCH   5  18
ATOM     18  N   LIG d   1      -4.345  74.442 114.589  0.00  0.00     0.381 N 
ATOM     19  H   LIG d   1      -4.311  75.074 113.814  0.00  0.00    -0.090 HD
ATOM     20  H   LIG d   1      -4.303  73.504 114.232  0.00  0.00    -0.090 HD
ATOM     21  H   LIG d   1      -3.574  74.609 115.197  0.00  0.00    -0.090 HD
ENDBRANCH   5  18
BRANCH   3  22
ATOM     22  C   LIG d   1      -8.161  72.212 116.434  0.00  0.00     0.382 C 
ATOM     23  O   LIG d   1      -7.786  71.101 115.990  0.00  0.00    -0.241 OA
ATOM     24  O   LIG d   1      -9.355  72.375 116.751  0.00  0.00    -0.241 OA
ENDBRANCH   3  22
TORSDOF 7
ENDMDL
