MODEL 1
REMARK VINA RESULT:      -5.6      0.000      0.000
REMARK  7 active torsions:
REMARK  status: ('A' for Active; 'I' for Inactive)
REMARK    1  A    between atoms: C_2  and  C_3 
REMARK    2  A    between atoms: C_3  and  O_6 
REMARK    3  A    between atoms: C_3  and  C_4 
REMARK    4  A    between atoms: C_7  and  O_6 
REMARK    5  A    between atoms: C_9  and  C_10 
REMARK    6  A    between atoms: N_15  and  C_14 
REMARK    7  A    between atoms: N_20  and  C_19 
REMARK       I    between atoms: C_22  and  N_20 
ROOT
ATOM      1  C   LIG d   1      -4.017  90.708 117.692  0.00  0.00     0.161 C 
ATOM      2  C   LIG d   1      -4.867  89.976 116.846  0.00  0.00     0.016 C 
ATOM      3  C   LIG d   1      -6.138  90.437 116.433  0.00  0.00     0.038 C 
ATOM      4  C   LIG d   1      -6.584  91.737 116.717  0.00  0.00     0.028 C 
ATOM      5  C   LIG d   1      -5.976  92.321 117.988  0.00  0.00    -0.047 C 
ATOM      6  C   LIG d   1      -4.439  92.174 117.922  0.00  0.00     0.091 C 
ENDROOT
BRANCH   1   7
ATOM      7  O   LIG d   1      -2.665  90.648 117.196  0.00  0.00    -0.368 OA
BRANCH   7   8
ATOM      8  C   LIG d   1      -1.844  89.570 117.711  0.00  0.00     0.119 C 
BRANCH   8   9
ATOM      9  C   LIG d   1      -1.205  90.062 119.023  0.00  0.00     0.028 C 
ATOM     10  C   LIG d   1      -1.926  89.517 120.268  0.00  0.00     0.006 C 
ENDBRANCH   8   9
BRANCH   8  11
ATOM     11  C   LIG d   1      -0.670  89.269 116.775  0.00  0.00     0.028 C 
ATOM     12  C   LIG d   1       0.359  90.409 116.723  0.00  0.00     0.006 C 
ENDBRANCH   8  11
ENDBRANCH   7   8
ENDBRANCH   1   7
BRANCH   6  13
ATOM     13  N   LIG d   1      -3.770  92.645 119.163  0.00  0.00    -0.311 N 
ATOM     14  C   LIG d   1      -2.760  93.513 119.167  0.00  0.00     0.210 C 
ATOM     15  C   LIG d   1      -2.203  93.849 120.554  0.00  0.00     0.109 C 
ATOM     16  O   LIG d   1      -2.293  94.060 118.157  0.00  0.00    -0.276 OA
ATOM     17  H   LIG d   1      -4.107  92.276 120.030  0.00  0.00     0.149 HD
ENDBRANCH   6  13
BRANCH   5  18
ATOM     18  N   LIG d   1      -6.419  93.725 118.089  0.00  0.00     0.381 N 
ATOM     19  H   LIG d   1      -6.186  94.215 117.248  0.00  0.00    -0.090 HD
ATOM     20  H   LIG d   1      -5.937  94.163 118.854  0.00  0.00    -0.090 HD
ATOM     21  H   LIG d   1      -7.403  93.762 118.242  0.00  0.00    -0.090 HD
ENDBRANCH   5  18
BRANCH   3  22
ATOM     22  C   LIG d   1      -6.995  89.579 115.760  0.00  0.00     0.382 C 
ATOM     23  O   LIG d   1      -6.882  89.426 114.520  0.00  0.00    -0.241 OA
ATOM     24  O   LIG d   1      -7.908  88.991 116.370  0.00  0.00    -0.241 OA
ENDBRANCH   3  22
TORSDOF 7
ENDMDL
MODEL 2
REMARK VINA RESULT:      -5.0     10.747     12.008
REMARK  7 active torsions:
REMARK  status: ('A' for Active; 'I' for Inactive)
REMARK    1  A    between atoms: C_2  and  C_3 
REMARK    2  A    between atoms: C_3  and  O_6 
REMARK    3  A    between atoms: C_3  and  C_4 
REMARK    4  A    between atoms: C_7  and  O_6 
REMARK    5  A    between atoms: C_9  and  C_10 
REMARK    6  A    between atoms: N_15  and  C_14 
REMARK    7  A    between atoms: N_20  and  C_19 
REMARK       I    between atoms: C_22  and  N_20 
ROOT
ATOM      1  C   LIG d   1      -5.519  79.104 117.717  0.00  0.00     0.161 C 
ATOM      2  C   LIG d   1      -6.779  78.486 117.778  0.00  0.00     0.016 C 
ATOM      3  C   LIG d   1      -7.984  79.196 117.986  0.00  0.00     0.038 C 
ATOM      4  C   LIG d   1      -8.026  80.598 117.998  0.00  0.00     0.028 C 
ATOM      5  C   LIG d   1      -6.717  81.240 118.445  0.00  0.00    -0.047 C 
ATOM      6  C   LIG d   1      -5.557  80.643 117.617  0.00  0.00     0.091 C 
ENDROOT
BRANCH   1   7
ATOM      7  O   LIG d   1      -4.755  78.549 116.628  0.00  0.00    -0.368 OA
BRANCH   7   8
ATOM      8  C   LIG d   1      -3.830  77.488 116.973  0.00  0.00     0.119 C 
BRANCH   8   9
ATOM      9  C   LIG d   1      -2.433  78.121 117.119  0.00  0.00     0.028 C 
ATOM     10  C   LIG d   1      -2.007  78.273 118.589  0.00  0.00     0.006 C 
ENDBRANCH   8   9
BRANCH   8  11
ATOM     11  C   LIG d   1      -3.699  76.471 115.836  0.00  0.00     0.028 C 
ATOM     12  C   LIG d   1      -2.378  75.687 115.887  0.00  0.00     0.006 C 
ENDBRANCH   8  11
ENDBRANCH   7   8
ENDBRANCH   1   7
BRANCH   6  13
ATOM     13  N   LIG d   1      -4.230  81.155 118.048  0.00  0.00    -0.311 N 
ATOM     14  C   LIG d   1      -3.300  81.587 117.199  0.00  0.00     0.210 C 
ATOM     15  C   LIG d   1      -1.995  82.054 117.853  0.00  0.00     0.109 C 
ATOM     16  O   LIG d   1      -3.443  81.659 115.970  0.00  0.00    -0.276 OA
ATOM     17  H   LIG d   1      -4.042  81.161 119.032  0.00  0.00     0.149 HD
ENDBRANCH   6  13
BRANCH   5  18
ATOM     18  N   LIG d   1      -6.856  82.699 118.278  0.00  0.00     0.381 N 
ATOM     19  H   LIG d   1      -6.761  82.940 117.312  0.00  0.00    -0.090 HD
ATOM     20  H   LIG d   1      -6.123  83.156 118.791  0.00  0.00    -0.090 HD
ATOM     21  H   LIG d   1      -7.744  82.998 118.617  0.00  0.00    -0.090 HD
ENDBRANCH   5  18
BRANCH   3  22
ATOM     22  C   LIG d   1      -9.159  78.500 118.226  0.00  0.00     0.382 C 
ATOM     23  O   LIG d   1      -9.215  77.267 118.000  0.00  0.00    -0.241 OA
ATOM     24  O   LIG d   1     -10.177  79.097 118.624  0.00  0.00    -0.241 OA
ENDBRANCH   3  22
TORSDOF 7
ENDMDL
MODEL 3
REMARK VINA RESULT:      -5.0     12.191     14.001
REMARK  7 active torsions:
REMARK  status: ('A' for Active; 'I' for Inactive)
REMARK    1  A    between atoms: C_2  and  C_3 
REMARK    2  A    between atoms: C_3  and  O_6 
REMARK    3  A    between atoms: C_3  and  C_4 
REMARK    4  A    between atoms: C_7  and  O_6 
REMARK    5  A    between atoms: C_9  and  C_10 
REMARK    6  A    between atoms: N_15  and  C_14 
REMARK    7  A    between atoms: N_20  and  C_19 
REMARK       I    between atoms: C_22  and  N_20 
ROOT
ATOM      1  C   LIG d   1      -7.087  77.700 117.552  0.00  0.00     0.161 C 
ATOM      2  C   LIG d   1      -8.390  77.992 117.988  0.00  0.00     0.016 C 
ATOM      3  C   LIG d   1      -8.748  79.208 118.613  0.00  0.00     0.038 C 
ATOM      4  C   LIG d   1      -7.853  80.283 118.710  0.00  0.00     0.028 C 
ATOM      5  C   LIG d   1      -6.390  79.853 118.740  0.00  0.00    -0.047 C 
ATOM      6  C   LIG d   1      -6.122  78.904 117.549  0.00  0.00     0.091 C 
ENDROOT
BRANCH   1   7
ATOM      7  O   LIG d   1      -7.133  77.091 116.247  0.00  0.00    -0.368 OA
BRANCH   7   8
ATOM      8  C   LIG d   1      -7.041  75.646 116.214  0.00  0.00     0.119 C 
BRANCH   8   9
ATOM      9  C   LIG d   1      -6.321  75.257 114.909  0.00  0.00     0.028 C 
ATOM     10  C   LIG d   1      -4.819  75.589 114.945  0.00  0.00     0.006 C 
ENDBRANCH   8   9
BRANCH   8  11
ATOM     11  C   LIG d   1      -8.427  75.001 116.120  0.00  0.00     0.028 C 
ATOM     12  C   LIG d   1      -8.414  73.505 116.470  0.00  0.00     0.006 C 
ENDBRANCH   8  11
ENDBRANCH   7   8
ENDBRANCH   1   7
BRANCH   6  13
ATOM     13  N   LIG d   1      -4.735  78.369 117.551  0.00  0.00    -0.311 N 
ATOM     14  C   LIG d   1      -3.743  78.901 116.839  0.00  0.00     0.210 C 
ATOM     15  C   LIG d   1      -2.397  78.182 116.969  0.00  0.00     0.109 C 
ATOM     16  O   LIG d   1      -3.843  79.917 116.135  0.00  0.00    -0.276 OA
ATOM     17  H   LIG d   1      -4.558  77.564 118.119  0.00  0.00     0.149 HD
ENDBRANCH   6  13
BRANCH   5  18
ATOM     18  N   LIG d   1      -5.565  81.075 118.703  0.00  0.00     0.381 N 
ATOM     19  H   LIG d   1      -5.018  81.140 119.538  0.00  0.00    -0.090 HD
ATOM     20  H   LIG d   1      -6.171  81.875 118.659  0.00  0.00    -0.090 HD
ATOM     21  H   LIG d   1      -4.967  81.059 117.906  0.00  0.00    -0.090 HD
ENDBRANCH   5  18
BRANCH   3  22
ATOM     22  C   LIG d   1     -10.004  79.343 119.186  0.00  0.00     0.382 C 
ATOM     23  O   LIG d   1     -10.889  78.481 118.966  0.00  0.00    -0.241 OA
ATOM     24  O   LIG d   1     -10.276  80.338 119.884  0.00  0.00    -0.241 OA
ENDBRANCH   3  22
TORSDOF 7
ENDMDL
MODEL 4
REMARK VINA RESULT:      -4.9      4.120      6.679
REMARK  7 active torsions:
REMARK  status: ('A' for Active; 'I' for Inactive)
REMARK    1  A    between atoms: C_2  and  C_3 
REMARK    2  A    between atoms: C_3  and  O_6 
REMARK    3  A    between atoms: C_3  and  C_4 
REMARK    4  A    between atoms: C_7  and  O_6 
REMARK    5  A    between atoms: C_9  and  C_10 
REMARK    6  A    between atoms: N_15  and  C_14 
REMARK    7  A    between atoms: N_20  and  C_19 
REMARK       I    between atoms: C_22  and  N_20 
ROOT
ATOM      1  C   LIG d   1       0.930  88.726 116.444  0.00  0.00     0.161 C 
ATOM      2  C   LIG d   1      -0.440  88.850 116.725  0.00  0.00     0.016 C 
ATOM      3  C   LIG d   1      -1.032  90.043 117.200  0.00  0.00     0.038 C 
ATOM      4  C   LIG d   1      -0.313  91.245 117.284  0.00  0.00     0.028 C 
ATOM      5  C   LIG d   1       1.184  91.042 117.492  0.00  0.00    -0.047 C 
ATOM      6  C   LIG d   1       1.710  90.057 116.424  0.00  0.00     0.091 C 
ENDROOT
BRANCH   1   7
ATOM      7  O   LIG d   1       1.112  88.019 115.201  0.00  0.00    -0.368 OA
BRANCH   7   8
ATOM      8  C   LIG d   1       1.242  86.579 115.300  0.00  0.00     0.119 C 
BRANCH   8   9
ATOM      9  C   LIG d   1       2.744  86.257 115.417  0.00  0.00     0.028 C 
ATOM     10  C   LIG d   1       3.500  86.494 114.099  0.00  0.00     0.006 C 
ENDBRANCH   8   9
BRANCH   8  11
ATOM     11  C   LIG d   1       0.778  85.889 114.013  0.00  0.00     0.028 C 
ATOM     12  C   LIG d   1      -0.684  85.421 114.082  0.00  0.00     0.006 C 
ENDBRANCH   8  11
ENDBRANCH   7   8
ENDBRANCH   1   7
BRANCH   6  13
ATOM     13  N   LIG d   1       3.150  89.738 116.607  0.00  0.00    -0.311 N 
ATOM     14  C   LIG d   1       4.042  89.782 115.620  0.00  0.00     0.210 C 
ATOM     15  C   LIG d   1       5.470  89.396 116.020  0.00  0.00     0.109 C 
ATOM     16  O   LIG d   1       3.794  90.135 114.457  0.00  0.00    -0.276 OA
ATOM     17  H   LIG d   1       3.445  89.472 117.527  0.00  0.00     0.149 HD
ENDBRANCH   6  13
BRANCH   5  18
ATOM     18  N   LIG d   1       1.827  92.368 117.423  0.00  0.00     0.381 N 
ATOM     19  H   LIG d   1       2.713  92.339 117.886  0.00  0.00    -0.090 HD
ATOM     20  H   LIG d   1       1.245  93.037 117.897  0.00  0.00    -0.090 HD
ATOM     21  H   LIG d   1       1.950  92.638 116.472  0.00  0.00    -0.090 HD
ENDBRANCH   5  18
BRANCH   3  22
ATOM     22  C   LIG d   1      -2.348  90.032 117.636  0.00  0.00     0.382 C 
ATOM     23  O   LIG d   1      -2.995  88.956 117.649  0.00  0.00    -0.241 OA
ATOM     24  O   LIG d   1      -2.912  91.090 117.973  0.00  0.00    -0.241 OA
ENDBRANCH   3  22
TORSDOF 7
ENDMDL
MODEL 5
REMARK VINA RESULT:      -4.9      3.525      5.705
REMARK  7 active torsions:
REMARK  status: ('A' for Active; 'I' for Inactive)
REMARK    1  A    between atoms: C_2  and  C_3 
REMARK    2  A    between atoms: C_3  and  O_6 
REMARK    3  A    between atoms: C_3  and  C_4 
REMARK    4  A    between atoms: C_7  and  O_6 
REMARK    5  A    between atoms: C_9  and  C_10 
REMARK    6  A    between atoms: N_15  and  C_14 
REMARK    7  A    between atoms: N_20  and  C_19 
REMARK       I    between atoms: C_22  and  N_20 
ROOT
ATOM      1  C   LIG d   1       0.603  89.474 116.871  0.00  0.00     0.161 C 
ATOM      2  C   LIG d   1      -0.781  89.237 116.881  0.00  0.00     0.016 C 
ATOM      3  C   LIG d   1      -1.713  90.090 117.516  0.00  0.00     0.038 C 
ATOM      4  C   LIG d   1      -1.334  91.327 118.060  0.00  0.00     0.028 C 
ATOM      5  C   LIG d   1       0.120  91.368 118.517  0.00  0.00    -0.047 C 
ATOM      6  C   LIG d   1       1.023  90.875 117.364  0.00  0.00     0.091 C 
ENDROOT
BRANCH   1   7
ATOM      7  O   LIG d   1       1.133  89.227 115.554  0.00  0.00    -0.368 OA
BRANCH   7   8
ATOM      8  C   LIG d   1       2.147  88.197 115.457  0.00  0.00     0.119 C 
BRANCH   8   9
ATOM      9  C   LIG d   1       3.014  88.514 114.223  0.00  0.00     0.028 C 
ATOM     10  C   LIG d   1       4.079  89.584 114.514  0.00  0.00     0.006 C 
ENDBRANCH   8   9
BRANCH   8  11
ATOM     11  C   LIG d   1       1.525  86.826 115.174  0.00  0.00     0.028 C 
ATOM     12  C   LIG d   1       2.297  86.030 114.110  0.00  0.00     0.006 C 
ENDBRANCH   8  11
ENDBRANCH   7   8
ENDBRANCH   1   7
BRANCH   6  13
ATOM     13  N   LIG d   1       2.455  90.804 117.755  0.00  0.00    -0.311 N 
ATOM     14  C   LIG d   1       3.320  91.796 117.554  0.00  0.00     0.210 C 
ATOM     15  C   LIG d   1       4.753  91.509 118.014  0.00  0.00     0.109 C 
ATOM     16  O   LIG d   1       3.030  92.899 117.067  0.00  0.00    -0.276 OA
ATOM     17  H   LIG d   1       2.768  89.956 118.186  0.00  0.00     0.149 HD
ENDBRANCH   6  13
BRANCH   5  18
ATOM     18  N   LIG d   1       0.417  92.752 118.934  0.00  0.00     0.381 N 
ATOM     19  H   LIG d   1       0.838  92.749 119.841  0.00  0.00    -0.090 HD
ATOM     20  H   LIG d   1      -0.444  93.267 118.987  0.00  0.00    -0.090 HD
ATOM     21  H   LIG d   1       1.030  93.181 118.276  0.00  0.00    -0.090 HD
ENDBRANCH   5  18
BRANCH   3  22
ATOM     22  C   LIG d   1      -3.034  89.690 117.647  0.00  0.00     0.382 C 
ATOM     23  O   LIG d   1      -3.367  88.925 118.584  0.00  0.00    -0.241 OA
ATOM     24  O   LIG d   1      -3.888  90.047 116.814  0.00  0.00    -0.241 OA
ENDBRANCH   3  22
TORSDOF 7
ENDMDL
MODEL 6
REMARK VINA RESULT:      -4.8      3.523      5.515
REMARK  7 active torsions:
REMARK  status: ('A' for Active; 'I' for Inactive)
REMARK    1  A    between atoms: C_2  and  C_3 
REMARK    2  A    between atoms: C_3  and  O_6 
REMARK    3  A    between atoms: C_3  and  C_4 
REMARK    4  A    between atoms: C_7  and  O_6 
REMARK    5  A    between atoms: C_9  and  C_10 
REMARK    6  A    between atoms: N_15  and  C_14 
REMARK    7  A    between atoms: N_20  and  C_19 
REMARK       I    between atoms: C_22  and  N_20 
ROOT
ATOM      1  C   LIG d   1       0.710  89.468 116.907  0.00  0.00     0.161 C 
ATOM      2  C   LIG d   1      -0.657  89.145 116.929  0.00  0.00     0.016 C 
ATOM      3  C   LIG d   1      -1.622  89.895 117.640  0.00  0.00     0.038 C 
ATOM      4  C   LIG d   1      -1.306  91.114 118.257  0.00  0.00     0.028 C 
ATOM      5  C   LIG d   1       0.154  91.216 118.685  0.00  0.00    -0.047 C 
ATOM      6  C   LIG d   1       1.056  90.857 117.482  0.00  0.00     0.091 C 
ENDROOT
BRANCH   1   7
ATOM      7  O   LIG d   1       1.220  89.340 115.565  0.00  0.00    -0.368 OA
BRANCH   7   8
ATOM      8  C   LIG d   1       1.937  88.117 115.269  0.00  0.00     0.119 C 
BRANCH   8   9
ATOM      9  C   LIG d   1       2.638  87.666 116.565  0.00  0.00     0.028 C 
ATOM     10  C   LIG d   1       2.709  86.135 116.691  0.00  0.00     0.006 C 
ENDBRANCH   8   9
BRANCH   8  11
ATOM     11  C   LIG d   1       3.066  88.362 114.263  0.00  0.00     0.028 C 
ATOM     12  C   LIG d   1       3.979  89.531 114.664  0.00  0.00     0.006 C 
ENDBRANCH   8  11
ENDBRANCH   7   8
ENDBRANCH   1   7
BRANCH   6  13
ATOM     13  N   LIG d   1       2.499  90.850 117.838  0.00  0.00    -0.311 N 
ATOM     14  C   LIG d   1       3.312  91.882 117.622  0.00  0.00     0.210 C 
ATOM     15  C   LIG d   1       4.767  91.659 118.045  0.00  0.00     0.109 C 
ATOM     16  O   LIG d   1       2.960  92.973 117.149  0.00  0.00    -0.276 OA
ATOM     17  H   LIG d   1       2.862  90.016 118.256  0.00  0.00     0.149 HD
ENDBRANCH   6  13
BRANCH   5  18
ATOM     18  N   LIG d   1       0.377  92.585 119.187  0.00  0.00     0.381 N 
ATOM     19  H   LIG d   1       1.028  92.566 119.946  0.00  0.00    -0.090 HD
ATOM     20  H   LIG d   1      -0.494  92.953 119.527  0.00  0.00    -0.090 HD
ATOM     21  H   LIG d   1       0.726  93.164 118.455  0.00  0.00    -0.090 HD
ENDBRANCH   5  18
BRANCH   3  22
ATOM     22  C   LIG d   1      -2.912  89.405 117.771  0.00  0.00     0.382 C 
ATOM     23  O   LIG d   1      -3.725  89.515 116.822  0.00  0.00    -0.241 OA
ATOM     24  O   LIG d   1      -3.288  88.893 118.843  0.00  0.00    -0.241 OA
ENDBRANCH   3  22
TORSDOF 7
ENDMDL
MODEL 7
REMARK VINA RESULT:      -4.4     11.472     12.947
REMARK  7 active torsions:
REMARK  status: ('A' for Active; 'I' for Inactive)
REMARK    1  A    between atoms: C_2  and  C_3 
REMARK    2  A    between atoms: C_3  and  O_6 
REMARK    3  A    between atoms: C_3  and  C_4 
REMARK    4  A    between atoms: C_7  and  O_6 
REMARK    5  A    between atoms: C_9  and  C_10 
REMARK    6  A    between atoms: N_15  and  C_14 
REMARK    7  A    between atoms: N_20  and  C_19 
REMARK       I    between atoms: C_22  and  N_20 
ROOT
ATOM      1  C   LIG d   1      -4.195  78.377 117.216  0.00  0.00     0.161 C 
ATOM      2  C   LIG d   1      -5.583  78.567 117.326  0.00  0.00     0.016 C 
ATOM      3  C   LIG d   1      -6.168  79.745 117.846  0.00  0.00     0.038 C 
ATOM      4  C   LIG d   1      -5.402  80.879 118.154  0.00  0.00     0.028 C 
ATOM      5  C   LIG d   1      -3.962  80.554 118.534  0.00  0.00    -0.047 C 
ATOM      6  C   LIG d   1      -3.348  79.646 117.443  0.00  0.00     0.091 C 
ENDROOT
BRANCH   1   7
ATOM      7  O   LIG d   1      -3.883  77.787 115.939  0.00  0.00    -0.368 OA
BRANCH   7   8
ATOM      8  C   LIG d   1      -3.739  76.346 115.920  0.00  0.00     0.119 C 
BRANCH   8   9
ATOM      9  C   LIG d   1      -2.235  76.032 115.805  0.00  0.00     0.028 C 
ATOM     10  C   LIG d   1      -1.623  75.594 117.147  0.00  0.00     0.006 C 
ENDBRANCH   8   9
BRANCH   8  11
ATOM     11  C   LIG d   1      -4.377  75.739 114.666  0.00  0.00     0.028 C 
ATOM     12  C   LIG d   1      -5.826  75.281 114.897  0.00  0.00     0.006 C 
ENDBRANCH   8  11
ENDBRANCH   7   8
ENDBRANCH   1   7
BRANCH   6  13
ATOM     13  N   LIG d   1      -1.967  79.212 117.778  0.00  0.00    -0.311 N 
ATOM     14  C   LIG d   1      -0.927  79.380 116.963  0.00  0.00     0.210 C 
ATOM     15  C   LIG d   1       0.405  78.841 117.495  0.00  0.00     0.109 C 
ATOM     16  O   LIG d   1      -0.975  79.953 115.865  0.00  0.00    -0.276 OA
ATOM     17  H   LIG d   1      -1.832  78.765 118.664  0.00  0.00     0.149 HD
ENDBRANCH   6  13
BRANCH   5  18
ATOM     18  N   LIG d   1      -3.243  81.832 118.694  0.00  0.00     0.381 N 
ATOM     19  H   LIG d   1      -3.432  82.215 119.599  0.00  0.00    -0.090 HD
ATOM     20  H   LIG d   1      -3.575  82.480 118.001  0.00  0.00    -0.090 HD
ATOM     21  H   LIG d   1      -2.263  81.689 118.583  0.00  0.00    -0.090 HD
ENDBRANCH   5  18
BRANCH   3  22
ATOM     22  C   LIG d   1      -7.530  79.780 118.101  0.00  0.00     0.382 C 
ATOM     23  O   LIG d   1      -8.031  78.996 118.943  0.00  0.00    -0.241 OA
ATOM     24  O   LIG d   1      -8.271  80.556 117.469  0.00  0.00    -0.241 OA
ENDBRANCH   3  22
TORSDOF 7
ENDMDL
MODEL 8
REMARK VINA RESULT:      -4.2     12.267     14.022
REMARK  7 active torsions:
REMARK  status: ('A' for Active; 'I' for Inactive)
REMARK    1  A    between atoms: C_2  and  C_3 
REMARK    2  A    between atoms: C_3  and  O_6 
REMARK    3  A    between atoms: C_3  and  C_4 
REMARK    4  A    between atoms: C_7  and  O_6 
REMARK    5  A    between atoms: C_9  and  C_10 
REMARK    6  A    between atoms: N_15  and  C_14 
REMARK    7  A    between atoms: N_20  and  C_19 
REMARK       I    between atoms: C_22  and  N_20 
ROOT
ATOM      1  C   LIG d   1      -0.676  78.338 117.133  0.00  0.00     0.161 C 
ATOM      2  C   LIG d   1      -2.061  78.265 116.909  0.00  0.00     0.016 C 
ATOM      3  C   LIG d   1      -2.735  77.065 116.586  0.00  0.00     0.038 C 
ATOM      4  C   LIG d   1      -2.088  75.821 116.613  0.00  0.00     0.028 C 
ATOM      5  C   LIG d   1      -0.591  75.910 116.338  0.00  0.00    -0.047 C 
ATOM      6  C   LIG d   1       0.028  76.972 117.275  0.00  0.00     0.091 C 
ENDROOT
BRANCH   1   7
ATOM      7  O   LIG d   1      -0.409  79.162 118.284  0.00  0.00    -0.368 OA
BRANCH   7   8
ATOM      8  C   LIG d   1       0.321  80.388 118.036  0.00  0.00     0.119 C 
BRANCH   8   9
ATOM      9  C   LIG d   1      -0.575  81.559 118.482  0.00  0.00     0.028 C 
ATOM     10  C   LIG d   1      -1.554  82.001 117.382  0.00  0.00     0.006 C 
ENDBRANCH   8   9
BRANCH   8  11
ATOM     11  C   LIG d   1       0.554  80.604 116.537  0.00  0.00     0.028 C 
ATOM     12  C   LIG d   1       2.021  80.913 116.201  0.00  0.00     0.006 C 
ENDBRANCH   8  11
ENDBRANCH   7   8
ENDBRANCH   1   7
BRANCH   6  13
ATOM     13  N   LIG d   1       1.476  77.183 117.014  0.00  0.00    -0.311 N 
ATOM     14  C   LIG d   1       2.395  77.236 117.978  0.00  0.00     0.210 C 
ATOM     15  C   LIG d   1       3.827  77.482 117.493  0.00  0.00     0.109 C 
ATOM     16  O   LIG d   1       2.164  77.070 119.185  0.00  0.00    -0.276 OA
ATOM     17  H   LIG d   1       1.756  77.296 116.060  0.00  0.00     0.149 HD
ENDBRANCH   6  13
BRANCH   5  18
ATOM     18  N   LIG d   1      -0.021  74.564 116.533  0.00  0.00     0.381 N 
ATOM     19  H   LIG d   1      -0.560  74.062 117.210  0.00  0.00    -0.090 HD
ATOM     20  H   LIG d   1       0.917  74.655 116.881  0.00  0.00    -0.090 HD
ATOM     21  H   LIG d   1      -0.015  74.068 115.669  0.00  0.00    -0.090 HD
ENDBRANCH   5  18
BRANCH   3  22
ATOM     22  C   LIG d   1      -4.064  77.109 116.192  0.00  0.00     0.382 C 
ATOM     23  O   LIG d   1      -4.469  76.362 115.269  0.00  0.00    -0.241 OA
ATOM     24  O   LIG d   1      -4.853  77.917 116.717  0.00  0.00    -0.241 OA
ENDBRANCH   3  22
TORSDOF 7
ENDMDL
MODEL 9
REMARK VINA RESULT:      -4.2     11.111     12.349
REMARK  7 active torsions:
REMARK  status: ('A' for Active; 'I' for Inactive)
REMARK    1  A    between atoms: C_2  and  C_3 
REMARK    2  A    between atoms: C_3  and  O_6 
REMARK    3  A    between atoms: C_3  and  C_4 
REMARK    4  A    between atoms: C_7  and  O_6 
REMARK    5  A    between atoms: C_9  and  C_10 
REMARK    6  A    between atoms: N_15  and  C_14 
REMARK    7  A    between atoms: N_20  and  C_19 
REMARK       I    between atoms: C_22  and  N_20 
ROOT
ATOM      1  C   LIG d   1      -6.472  78.865 118.110  0.00  0.00     0.161 C 
ATOM      2  C   LIG d   1      -7.101  77.718 117.596  0.00  0.00     0.016 C 
ATOM      3  C   LIG d   1      -8.477  77.442 117.769  0.00  0.00     0.038 C 
ATOM      4  C   LIG d   1      -9.354  78.376 118.342  0.00  0.00     0.028 C 
ATOM      5  C   LIG d   1      -8.673  79.324 119.323  0.00  0.00    -0.047 C 
ATOM      6  C   LIG d   1      -7.434  79.947 118.641  0.00  0.00     0.091 C 
ENDROOT
BRANCH   1   7
ATOM      7  O   LIG d   1      -5.588  79.423 117.117  0.00  0.00    -0.368 OA
BRANCH   7   8
ATOM      8  C   LIG d   1      -4.221  78.945 117.141  0.00  0.00     0.119 C 
BRANCH   8   9
ATOM      9  C   LIG d   1      -3.775  78.889 118.615  0.00  0.00     0.028 C 
ATOM     10  C   LIG d   1      -2.576  77.950 118.830  0.00  0.00     0.006 C 
ENDBRANCH   8   9
BRANCH   8  11
ATOM     11  C   LIG d   1      -3.271  79.941 116.468  0.00  0.00     0.028 C 
ATOM     12  C   LIG d   1      -3.485  81.385 116.947  0.00  0.00     0.006 C 
ENDBRANCH   8  11
ENDBRANCH   7   8
ENDBRANCH   1   7
BRANCH   6  13
ATOM     13  N   LIG d   1      -6.662  80.824 119.560  0.00  0.00    -0.311 N 
ATOM     14  C   LIG d   1      -6.308  82.072 119.258  0.00  0.00     0.210 C 
ATOM     15  C   LIG d   1      -5.498  82.793 120.340  0.00  0.00     0.109 C 
ATOM     16  O   LIG d   1      -6.616  82.660 118.211  0.00  0.00    -0.276 OA
ATOM     17  H   LIG d   1      -6.398  80.436 120.445  0.00  0.00     0.149 HD
ENDBRANCH   6  13
BRANCH   5  18
ATOM     18  N   LIG d   1      -9.672  80.327 119.738  0.00  0.00     0.381 N 
ATOM     19  H   LIG d   1      -9.853  80.957 118.982  0.00  0.00    -0.090 HD
ATOM     20  H   LIG d   1      -9.300  80.857 120.507  0.00  0.00    -0.090 HD
ATOM     21  H   LIG d   1     -10.515  79.875 120.014  0.00  0.00    -0.090 HD
ENDBRANCH   5  18
BRANCH   3  22
ATOM     22  C   LIG d   1      -8.981  76.204 117.402  0.00  0.00     0.382 C 
ATOM     23  O   LIG d   1      -8.219  75.339 116.907  0.00  0.00    -0.241 OA
ATOM     24  O   LIG d   1     -10.196  75.956 117.519  0.00  0.00    -0.241 OA
ENDBRANCH   3  22
TORSDOF 7
ENDMDL
