MODEL 1
REMARK VINA RESULT:      -5.4      0.000      0.000
REMARK  7 active torsions:
REMARK  status: ('A' for Active; 'I' for Inactive)
REMARK    1  A    between atoms: C_2  and  C_3 
REMARK    2  A    between atoms: C_3  and  O_6 
REMARK    3  A    between atoms: C_3  and  C_4 
REMARK    4  A    between atoms: C_7  and  O_6 
REMARK    5  A    between atoms: C_9  and  C_10 
REMARK    6  A    between atoms: N_15  and  C_14 
REMARK    7  A    between atoms: N_20  and  C_19 
REMARK       I    between atoms: C_22  and  N_20 
ROOT
ATOM      1  C   LIG d   1      -6.159  77.788 117.083  0.00  0.00     0.161 C 
ATOM      2  C   LIG d   1      -7.536  77.636 117.311  0.00  0.00     0.016 C 
ATOM      3  C   LIG d   1      -8.345  78.640 117.891  0.00  0.00     0.038 C 
ATOM      4  C   LIG d   1      -7.856  79.930 118.146  0.00  0.00     0.028 C 
ATOM      5  C   LIG d   1      -6.353  79.969 118.400  0.00  0.00    -0.047 C 
ATOM      6  C   LIG d   1      -5.631  79.228 117.252  0.00  0.00     0.091 C 
ENDROOT
BRANCH   1   7
ATOM      7  O   LIG d   1      -5.820  77.281 115.777  0.00  0.00    -0.368 OA
BRANCH   7   8
ATOM      8  C   LIG d   1      -5.018  76.074 115.751  0.00  0.00     0.119 C 
BRANCH   8   9
ATOM      9  C   LIG d   1      -5.910  74.937 115.215  0.00  0.00     0.028 C 
ATOM     10  C   LIG d   1      -6.551  74.113 116.344  0.00  0.00     0.006 C 
ENDBRANCH   8   9
BRANCH   8  11
ATOM     11  C   LIG d   1      -4.615  75.642 117.163  0.00  0.00     0.028 C 
ATOM     12  C   LIG d   1      -3.102  75.412 117.307  0.00  0.00     0.006 C 
ENDBRANCH   8  11
ENDBRANCH   7   8
ENDBRANCH   1   7
BRANCH   6  13
ATOM     13  N   LIG d   1      -4.162  79.147 117.466  0.00  0.00    -0.311 N 
ATOM     14  C   LIG d   1      -3.268  79.379 116.506  0.00  0.00     0.210 C 
ATOM     15  C   LIG d   1      -1.805  79.221 116.934  0.00  0.00     0.109 C 
ATOM     16  O   LIG d   1      -3.546  79.731 115.350  0.00  0.00    -0.276 OA
ATOM     17  H   LIG d   1      -3.848  78.897 118.383  0.00  0.00     0.149 HD
ENDBRANCH   6  13
BRANCH   5  18
ATOM     18  N   LIG d   1      -5.957  81.386 118.514  0.00  0.00     0.381 N 
ATOM     19  H   LIG d   1      -5.024  81.449 118.869  0.00  0.00    -0.090 HD
ATOM     20  H   LIG d   1      -6.573  81.844 119.162  0.00  0.00    -0.090 HD
ATOM     21  H   LIG d   1      -6.012  81.828 117.623  0.00  0.00    -0.090 HD
ENDBRANCH   5  18
BRANCH   3  22
ATOM     22  C   LIG d   1      -9.649  78.345 118.260  0.00  0.00     0.382 C 
ATOM     23  O   LIG d   1     -10.231  79.047 119.121  0.00  0.00    -0.241 OA
ATOM     24  O   LIG d   1     -10.235  77.359 117.774  0.00  0.00    -0.241 OA
ENDBRANCH   3  22
TORSDOF 7
ENDMDL
MODEL 2
REMARK VINA RESULT:      -5.3     12.822     14.775
REMARK  7 active torsions:
REMARK  status: ('A' for Active; 'I' for Inactive)
REMARK    1  A    between atoms: C_2  and  C_3 
REMARK    2  A    between atoms: C_3  and  O_6 
REMARK    3  A    between atoms: C_3  and  C_4 
REMARK    4  A    between atoms: C_7  and  O_6 
REMARK    5  A    between atoms: C_9  and  C_10 
REMARK    6  A    between atoms: N_15  and  C_14 
REMARK    7  A    between atoms: N_20  and  C_19 
REMARK       I    between atoms: C_22  and  N_20 
ROOT
ATOM      1  C   LIG d   1      -5.700  91.867 118.291  0.00  0.00     0.161 C 
ATOM      2  C   LIG d   1      -6.270  90.948 117.394  0.00  0.00     0.016 C 
ATOM      3  C   LIG d   1      -7.026  91.332 116.262  0.00  0.00     0.038 C 
ATOM      4  C   LIG d   1      -7.136  92.673 115.865  0.00  0.00     0.028 C 
ATOM      5  C   LIG d   1      -7.003  93.660 117.019  0.00  0.00    -0.047 C 
ATOM      6  C   LIG d   1      -5.716  93.333 117.812  0.00  0.00     0.091 C 
ENDROOT
BRANCH   1   7
ATOM      7  O   LIG d   1      -4.356  91.461 118.617  0.00  0.00    -0.368 OA
BRANCH   7   8
ATOM      8  C   LIG d   1      -3.369  91.621 117.568  0.00  0.00     0.119 C 
BRANCH   8   9
ATOM      9  C   LIG d   1      -2.703  90.250 117.346  0.00  0.00     0.028 C 
ATOM     10  C   LIG d   1      -3.051  89.242 118.455  0.00  0.00     0.006 C 
ENDBRANCH   8   9
BRANCH   8  11
ATOM     11  C   LIG d   1      -2.237  92.556 118.006  0.00  0.00     0.028 C 
ATOM     12  C   LIG d   1      -2.142  92.702 119.533  0.00  0.00     0.006 C 
ENDBRANCH   8  11
ENDBRANCH   7   8
ENDBRANCH   1   7
BRANCH   6  13
ATOM     13  N   LIG d   1      -5.553  94.199 119.009  0.00  0.00    -0.311 N 
ATOM     14  C   LIG d   1      -4.758  95.268 119.038  0.00  0.00     0.210 C 
ATOM     15  C   LIG d   1      -4.720  96.009 120.378  0.00  0.00     0.109 C 
ATOM     16  O   LIG d   1      -4.106  95.691 118.071  0.00  0.00    -0.276 OA
ATOM     17  H   LIG d   1      -6.070  93.947 119.828  0.00  0.00     0.149 HD
ENDBRANCH   6  13
BRANCH   5  18
ATOM     18  N   LIG d   1      -6.999  95.019 116.446  0.00  0.00     0.381 N 
ATOM     19  H   LIG d   1      -7.817  95.513 116.741  0.00  0.00    -0.090 HD
ATOM     20  H   LIG d   1      -7.018  94.949 115.443  0.00  0.00    -0.090 HD
ATOM     21  H   LIG d   1      -6.182  95.509 116.736  0.00  0.00    -0.090 HD
ENDBRANCH   5  18
BRANCH   3  22
ATOM     22  C   LIG d   1      -7.714  90.371 115.538  0.00  0.00     0.382 C 
ATOM     23  O   LIG d   1      -8.405  90.709 114.546  0.00  0.00    -0.241 OA
ATOM     24  O   LIG d   1      -7.690  89.176 115.889  0.00  0.00    -0.241 OA
ENDBRANCH   3  22
TORSDOF 7
ENDMDL
MODEL 3
REMARK VINA RESULT:      -5.2     19.014     21.592
REMARK  7 active torsions:
REMARK  status: ('A' for Active; 'I' for Inactive)
REMARK    1  A    between atoms: C_2  and  C_3 
REMARK    2  A    between atoms: C_3  and  O_6 
REMARK    3  A    between atoms: C_3  and  C_4 
REMARK    4  A    between atoms: C_7  and  O_6 
REMARK    5  A    between atoms: C_9  and  C_10 
REMARK    6  A    between atoms: N_15  and  C_14 
REMARK    7  A    between atoms: N_20  and  C_19 
REMARK       I    between atoms: C_22  and  N_20 
ROOT
ATOM      1  C   LIG d   1       1.470  58.552 116.928  0.00  0.00     0.161 C 
ATOM      2  C   LIG d   1       0.559  59.575 117.236  0.00  0.00     0.016 C 
ATOM      3  C   LIG d   1      -0.380  59.490 118.289  0.00  0.00     0.038 C 
ATOM      4  C   LIG d   1      -0.370  58.430 119.208  0.00  0.00     0.028 C 
ATOM      5  C   LIG d   1       0.198  57.137 118.634  0.00  0.00    -0.047 C 
ATOM      6  C   LIG d   1       1.571  57.435 117.988  0.00  0.00     0.091 C 
ENDROOT
BRANCH   1   7
ATOM      7  O   LIG d   1       2.771  59.116 116.670  0.00  0.00    -0.368 OA
BRANCH   7   8
ATOM      8  C   LIG d   1       3.749  58.973 117.729  0.00  0.00     0.119 C 
BRANCH   8   9
ATOM      9  C   LIG d   1       3.913  60.352 118.397  0.00  0.00     0.028 C 
ATOM     10  C   LIG d   1       3.411  60.363 119.851  0.00  0.00     0.006 C 
ENDBRANCH   8   9
BRANCH   8  11
ATOM     11  C   LIG d   1       5.132  58.628 117.168  0.00  0.00     0.028 C 
ATOM     12  C   LIG d   1       6.080  58.052 118.231  0.00  0.00     0.006 C 
ENDBRANCH   8  11
ENDBRANCH   7   8
ENDBRANCH   1   7
BRANCH   6  13
ATOM     13  N   LIG d   1       2.159  56.240 117.328  0.00  0.00    -0.311 N 
ATOM     14  C   LIG d   1       3.015  55.417 117.931  0.00  0.00     0.210 C 
ATOM     15  C   LIG d   1       3.515  54.257 117.064  0.00  0.00     0.109 C 
ATOM     16  O   LIG d   1       3.383  55.518 119.111  0.00  0.00    -0.276 OA
ATOM     17  H   LIG d   1       1.890  56.064 116.380  0.00  0.00     0.149 HD
ENDBRANCH   6  13
BRANCH   5  18
ATOM     18  N   LIG d   1       0.278  56.158 119.734  0.00  0.00     0.381 N 
ATOM     19  H   LIG d   1      -0.329  55.385 119.545  0.00  0.00    -0.090 HD
ATOM     20  H   LIG d   1      -0.029  56.598 120.584  0.00  0.00    -0.090 HD
ATOM     21  H   LIG d   1       1.215  55.836 119.838  0.00  0.00    -0.090 HD
ENDBRANCH   5  18
BRANCH   3  22
ATOM     22  C   LIG d   1      -1.370  60.454 118.408  0.00  0.00     0.382 C 
ATOM     23  O   LIG d   1      -1.970  60.865 117.385  0.00  0.00    -0.241 OA
ATOM     24  O   LIG d   1      -1.638  60.951 119.518  0.00  0.00    -0.241 OA
ENDBRANCH   3  22
TORSDOF 7
ENDMDL
MODEL 4
REMARK VINA RESULT:      -5.1     19.548     21.884
REMARK  7 active torsions:
REMARK  status: ('A' for Active; 'I' for Inactive)
REMARK    1  A    between atoms: C_2  and  C_3 
REMARK    2  A    between atoms: C_3  and  O_6 
REMARK    3  A    between atoms: C_3  and  C_4 
REMARK    4  A    between atoms: C_7  and  O_6 
REMARK    5  A    between atoms: C_9  and  C_10 
REMARK    6  A    between atoms: N_15  and  C_14 
REMARK    7  A    between atoms: N_20  and  C_19 
REMARK       I    between atoms: C_22  and  N_20 
ROOT
ATOM      1  C   LIG d   1       2.609  58.558 117.384  0.00  0.00     0.161 C 
ATOM      2  C   LIG d   1       1.592  59.442 116.986  0.00  0.00     0.016 C 
ATOM      3  C   LIG d   1       0.244  59.051 116.816  0.00  0.00     0.038 C 
ATOM      4  C   LIG d   1      -0.209  57.774 117.180  0.00  0.00     0.028 C 
ATOM      5  C   LIG d   1       0.874  56.703 117.107  0.00  0.00    -0.047 C 
ATOM      6  C   LIG d   1       2.113  57.189 117.893  0.00  0.00     0.091 C 
ENDROOT
BRANCH   1   7
ATOM      7  O   LIG d   1       3.444  59.189 118.376  0.00  0.00    -0.368 OA
BRANCH   7   8
ATOM      8  C   LIG d   1       4.423  60.134 117.878  0.00  0.00     0.119 C 
BRANCH   8   9
ATOM      9  C   LIG d   1       5.540  59.324 117.191  0.00  0.00     0.028 C 
ATOM     10  C   LIG d   1       6.906  60.026 117.268  0.00  0.00     0.006 C 
ENDBRANCH   8   9
BRANCH   8  11
ATOM     11  C   LIG d   1       5.110  60.881 119.024  0.00  0.00     0.028 C 
ATOM     12  C   LIG d   1       4.368  60.732 120.362  0.00  0.00     0.006 C 
ENDBRANCH   8  11
ENDBRANCH   7   8
ENDBRANCH   1   7
BRANCH   6  13
ATOM     13  N   LIG d   1       3.251  56.236 117.803  0.00  0.00    -0.311 N 
ATOM     14  C   LIG d   1       3.868  55.728 118.868  0.00  0.00     0.210 C 
ATOM     15  C   LIG d   1       5.029  54.780 118.551  0.00  0.00     0.109 C 
ATOM     16  O   LIG d   1       3.542  55.946 120.045  0.00  0.00    -0.276 OA
ATOM     17  H   LIG d   1       3.560  55.981 116.885  0.00  0.00     0.149 HD
ENDBRANCH   6  13
BRANCH   5  18
ATOM     18  N   LIG d   1       0.302  55.454 117.643  0.00  0.00     0.381 N 
ATOM     19  H   LIG d   1       0.819  55.163 118.449  0.00  0.00    -0.090 HD
ATOM     20  H   LIG d   1       0.377  54.736 116.944  0.00  0.00    -0.090 HD
ATOM     21  H   LIG d   1      -0.654  55.593 117.886  0.00  0.00    -0.090 HD
ENDBRANCH   5  18
BRANCH   3  22
ATOM     22  C   LIG d   1      -0.658  59.930 116.237  0.00  0.00     0.382 C 
ATOM     23  O   LIG d   1      -0.524  60.266 115.036  0.00  0.00    -0.241 OA
ATOM     24  O   LIG d   1      -1.579  60.426 116.914  0.00  0.00    -0.241 OA
ENDBRANCH   3  22
TORSDOF 7
ENDMDL
MODEL 5
REMARK VINA RESULT:      -4.7     13.871     16.153
REMARK  7 active torsions:
REMARK  status: ('A' for Active; 'I' for Inactive)
REMARK    1  A    between atoms: C_2  and  C_3 
REMARK    2  A    between atoms: C_3  and  O_6 
REMARK    3  A    between atoms: C_3  and  C_4 
REMARK    4  A    between atoms: C_7  and  O_6 
REMARK    5  A    between atoms: C_9  and  C_10 
REMARK    6  A    between atoms: N_15  and  C_14 
REMARK    7  A    between atoms: N_20  and  C_19 
REMARK       I    between atoms: C_22  and  N_20 
ROOT
ATOM      1  C   LIG d   1      -5.736  92.724 118.490  0.00  0.00     0.161 C 
ATOM      2  C   LIG d   1      -5.626  91.614 117.636  0.00  0.00     0.016 C 
ATOM      3  C   LIG d   1      -6.387  91.463 116.454  0.00  0.00     0.038 C 
ATOM      4  C   LIG d   1      -7.205  92.492 115.963  0.00  0.00     0.028 C 
ATOM      5  C   LIG d   1      -7.730  93.420 117.052  0.00  0.00    -0.047 C 
ATOM      6  C   LIG d   1      -6.542  93.907 117.913  0.00  0.00     0.091 C 
ENDROOT
BRANCH   1   7
ATOM      7  O   LIG d   1      -4.423  93.162 118.893  0.00  0.00    -0.368 OA
BRANCH   7   8
ATOM      8  C   LIG d   1      -3.856  94.259 118.136  0.00  0.00     0.119 C 
BRANCH   8   9
ATOM      9  C   LIG d   1      -2.696  93.692 117.296  0.00  0.00     0.028 C 
ATOM     10  C   LIG d   1      -1.828  92.700 118.089  0.00  0.00     0.006 C 
ENDBRANCH   8   9
BRANCH   8  11
ATOM     11  C   LIG d   1      -3.217  95.301 119.059  0.00  0.00     0.028 C 
ATOM     12  C   LIG d   1      -3.479  96.744 118.599  0.00  0.00     0.006 C 
ENDBRANCH   8  11
ENDBRANCH   7   8
ENDBRANCH   1   7
BRANCH   6  13
ATOM     13  N   LIG d   1      -6.977  94.753 119.054  0.00  0.00    -0.311 N 
ATOM     14  C   LIG d   1      -7.113  96.076 118.975  0.00  0.00     0.210 C 
ATOM     15  C   LIG d   1      -7.553  96.759 120.274  0.00  0.00     0.109 C 
ATOM     16  O   LIG d   1      -6.942  96.745 117.945  0.00  0.00    -0.276 OA
ATOM     17  H   LIG d   1      -7.167  94.289 119.920  0.00  0.00     0.149 HD
ENDBRANCH   6  13
BRANCH   5  18
ATOM     18  N   LIG d   1      -8.452  94.522 116.389  0.00  0.00     0.381 N 
ATOM     19  H   LIG d   1      -8.825  95.146 117.077  0.00  0.00    -0.090 HD
ATOM     20  H   LIG d   1      -9.218  94.139 115.863  0.00  0.00    -0.090 HD
ATOM     21  H   LIG d   1      -7.837  95.016 115.781  0.00  0.00    -0.090 HD
ENDBRANCH   5  18
BRANCH   3  22
ATOM     22  C   LIG d   1      -6.363  90.257 115.770  0.00  0.00     0.382 C 
ATOM     23  O   LIG d   1      -7.267  89.409 115.965  0.00  0.00    -0.241 OA
ATOM     24  O   LIG d   1      -5.426  89.989 114.995  0.00  0.00    -0.241 OA
ENDBRANCH   3  22
TORSDOF 7
ENDMDL
MODEL 6
REMARK VINA RESULT:      -4.4      2.373      5.290
REMARK  7 active torsions:
REMARK  status: ('A' for Active; 'I' for Inactive)
REMARK    1  A    between atoms: C_2  and  C_3 
REMARK    2  A    between atoms: C_3  and  O_6 
REMARK    3  A    between atoms: C_3  and  C_4 
REMARK    4  A    between atoms: C_7  and  O_6 
REMARK    5  A    between atoms: C_9  and  C_10 
REMARK    6  A    between atoms: N_15  and  C_14 
REMARK    7  A    between atoms: N_20  and  C_19 
REMARK       I    between atoms: C_22  and  N_20 
ROOT
ATOM      1  C   LIG d   1      -4.172  77.438 115.769  0.00  0.00     0.161 C 
ATOM      2  C   LIG d   1      -3.173  76.468 115.581  0.00  0.00     0.016 C 
ATOM      3  C   LIG d   1      -2.197  76.158 116.555  0.00  0.00     0.038 C 
ATOM      4  C   LIG d   1      -2.245  76.694 117.850  0.00  0.00     0.028 C 
ATOM      5  C   LIG d   1      -2.934  78.052 117.918  0.00  0.00    -0.047 C 
ATOM      6  C   LIG d   1      -4.308  77.954 117.217  0.00  0.00     0.091 C 
ENDROOT
BRANCH   1   7
ATOM      7  O   LIG d   1      -5.437  76.936 115.294  0.00  0.00    -0.368 OA
BRANCH   7   8
ATOM      8  C   LIG d   1      -6.149  76.052 116.194  0.00  0.00     0.119 C 
BRANCH   8   9
ATOM      9  C   LIG d   1      -5.891  74.607 115.724  0.00  0.00     0.028 C 
ATOM     10  C   LIG d   1      -6.786  73.586 116.447  0.00  0.00     0.006 C 
ENDBRANCH   8   9
BRANCH   8  11
ATOM     11  C   LIG d   1      -7.664  76.249 116.086  0.00  0.00     0.028 C 
ATOM     12  C   LIG d   1      -8.248  77.037 117.269  0.00  0.00     0.006 C 
ENDBRANCH   8  11
ENDBRANCH   7   8
ENDBRANCH   1   7
BRANCH   6  13
ATOM     13  N   LIG d   1      -5.013  79.261 117.164  0.00  0.00    -0.311 N 
ATOM     14  C   LIG d   1      -5.838  79.688 118.118  0.00  0.00     0.210 C 
ATOM     15  C   LIG d   1      -6.476  81.056 117.857  0.00  0.00     0.109 C 
ATOM     16  O   LIG d   1      -6.078  79.078 119.171  0.00  0.00    -0.276 OA
ATOM     17  H   LIG d   1      -4.851  79.835 116.359  0.00  0.00     0.149 HD
ENDBRANCH   6  13
BRANCH   5  18
ATOM     18  N   LIG d   1      -3.037  78.429 119.341  0.00  0.00     0.381 N 
ATOM     19  H   LIG d   1      -2.558  79.293 119.498  0.00  0.00    -0.090 HD
ATOM     20  H   LIG d   1      -2.597  77.718 119.898  0.00  0.00    -0.090 HD
ATOM     21  H   LIG d   1      -3.994  78.520 119.601  0.00  0.00    -0.090 HD
ENDBRANCH   5  18
BRANCH   3  22
ATOM     22  C   LIG d   1      -1.133  75.332 116.223  0.00  0.00     0.382 C 
ATOM     23  O   LIG d   1      -0.271  75.720 115.399  0.00  0.00    -0.241 OA
ATOM     24  O   LIG d   1      -1.050  74.186 116.704  0.00  0.00    -0.241 OA
ENDBRANCH   3  22
TORSDOF 7
ENDMDL
MODEL 7
REMARK VINA RESULT:      -4.4      2.143      4.507
REMARK  7 active torsions:
REMARK  status: ('A' for Active; 'I' for Inactive)
REMARK    1  A    between atoms: C_2  and  C_3 
REMARK    2  A    between atoms: C_3  and  O_6 
REMARK    3  A    between atoms: C_3  and  C_4 
REMARK    4  A    between atoms: C_7  and  O_6 
REMARK    5  A    between atoms: C_9  and  C_10 
REMARK    6  A    between atoms: N_15  and  C_14 
REMARK    7  A    between atoms: N_20  and  C_19 
REMARK       I    between atoms: C_22  and  N_20 
ROOT
ATOM      1  C   LIG d   1      -5.436  78.393 117.216  0.00  0.00     0.161 C 
ATOM      2  C   LIG d   1      -5.404  77.070 116.745  0.00  0.00     0.016 C 
ATOM      3  C   LIG d   1      -6.547  76.240 116.678  0.00  0.00     0.038 C 
ATOM      4  C   LIG d   1      -7.835  76.730 116.939  0.00  0.00     0.028 C 
ATOM      5  C   LIG d   1      -7.851  77.913 117.901  0.00  0.00    -0.047 C 
ATOM      6  C   LIG d   1      -6.852  78.980 117.400  0.00  0.00     0.091 C 
ENDROOT
BRANCH   1   7
ATOM      7  O   LIG d   1      -4.652  79.239 116.352  0.00  0.00    -0.368 OA
BRANCH   7   8
ATOM      8  C   LIG d   1      -3.265  78.858 116.175  0.00  0.00     0.119 C 
BRANCH   8   9
ATOM      9  C   LIG d   1      -2.441  79.597 117.247  0.00  0.00     0.028 C 
ATOM     10  C   LIG d   1      -1.525  78.650 118.040  0.00  0.00     0.006 C 
ENDBRANCH   8   9
BRANCH   8  11
ATOM     11  C   LIG d   1      -2.718  79.351 114.832  0.00  0.00     0.028 C 
ATOM     12  C   LIG d   1      -2.439  78.206 113.846  0.00  0.00     0.006 C 
ENDBRANCH   8  11
ENDBRANCH   7   8
ENDBRANCH   1   7
BRANCH   6  13
ATOM     13  N   LIG d   1      -6.743  80.135 118.329  0.00  0.00    -0.311 N 
ATOM     14  C   LIG d   1      -7.401  81.280 118.156  0.00  0.00     0.210 C 
ATOM     15  C   LIG d   1      -7.130  82.348 119.220  0.00  0.00     0.109 C 
ATOM     16  O   LIG d   1      -8.208  81.500 117.240  0.00  0.00    -0.276 OA
ATOM     17  H   LIG d   1      -6.133  80.031 119.116  0.00  0.00     0.149 HD
ENDBRANCH   6  13
BRANCH   5  18
ATOM     18  N   LIG d   1      -9.238  78.409 117.975  0.00  0.00     0.381 N 
ATOM     19  H   LIG d   1      -9.781  78.007 117.238  0.00  0.00    -0.090 HD
ATOM     20  H   LIG d   1      -9.233  79.406 117.856  0.00  0.00    -0.090 HD
ATOM     21  H   LIG d   1      -9.637  78.174 118.857  0.00  0.00    -0.090 HD
ENDBRANCH   5  18
BRANCH   3  22
ATOM     22  C   LIG d   1      -6.401  74.892 116.386  0.00  0.00     0.382 C 
ATOM     23  O   LIG d   1      -6.883  74.028 117.157  0.00  0.00    -0.241 OA
ATOM     24  O   LIG d   1      -5.755  74.529 115.385  0.00  0.00    -0.241 OA
ENDBRANCH   3  22
TORSDOF 7
ENDMDL
MODEL 8
REMARK VINA RESULT:      -4.4      2.200      4.339
REMARK  7 active torsions:
REMARK  status: ('A' for Active; 'I' for Inactive)
REMARK    1  A    between atoms: C_2  and  C_3 
REMARK    2  A    between atoms: C_3  and  O_6 
REMARK    3  A    between atoms: C_3  and  C_4 
REMARK    4  A    between atoms: C_7  and  O_6 
REMARK    5  A    between atoms: C_9  and  C_10 
REMARK    6  A    between atoms: N_15  and  C_14 
REMARK    7  A    between atoms: N_20  and  C_19 
REMARK       I    between atoms: C_22  and  N_20 
ROOT
ATOM      1  C   LIG d   1      -5.853  77.983 117.424  0.00  0.00     0.161 C 
ATOM      2  C   LIG d   1      -7.108  78.159 118.031  0.00  0.00     0.016 C 
ATOM      3  C   LIG d   1      -8.009  77.097 118.278  0.00  0.00     0.038 C 
ATOM      4  C   LIG d   1      -7.650  75.757 118.071  0.00  0.00     0.028 C 
ATOM      5  C   LIG d   1      -6.589  75.574 116.991  0.00  0.00    -0.047 C 
ATOM      6  C   LIG d   1      -5.399  76.514 117.292  0.00  0.00     0.091 C 
ENDROOT
BRANCH   1   7
ATOM      7  O   LIG d   1      -4.858  78.754 118.126  0.00  0.00    -0.368 OA
BRANCH   7   8
ATOM      8  C   LIG d   1      -4.462  80.000 117.503  0.00  0.00     0.119 C 
BRANCH   8   9
ATOM      9  C   LIG d   1      -2.922  80.027 117.461  0.00  0.00     0.028 C 
ATOM     10  C   LIG d   1      -2.360  79.434 116.158  0.00  0.00     0.006 C 
ENDBRANCH   8   9
BRANCH   8  11
ATOM     11  C   LIG d   1      -4.865  81.204 118.360  0.00  0.00     0.028 C 
ATOM     12  C   LIG d   1      -6.200  81.827 117.921  0.00  0.00     0.006 C 
ENDBRANCH   8  11
ENDBRANCH   7   8
ENDBRANCH   1   7
BRANCH   6  13
ATOM     13  N   LIG d   1      -4.353  76.459 116.238  0.00  0.00    -0.311 N 
ATOM     14  C   LIG d   1      -3.275  75.681 116.315  0.00  0.00     0.210 C 
ATOM     15  C   LIG d   1      -2.311  75.792 115.129  0.00  0.00     0.109 C 
ATOM     16  O   LIG d   1      -3.042  74.885 117.237  0.00  0.00    -0.276 OA
ATOM     17  H   LIG d   1      -4.478  77.050 115.440  0.00  0.00     0.149 HD
ENDBRANCH   6  13
BRANCH   5  18
ATOM     18  N   LIG d   1      -6.210  74.149 116.975  0.00  0.00     0.381 N 
ATOM     19  H   LIG d   1      -6.963  73.602 116.607  0.00  0.00    -0.090 HD
ATOM     20  H   LIG d   1      -6.034  73.849 117.918  0.00  0.00    -0.090 HD
ATOM     21  H   LIG d   1      -5.394  74.019 116.419  0.00  0.00    -0.090 HD
ENDBRANCH   5  18
BRANCH   3  22
ATOM     22  C   LIG d   1      -9.299  77.376 118.701  0.00  0.00     0.382 C 
ATOM     23  O   LIG d   1     -10.185  77.669 117.862  0.00  0.00    -0.241 OA
ATOM     24  O   LIG d   1      -9.579  77.381 119.915  0.00  0.00    -0.241 OA
ENDBRANCH   3  22
TORSDOF 7
ENDMDL
MODEL 9
REMARK VINA RESULT:      -4.4      2.020      3.113
REMARK  7 active torsions:
REMARK  status: ('A' for Active; 'I' for Inactive)
REMARK    1  A    between atoms: C_2  and  C_3 
REMARK    2  A    between atoms: C_3  and  O_6 
REMARK    3  A    between atoms: C_3  and  C_4 
REMARK    4  A    between atoms: C_7  and  O_6 
REMARK    5  A    between atoms: C_9  and  C_10 
REMARK    6  A    between atoms: N_15  and  C_14 
REMARK    7  A    between atoms: N_20  and  C_19 
REMARK       I    between atoms: C_22  and  N_20 
ROOT
ATOM      1  C   LIG d   1      -6.364  79.675 117.868  0.00  0.00     0.161 C 
ATOM      2  C   LIG d   1      -7.552  78.939 118.005  0.00  0.00     0.016 C 
ATOM      3  C   LIG d   1      -8.791  79.521 118.359  0.00  0.00     0.038 C 
ATOM      4  C   LIG d   1      -8.958  80.911 118.452  0.00  0.00     0.028 C 
ATOM      5  C   LIG d   1      -7.676  81.651 118.817  0.00  0.00    -0.047 C 
ATOM      6  C   LIG d   1      -6.549  81.207 117.857  0.00  0.00     0.091 C 
ENDROOT
BRANCH   1   7
ATOM      7  O   LIG d   1      -5.658  79.247 116.686  0.00  0.00    -0.368 OA
BRANCH   7   8
ATOM      8  C   LIG d   1      -4.369  78.624 116.904  0.00  0.00     0.119 C 
BRANCH   8   9
ATOM      9  C   LIG d   1      -3.311  79.485 116.187  0.00  0.00     0.028 C 
ATOM     10  C   LIG d   1      -2.203  78.636 115.541  0.00  0.00     0.006 C 
ENDBRANCH   8   9
BRANCH   8  11
ATOM     11  C   LIG d   1      -4.294  77.248 116.234  0.00  0.00     0.028 C 
ATOM     12  C   LIG d   1      -5.653  76.774 115.696  0.00  0.00     0.006 C 
ENDBRANCH   8  11
ENDBRANCH   7   8
ENDBRANCH   1   7
BRANCH   6  13
ATOM     13  N   LIG d   1      -5.239  81.821 118.197  0.00  0.00    -0.311 N 
ATOM     14  C   LIG d   1      -4.616  81.623 119.358  0.00  0.00     0.210 C 
ATOM     15  C   LIG d   1      -3.285  82.366 119.513  0.00  0.00     0.109 C 
ATOM     16  O   LIG d   1      -5.024  80.877 120.261  0.00  0.00    -0.276 OA
ATOM     17  H   LIG d   1      -4.821  82.416 117.509  0.00  0.00     0.149 HD
ENDBRANCH   6  13
BRANCH   5  18
ATOM     18  N   LIG d   1      -7.960  83.097 118.745  0.00  0.00     0.381 N 
ATOM     19  H   LIG d   1      -7.965  83.488 119.666  0.00  0.00    -0.090 HD
ATOM     20  H   LIG d   1      -8.871  83.229 118.341  0.00  0.00    -0.090 HD
ATOM     21  H   LIG d   1      -7.272  83.552 118.187  0.00  0.00    -0.090 HD
ENDBRANCH   5  18
BRANCH   3  22
ATOM     22  C   LIG d   1      -9.872  78.706 118.662  0.00  0.00     0.382 C 
ATOM     23  O   LIG d   1     -10.456  78.825 119.766  0.00  0.00    -0.241 OA
ATOM     24  O   LIG d   1     -10.241  77.824 117.865  0.00  0.00    -0.241 OA
ENDBRANCH   3  22
TORSDOF 7
ENDMDL
