MODEL 1
REMARK VINA RESULT:      -6.3      0.000      0.000
REMARK  7 active torsions:
REMARK  status: ('A' for Active; 'I' for Inactive)
REMARK    1  A    between atoms: C_2  and  C_3 
REMARK    2  A    between atoms: C_3  and  O_6 
REMARK    3  A    between atoms: C_3  and  C_4 
REMARK    4  A    between atoms: C_7  and  O_6 
REMARK    5  A    between atoms: C_9  and  C_10 
REMARK    6  A    between atoms: N_15  and  C_14 
REMARK    7  A    between atoms: N_20  and  C_19 
REMARK       I    between atoms: C_22  and  N_20 
ROOT
ATOM      1  C   LIG d   1      -6.235  75.122 116.116  0.00  0.00     0.161 C 
ATOM      2  C   LIG d   1      -5.057  74.488 115.684  0.00  0.00     0.016 C 
ATOM      3  C   LIG d   1      -3.774  75.073 115.793  0.00  0.00     0.038 C 
ATOM      4  C   LIG d   1      -3.564  76.275 116.484  0.00  0.00     0.028 C 
ATOM      5  C   LIG d   1      -4.783  77.191 116.492  0.00  0.00    -0.047 C 
ATOM      6  C   LIG d   1      -6.012  76.386 116.973  0.00  0.00     0.091 C 
ENDROOT
BRANCH   1   7
ATOM      7  O   LIG d   1      -7.066  74.179 116.821  0.00  0.00    -0.368 OA
BRANCH   7   8
ATOM      8  C   LIG d   1      -8.133  73.571 116.052  0.00  0.00     0.119 C 
BRANCH   8   9
ATOM      9  C   LIG d   1      -9.423  73.672 116.890  0.00  0.00     0.028 C 
ATOM     10  C   LIG d   1     -10.189  74.980 116.633  0.00  0.00     0.006 C 
ENDBRANCH   8   9
BRANCH   8  11
ATOM     11  C   LIG d   1      -7.893  72.071 115.856  0.00  0.00     0.028 C 
ATOM     12  C   LIG d   1      -9.071  71.211 116.340  0.00  0.00     0.006 C 
ENDBRANCH   8  11
ENDBRANCH   7   8
ENDBRANCH   1   7
BRANCH   6  13
ATOM     13  N   LIG d   1      -7.265  77.184 116.930  0.00  0.00    -0.311 N 
ATOM     14  C   LIG d   1      -7.723  77.884 117.966  0.00  0.00     0.210 C 
ATOM     15  C   LIG d   1      -9.043  78.620 117.716  0.00  0.00     0.109 C 
ATOM     16  O   LIG d   1      -7.146  77.992 119.058  0.00  0.00    -0.276 OA
ATOM     17  H   LIG d   1      -7.780  77.179 116.072  0.00  0.00     0.149 HD
ENDBRANCH   6  13
BRANCH   5  18
ATOM     18  N   LIG d   1      -4.470  78.342 117.360  0.00  0.00     0.381 N 
ATOM     19  H   LIG d   1      -5.089  79.101 117.152  0.00  0.00    -0.090 HD
ATOM     20  H   LIG d   1      -3.529  78.642 117.175  0.00  0.00    -0.090 HD
ATOM     21  H   LIG d   1      -4.562  78.082 118.317  0.00  0.00    -0.090 HD
ENDBRANCH   5  18
BRANCH   3  22
ATOM     22  C   LIG d   1      -2.690  74.471 115.172  0.00  0.00     0.382 C 
ATOM     23  O   LIG d   1      -1.786  73.943 115.862  0.00  0.00    -0.241 OA
ATOM     24  O   LIG d   1      -2.583  74.489 113.931  0.00  0.00    -0.241 OA
ENDBRANCH   3  22
TORSDOF 7
ENDMDL
MODEL 2
REMARK VINA RESULT:      -6.2      1.594      5.082
REMARK  7 active torsions:
REMARK  status: ('A' for Active; 'I' for Inactive)
REMARK    1  A    between atoms: C_2  and  C_3 
REMARK    2  A    between atoms: C_3  and  O_6 
REMARK    3  A    between atoms: C_3  and  C_4 
REMARK    4  A    between atoms: C_7  and  O_6 
REMARK    5  A    between atoms: C_9  and  C_10 
REMARK    6  A    between atoms: N_15  and  C_14 
REMARK    7  A    between atoms: N_20  and  C_19 
REMARK       I    between atoms: C_22  and  N_20 
ROOT
ATOM      1  C   LIG d   1      -7.221  76.220 117.401  0.00  0.00     0.161 C 
ATOM      2  C   LIG d   1      -8.256  77.135 117.657  0.00  0.00     0.016 C 
ATOM      3  C   LIG d   1      -8.079  78.537 117.632  0.00  0.00     0.038 C 
ATOM      4  C   LIG d   1      -6.882  79.126 117.199  0.00  0.00     0.028 C 
ATOM      5  C   LIG d   1      -5.659  78.242 117.417  0.00  0.00    -0.047 C 
ATOM      6  C   LIG d   1      -5.936  76.844 116.818  0.00  0.00     0.091 C 
ENDROOT
BRANCH   1   7
ATOM      7  O   LIG d   1      -7.701  75.167 116.543  0.00  0.00    -0.368 OA
BRANCH   7   8
ATOM      8  C   LIG d   1      -7.923  73.881 117.174  0.00  0.00     0.119 C 
BRANCH   8   9
ATOM      9  C   LIG d   1      -6.923  72.884 116.557  0.00  0.00     0.028 C 
ATOM     10  C   LIG d   1      -7.623  71.709 115.855  0.00  0.00     0.006 C 
ENDBRANCH   8   9
BRANCH   8  11
ATOM     11  C   LIG d   1      -9.310  73.326 116.835  0.00  0.00     0.028 C 
ATOM     12  C   LIG d   1     -10.349  74.431 116.588  0.00  0.00     0.006 C 
ENDBRANCH   8  11
ENDBRANCH   7   8
ENDBRANCH   1   7
BRANCH   6  13
ATOM     13  N   LIG d   1      -4.822  75.891 117.062  0.00  0.00    -0.311 N 
ATOM     14  C   LIG d   1      -4.136  75.300 116.086  0.00  0.00     0.210 C 
ATOM     15  C   LIG d   1      -3.041  74.337 116.557  0.00  0.00     0.109 C 
ATOM     16  O   LIG d   1      -4.308  75.505 114.875  0.00  0.00    -0.276 OA
ATOM     17  H   LIG d   1      -4.595  75.691 118.016  0.00  0.00     0.149 HD
ENDBRANCH   6  13
BRANCH   5  18
ATOM     18  N   LIG d   1      -4.504  78.918 116.796  0.00  0.00     0.381 N 
ATOM     19  H   LIG d   1      -3.676  78.729 117.325  0.00  0.00    -0.090 HD
ATOM     20  H   LIG d   1      -4.664  79.910 116.806  0.00  0.00    -0.090 HD
ATOM     21  H   LIG d   1      -4.387  78.601 115.859  0.00  0.00    -0.090 HD
ENDBRANCH   5  18
BRANCH   3  22
ATOM     22  C   LIG d   1      -9.095  79.366 118.083  0.00  0.00     0.382 C 
ATOM     23  O   LIG d   1     -10.285  78.969 118.060  0.00  0.00    -0.241 OA
ATOM     24  O   LIG d   1      -8.842  80.523 118.471  0.00  0.00    -0.241 OA
ENDBRANCH   3  22
TORSDOF 7
ENDMDL
MODEL 3
REMARK VINA RESULT:      -5.9      2.007      5.193
REMARK  7 active torsions:
REMARK  status: ('A' for Active; 'I' for Inactive)
REMARK    1  A    between atoms: C_2  and  C_3 
REMARK    2  A    between atoms: C_3  and  O_6 
REMARK    3  A    between atoms: C_3  and  C_4 
REMARK    4  A    between atoms: C_7  and  O_6 
REMARK    5  A    between atoms: C_9  and  C_10 
REMARK    6  A    between atoms: N_15  and  C_14 
REMARK    7  A    between atoms: N_20  and  C_19 
REMARK       I    between atoms: C_22  and  N_20 
ROOT
ATOM      1  C   LIG d   1      -5.408  74.709 116.316  0.00  0.00     0.161 C 
ATOM      2  C   LIG d   1      -6.069  73.507 116.017  0.00  0.00     0.016 C 
ATOM      3  C   LIG d   1      -7.476  73.366 116.037  0.00  0.00     0.038 C 
ATOM      4  C   LIG d   1      -8.328  74.467 116.211  0.00  0.00     0.028 C 
ATOM      5  C   LIG d   1      -7.699  75.600 117.015  0.00  0.00    -0.047 C 
ATOM      6  C   LIG d   1      -6.324  75.948 116.399  0.00  0.00     0.091 C 
ENDROOT
BRANCH   1   7
ATOM      7  O   LIG d   1      -4.348  74.933 115.365  0.00  0.00    -0.368 OA
BRANCH   7   8
ATOM      8  C   LIG d   1      -3.041  74.431 115.737  0.00  0.00     0.119 C 
BRANCH   8   9
ATOM      9  C   LIG d   1      -2.728  74.958 117.151  0.00  0.00     0.028 C 
ATOM     10  C   LIG d   1      -1.794  74.020 117.934  0.00  0.00     0.006 C 
ENDBRANCH   8   9
BRANCH   8  11
ATOM     11  C   LIG d   1      -1.945  75.008 114.837  0.00  0.00     0.028 C 
ATOM     12  C   LIG d   1      -1.054  73.923 114.212  0.00  0.00     0.006 C 
ENDBRANCH   8  11
ENDBRANCH   7   8
ENDBRANCH   1   7
BRANCH   6  13
ATOM     13  N   LIG d   1      -5.603  76.990 117.176  0.00  0.00    -0.311 N 
ATOM     14  C   LIG d   1      -4.912  77.978 116.611  0.00  0.00     0.210 C 
ATOM     15  C   LIG d   1      -4.227  78.933 117.594  0.00  0.00     0.109 C 
ATOM     16  O   LIG d   1      -4.827  78.173 115.389  0.00  0.00    -0.276 OA
ATOM     17  H   LIG d   1      -5.645  76.926 118.174  0.00  0.00     0.149 HD
ENDBRANCH   6  13
BRANCH   5  18
ATOM     18  N   LIG d   1      -8.642  76.733 117.001  0.00  0.00     0.381 N 
ATOM     19  H   LIG d   1      -8.555  77.236 116.141  0.00  0.00    -0.090 HD
ATOM     20  H   LIG d   1      -8.413  77.356 117.756  0.00  0.00    -0.090 HD
ATOM     21  H   LIG d   1      -9.576  76.401 117.108  0.00  0.00    -0.090 HD
ENDBRANCH   5  18
BRANCH   3  22
ATOM     22  C   LIG d   1      -8.042  72.106 115.921  0.00  0.00     0.382 C 
ATOM     23  O   LIG d   1      -7.320  71.116 115.655  0.00  0.00    -0.241 OA
ATOM     24  O   LIG d   1      -9.273  71.954 116.035  0.00  0.00    -0.241 OA
ENDBRANCH   3  22
TORSDOF 7
ENDMDL
MODEL 4
REMARK VINA RESULT:      -5.8     14.487     17.854
REMARK  7 active torsions:
REMARK  status: ('A' for Active; 'I' for Inactive)
REMARK    1  A    between atoms: C_2  and  C_3 
REMARK    2  A    between atoms: C_3  and  O_6 
REMARK    3  A    between atoms: C_3  and  C_4 
REMARK    4  A    between atoms: C_7  and  O_6 
REMARK    5  A    between atoms: C_9  and  C_10 
REMARK    6  A    between atoms: N_15  and  C_14 
REMARK    7  A    between atoms: N_20  and  C_19 
REMARK       I    between atoms: C_22  and  N_20 
ROOT
ATOM      1  C   LIG d   1      -5.561  92.458 117.780  0.00  0.00     0.161 C 
ATOM      2  C   LIG d   1      -6.099  93.585 118.423  0.00  0.00     0.016 C 
ATOM      3  C   LIG d   1      -7.250  94.268 117.964  0.00  0.00     0.038 C 
ATOM      4  C   LIG d   1      -8.033  93.775 116.910  0.00  0.00     0.028 C 
ATOM      5  C   LIG d   1      -7.247  92.926 115.917  0.00  0.00    -0.047 C 
ATOM      6  C   LIG d   1      -6.466  91.840 116.693  0.00  0.00     0.091 C 
ENDROOT
BRANCH   1   7
ATOM      7  O   LIG d   1      -5.202  91.462 118.758  0.00  0.00    -0.368 OA
BRANCH   7   8
ATOM      8  C   LIG d   1      -3.785  91.210 118.920  0.00  0.00     0.119 C 
BRANCH   8   9
ATOM      9  C   LIG d   1      -3.035  92.143 117.949  0.00  0.00     0.028 C 
ATOM     10  C   LIG d   1      -1.847  92.855 118.620  0.00  0.00     0.006 C 
ENDBRANCH   8   9
BRANCH   8  11
ATOM     11  C   LIG d   1      -3.417  89.789 118.481  0.00  0.00     0.028 C 
ATOM     12  C   LIG d   1      -2.431  89.106 119.442  0.00  0.00     0.006 C 
ENDBRANCH   8  11
ENDBRANCH   7   8
ENDBRANCH   1   7
BRANCH   6  13
ATOM     13  N   LIG d   1      -5.604  91.018 115.804  0.00  0.00    -0.311 N 
ATOM     14  C   LIG d   1      -5.762  89.706 115.639  0.00  0.00     0.210 C 
ATOM     15  C   LIG d   1      -4.753  89.047 114.693  0.00  0.00     0.109 C 
ATOM     16  O   LIG d   1      -6.663  89.031 116.160  0.00  0.00    -0.276 OA
ATOM     17  H   LIG d   1      -4.867  91.491 115.318  0.00  0.00     0.149 HD
ENDBRANCH   6  13
BRANCH   5  18
ATOM     18  N   LIG d   1      -8.210  92.365 114.950  0.00  0.00     0.381 N 
ATOM     19  H   LIG d   1      -9.014  92.957 114.891  0.00  0.00    -0.090 HD
ATOM     20  H   LIG d   1      -8.506  91.461 115.273  0.00  0.00    -0.090 HD
ATOM     21  H   LIG d   1      -7.783  92.282 114.054  0.00  0.00    -0.090 HD
ENDBRANCH   5  18
BRANCH   3  22
ATOM     22  C   LIG d   1      -7.604  95.479 118.538  0.00  0.00     0.382 C 
ATOM     23  O   LIG d   1      -8.341  96.278 117.911  0.00  0.00    -0.241 OA
ATOM     24  O   LIG d   1      -7.160  95.802 119.656  0.00  0.00    -0.241 OA
ENDBRANCH   3  22
TORSDOF 7
ENDMDL
MODEL 5
REMARK VINA RESULT:      -5.5      2.062      5.107
REMARK  7 active torsions:
REMARK  status: ('A' for Active; 'I' for Inactive)
REMARK    1  A    between atoms: C_2  and  C_3 
REMARK    2  A    between atoms: C_3  and  O_6 
REMARK    3  A    between atoms: C_3  and  C_4 
REMARK    4  A    between atoms: C_7  and  O_6 
REMARK    5  A    between atoms: C_9  and  C_10 
REMARK    6  A    between atoms: N_15  and  C_14 
REMARK    7  A    between atoms: N_20  and  C_19 
REMARK       I    between atoms: C_22  and  N_20 
ROOT
ATOM      1  C   LIG d   1      -4.220  75.611 116.899  0.00  0.00     0.161 C 
ATOM      2  C   LIG d   1      -5.227  76.492 117.327  0.00  0.00     0.016 C 
ATOM      3  C   LIG d   1      -5.278  77.855 116.954  0.00  0.00     0.038 C 
ATOM      4  C   LIG d   1      -4.404  78.396 116.000  0.00  0.00     0.028 C 
ATOM      5  C   LIG d   1      -3.064  77.672 115.927  0.00  0.00    -0.047 C 
ATOM      6  C   LIG d   1      -3.321  76.156 115.770  0.00  0.00     0.091 C 
ENDROOT
BRANCH   1   7
ATOM      7  O   LIG d   1      -4.805  74.352 116.511  0.00  0.00    -0.368 OA
BRANCH   7   8
ATOM      8  C   LIG d   1      -6.213  74.381 116.171  0.00  0.00     0.119 C 
BRANCH   8   9
ATOM      9  C   LIG d   1      -6.834  73.057 116.655  0.00  0.00     0.028 C 
ATOM     10  C   LIG d   1      -8.344  72.980 116.377  0.00  0.00     0.006 C 
ENDBRANCH   8   9
BRANCH   8  11
ATOM     11  C   LIG d   1      -6.420  74.395 114.654  0.00  0.00     0.028 C 
ATOM     12  C   LIG d   1      -6.905  75.757 114.131  0.00  0.00     0.006 C 
ENDBRANCH   8  11
ENDBRANCH   7   8
ENDBRANCH   1   7
BRANCH   6  13
ATOM     13  N   LIG d   1      -2.063  75.364 115.775  0.00  0.00    -0.311 N 
ATOM     14  C   LIG d   1      -1.745  74.488 114.824  0.00  0.00     0.210 C 
ATOM     15  C   LIG d   1      -0.411  73.764 115.032  0.00  0.00     0.109 C 
ATOM     16  O   LIG d   1      -2.425  74.265 113.811  0.00  0.00    -0.276 OA
ATOM     17  H   LIG d   1      -1.438  75.506 116.544  0.00  0.00     0.149 HD
ENDBRANCH   6  13
BRANCH   5  18
ATOM     18  N   LIG d   1      -2.306  78.250 114.801  0.00  0.00     0.381 N 
ATOM     19  H   LIG d   1      -1.740  79.007 115.127  0.00  0.00    -0.090 HD
ATOM     20  H   LIG d   1      -2.954  78.609 114.123  0.00  0.00    -0.090 HD
ATOM     21  H   LIG d   1      -1.731  77.552 114.383  0.00  0.00    -0.090 HD
ENDBRANCH   5  18
BRANCH   3  22
ATOM     22  C   LIG d   1      -6.188  78.702 117.569  0.00  0.00     0.382 C 
ATOM     23  O   LIG d   1      -6.514  79.780 117.016  0.00  0.00    -0.241 OA
ATOM     24  O   LIG d   1      -6.654  78.423 118.689  0.00  0.00    -0.241 OA
ENDBRANCH   3  22
TORSDOF 7
ENDMDL
MODEL 6
REMARK VINA RESULT:      -5.5      2.198      5.553
REMARK  7 active torsions:
REMARK  status: ('A' for Active; 'I' for Inactive)
REMARK    1  A    between atoms: C_2  and  C_3 
REMARK    2  A    between atoms: C_3  and  O_6 
REMARK    3  A    between atoms: C_3  and  C_4 
REMARK    4  A    between atoms: C_7  and  O_6 
REMARK    5  A    between atoms: C_9  and  C_10 
REMARK    6  A    between atoms: N_15  and  C_14 
REMARK    7  A    between atoms: N_20  and  C_19 
REMARK       I    between atoms: C_22  and  N_20 
ROOT
ATOM      1  C   LIG d   1      -4.380  75.261 115.569  0.00  0.00     0.161 C 
ATOM      2  C   LIG d   1      -3.930  76.590 115.647  0.00  0.00     0.016 C 
ATOM      3  C   LIG d   1      -4.714  77.649 116.159  0.00  0.00     0.038 C 
ATOM      4  C   LIG d   1      -5.955  77.422 116.773  0.00  0.00     0.028 C 
ATOM      5  C   LIG d   1      -6.664  76.172 116.263  0.00  0.00    -0.047 C 
ATOM      6  C   LIG d   1      -5.688  74.976 116.336  0.00  0.00     0.091 C 
ENDROOT
BRANCH   1   7
ATOM      7  O   LIG d   1      -3.338  74.366 116.006  0.00  0.00    -0.368 OA
BRANCH   7   8
ATOM      8  C   LIG d   1      -1.981  74.773 115.703  0.00  0.00     0.119 C 
BRANCH   8   9
ATOM      9  C   LIG d   1      -1.581  74.100 114.375  0.00  0.00     0.028 C 
ATOM     10  C   LIG d   1      -0.122  73.613 114.380  0.00  0.00     0.006 C 
ENDBRANCH   8   9
BRANCH   8  11
ATOM     11  C   LIG d   1      -0.993  74.235 116.743  0.00  0.00     0.028 C 
ATOM     12  C   LIG d   1      -1.663  73.905 118.086  0.00  0.00     0.006 C 
ENDBRANCH   8  11
ENDBRANCH   7   8
ENDBRANCH   1   7
BRANCH   6  13
ATOM     13  N   LIG d   1      -6.275  73.731 115.777  0.00  0.00    -0.311 N 
ATOM     14  C   LIG d   1      -7.019  72.886 116.490  0.00  0.00     0.210 C 
ATOM     15  C   LIG d   1      -7.509  71.652 115.725  0.00  0.00     0.109 C 
ATOM     16  O   LIG d   1      -7.346  73.058 117.674  0.00  0.00    -0.276 OA
ATOM     17  H   LIG d   1      -6.086  73.529 114.815  0.00  0.00     0.149 HD
ENDBRANCH   6  13
BRANCH   5  18
ATOM     18  N   LIG d   1      -7.876  75.981 117.083  0.00  0.00     0.381 N 
ATOM     19  H   LIG d   1      -8.683  75.950 116.492  0.00  0.00    -0.090 HD
ATOM     20  H   LIG d   1      -7.972  76.763 117.707  0.00  0.00    -0.090 HD
ATOM     21  H   LIG d   1      -7.804  75.136 117.605  0.00  0.00    -0.090 HD
ENDBRANCH   5  18
BRANCH   3  22
ATOM     22  C   LIG d   1      -4.275  78.957 116.024  0.00  0.00     0.382 C 
ATOM     23  O   LIG d   1      -3.542  79.275 115.057  0.00  0.00    -0.241 OA
ATOM     24  O   LIG d   1      -4.567  79.813 116.881  0.00  0.00    -0.241 OA
ENDBRANCH   3  22
TORSDOF 7
ENDMDL
MODEL 7
REMARK VINA RESULT:      -5.5      2.292      5.886
REMARK  7 active torsions:
REMARK  status: ('A' for Active; 'I' for Inactive)
REMARK    1  A    between atoms: C_2  and  C_3 
REMARK    2  A    between atoms: C_3  and  O_6 
REMARK    3  A    between atoms: C_3  and  C_4 
REMARK    4  A    between atoms: C_7  and  O_6 
REMARK    5  A    between atoms: C_9  and  C_10 
REMARK    6  A    between atoms: N_15  and  C_14 
REMARK    7  A    between atoms: N_20  and  C_19 
REMARK       I    between atoms: C_22  and  N_20 
ROOT
ATOM      1  C   LIG d   1      -6.873  76.364 115.797  0.00  0.00     0.161 C 
ATOM      2  C   LIG d   1      -8.229  76.279 116.153  0.00  0.00     0.016 C 
ATOM      3  C   LIG d   1      -8.846  75.084 116.589  0.00  0.00     0.038 C 
ATOM      4  C   LIG d   1      -8.107  73.919 116.845  0.00  0.00     0.028 C 
ATOM      5  C   LIG d   1      -6.829  73.819 116.020  0.00  0.00    -0.047 C 
ATOM      6  C   LIG d   1      -6.027  75.131 116.176  0.00  0.00     0.091 C 
ENDROOT
BRANCH   1   7
ATOM      7  O   LIG d   1      -6.295  77.560 116.357  0.00  0.00    -0.368 OA
BRANCH   7   8
ATOM      8  C   LIG d   1      -6.779  77.949 117.666  0.00  0.00     0.119 C 
BRANCH   8   9
ATOM      9  C   LIG d   1      -7.543  79.277 117.501  0.00  0.00     0.028 C 
ATOM     10  C   LIG d   1      -8.965  79.212 118.084  0.00  0.00     0.006 C 
ENDBRANCH   8   9
BRANCH   8  11
ATOM     11  C   LIG d   1      -5.621  78.262 118.618  0.00  0.00     0.028 C 
ATOM     12  C   LIG d   1      -4.563  77.148 118.657  0.00  0.00     0.006 C 
ENDBRANCH   8  11
ENDBRANCH   7   8
ENDBRANCH   1   7
BRANCH   6  13
ATOM     13  N   LIG d   1      -4.802  75.150 115.335  0.00  0.00    -0.311 N 
ATOM     14  C   LIG d   1      -3.606  74.758 115.771  0.00  0.00     0.210 C 
ATOM     15  C   LIG d   1      -2.473  74.878 114.747  0.00  0.00     0.109 C 
ATOM     16  O   LIG d   1      -3.382  74.293 116.899  0.00  0.00    -0.276 OA
ATOM     17  H   LIG d   1      -4.899  75.484 114.396  0.00  0.00     0.149 HD
ENDBRANCH   6  13
BRANCH   5  18
ATOM     18  N   LIG d   1      -6.090  72.630 116.486  0.00  0.00     0.381 N 
ATOM     19  H   LIG d   1      -6.269  72.479 117.458  0.00  0.00    -0.090 HD
ATOM     20  H   LIG d   1      -5.105  72.793 116.368  0.00  0.00    -0.090 HD
ATOM     21  H   LIG d   1      -6.367  71.829 115.961  0.00  0.00    -0.090 HD
ENDBRANCH   5  18
BRANCH   3  22
ATOM     22  C   LIG d   1     -10.224  75.035 116.735  0.00  0.00     0.382 C 
ATOM     23  O   LIG d   1     -10.852  73.995 116.421  0.00  0.00    -0.241 OA
ATOM     24  O   LIG d   1     -10.853  76.033 117.135  0.00  0.00    -0.241 OA
ENDBRANCH   3  22
TORSDOF 7
ENDMDL
MODEL 8
REMARK VINA RESULT:      -5.4     14.649     17.771
REMARK  7 active torsions:
REMARK  status: ('A' for Active; 'I' for Inactive)
REMARK    1  A    between atoms: C_2  and  C_3 
REMARK    2  A    between atoms: C_3  and  O_6 
REMARK    3  A    between atoms: C_3  and  C_4 
REMARK    4  A    between atoms: C_7  and  O_6 
REMARK    5  A    between atoms: C_9  and  C_10 
REMARK    6  A    between atoms: N_15  and  C_14 
REMARK    7  A    between atoms: N_20  and  C_19 
REMARK       I    between atoms: C_22  and  N_20 
ROOT
ATOM      1  C   LIG d   1      -5.627  92.641 117.560  0.00  0.00     0.161 C 
ATOM      2  C   LIG d   1      -6.622  91.731 117.167  0.00  0.00     0.016 C 
ATOM      3  C   LIG d   1      -6.340  90.450 116.639  0.00  0.00     0.038 C 
ATOM      4  C   LIG d   1      -5.038  89.930 116.609  0.00  0.00     0.028 C 
ATOM      5  C   LIG d   1      -3.959  91.005 116.525  0.00  0.00    -0.047 C 
ATOM      6  C   LIG d   1      -4.204  92.049 117.638  0.00  0.00     0.091 C 
ENDROOT
BRANCH   1   7
ATOM      7  O   LIG d   1      -5.987  93.247 118.817  0.00  0.00    -0.368 OA
BRANCH   7   8
ATOM      8  C   LIG d   1      -6.467  94.612 118.753  0.00  0.00     0.119 C 
BRANCH   8   9
ATOM      9  C   LIG d   1      -5.988  95.332 120.028  0.00  0.00     0.028 C 
ATOM     10  C   LIG d   1      -4.462  95.519 120.058  0.00  0.00     0.006 C 
ENDBRANCH   8   9
BRANCH   8  11
ATOM     11  C   LIG d   1      -7.997  94.668 118.806  0.00  0.00     0.028 C 
ATOM     12  C   LIG d   1      -8.601  93.585 119.714  0.00  0.00     0.006 C 
ENDBRANCH   8  11
ENDBRANCH   7   8
ENDBRANCH   1   7
BRANCH   6  13
ATOM     13  N   LIG d   1      -3.242  93.181 117.575  0.00  0.00    -0.311 N 
ATOM     14  C   LIG d   1      -2.106  93.217 118.269  0.00  0.00     0.210 C 
ATOM     15  C   LIG d   1      -1.269  94.485 118.074  0.00  0.00     0.109 C 
ATOM     16  O   LIG d   1      -1.697  92.306 119.003  0.00  0.00    -0.276 OA
ATOM     17  H   LIG d   1      -3.481  93.950 116.979  0.00  0.00     0.149 HD
ENDBRANCH   6  13
BRANCH   5  18
ATOM     18  N   LIG d   1      -2.651  90.333 116.640  0.00  0.00     0.381 N 
ATOM     19  H   LIG d   1      -2.373  89.977 115.747  0.00  0.00    -0.090 HD
ATOM     20  H   LIG d   1      -2.737  89.560 117.275  0.00  0.00    -0.090 HD
ATOM     21  H   LIG d   1      -1.967  90.974 116.977  0.00  0.00    -0.090 HD
ENDBRANCH   5  18
BRANCH   3  22
ATOM     22  C   LIG d   1      -7.365  89.689 116.097  0.00  0.00     0.382 C 
ATOM     23  O   LIG d   1      -7.854  89.999 114.984  0.00  0.00    -0.241 OA
ATOM     24  O   LIG d   1      -7.837  88.724 116.727  0.00  0.00    -0.241 OA
ENDBRANCH   3  22
TORSDOF 7
ENDMDL
MODEL 9
REMARK VINA RESULT:      -5.3     14.978     17.697
REMARK  7 active torsions:
REMARK  status: ('A' for Active; 'I' for Inactive)
REMARK    1  A    between atoms: C_2  and  C_3 
REMARK    2  A    between atoms: C_3  and  O_6 
REMARK    3  A    between atoms: C_3  and  C_4 
REMARK    4  A    between atoms: C_7  and  O_6 
REMARK    5  A    between atoms: C_9  and  C_10 
REMARK    6  A    between atoms: N_15  and  C_14 
REMARK    7  A    between atoms: N_20  and  C_19 
REMARK       I    between atoms: C_22  and  N_20 
ROOT
ATOM      1  C   LIG d   1      -5.822  92.161 118.884  0.00  0.00     0.161 C 
ATOM      2  C   LIG d   1      -5.858  91.009 118.080  0.00  0.00     0.016 C 
ATOM      3  C   LIG d   1      -6.695  90.876 116.948  0.00  0.00     0.038 C 
ATOM      4  C   LIG d   1      -7.447  91.951 116.452  0.00  0.00     0.028 C 
ATOM      5  C   LIG d   1      -7.826  92.970 117.521  0.00  0.00    -0.047 C 
ATOM      6  C   LIG d   1      -6.553  93.384 118.293  0.00  0.00     0.091 C 
ENDROOT
BRANCH   1   7
ATOM      7  O   LIG d   1      -4.455  92.496 119.196  0.00  0.00    -0.368 OA
BRANCH   7   8
ATOM      8  C   LIG d   1      -3.439  91.821 118.414  0.00  0.00     0.119 C 
BRANCH   8   9
ATOM      9  C   LIG d   1      -2.512  91.081 119.398  0.00  0.00     0.028 C 
ATOM     10  C   LIG d   1      -2.661  89.553 119.309  0.00  0.00     0.006 C 
ENDBRANCH   8   9
BRANCH   8  11
ATOM     11  C   LIG d   1      -2.539  92.823 117.685  0.00  0.00     0.028 C 
ATOM     12  C   LIG d   1      -1.047  92.620 117.996  0.00  0.00     0.006 C 
ENDBRANCH   8  11
ENDBRANCH   7   8
ENDBRANCH   1   7
BRANCH   6  13
ATOM     13  N   LIG d   1      -6.847  94.316 119.413  0.00  0.00    -0.311 N 
ATOM     14  C   LIG d   1      -6.913  95.638 119.268  0.00  0.00     0.210 C 
ATOM     15  C   LIG d   1      -7.209  96.416 120.555  0.00  0.00     0.109 C 
ATOM     16  O   LIG d   1      -6.786  96.239 118.191  0.00  0.00    -0.276 OA
ATOM     17  H   LIG d   1      -6.994  93.911 120.317  0.00  0.00     0.149 HD
ENDBRANCH   6  13
BRANCH   5  18
ATOM     18  N   LIG d   1      -8.486  94.102 116.843  0.00  0.00     0.381 N 
ATOM     19  H   LIG d   1      -7.804  94.788 116.588  0.00  0.00    -0.090 HD
ATOM     20  H   LIG d   1      -9.137  94.527 117.480  0.00  0.00    -0.090 HD
ATOM     21  H   LIG d   1      -8.965  93.781 116.031  0.00  0.00    -0.090 HD
ENDBRANCH   5  18
BRANCH   3  22
ATOM     22  C   LIG d   1      -6.815  89.644 116.324  0.00  0.00     0.382 C 
ATOM     23  O   LIG d   1      -5.807  89.097 115.815  0.00  0.00    -0.241 OA
ATOM     24  O   LIG d   1      -7.928  89.092 116.224  0.00  0.00    -0.241 OA
ENDBRANCH   3  22
TORSDOF 7
ENDMDL
