MODEL 1
REMARK VINA RESULT:      -6.0      0.000      0.000
REMARK  7 active torsions:
REMARK  status: ('A' for Active; 'I' for Inactive)
REMARK    1  A    between atoms: C_2  and  C_3 
REMARK    2  A    between atoms: C_3  and  O_6 
REMARK    3  A    between atoms: C_3  and  C_4 
REMARK    4  A    between atoms: C_7  and  O_6 
REMARK    5  A    between atoms: C_9  and  C_10 
REMARK    6  A    between atoms: N_15  and  C_14 
REMARK    7  A    between atoms: N_20  and  C_19 
REMARK       I    between atoms: C_22  and  N_20 
ROOT
ATOM      1  C   LIG d   1      -6.617  74.686 117.234  0.00  0.00     0.161 C 
ATOM      2  C   LIG d   1      -5.418  73.982 117.030  0.00  0.00     0.016 C 
ATOM      3  C   LIG d   1      -4.143  74.510 117.342  0.00  0.00     0.038 C 
ATOM      4  C   LIG d   1      -3.991  75.726 118.024  0.00  0.00     0.028 C 
ATOM      5  C   LIG d   1      -5.144  76.697 117.795  0.00  0.00    -0.047 C 
ATOM      6  C   LIG d   1      -6.478  75.969 118.079  0.00  0.00     0.091 C 
ENDROOT
BRANCH   1   7
ATOM      7  O   LIG d   1      -7.605  73.810 117.811  0.00  0.00    -0.368 OA
BRANCH   7   8
ATOM      8  C   LIG d   1      -8.095  72.749 116.955  0.00  0.00     0.119 C 
BRANCH   8   9
ATOM      9  C   LIG d   1      -9.628  72.883 116.883  0.00  0.00     0.028 C 
ATOM     10  C   LIG d   1     -10.074  74.272 116.397  0.00  0.00     0.006 C 
ENDBRANCH   8   9
BRANCH   8  11
ATOM     11  C   LIG d   1      -7.836  71.371 117.571  0.00  0.00     0.028 C 
ATOM     12  C   LIG d   1      -9.019  70.406 117.391  0.00  0.00     0.006 C 
ENDBRANCH   8  11
ENDBRANCH   7   8
ENDBRANCH   1   7
BRANCH   6  13
ATOM     13  N   LIG d   1      -7.661  76.823 117.798  0.00  0.00    -0.311 N 
ATOM     14  C   LIG d   1      -8.621  77.062 118.690  0.00  0.00     0.210 C 
ATOM     15  C   LIG d   1      -9.762  77.953 118.188  0.00  0.00     0.109 C 
ATOM     16  O   LIG d   1      -8.620  76.647 119.859  0.00  0.00    -0.276 OA
ATOM     17  H   LIG d   1      -7.726  77.225 116.884  0.00  0.00     0.149 HD
ENDBRANCH   6  13
BRANCH   5  18
ATOM     18  N   LIG d   1      -4.925  77.864 118.670  0.00  0.00     0.381 N 
ATOM     19  H   LIG d   1      -4.110  78.362 118.373  0.00  0.00    -0.090 HD
ATOM     20  H   LIG d   1      -4.772  77.542 119.610  0.00  0.00    -0.090 HD
ATOM     21  H   LIG d   1      -5.719  78.465 118.643  0.00  0.00    -0.090 HD
ENDBRANCH   5  18
BRANCH   3  22
ATOM     22  C   LIG d   1      -3.002  73.836 116.935  0.00  0.00     0.382 C 
ATOM     23  O   LIG d   1      -2.343  73.162 117.763  0.00  0.00    -0.241 OA
ATOM     24  O   LIG d   1      -2.599  73.929 115.760  0.00  0.00    -0.241 OA
ENDBRANCH   3  22
TORSDOF 7
ENDMDL
MODEL 2
REMARK VINA RESULT:      -6.0      1.671      5.088
REMARK  7 active torsions:
REMARK  status: ('A' for Active; 'I' for Inactive)
REMARK    1  A    between atoms: C_2  and  C_3 
REMARK    2  A    between atoms: C_3  and  O_6 
REMARK    3  A    between atoms: C_3  and  C_4 
REMARK    4  A    between atoms: C_7  and  O_6 
REMARK    5  A    between atoms: C_9  and  C_10 
REMARK    6  A    between atoms: N_15  and  C_14 
REMARK    7  A    between atoms: N_20  and  C_19 
REMARK       I    between atoms: C_22  and  N_20 
ROOT
ATOM      1  C   LIG d   1      -7.484  75.904 117.850  0.00  0.00     0.161 C 
ATOM      2  C   LIG d   1      -8.587  76.738 118.097  0.00  0.00     0.016 C 
ATOM      3  C   LIG d   1      -8.499  78.148 118.151  0.00  0.00     0.038 C 
ATOM      4  C   LIG d   1      -7.322  78.831 117.809  0.00  0.00     0.028 C 
ATOM      5  C   LIG d   1      -6.057  78.014 118.046  0.00  0.00    -0.047 C 
ATOM      6  C   LIG d   1      -6.215  76.635 117.365  0.00  0.00     0.091 C 
ENDROOT
BRANCH   1   7
ATOM      7  O   LIG d   1      -7.853  74.869 116.917  0.00  0.00    -0.368 OA
BRANCH   7   8
ATOM      8  C   LIG d   1      -8.197  73.585 117.492  0.00  0.00     0.119 C 
BRANCH   8   9
ATOM      9  C   LIG d   1      -7.059  72.604 117.149  0.00  0.00     0.028 C 
ATOM     10  C   LIG d   1      -7.536  71.142 117.113  0.00  0.00     0.006 C 
ENDBRANCH   8   9
BRANCH   8  11
ATOM     11  C   LIG d   1      -9.450  72.998 116.836  0.00  0.00     0.028 C 
ATOM     12  C   LIG d   1     -10.381  74.076 116.258  0.00  0.00     0.006 C 
ENDBRANCH   8  11
ENDBRANCH   7   8
ENDBRANCH   1   7
BRANCH   6  13
ATOM     13  N   LIG d   1      -5.056  75.741 117.620  0.00  0.00    -0.311 N 
ATOM     14  C   LIG d   1      -4.445  75.043 116.664  0.00  0.00     0.210 C 
ATOM     15  C   LIG d   1      -3.283  74.168 117.145  0.00  0.00     0.109 C 
ATOM     16  O   LIG d   1      -4.734  75.090 115.459  0.00  0.00    -0.276 OA
ATOM     17  H   LIG d   1      -4.735  75.668 118.566  0.00  0.00     0.149 HD
ENDBRANCH   6  13
BRANCH   5  18
ATOM     18  N   LIG d   1      -4.919  78.792 117.520  0.00  0.00     0.381 N 
ATOM     19  H   LIG d   1      -4.486  78.292 116.769  0.00  0.00    -0.090 HD
ATOM     20  H   LIG d   1      -4.241  78.911 118.252  0.00  0.00    -0.090 HD
ATOM     21  H   LIG d   1      -5.233  79.681 117.200  0.00  0.00    -0.090 HD
ENDBRANCH   5  18
BRANCH   3  22
ATOM     22  C   LIG d   1      -9.587  78.888 118.588  0.00  0.00     0.382 C 
ATOM     23  O   LIG d   1     -10.067  78.683 119.729  0.00  0.00    -0.241 OA
ATOM     24  O   LIG d   1     -10.122  79.728 117.840  0.00  0.00    -0.241 OA
ENDBRANCH   3  22
TORSDOF 7
ENDMDL
MODEL 3
REMARK VINA RESULT:      -5.4      2.481      5.639
REMARK  7 active torsions:
REMARK  status: ('A' for Active; 'I' for Inactive)
REMARK    1  A    between atoms: C_2  and  C_3 
REMARK    2  A    between atoms: C_3  and  O_6 
REMARK    3  A    between atoms: C_3  and  C_4 
REMARK    4  A    between atoms: C_7  and  O_6 
REMARK    5  A    between atoms: C_9  and  C_10 
REMARK    6  A    between atoms: N_15  and  C_14 
REMARK    7  A    between atoms: N_20  and  C_19 
REMARK       I    between atoms: C_22  and  N_20 
ROOT
ATOM      1  C   LIG d   1      -6.814  76.272 117.181  0.00  0.00     0.161 C 
ATOM      2  C   LIG d   1      -7.966  75.469 117.181  0.00  0.00     0.016 C 
ATOM      3  C   LIG d   1      -7.933  74.061 117.051  0.00  0.00     0.038 C 
ATOM      4  C   LIG d   1      -6.728  73.344 117.064  0.00  0.00     0.028 C 
ATOM      5  C   LIG d   1      -5.538  74.149 116.555  0.00  0.00    -0.047 C 
ATOM      6  C   LIG d   1      -5.486  75.498 117.308  0.00  0.00     0.091 C 
ENDROOT
BRANCH   1   7
ATOM      7  O   LIG d   1      -6.914  77.269 118.217  0.00  0.00    -0.368 OA
BRANCH   7   8
ATOM      8  C   LIG d   1      -7.634  78.478 117.871  0.00  0.00     0.119 C 
BRANCH   8   9
ATOM      9  C   LIG d   1      -6.621  79.640 117.885  0.00  0.00     0.028 C 
ATOM     10  C   LIG d   1      -7.307  81.016 117.872  0.00  0.00     0.006 C 
ENDBRANCH   8   9
BRANCH   8  11
ATOM     11  C   LIG d   1      -8.673  78.833 118.939  0.00  0.00     0.028 C 
ATOM     12  C   LIG d   1     -10.068  78.271 118.623  0.00  0.00     0.006 C 
ENDBRANCH   8  11
ENDBRANCH   7   8
ENDBRANCH   1   7
BRANCH   6  13
ATOM     13  N   LIG d   1      -4.400  76.383 116.811  0.00  0.00    -0.311 N 
ATOM     14  C   LIG d   1      -4.215  76.665 115.523  0.00  0.00     0.210 C 
ATOM     15  C   LIG d   1      -3.025  77.582 115.225  0.00  0.00     0.109 C 
ATOM     16  O   LIG d   1      -4.944  76.267 114.601  0.00  0.00    -0.276 OA
ATOM     17  H   LIG d   1      -3.781  76.774 117.495  0.00  0.00     0.149 HD
ENDBRANCH   6  13
BRANCH   5  18
ATOM     18  N   LIG d   1      -4.327  73.330 116.752  0.00  0.00     0.381 N 
ATOM     19  H   LIG d   1      -3.753  73.739 117.462  0.00  0.00    -0.090 HD
ATOM     20  H   LIG d   1      -3.804  73.311 115.895  0.00  0.00    -0.090 HD
ATOM     21  H   LIG d   1      -4.582  72.403 117.015  0.00  0.00    -0.090 HD
ENDBRANCH   5  18
BRANCH   3  22
ATOM     22  C   LIG d   1      -9.115  73.360 116.866  0.00  0.00     0.382 C 
ATOM     23  O   LIG d   1      -9.089  72.114 116.720  0.00  0.00    -0.241 OA
ATOM     24  O   LIG d   1     -10.203  73.963 116.800  0.00  0.00    -0.241 OA
ENDBRANCH   3  22
TORSDOF 7
ENDMDL
MODEL 4
REMARK VINA RESULT:      -5.3      2.276      5.267
REMARK  7 active torsions:
REMARK  status: ('A' for Active; 'I' for Inactive)
REMARK    1  A    between atoms: C_2  and  C_3 
REMARK    2  A    between atoms: C_3  and  O_6 
REMARK    3  A    between atoms: C_3  and  C_4 
REMARK    4  A    between atoms: C_7  and  O_6 
REMARK    5  A    between atoms: C_9  and  C_10 
REMARK    6  A    between atoms: N_15  and  C_14 
REMARK    7  A    between atoms: N_20  and  C_19 
REMARK       I    between atoms: C_22  and  N_20 
ROOT
ATOM      1  C   LIG d   1      -7.532  75.977 116.692  0.00  0.00     0.161 C 
ATOM      2  C   LIG d   1      -8.484  74.962 116.886  0.00  0.00     0.016 C 
ATOM      3  C   LIG d   1      -8.144  73.604 117.085  0.00  0.00     0.038 C 
ATOM      4  C   LIG d   1      -6.815  73.189 117.255  0.00  0.00     0.028 C 
ATOM      5  C   LIG d   1      -5.804  74.099 116.565  0.00  0.00    -0.047 C 
ATOM      6  C   LIG d   1      -6.075  75.561 116.985  0.00  0.00     0.091 C 
ENDROOT
BRANCH   1   7
ATOM      7  O   LIG d   1      -7.888  77.136 117.471  0.00  0.00    -0.368 OA
BRANCH   7   8
ATOM      8  C   LIG d   1      -7.528  77.098 118.873  0.00  0.00     0.119 C 
BRANCH   8   9
ATOM      9  C   LIG d   1      -8.810  77.355 119.688  0.00  0.00     0.028 C 
ATOM     10  C   LIG d   1      -9.962  77.887 118.818  0.00  0.00     0.006 C 
ENDBRANCH   8   9
BRANCH   8  11
ATOM     11  C   LIG d   1      -6.580  78.245 119.237  0.00  0.00     0.028 C 
ATOM     12  C   LIG d   1      -6.555  79.356 118.175  0.00  0.00     0.006 C 
ENDBRANCH   8  11
ENDBRANCH   7   8
ENDBRANCH   1   7
BRANCH   6  13
ATOM     13  N   LIG d   1      -5.184  76.526 116.290  0.00  0.00    -0.311 N 
ATOM     14  C   LIG d   1      -4.046  76.980 116.812  0.00  0.00     0.210 C 
ATOM     15  C   LIG d   1      -3.288  77.983 115.936  0.00  0.00     0.109 C 
ATOM     16  O   LIG d   1      -3.576  76.623 117.902  0.00  0.00    -0.276 OA
ATOM     17  H   LIG d   1      -5.473  76.844 115.385  0.00  0.00     0.149 HD
ENDBRANCH   6  13
BRANCH   5  18
ATOM     18  N   LIG d   1      -4.456  73.630 116.938  0.00  0.00     0.381 N 
ATOM     19  H   LIG d   1      -4.328  72.687 116.631  0.00  0.00    -0.090 HD
ATOM     20  H   LIG d   1      -4.370  73.651 117.939  0.00  0.00    -0.090 HD
ATOM     21  H   LIG d   1      -3.765  74.217 116.526  0.00  0.00    -0.090 HD
ENDBRANCH   5  18
BRANCH   3  22
ATOM     22  C   LIG d   1      -9.139  72.638 117.076  0.00  0.00     0.382 C 
ATOM     23  O   LIG d   1     -10.300  72.930 117.452  0.00  0.00    -0.241 OA
ATOM     24  O   LIG d   1      -8.880  71.468 116.738  0.00  0.00    -0.241 OA
ENDBRANCH   3  22
TORSDOF 7
ENDMDL
MODEL 5
REMARK VINA RESULT:      -5.2     14.677     17.305
REMARK  7 active torsions:
REMARK  status: ('A' for Active; 'I' for Inactive)
REMARK    1  A    between atoms: C_2  and  C_3 
REMARK    2  A    between atoms: C_3  and  O_6 
REMARK    3  A    between atoms: C_3  and  C_4 
REMARK    4  A    between atoms: C_7  and  O_6 
REMARK    5  A    between atoms: C_9  and  C_10 
REMARK    6  A    between atoms: N_15  and  C_14 
REMARK    7  A    between atoms: N_20  and  C_19 
REMARK       I    between atoms: C_22  and  N_20 
ROOT
ATOM      1  C   LIG d   1      -3.867  90.756 117.984  0.00  0.00     0.161 C 
ATOM      2  C   LIG d   1      -4.727  89.985 117.186  0.00  0.00     0.016 C 
ATOM      3  C   LIG d   1      -5.939  90.475 116.648  0.00  0.00     0.038 C 
ATOM      4  C   LIG d   1      -6.301  91.827 116.748  0.00  0.00     0.028 C 
ATOM      5  C   LIG d   1      -5.714  92.522 117.972  0.00  0.00    -0.047 C 
ATOM      6  C   LIG d   1      -4.190  92.265 118.012  0.00  0.00     0.091 C 
ENDROOT
BRANCH   1   7
ATOM      7  O   LIG d   1      -2.500  90.544 117.577  0.00  0.00    -0.368 OA
BRANCH   7   8
ATOM      8  C   LIG d   1      -1.664  89.813 118.507  0.00  0.00     0.119 C 
BRANCH   8   9
ATOM      9  C   LIG d   1      -0.322  90.563 118.612  0.00  0.00     0.028 C 
ATOM     10  C   LIG d   1       0.277  90.888 117.233  0.00  0.00     0.006 C 
ENDBRANCH   8   9
BRANCH   8  11
ATOM     11  C   LIG d   1      -1.312  88.424 117.966  0.00  0.00     0.028 C 
ATOM     12  C   LIG d   1      -1.794  87.288 118.882  0.00  0.00     0.006 C 
ENDBRANCH   8  11
ENDBRANCH   7   8
ENDBRANCH   1   7
BRANCH   6  13
ATOM     13  N   LIG d   1      -3.550  92.840 119.224  0.00  0.00    -0.311 N 
ATOM     14  C   LIG d   1      -2.434  93.566 119.189  0.00  0.00     0.210 C 
ATOM     15  C   LIG d   1      -1.932  94.046 120.555  0.00  0.00     0.109 C 
ATOM     16  O   LIG d   1      -1.831  93.886 118.154  0.00  0.00    -0.276 OA
ATOM     17  H   LIG d   1      -3.991  92.655 120.104  0.00  0.00     0.149 HD
ENDBRANCH   6  13
BRANCH   5  18
ATOM     18  N   LIG d   1      -6.057  93.954 117.879  0.00  0.00     0.381 N 
ATOM     19  H   LIG d   1      -6.096  94.230 116.918  0.00  0.00    -0.090 HD
ATOM     20  H   LIG d   1      -5.338  94.490 118.332  0.00  0.00    -0.090 HD
ATOM     21  H   LIG d   1      -6.935  94.123 118.317  0.00  0.00    -0.090 HD
ENDBRANCH   5  18
BRANCH   3  22
ATOM     22  C   LIG d   1      -6.823  89.600 116.035  0.00  0.00     0.382 C 
ATOM     23  O   LIG d   1      -7.609  88.914 116.731  0.00  0.00    -0.241 OA
ATOM     24  O   LIG d   1      -6.813  89.456 114.798  0.00  0.00    -0.241 OA
ENDBRANCH   3  22
TORSDOF 7
ENDMDL
MODEL 6
REMARK VINA RESULT:      -5.1     16.027     18.906
REMARK  7 active torsions:
REMARK  status: ('A' for Active; 'I' for Inactive)
REMARK    1  A    between atoms: C_2  and  C_3 
REMARK    2  A    between atoms: C_3  and  O_6 
REMARK    3  A    between atoms: C_3  and  C_4 
REMARK    4  A    between atoms: C_7  and  O_6 
REMARK    5  A    between atoms: C_9  and  C_10 
REMARK    6  A    between atoms: N_15  and  C_14 
REMARK    7  A    between atoms: N_20  and  C_19 
REMARK       I    between atoms: C_22  and  N_20 
ROOT
ATOM      1  C   LIG d   1      -6.307  92.232 118.907  0.00  0.00     0.161 C 
ATOM      2  C   LIG d   1      -7.547  92.891 118.887  0.00  0.00     0.016 C 
ATOM      3  C   LIG d   1      -7.691  94.285 119.070  0.00  0.00     0.038 C 
ATOM      4  C   LIG d   1      -6.582  95.143 119.134  0.00  0.00     0.028 C 
ATOM      5  C   LIG d   1      -5.323  94.465 119.664  0.00  0.00    -0.047 C 
ATOM      6  C   LIG d   1      -5.078  93.165 118.865  0.00  0.00     0.091 C 
ENDROOT
BRANCH   1   7
ATOM      7  O   LIG d   1      -6.245  91.274 117.832  0.00  0.00    -0.368 OA
BRANCH   7   8
ATOM      8  C   LIG d   1      -5.443  91.652 116.686  0.00  0.00     0.119 C 
BRANCH   8   9
ATOM      9  C   LIG d   1      -6.409  92.096 115.571  0.00  0.00     0.028 C 
ATOM     10  C   LIG d   1      -6.697  90.972 114.561  0.00  0.00     0.006 C 
ENDBRANCH   8   9
BRANCH   8  11
ATOM     11  C   LIG d   1      -4.688  90.450 116.113  0.00  0.00     0.028 C 
ATOM     12  C   LIG d   1      -4.032  89.585 117.201  0.00  0.00     0.006 C 
ENDBRANCH   8  11
ENDBRANCH   7   8
ENDBRANCH   1   7
BRANCH   6  13
ATOM     13  N   LIG d   1      -3.913  92.397 119.374  0.00  0.00    -0.311 N 
ATOM     14  C   LIG d   1      -2.680  92.524 118.885  0.00  0.00     0.210 C 
ATOM     15  C   LIG d   1      -1.628  91.624 119.541  0.00  0.00     0.109 C 
ATOM     16  O   LIG d   1      -2.353  93.319 117.992  0.00  0.00    -0.276 OA
ATOM     17  H   LIG d   1      -4.083  91.751 120.120  0.00  0.00     0.149 HD
ENDBRANCH   6  13
BRANCH   5  18
ATOM     18  N   LIG d   1      -4.215  95.432 119.548  0.00  0.00     0.381 N 
ATOM     19  H   LIG d   1      -3.383  94.960 119.256  0.00  0.00    -0.090 HD
ATOM     20  H   LIG d   1      -4.045  95.842 120.450  0.00  0.00    -0.090 HD
ATOM     21  H   LIG d   1      -4.450  96.143 118.891  0.00  0.00    -0.090 HD
ENDBRANCH   5  18
BRANCH   3  22
ATOM     22  C   LIG d   1      -8.956  94.831 119.230  0.00  0.00     0.382 C 
ATOM     23  O   LIG d   1      -9.124  96.068 119.111  0.00  0.00    -0.241 OA
ATOM     24  O   LIG d   1      -9.922  94.107 119.536  0.00  0.00    -0.241 OA
ENDBRANCH   3  22
TORSDOF 7
ENDMDL
MODEL 7
REMARK VINA RESULT:      -4.9      2.617      5.415
REMARK  7 active torsions:
REMARK  status: ('A' for Active; 'I' for Inactive)
REMARK    1  A    between atoms: C_2  and  C_3 
REMARK    2  A    between atoms: C_3  and  O_6 
REMARK    3  A    between atoms: C_3  and  C_4 
REMARK    4  A    between atoms: C_7  and  O_6 
REMARK    5  A    between atoms: C_9  and  C_10 
REMARK    6  A    between atoms: N_15  and  C_14 
REMARK    7  A    between atoms: N_20  and  C_19 
REMARK       I    between atoms: C_22  and  N_20 
ROOT
ATOM      1  C   LIG d   1      -3.346  74.353 116.523  0.00  0.00     0.161 C 
ATOM      2  C   LIG d   1      -2.409  75.318 116.118  0.00  0.00     0.016 C 
ATOM      3  C   LIG d   1      -2.762  76.631 115.729  0.00  0.00     0.038 C 
ATOM      4  C   LIG d   1      -4.071  77.117 115.864  0.00  0.00     0.028 C 
ATOM      5  C   LIG d   1      -5.133  76.026 115.790  0.00  0.00    -0.047 C 
ATOM      6  C   LIG d   1      -4.765  74.899 116.782  0.00  0.00     0.091 C 
ENDROOT
BRANCH   1   7
ATOM      7  O   LIG d   1      -2.857  73.655 117.685  0.00  0.00    -0.368 OA
BRANCH   7   8
ATOM      8  C   LIG d   1      -1.703  74.237 118.340  0.00  0.00     0.119 C 
BRANCH   8   9
ATOM      9  C   LIG d   1      -0.743  73.086 118.697  0.00  0.00     0.028 C 
ATOM     10  C   LIG d   1      -1.247  72.250 119.886  0.00  0.00     0.006 C 
ENDBRANCH   8   9
BRANCH   8  11
ATOM     11  C   LIG d   1      -2.086  74.876 119.678  0.00  0.00     0.028 C 
ATOM     12  C   LIG d   1      -2.166  76.409 119.606  0.00  0.00     0.006 C 
ENDBRANCH   8  11
ENDBRANCH   7   8
ENDBRANCH   1   7
BRANCH   6  13
ATOM     13  N   LIG d   1      -5.708  73.752 116.713  0.00  0.00    -0.311 N 
ATOM     14  C   LIG d   1      -6.819  73.671 117.443  0.00  0.00     0.210 C 
ATOM     15  C   LIG d   1      -7.639  72.395 117.233  0.00  0.00     0.109 C 
ATOM     16  O   LIG d   1      -7.220  74.550 118.221  0.00  0.00    -0.276 OA
ATOM     17  H   LIG d   1      -5.476  73.009 116.084  0.00  0.00     0.149 HD
ENDBRANCH   6  13
BRANCH   5  18
ATOM     18  N   LIG d   1      -6.436  76.652 116.083  0.00  0.00     0.381 N 
ATOM     19  H   LIG d   1      -6.527  77.503 115.566  0.00  0.00    -0.090 HD
ATOM     20  H   LIG d   1      -6.478  76.872 117.063  0.00  0.00    -0.090 HD
ATOM     21  H   LIG d   1      -7.176  76.028 115.843  0.00  0.00    -0.090 HD
ENDBRANCH   5  18
BRANCH   3  22
ATOM     22  C   LIG d   1      -1.807  77.460 115.161  0.00  0.00     0.382 C 
ATOM     23  O   LIG d   1      -1.027  77.011 114.286  0.00  0.00    -0.241 OA
ATOM     24  O   LIG d   1      -1.686  78.639 115.543  0.00  0.00    -0.241 OA
ENDBRANCH   3  22
TORSDOF 7
ENDMDL
MODEL 8
REMARK VINA RESULT:      -4.8     16.005     18.584
REMARK  7 active torsions:
REMARK  status: ('A' for Active; 'I' for Inactive)
REMARK    1  A    between atoms: C_2  and  C_3 
REMARK    2  A    between atoms: C_3  and  O_6 
REMARK    3  A    between atoms: C_3  and  C_4 
REMARK    4  A    between atoms: C_7  and  O_6 
REMARK    5  A    between atoms: C_9  and  C_10 
REMARK    6  A    between atoms: N_15  and  C_14 
REMARK    7  A    between atoms: N_20  and  C_19 
REMARK       I    between atoms: C_22  and  N_20 
ROOT
ATOM      1  C   LIG d   1      -5.201  92.265 118.498  0.00  0.00     0.161 C 
ATOM      2  C   LIG d   1      -6.488  92.649 118.087  0.00  0.00     0.016 C 
ATOM      3  C   LIG d   1      -7.069  93.897 118.411  0.00  0.00     0.038 C 
ATOM      4  C   LIG d   1      -6.338  94.912 119.046  0.00  0.00     0.028 C 
ATOM      5  C   LIG d   1      -5.207  94.386 119.923  0.00  0.00    -0.047 C 
ATOM      6  C   LIG d   1      -4.347  93.403 119.097  0.00  0.00     0.091 C 
ENDROOT
BRANCH   1   7
ATOM      7  O   LIG d   1      -4.504  91.639 117.403  0.00  0.00    -0.368 OA
BRANCH   7   8
ATOM      8  C   LIG d   1      -4.636  90.200 117.303  0.00  0.00     0.119 C 
BRANCH   8   9
ATOM      9  C   LIG d   1      -3.254  89.586 117.599  0.00  0.00     0.028 C 
ATOM     10  C   LIG d   1      -3.092  89.192 119.076  0.00  0.00     0.006 C 
ENDBRANCH   8   9
BRANCH   8  11
ATOM     11  C   LIG d   1      -4.973  89.769 115.872  0.00  0.00     0.028 C 
ATOM     12  C   LIG d   1      -6.478  89.834 115.569  0.00  0.00     0.006 C 
ENDBRANCH   8  11
ENDBRANCH   7   8
ENDBRANCH   1   7
BRANCH   6  13
ATOM     13  N   LIG d   1      -3.267  92.778 119.904  0.00  0.00    -0.311 N 
ATOM     14  C   LIG d   1      -1.993  92.736 119.517  0.00  0.00     0.210 C 
ATOM     15  C   LIG d   1      -1.045  92.027 120.489  0.00  0.00     0.109 C 
ATOM     16  O   LIG d   1      -1.553  93.247 118.476  0.00  0.00    -0.276 OA
ATOM     17  H   LIG d   1      -3.531  92.366 120.778  0.00  0.00     0.149 HD
ENDBRANCH   6  13
BRANCH   5  18
ATOM     18  N   LIG d   1      -4.444  95.551 120.412  0.00  0.00     0.381 N 
ATOM     19  H   LIG d   1      -4.525  95.614 121.407  0.00  0.00    -0.090 HD
ATOM     20  H   LIG d   1      -4.832  96.386 120.010  0.00  0.00    -0.090 HD
ATOM     21  H   LIG d   1      -3.486  95.463 120.154  0.00  0.00    -0.090 HD
ENDBRANCH   5  18
BRANCH   3  22
ATOM     22  C   LIG d   1      -8.409  94.124 118.135  0.00  0.00     0.382 C 
ATOM     23  O   LIG d   1      -9.206  94.385 119.068  0.00  0.00    -0.241 OA
ATOM     24  O   LIG d   1      -8.839  94.026 116.970  0.00  0.00    -0.241 OA
ENDBRANCH   3  22
TORSDOF 7
ENDMDL
MODEL 9
REMARK VINA RESULT:      -4.7     15.538     17.914
REMARK  7 active torsions:
REMARK  status: ('A' for Active; 'I' for Inactive)
REMARK    1  A    between atoms: C_2  and  C_3 
REMARK    2  A    between atoms: C_3  and  O_6 
REMARK    3  A    between atoms: C_3  and  C_4 
REMARK    4  A    between atoms: C_7  and  O_6 
REMARK    5  A    between atoms: C_9  and  C_10 
REMARK    6  A    between atoms: N_15  and  C_14 
REMARK    7  A    between atoms: N_20  and  C_19 
REMARK       I    between atoms: C_22  and  N_20 
ROOT
ATOM      1  C   LIG d   1      -5.587  91.797 118.312  0.00  0.00     0.161 C 
ATOM      2  C   LIG d   1      -6.281  91.486 117.131  0.00  0.00     0.016 C 
ATOM      3  C   LIG d   1      -5.813  90.554 116.176  0.00  0.00     0.038 C 
ATOM      4  C   LIG d   1      -4.687  89.752 116.412  0.00  0.00     0.028 C 
ATOM      5  C   LIG d   1      -3.677  90.391 117.360  0.00  0.00    -0.047 C 
ATOM      6  C   LIG d   1      -4.412  90.851 118.640  0.00  0.00     0.091 C 
ENDROOT
BRANCH   1   7
ATOM      7  O   LIG d   1      -6.508  91.854 119.419  0.00  0.00    -0.368 OA
BRANCH   7   8
ATOM      8  C   LIG d   1      -6.894  93.180 119.859  0.00  0.00     0.119 C 
BRANCH   8   9
ATOM      9  C   LIG d   1      -8.313  93.450 119.324  0.00  0.00     0.028 C 
ATOM     10  C   LIG d   1      -8.322  94.471 118.174  0.00  0.00     0.006 C 
ENDBRANCH   8   9
BRANCH   8  11
ATOM     11  C   LIG d   1      -6.009  94.257 119.225  0.00  0.00     0.028 C 
ATOM     12  C   LIG d   1      -5.258  95.100 120.267  0.00  0.00     0.006 C 
ENDBRANCH   8  11
ENDBRANCH   7   8
ENDBRANCH   1   7
BRANCH   6  13
ATOM     13  N   LIG d   1      -3.513  91.562 119.585  0.00  0.00    -0.311 N 
ATOM     14  C   LIG d   1      -2.744  92.591 119.233  0.00  0.00     0.210 C 
ATOM     15  C   LIG d   1      -1.877  93.166 120.357  0.00  0.00     0.109 C 
ATOM     16  O   LIG d   1      -2.721  93.103 118.103  0.00  0.00    -0.276 OA
ATOM     17  H   LIG d   1      -3.492  91.233 120.531  0.00  0.00     0.149 HD
ENDBRANCH   6  13
BRANCH   5  18
ATOM     18  N   LIG d   1      -2.623  89.394 117.626  0.00  0.00     0.381 N 
ATOM     19  H   LIG d   1      -2.781  88.578 117.069  0.00  0.00    -0.090 HD
ATOM     20  H   LIG d   1      -2.664  89.127 118.594  0.00  0.00    -0.090 HD
ATOM     21  H   LIG d   1      -1.729  89.779 117.418  0.00  0.00    -0.090 HD
ENDBRANCH   5  18
BRANCH   3  22
ATOM     22  C   LIG d   1      -6.454  90.445 114.951  0.00  0.00     0.382 C 
ATOM     23  O   LIG d   1      -6.667  91.472 114.262  0.00  0.00    -0.241 OA
ATOM     24  O   LIG d   1      -6.862  89.340 114.547  0.00  0.00    -0.241 OA
ENDBRANCH   3  22
TORSDOF 7
ENDMDL
