MODEL 1
REMARK VINA RESULT:      -5.7      0.000      0.000
REMARK  7 active torsions:
REMARK  status: ('A' for Active; 'I' for Inactive)
REMARK    1  A    between atoms: C_2  and  C_3 
REMARK    2  A    between atoms: C_3  and  O_6 
REMARK    3  A    between atoms: C_3  and  C_4 
REMARK    4  A    between atoms: C_7  and  O_6 
REMARK    5  A    between atoms: C_9  and  C_10 
REMARK    6  A    between atoms: N_15  and  C_14 
REMARK    7  A    between atoms: N_20  and  C_19 
REMARK       I    between atoms: C_22  and  N_20 
ROOT
ATOM      1  C   LIG d   1      -5.704  77.890 117.186  0.00  0.00     0.161 C 
ATOM      2  C   LIG d   1      -5.659  76.591 116.650  0.00  0.00     0.016 C 
ATOM      3  C   LIG d   1      -6.792  75.751 116.551  0.00  0.00     0.038 C 
ATOM      4  C   LIG d   1      -8.085  76.211 116.844  0.00  0.00     0.028 C 
ATOM      5  C   LIG d   1      -8.107  77.346 117.863  0.00  0.00    -0.047 C 
ATOM      6  C   LIG d   1      -7.125  78.449 117.407  0.00  0.00     0.091 C 
ENDROOT
BRANCH   1   7
ATOM      7  O   LIG d   1      -4.936  78.786 116.358  0.00  0.00    -0.368 OA
BRANCH   7   8
ATOM      8  C   LIG d   1      -3.580  79.050 116.793  0.00  0.00     0.119 C 
BRANCH   8   9
ATOM      9  C   LIG d   1      -3.577  80.424 117.492  0.00  0.00     0.028 C 
ATOM     10  C   LIG d   1      -3.472  80.304 119.022  0.00  0.00     0.006 C 
ENDBRANCH   8   9
BRANCH   8  11
ATOM     11  C   LIG d   1      -2.631  79.200 115.600  0.00  0.00     0.028 C 
ATOM     12  C   LIG d   1      -2.588  80.634 115.050  0.00  0.00     0.006 C 
ENDBRANCH   8  11
ENDBRANCH   7   8
ENDBRANCH   1   7
BRANCH   6  13
ATOM     13  N   LIG d   1      -7.023  79.559 118.391  0.00  0.00    -0.311 N 
ATOM     14  C   LIG d   1      -7.273  80.832 118.088  0.00  0.00     0.210 C 
ATOM     15  C   LIG d   1      -7.089  81.819 119.245  0.00  0.00     0.109 C 
ATOM     16  O   LIG d   1      -7.660  81.232 116.980  0.00  0.00    -0.276 OA
ATOM     17  H   LIG d   1      -6.745  79.319 119.322  0.00  0.00     0.149 HD
ENDBRANCH   6  13
BRANCH   5  18
ATOM     18  N   LIG d   1      -9.500  77.820 117.971  0.00  0.00     0.381 N 
ATOM     19  H   LIG d   1      -9.569  78.507 118.695  0.00  0.00    -0.090 HD
ATOM     20  H   LIG d   1     -10.090  77.044 118.215  0.00  0.00    -0.090 HD
ATOM     21  H   LIG d   1      -9.795  78.211 117.103  0.00  0.00    -0.090 HD
ENDBRANCH   5  18
BRANCH   3  22
ATOM     22  C   LIG d   1      -6.632  74.421 116.193  0.00  0.00     0.382 C 
ATOM     23  O   LIG d   1      -7.270  73.527 116.800  0.00  0.00    -0.241 OA
ATOM     24  O   LIG d   1      -5.824  74.100 115.301  0.00  0.00    -0.241 OA
ENDBRANCH   3  22
TORSDOF 7
ENDMDL
MODEL 2
REMARK VINA RESULT:      -5.4      2.569      4.480
REMARK  7 active torsions:
REMARK  status: ('A' for Active; 'I' for Inactive)
REMARK    1  A    between atoms: C_2  and  C_3 
REMARK    2  A    between atoms: C_3  and  O_6 
REMARK    3  A    between atoms: C_3  and  C_4 
REMARK    4  A    between atoms: C_7  and  O_6 
REMARK    5  A    between atoms: C_9  and  C_10 
REMARK    6  A    between atoms: N_15  and  C_14 
REMARK    7  A    between atoms: N_20  and  C_19 
REMARK       I    between atoms: C_22  and  N_20 
ROOT
ATOM      1  C   LIG d   1      -5.893  77.815 116.948  0.00  0.00     0.161 C 
ATOM      2  C   LIG d   1      -7.247  77.788 117.319  0.00  0.00     0.016 C 
ATOM      3  C   LIG d   1      -8.059  76.635 117.217  0.00  0.00     0.038 C 
ATOM      4  C   LIG d   1      -7.528  75.382 116.875  0.00  0.00     0.028 C 
ATOM      5  C   LIG d   1      -6.277  75.471 116.007  0.00  0.00    -0.047 C 
ATOM      6  C   LIG d   1      -5.268  76.430 116.678  0.00  0.00     0.091 C 
ENDROOT
BRANCH   1   7
ATOM      7  O   LIG d   1      -5.128  78.525 117.942  0.00  0.00    -0.368 OA
BRANCH   7   8
ATOM      8  C   LIG d   1      -4.848  79.918 117.657  0.00  0.00     0.119 C 
BRANCH   8   9
ATOM      9  C   LIG d   1      -3.334  80.043 117.403  0.00  0.00     0.028 C 
ATOM     10  C   LIG d   1      -2.997  80.156 115.906  0.00  0.00     0.006 C 
ENDBRANCH   8   9
BRANCH   8  11
ATOM     11  C   LIG d   1      -5.130  80.804 118.874  0.00  0.00     0.028 C 
ATOM     12  C   LIG d   1      -6.631  81.054 119.094  0.00  0.00     0.006 C 
ENDBRANCH   8  11
ENDBRANCH   7   8
ENDBRANCH   1   7
BRANCH   6  13
ATOM     13  N   LIG d   1      -4.050  76.640 115.853  0.00  0.00    -0.311 N 
ATOM     14  C   LIG d   1      -2.923  75.950 116.021  0.00  0.00     0.210 C 
ATOM     15  C   LIG d   1      -1.781  76.337 115.076  0.00  0.00     0.109 C 
ATOM     16  O   LIG d   1      -2.771  75.032 116.841  0.00  0.00    -0.276 OA
ATOM     17  H   LIG d   1      -4.096  77.344 115.142  0.00  0.00     0.149 HD
ENDBRANCH   6  13
BRANCH   5  18
ATOM     18  N   LIG d   1      -5.752  74.102 115.842  0.00  0.00     0.381 N 
ATOM     19  H   LIG d   1      -6.505  73.445 115.867  0.00  0.00    -0.090 HD
ATOM     20  H   LIG d   1      -5.130  73.899 116.605  0.00  0.00    -0.090 HD
ATOM     21  H   LIG d   1      -5.264  74.027 114.977  0.00  0.00    -0.090 HD
ENDBRANCH   5  18
BRANCH   3  22
ATOM     22  C   LIG d   1      -9.427  76.737 117.419  0.00  0.00     0.382 C 
ATOM     23  O   LIG d   1     -10.176  75.771 117.139  0.00  0.00    -0.241 OA
ATOM     24  O   LIG d   1      -9.926  77.800 117.836  0.00  0.00    -0.241 OA
ENDBRANCH   3  22
TORSDOF 7
ENDMDL
MODEL 3
REMARK VINA RESULT:      -5.4      1.947      2.502
REMARK  7 active torsions:
REMARK  status: ('A' for Active; 'I' for Inactive)
REMARK    1  A    between atoms: C_2  and  C_3 
REMARK    2  A    between atoms: C_3  and  O_6 
REMARK    3  A    between atoms: C_3  and  C_4 
REMARK    4  A    between atoms: C_7  and  O_6 
REMARK    5  A    between atoms: C_9  and  C_10 
REMARK    6  A    between atoms: N_15  and  C_14 
REMARK    7  A    between atoms: N_20  and  C_19 
REMARK       I    between atoms: C_22  and  N_20 
ROOT
ATOM      1  C   LIG d   1      -4.927  76.383 116.285  0.00  0.00     0.161 C 
ATOM      2  C   LIG d   1      -5.289  75.068 115.949  0.00  0.00     0.016 C 
ATOM      3  C   LIG d   1      -6.544  74.501 116.266  0.00  0.00     0.038 C 
ATOM      4  C   LIG d   1      -7.587  75.265 116.811  0.00  0.00     0.028 C 
ATOM      5  C   LIG d   1      -7.100  76.458 117.627  0.00  0.00    -0.047 C 
ATOM      6  C   LIG d   1      -6.091  77.267 116.780  0.00  0.00     0.091 C 
ENDROOT
BRANCH   1   7
ATOM      7  O   LIG d   1      -4.264  77.008 115.168  0.00  0.00    -0.368 OA
BRANCH   7   8
ATOM      8  C   LIG d   1      -2.994  76.431 114.776  0.00  0.00     0.119 C 
BRANCH   8   9
ATOM      9  C   LIG d   1      -2.110  76.360 116.037  0.00  0.00     0.028 C 
ATOM     10  C   LIG d   1      -1.132  75.173 116.001  0.00  0.00     0.006 C 
ENDBRANCH   8   9
BRANCH   8  11
ATOM     11  C   LIG d   1      -2.242  77.346 113.805  0.00  0.00     0.028 C 
ATOM     12  C   LIG d   1      -2.311  78.828 114.208  0.00  0.00     0.006 C 
ENDBRANCH   8  11
ENDBRANCH   7   8
ENDBRANCH   1   7
BRANCH   6  13
ATOM     13  N   LIG d   1      -5.502  78.404 117.534  0.00  0.00    -0.311 N 
ATOM     14  C   LIG d   1      -6.070  79.607 117.609  0.00  0.00     0.210 C 
ATOM     15  C   LIG d   1      -5.287  80.643 118.421  0.00  0.00     0.109 C 
ATOM     16  O   LIG d   1      -7.165  79.904 117.107  0.00  0.00    -0.276 OA
ATOM     17  H   LIG d   1      -4.630  78.242 117.998  0.00  0.00     0.149 HD
ENDBRANCH   6  13
BRANCH   5  18
ATOM     18  N   LIG d   1      -8.286  77.243 118.019  0.00  0.00     0.381 N 
ATOM     19  H   LIG d   1      -9.118  76.740 117.784  0.00  0.00    -0.090 HD
ATOM     20  H   LIG d   1      -8.286  78.109 117.509  0.00  0.00    -0.090 HD
ATOM     21  H   LIG d   1      -8.265  77.426 118.998  0.00  0.00    -0.090 HD
ENDBRANCH   5  18
BRANCH   3  22
ATOM     22  C   LIG d   1      -6.754  73.144 116.074  0.00  0.00     0.382 C 
ATOM     23  O   LIG d   1      -7.352  72.472 116.948  0.00  0.00    -0.241 OA
ATOM     24  O   LIG d   1      -6.313  72.574 115.058  0.00  0.00    -0.241 OA
ENDBRANCH   3  22
TORSDOF 7
ENDMDL
MODEL 4
REMARK VINA RESULT:      -5.2     11.435     13.622
REMARK  7 active torsions:
REMARK  status: ('A' for Active; 'I' for Inactive)
REMARK    1  A    between atoms: C_2  and  C_3 
REMARK    2  A    between atoms: C_3  and  O_6 
REMARK    3  A    between atoms: C_3  and  C_4 
REMARK    4  A    between atoms: C_7  and  O_6 
REMARK    5  A    between atoms: C_9  and  C_10 
REMARK    6  A    between atoms: N_15  and  C_14 
REMARK    7  A    between atoms: N_20  and  C_19 
REMARK       I    between atoms: C_22  and  N_20 
ROOT
ATOM      1  C   LIG d   1      -2.959  90.752 117.820  0.00  0.00     0.161 C 
ATOM      2  C   LIG d   1      -3.753  89.952 116.981  0.00  0.00     0.016 C 
ATOM      3  C   LIG d   1      -5.003  90.366 116.466  0.00  0.00     0.038 C 
ATOM      4  C   LIG d   1      -5.478  91.675 116.635  0.00  0.00     0.028 C 
ATOM      5  C   LIG d   1      -4.948  92.354 117.894  0.00  0.00    -0.047 C 
ATOM      6  C   LIG d   1      -3.408  92.224 117.924  0.00  0.00     0.091 C 
ENDROOT
BRANCH   1   7
ATOM      7  O   LIG d   1      -1.581  90.677 117.405  0.00  0.00    -0.368 OA
BRANCH   7   8
ATOM      8  C   LIG d   1      -0.723  89.817 118.195  0.00  0.00     0.119 C 
BRANCH   8   9
ATOM      9  C   LIG d   1       0.592  90.579 118.447  0.00  0.00     0.028 C 
ATOM     10  C   LIG d   1       0.780  91.761 117.481  0.00  0.00     0.006 C 
ENDBRANCH   8   9
BRANCH   8  11
ATOM     11  C   LIG d   1      -0.321  88.562 117.414  0.00  0.00     0.028 C 
ATOM     12  C   LIG d   1      -1.031  87.295 117.916  0.00  0.00     0.006 C 
ENDBRANCH   8  11
ENDBRANCH   7   8
ENDBRANCH   1   7
BRANCH   6  13
ATOM     13  N   LIG d   1      -2.816  92.788 119.165  0.00  0.00    -0.311 N 
ATOM     14  C   LIG d   1      -1.912  93.766 119.167  0.00  0.00     0.210 C 
ATOM     15  C   LIG d   1      -1.417  94.186 120.555  0.00  0.00     0.109 C 
ATOM     16  O   LIG d   1      -1.497  94.348 118.153  0.00  0.00    -0.276 OA
ATOM     17  H   LIG d   1      -3.120  92.396 120.035  0.00  0.00     0.149 HD
ENDBRANCH   6  13
BRANCH   5  18
ATOM     18  N   LIG d   1      -5.410  93.755 117.873  0.00  0.00     0.381 N 
ATOM     19  H   LIG d   1      -4.640  94.363 117.679  0.00  0.00    -0.090 HD
ATOM     20  H   LIG d   1      -5.777  93.989 118.779  0.00  0.00    -0.090 HD
ATOM     21  H   LIG d   1      -6.117  93.870 117.181  0.00  0.00    -0.090 HD
ENDBRANCH   5  18
BRANCH   3  22
ATOM     22  C   LIG d   1      -5.812  89.452 115.808  0.00  0.00     0.382 C 
ATOM     23  O   LIG d   1      -6.852  89.022 116.362  0.00  0.00    -0.241 OA
ATOM     24  O   LIG d   1      -5.491  89.019 114.685  0.00  0.00    -0.241 OA
ENDBRANCH   3  22
TORSDOF 7
ENDMDL
MODEL 5
REMARK VINA RESULT:      -4.9      2.630      4.391
REMARK  7 active torsions:
REMARK  status: ('A' for Active; 'I' for Inactive)
REMARK    1  A    between atoms: C_2  and  C_3 
REMARK    2  A    between atoms: C_3  and  O_6 
REMARK    3  A    between atoms: C_3  and  C_4 
REMARK    4  A    between atoms: C_7  and  O_6 
REMARK    5  A    between atoms: C_9  and  C_10 
REMARK    6  A    between atoms: N_15  and  C_14 
REMARK    7  A    between atoms: N_20  and  C_19 
REMARK       I    between atoms: C_22  and  N_20 
ROOT
ATOM      1  C   LIG d   1      -4.985  77.923 117.018  0.00  0.00     0.161 C 
ATOM      2  C   LIG d   1      -6.280  78.200 117.486  0.00  0.00     0.016 C 
ATOM      3  C   LIG d   1      -7.386  77.346 117.265  0.00  0.00     0.038 C 
ATOM      4  C   LIG d   1      -7.238  76.076 116.689  0.00  0.00     0.028 C 
ATOM      5  C   LIG d   1      -6.040  75.972 115.751  0.00  0.00    -0.047 C 
ATOM      6  C   LIG d   1      -4.782  76.490 116.484  0.00  0.00     0.091 C 
ENDROOT
BRANCH   1   7
ATOM      7  O   LIG d   1      -4.021  78.215 118.050  0.00  0.00    -0.368 OA
BRANCH   7   8
ATOM      8  C   LIG d   1      -3.159  79.355 117.813  0.00  0.00     0.119 C 
BRANCH   8   9
ATOM      9  C   LIG d   1      -3.472  80.404 118.897  0.00  0.00     0.028 C 
ATOM     10  C   LIG d   1      -2.439  80.395 120.037  0.00  0.00     0.006 C 
ENDBRANCH   8   9
BRANCH   8  11
ATOM     11  C   LIG d   1      -3.490  80.037 116.482  0.00  0.00     0.028 C 
ATOM     12  C   LIG d   1      -2.313  80.019 115.494  0.00  0.00     0.006 C 
ENDBRANCH   8  11
ENDBRANCH   7   8
ENDBRANCH   1   7
BRANCH   6  13
ATOM     13  N   LIG d   1      -3.581  76.502 115.609  0.00  0.00    -0.311 N 
ATOM     14  C   LIG d   1      -2.472  75.813 115.877  0.00  0.00     0.210 C 
ATOM     15  C   LIG d   1      -1.344  75.981 114.854  0.00  0.00     0.109 C 
ATOM     16  O   LIG d   1      -2.328  75.055 116.847  0.00  0.00    -0.276 OA
ATOM     17  H   LIG d   1      -3.623  77.067 114.784  0.00  0.00     0.149 HD
ENDBRANCH   6  13
BRANCH   5  18
ATOM     18  N   LIG d   1      -5.925  74.563 115.330  0.00  0.00     0.381 N 
ATOM     19  H   LIG d   1      -4.963  74.332 115.180  0.00  0.00    -0.090 HD
ATOM     20  H   LIG d   1      -6.417  74.441 114.462  0.00  0.00    -0.090 HD
ATOM     21  H   LIG d   1      -6.313  73.966 116.026  0.00  0.00    -0.090 HD
ENDBRANCH   5  18
BRANCH   3  22
ATOM     22  C   LIG d   1      -8.663  77.779 117.588  0.00  0.00     0.382 C 
ATOM     23  O   LIG d   1      -8.854  78.971 117.928  0.00  0.00    -0.241 OA
ATOM     24  O   LIG d   1      -9.620  76.981 117.586  0.00  0.00    -0.241 OA
ENDBRANCH   3  22
TORSDOF 7
ENDMDL
MODEL 6
REMARK VINA RESULT:      -4.8     10.986     13.591
REMARK  7 active torsions:
REMARK  status: ('A' for Active; 'I' for Inactive)
REMARK    1  A    between atoms: C_2  and  C_3 
REMARK    2  A    between atoms: C_3  and  O_6 
REMARK    3  A    between atoms: C_3  and  C_4 
REMARK    4  A    between atoms: C_7  and  O_6 
REMARK    5  A    between atoms: C_9  and  C_10 
REMARK    6  A    between atoms: N_15  and  C_14 
REMARK    7  A    between atoms: N_20  and  C_19 
REMARK       I    between atoms: C_22  and  N_20 
ROOT
ATOM      1  C   LIG d   1      -3.079  90.309 117.397  0.00  0.00     0.161 C 
ATOM      2  C   LIG d   1      -2.303  91.005 118.338  0.00  0.00     0.016 C 
ATOM      3  C   LIG d   1      -2.711  92.218 118.938  0.00  0.00     0.038 C 
ATOM      4  C   LIG d   1      -3.998  92.742 118.751  0.00  0.00     0.028 C 
ATOM      5  C   LIG d   1      -4.627  92.341 117.421  0.00  0.00    -0.047 C 
ATOM      6  C   LIG d   1      -4.534  90.807 117.263  0.00  0.00     0.091 C 
ENDROOT
BRANCH   1   7
ATOM      7  O   LIG d   1      -3.058  88.898 117.694  0.00  0.00    -0.368 OA
BRANCH   7   8
ATOM      8  C   LIG d   1      -1.759  88.329 117.991  0.00  0.00     0.119 C 
BRANCH   8   9
ATOM      9  C   LIG d   1      -1.490  87.222 116.953  0.00  0.00     0.028 C 
ATOM     10  C   LIG d   1       0.008  86.907 116.806  0.00  0.00     0.006 C 
ENDBRANCH   8   9
BRANCH   8  11
ATOM     11  C   LIG d   1      -1.759  87.621 119.349  0.00  0.00     0.028 C 
ATOM     12  C   LIG d   1      -0.866  88.322 120.386  0.00  0.00     0.006 C 
ENDBRANCH   8  11
ENDBRANCH   7   8
ENDBRANCH   1   7
BRANCH   6  13
ATOM     13  N   LIG d   1      -5.051  90.339 115.951  0.00  0.00    -0.311 N 
ATOM     14  C   LIG d   1      -6.324  90.009 115.739  0.00  0.00     0.210 C 
ATOM     15  C   LIG d   1      -6.641  89.533 114.319  0.00  0.00     0.109 C 
ATOM     16  O   LIG d   1      -7.227  90.097 116.585  0.00  0.00    -0.276 OA
ATOM     17  H   LIG d   1      -4.392  90.268 115.200  0.00  0.00     0.149 HD
ENDBRANCH   6  13
BRANCH   5  18
ATOM     18  N   LIG d   1      -6.016  92.839 117.416  0.00  0.00     0.381 N 
ATOM     19  H   LIG d   1      -6.651  92.074 117.530  0.00  0.00    -0.090 HD
ATOM     20  H   LIG d   1      -6.202  93.275 116.530  0.00  0.00    -0.090 HD
ATOM     21  H   LIG d   1      -6.144  93.499 118.152  0.00  0.00    -0.090 HD
ENDBRANCH   5  18
BRANCH   3  22
ATOM     22  C   LIG d   1      -1.811  92.941 119.707  0.00  0.00     0.382 C 
ATOM     23  O   LIG d   1      -1.014  92.343 120.469  0.00  0.00    -0.241 OA
ATOM     24  O   LIG d   1      -1.816  94.187 119.680  0.00  0.00    -0.241 OA
ENDBRANCH   3  22
TORSDOF 7
ENDMDL
MODEL 7
REMARK VINA RESULT:      -4.8      4.432      6.279
REMARK  7 active torsions:
REMARK  status: ('A' for Active; 'I' for Inactive)
REMARK    1  A    between atoms: C_2  and  C_3 
REMARK    2  A    between atoms: C_3  and  O_6 
REMARK    3  A    between atoms: C_3  and  C_4 
REMARK    4  A    between atoms: C_7  and  O_6 
REMARK    5  A    between atoms: C_9  and  C_10 
REMARK    6  A    between atoms: N_15  and  C_14 
REMARK    7  A    between atoms: N_20  and  C_19 
REMARK       I    between atoms: C_22  and  N_20 
ROOT
ATOM      1  C   LIG d   1      -1.076  77.489 115.483  0.00  0.00     0.161 C 
ATOM      2  C   LIG d   1      -2.396  77.192 115.105  0.00  0.00     0.016 C 
ATOM      3  C   LIG d   1      -3.050  75.985 115.445  0.00  0.00     0.038 C 
ATOM      4  C   LIG d   1      -2.476  75.052 116.320  0.00  0.00     0.028 C 
ATOM      5  C   LIG d   1      -0.951  75.077 116.317  0.00  0.00    -0.047 C 
ATOM      6  C   LIG d   1      -0.473  76.531 116.532  0.00  0.00     0.091 C 
ENDROOT
BRANCH   1   7
ATOM      7  O   LIG d   1      -0.994  78.852 115.944  0.00  0.00    -0.368 OA
BRANCH   7   8
ATOM      8  C   LIG d   1      -1.853  79.200 117.058  0.00  0.00     0.119 C 
BRANCH   8   9
ATOM      9  C   LIG d   1      -2.879  80.231 116.547  0.00  0.00     0.028 C 
ATOM     10  C   LIG d   1      -4.112  80.333 117.460  0.00  0.00     0.006 C 
ENDBRANCH   8   9
BRANCH   8  11
ATOM     11  C   LIG d   1      -1.071  79.919 118.161  0.00  0.00     0.028 C 
ATOM     12  C   LIG d   1       0.407  80.138 117.798  0.00  0.00     0.006 C 
ENDBRANCH   8  11
ENDBRANCH   7   8
ENDBRANCH   1   7
BRANCH   6  13
ATOM     13  N   LIG d   1       1.006  76.657 116.458  0.00  0.00    -0.311 N 
ATOM     14  C   LIG d   1       1.789  76.749 117.532  0.00  0.00     0.210 C 
ATOM     15  C   LIG d   1       3.284  76.893 117.233  0.00  0.00     0.109 C 
ATOM     16  O   LIG d   1       1.389  76.693 118.705  0.00  0.00    -0.276 OA
ATOM     17  H   LIG d   1       1.418  76.679 115.546  0.00  0.00     0.149 HD
ENDBRANCH   6  13
BRANCH   5  18
ATOM     18  N   LIG d   1      -0.488  74.154 117.371  0.00  0.00     0.381 N 
ATOM     19  H   LIG d   1       0.305  74.545 117.839  0.00  0.00    -0.090 HD
ATOM     20  H   LIG d   1      -0.208  73.288 116.945  0.00  0.00    -0.090 HD
ATOM     21  H   LIG d   1      -1.221  73.989 118.025  0.00  0.00    -0.090 HD
ENDBRANCH   5  18
BRANCH   3  22
ATOM     22  C   LIG d   1      -4.278  75.685 114.874  0.00  0.00     0.382 C 
ATOM     23  O   LIG d   1      -4.639  76.265 113.822  0.00  0.00    -0.241 OA
ATOM     24  O   LIG d   1      -5.048  74.874 115.423  0.00  0.00    -0.241 OA
ENDBRANCH   3  22
TORSDOF 7
ENDMDL
MODEL 8
REMARK VINA RESULT:      -4.8     19.756     22.475
REMARK  7 active torsions:
REMARK  status: ('A' for Active; 'I' for Inactive)
REMARK    1  A    between atoms: C_2  and  C_3 
REMARK    2  A    between atoms: C_3  and  O_6 
REMARK    3  A    between atoms: C_3  and  C_4 
REMARK    4  A    between atoms: C_7  and  O_6 
REMARK    5  A    between atoms: C_9  and  C_10 
REMARK    6  A    between atoms: N_15  and  C_14 
REMARK    7  A    between atoms: N_20  and  C_19 
REMARK       I    between atoms: C_22  and  N_20 
ROOT
ATOM      1  C   LIG d   1       1.460  57.760 118.965  0.00  0.00     0.161 C 
ATOM      2  C   LIG d   1       0.850  58.845 118.314  0.00  0.00     0.016 C 
ATOM      3  C   LIG d   1      -0.298  58.718 117.498  0.00  0.00     0.038 C 
ATOM      4  C   LIG d   1      -1.007  57.512 117.400  0.00  0.00     0.028 C 
ATOM      5  C   LIG d   1      -0.141  56.279 117.634  0.00  0.00    -0.047 C 
ATOM      6  C   LIG d   1       0.636  56.456 118.959  0.00  0.00     0.091 C 
ENDROOT
BRANCH   1   7
ATOM      7  O   LIG d   1       1.802  58.131 120.316  0.00  0.00    -0.368 OA
BRANCH   7   8
ATOM      8  C   LIG d   1       3.194  58.453 120.555  0.00  0.00     0.119 C 
BRANCH   8   9
ATOM      9  C   LIG d   1       3.378  59.955 120.261  0.00  0.00     0.028 C 
ATOM     10  C   LIG d   1       4.386  60.212 119.128  0.00  0.00     0.006 C 
ENDBRANCH   8   9
BRANCH   8  11
ATOM     11  C   LIG d   1       4.112  57.731 119.564  0.00  0.00     0.028 C 
ATOM     12  C   LIG d   1       4.865  56.553 120.200  0.00  0.00     0.006 C 
ENDBRANCH   8  11
ENDBRANCH   7   8
ENDBRANCH   1   7
BRANCH   6  13
ATOM     13  N   LIG d   1       1.571  55.332 119.222  0.00  0.00    -0.311 N 
ATOM     14  C   LIG d   1       2.245  54.699 118.263  0.00  0.00     0.210 C 
ATOM     15  C   LIG d   1       3.140  53.555 118.750  0.00  0.00     0.109 C 
ATOM     16  O   LIG d   1       2.211  54.997 117.060  0.00  0.00    -0.276 OA
ATOM     17  H   LIG d   1       1.683  55.045 120.175  0.00  0.00     0.149 HD
ENDBRANCH   6  13
BRANCH   5  18
ATOM     18  N   LIG d   1      -1.032  55.103 117.639  0.00  0.00     0.381 N 
ATOM     19  H   LIG d   1      -1.532  55.060 118.504  0.00  0.00    -0.090 HD
ATOM     20  H   LIG d   1      -0.473  54.272 117.556  0.00  0.00    -0.090 HD
ATOM     21  H   LIG d   1      -1.673  55.158 116.878  0.00  0.00    -0.090 HD
ENDBRANCH   5  18
BRANCH   3  22
ATOM     22  C   LIG d   1      -0.724  59.797 116.738  0.00  0.00     0.382 C 
ATOM     23  O   LIG d   1      -0.086  60.131 115.711  0.00  0.00    -0.241 OA
ATOM     24  O   LIG d   1      -1.712  60.467 117.092  0.00  0.00    -0.241 OA
ENDBRANCH   3  22
TORSDOF 7
ENDMDL
MODEL 9
REMARK VINA RESULT:      -4.8      2.278      3.674
REMARK  7 active torsions:
REMARK  status: ('A' for Active; 'I' for Inactive)
REMARK    1  A    between atoms: C_2  and  C_3 
REMARK    2  A    between atoms: C_3  and  O_6 
REMARK    3  A    between atoms: C_3  and  C_4 
REMARK    4  A    between atoms: C_7  and  O_6 
REMARK    5  A    between atoms: C_9  and  C_10 
REMARK    6  A    between atoms: N_15  and  C_14 
REMARK    7  A    between atoms: N_20  and  C_19 
REMARK       I    between atoms: C_22  and  N_20 
ROOT
ATOM      1  C   LIG d   1      -5.236  77.275 116.679  0.00  0.00     0.161 C 
ATOM      2  C   LIG d   1      -6.531  76.729 116.682  0.00  0.00     0.016 C 
ATOM      3  C   LIG d   1      -7.654  77.394 117.226  0.00  0.00     0.038 C 
ATOM      4  C   LIG d   1      -7.586  78.722 117.671  0.00  0.00     0.028 C 
ATOM      5  C   LIG d   1      -6.197  79.130 118.151  0.00  0.00    -0.047 C 
ATOM      6  C   LIG d   1      -5.163  78.768 117.060  0.00  0.00     0.091 C 
ENDROOT
BRANCH   1   7
ATOM      7  O   LIG d   1      -4.616  77.054 115.397  0.00  0.00    -0.368 OA
BRANCH   7   8
ATOM      8  C   LIG d   1      -3.719  75.919 115.309  0.00  0.00     0.119 C 
BRANCH   8   9
ATOM      9  C   LIG d   1      -3.223  75.611 116.735  0.00  0.00     0.028 C 
ATOM     10  C   LIG d   1      -1.744  75.981 116.935  0.00  0.00     0.006 C 
ENDBRANCH   8   9
BRANCH   8  11
ATOM     11  C   LIG d   1      -2.461  76.264 114.508  0.00  0.00     0.028 C 
ATOM     12  C   LIG d   1      -2.556  77.629 113.807  0.00  0.00     0.006 C 
ENDBRANCH   8  11
ENDBRANCH   7   8
ENDBRANCH   1   7
BRANCH   6  13
ATOM     13  N   LIG d   1      -3.768  79.057 117.483  0.00  0.00    -0.311 N 
ATOM     14  C   LIG d   1      -2.935  79.829 116.786  0.00  0.00     0.210 C 
ATOM     15  C   LIG d   1      -1.535  79.979 117.390  0.00  0.00     0.109 C 
ATOM     16  O   LIG d   1      -3.234  80.430 115.743  0.00  0.00    -0.276 OA
ATOM     17  H   LIG d   1      -3.453  78.635 118.334  0.00  0.00     0.149 HD
ENDBRANCH   6  13
BRANCH   5  18
ATOM     18  N   LIG d   1      -6.236  80.572 118.455  0.00  0.00     0.381 N 
ATOM     19  H   LIG d   1      -6.616  80.716 119.370  0.00  0.00    -0.090 HD
ATOM     20  H   LIG d   1      -6.834  81.029 117.790  0.00  0.00    -0.090 HD
ATOM     21  H   LIG d   1      -5.317  80.956 118.406  0.00  0.00    -0.090 HD
ENDBRANCH   5  18
BRANCH   3  22
ATOM     22  C   LIG d   1      -8.854  76.713 117.365  0.00  0.00     0.382 C 
ATOM     23  O   LIG d   1      -9.893  77.335 117.695  0.00  0.00    -0.241 OA
ATOM     24  O   LIG d   1      -8.902  75.479 117.209  0.00  0.00    -0.241 OA
ENDBRANCH   3  22
TORSDOF 7
ENDMDL
