MODEL 1
REMARK VINA RESULT:      -5.3      0.000      0.000
REMARK  7 active torsions:
REMARK  status: ('A' for Active; 'I' for Inactive)
REMARK    1  A    between atoms: C_2  and  C_3 
REMARK    2  A    between atoms: C_3  and  O_6 
REMARK    3  A    between atoms: C_3  and  C_4 
REMARK    4  A    between atoms: C_7  and  O_6 
REMARK    5  A    between atoms: C_9  and  C_10 
REMARK    6  A    between atoms: N_15  and  C_14 
REMARK    7  A    between atoms: N_20  and  C_19 
REMARK       I    between atoms: C_22  and  N_20 
ROOT
ATOM      1  C   LIG d   1      -7.799  77.705 117.952  0.00  0.00     0.161 C 
ATOM      2  C   LIG d   1      -8.901  78.458 118.390  0.00  0.00     0.016 C 
ATOM      3  C   LIG d   1      -8.807  79.807 118.804  0.00  0.00     0.038 C 
ATOM      4  C   LIG d   1      -7.622  80.544 118.665  0.00  0.00     0.028 C 
ATOM      5  C   LIG d   1      -6.364  79.681 118.703  0.00  0.00    -0.047 C 
ATOM      6  C   LIG d   1      -6.519  78.525 117.689  0.00  0.00     0.091 C 
ENDROOT
BRANCH   1   7
ATOM      7  O   LIG d   1      -8.159  76.948 116.780  0.00  0.00    -0.368 OA
BRANCH   7   8
ATOM      8  C   LIG d   1      -8.070  75.506 116.899  0.00  0.00     0.119 C 
BRANCH   8   9
ATOM      9  C   LIG d   1      -7.095  75.012 115.814  0.00  0.00     0.028 C 
ATOM     10  C   LIG d   1      -6.805  76.085 114.751  0.00  0.00     0.006 C 
ENDBRANCH   8   9
BRANCH   8  11
ATOM     11  C   LIG d   1      -9.409  74.836 116.578  0.00  0.00     0.028 C 
ATOM     12  C   LIG d   1      -9.377  73.313 116.783  0.00  0.00     0.006 C 
ENDBRANCH   8  11
ENDBRANCH   7   8
ENDBRANCH   1   7
BRANCH   6  13
ATOM     13  N   LIG d   1      -5.368  77.585 117.721  0.00  0.00    -0.311 N 
ATOM     14  C   LIG d   1      -4.337  77.659 116.881  0.00  0.00     0.210 C 
ATOM     15  C   LIG d   1      -3.267  76.579 117.074  0.00  0.00     0.109 C 
ATOM     16  O   LIG d   1      -4.192  78.535 116.015  0.00  0.00    -0.276 OA
ATOM     17  H   LIG d   1      -5.390  76.861 118.413  0.00  0.00     0.149 HD
ENDBRANCH   6  13
BRANCH   5  18
ATOM     18  N   LIG d   1      -5.214  80.557 118.409  0.00  0.00     0.381 N 
ATOM     19  H   LIG d   1      -4.589  80.568 119.190  0.00  0.00    -0.090 HD
ATOM     20  H   LIG d   1      -5.548  81.493 118.260  0.00  0.00    -0.090 HD
ATOM     21  H   LIG d   1      -4.738  80.234 117.597  0.00  0.00    -0.090 HD
ENDBRANCH   5  18
BRANCH   3  22
ATOM     22  C   LIG d   1      -9.898  80.420 119.402  0.00  0.00     0.382 C 
ATOM     23  O   LIG d   1     -10.611  79.779 120.211  0.00  0.00    -0.241 OA
ATOM     24  O   LIG d   1     -10.203  81.591 119.109  0.00  0.00    -0.241 OA
ENDBRANCH   3  22
TORSDOF 7
ENDMDL
MODEL 2
REMARK VINA RESULT:      -5.3     12.280     14.247
REMARK  7 active torsions:
REMARK  status: ('A' for Active; 'I' for Inactive)
REMARK    1  A    between atoms: C_2  and  C_3 
REMARK    2  A    between atoms: C_3  and  O_6 
REMARK    3  A    between atoms: C_3  and  C_4 
REMARK    4  A    between atoms: C_7  and  O_6 
REMARK    5  A    between atoms: C_9  and  C_10 
REMARK    6  A    between atoms: N_15  and  C_14 
REMARK    7  A    between atoms: N_20  and  C_19 
REMARK       I    between atoms: C_22  and  N_20 
ROOT
ATOM      1  C   LIG d   1      -4.407  90.807 117.535  0.00  0.00     0.161 C 
ATOM      2  C   LIG d   1      -5.297  90.183 116.646  0.00  0.00     0.016 C 
ATOM      3  C   LIG d   1      -6.517  90.765 116.229  0.00  0.00     0.038 C 
ATOM      4  C   LIG d   1      -6.858  92.086 116.558  0.00  0.00     0.028 C 
ATOM      5  C   LIG d   1      -6.230  92.567 117.861  0.00  0.00    -0.047 C 
ATOM      6  C   LIG d   1      -4.709  92.294 117.816  0.00  0.00     0.091 C 
ENDROOT
BRANCH   1   7
ATOM      7  O   LIG d   1      -3.054  90.652 117.061  0.00  0.00    -0.368 OA
BRANCH   7   8
ATOM      8  C   LIG d   1      -2.142  89.963 117.950  0.00  0.00     0.119 C 
BRANCH   8   9
ATOM      9  C   LIG d   1      -0.710  90.257 117.464  0.00  0.00     0.028 C 
ATOM     10  C   LIG d   1      -0.022  91.354 118.294  0.00  0.00     0.006 C 
ENDBRANCH   8   9
BRANCH   8  11
ATOM     11  C   LIG d   1      -2.302  88.443 117.843  0.00  0.00     0.028 C 
ATOM     12  C   LIG d   1      -0.984  87.728 117.506  0.00  0.00     0.006 C 
ENDBRANCH   8  11
ENDBRANCH   7   8
ENDBRANCH   1   7
BRANCH   6  13
ATOM     13  N   LIG d   1      -4.030  92.658 119.087  0.00  0.00    -0.311 N 
ATOM     14  C   LIG d   1      -2.955  93.442 119.145  0.00  0.00     0.210 C 
ATOM     15  C   LIG d   1      -2.400  93.675 120.554  0.00  0.00     0.109 C 
ATOM     16  O   LIG d   1      -2.428  93.992 118.167  0.00  0.00    -0.276 OA
ATOM     17  H   LIG d   1      -4.411  92.280 119.933  0.00  0.00     0.149 HD
ENDBRANCH   6  13
BRANCH   5  18
ATOM     18  N   LIG d   1      -6.556  93.998 118.011  0.00  0.00     0.381 N 
ATOM     19  H   LIG d   1      -7.367  94.102 118.588  0.00  0.00    -0.090 HD
ATOM     20  H   LIG d   1      -6.762  94.381 117.106  0.00  0.00    -0.090 HD
ATOM     21  H   LIG d   1      -5.786  94.482 118.418  0.00  0.00    -0.090 HD
ENDBRANCH   5  18
BRANCH   3  22
ATOM     22  C   LIG d   1      -7.428  90.010 115.507  0.00  0.00     0.382 C 
ATOM     23  O   LIG d   1      -8.367  89.426 116.099  0.00  0.00    -0.241 OA
ATOM     24  O   LIG d   1      -7.296  89.868 114.276  0.00  0.00    -0.241 OA
ENDBRANCH   3  22
TORSDOF 7
ENDMDL
MODEL 3
REMARK VINA RESULT:      -5.0      2.600      5.963
REMARK  7 active torsions:
REMARK  status: ('A' for Active; 'I' for Inactive)
REMARK    1  A    between atoms: C_2  and  C_3 
REMARK    2  A    between atoms: C_3  and  O_6 
REMARK    3  A    between atoms: C_3  and  C_4 
REMARK    4  A    between atoms: C_7  and  O_6 
REMARK    5  A    between atoms: C_9  and  C_10 
REMARK    6  A    between atoms: N_15  and  C_14 
REMARK    7  A    between atoms: N_20  and  C_19 
REMARK       I    between atoms: C_22  and  N_20 
ROOT
ATOM      1  C   LIG d   1      -4.071  77.559 116.357  0.00  0.00     0.161 C 
ATOM      2  C   LIG d   1      -3.408  76.452 115.801  0.00  0.00     0.016 C 
ATOM      3  C   LIG d   1      -2.512  75.635 116.528  0.00  0.00     0.038 C 
ATOM      4  C   LIG d   1      -2.333  75.781 117.912  0.00  0.00     0.028 C 
ATOM      5  C   LIG d   1      -2.594  77.198 118.411  0.00  0.00    -0.047 C 
ATOM      6  C   LIG d   1      -3.973  77.666 117.893  0.00  0.00     0.091 C 
ENDROOT
BRANCH   1   7
ATOM      7  O   LIG d   1      -5.451  77.562 115.941  0.00  0.00    -0.368 OA
BRANCH   7   8
ATOM      8  C   LIG d   1      -6.287  76.519 116.500  0.00  0.00     0.119 C 
BRANCH   8   9
ATOM      9  C   LIG d   1      -6.772  75.639 115.332  0.00  0.00     0.028 C 
ATOM     10  C   LIG d   1      -6.021  74.299 115.255  0.00  0.00     0.006 C 
ENDBRANCH   8   9
BRANCH   8  11
ATOM     11  C   LIG d   1      -7.559  77.100 117.125  0.00  0.00     0.028 C 
ATOM     12  C   LIG d   1      -8.698  76.073 117.223  0.00  0.00     0.006 C 
ENDBRANCH   8  11
ENDBRANCH   7   8
ENDBRANCH   1   7
BRANCH   6  13
ATOM     13  N   LIG d   1      -4.271  79.074 118.265  0.00  0.00    -0.311 N 
ATOM     14  C   LIG d   1      -5.181  79.415 119.176  0.00  0.00     0.210 C 
ATOM     15  C   LIG d   1      -5.344  80.922 119.394  0.00  0.00     0.109 C 
ATOM     16  O   LIG d   1      -5.847  78.611 119.846  0.00  0.00    -0.276 OA
ATOM     17  H   LIG d   1      -3.754  79.789 117.793  0.00  0.00     0.149 HD
ENDBRANCH   6  13
BRANCH   5  18
ATOM     18  N   LIG d   1      -2.506  77.175 119.883  0.00  0.00     0.381 N 
ATOM     19  H   LIG d   1      -2.898  78.016 120.259  0.00  0.00    -0.090 HD
ATOM     20  H   LIG d   1      -1.539  77.132 120.151  0.00  0.00    -0.090 HD
ATOM     21  H   LIG d   1      -2.994  76.384 120.242  0.00  0.00    -0.090 HD
ENDBRANCH   5  18
BRANCH   3  22
ATOM     22  C   LIG d   1      -1.754  74.684 115.862  0.00  0.00     0.382 C 
ATOM     23  O   LIG d   1      -1.554  74.794 114.629  0.00  0.00    -0.241 OA
ATOM     24  O   LIG d   1      -1.304  73.696 116.471  0.00  0.00    -0.241 OA
ENDBRANCH   3  22
TORSDOF 7
ENDMDL
MODEL 4
REMARK VINA RESULT:      -4.9      2.575      5.164
REMARK  7 active torsions:
REMARK  status: ('A' for Active; 'I' for Inactive)
REMARK    1  A    between atoms: C_2  and  C_3 
REMARK    2  A    between atoms: C_3  and  O_6 
REMARK    3  A    between atoms: C_3  and  C_4 
REMARK    4  A    between atoms: C_7  and  O_6 
REMARK    5  A    between atoms: C_9  and  C_10 
REMARK    6  A    between atoms: N_15  and  C_14 
REMARK    7  A    between atoms: N_20  and  C_19 
REMARK       I    between atoms: C_22  and  N_20 
ROOT
ATOM      1  C   LIG d   1      -6.139  77.435 116.790  0.00  0.00     0.161 C 
ATOM      2  C   LIG d   1      -7.416  76.976 117.150  0.00  0.00     0.016 C 
ATOM      3  C   LIG d   1      -7.981  75.778 116.654  0.00  0.00     0.038 C 
ATOM      4  C   LIG d   1      -7.241  74.876 115.877  0.00  0.00     0.028 C 
ATOM      5  C   LIG d   1      -6.125  75.539 115.077  0.00  0.00    -0.047 C 
ATOM      6  C   LIG d   1      -5.273  76.408 116.030  0.00  0.00     0.091 C 
ENDROOT
BRANCH   1   7
ATOM      7  O   LIG d   1      -5.442  77.910 117.959  0.00  0.00    -0.368 OA
BRANCH   7   8
ATOM      8  C   LIG d   1      -5.966  79.116 118.567  0.00  0.00     0.119 C 
BRANCH   8   9
ATOM      9  C   LIG d   1      -5.946  80.222 117.494  0.00  0.00     0.028 C 
ATOM     10  C   LIG d   1      -7.006  81.306 117.749  0.00  0.00     0.006 C 
ENDBRANCH   8   9
BRANCH   8  11
ATOM     11  C   LIG d   1      -5.049  79.620 119.686  0.00  0.00     0.028 C 
ATOM     12  C   LIG d   1      -3.593  79.797 119.228  0.00  0.00     0.006 C 
ENDBRANCH   8  11
ENDBRANCH   7   8
ENDBRANCH   1   7
BRANCH   6  13
ATOM     13  N   LIG d   1      -4.209  77.160 115.314  0.00  0.00    -0.311 N 
ATOM     14  C   LIG d   1      -2.975  76.692 115.136  0.00  0.00     0.210 C 
ATOM     15  C   LIG d   1      -2.028  77.636 114.388  0.00  0.00     0.109 C 
ATOM     16  O   LIG d   1      -2.583  75.573 115.499  0.00  0.00    -0.276 OA
ATOM     17  H   LIG d   1      -4.450  78.064 114.959  0.00  0.00     0.149 HD
ENDBRANCH   6  13
BRANCH   5  18
ATOM     18  N   LIG d   1      -5.349  74.469 114.422  0.00  0.00     0.381 N 
ATOM     19  H   LIG d   1      -5.350  74.608 113.431  0.00  0.00    -0.090 HD
ATOM     20  H   LIG d   1      -5.785  73.585 114.617  0.00  0.00    -0.090 HD
ATOM     21  H   LIG d   1      -4.413  74.468 114.764  0.00  0.00    -0.090 HD
ENDBRANCH   5  18
BRANCH   3  22
ATOM     22  C   LIG d   1      -9.315  75.493 116.904  0.00  0.00     0.382 C 
ATOM     23  O   LIG d   1      -9.796  74.388 116.554  0.00  0.00    -0.241 OA
ATOM     24  O   LIG d   1     -10.055  76.344 117.433  0.00  0.00    -0.241 OA
ENDBRANCH   3  22
TORSDOF 7
ENDMDL
MODEL 5
REMARK VINA RESULT:      -4.9      1.722      2.165
REMARK  7 active torsions:
REMARK  status: ('A' for Active; 'I' for Inactive)
REMARK    1  A    between atoms: C_2  and  C_3 
REMARK    2  A    between atoms: C_3  and  O_6 
REMARK    3  A    between atoms: C_3  and  C_4 
REMARK    4  A    between atoms: C_7  and  O_6 
REMARK    5  A    between atoms: C_9  and  C_10 
REMARK    6  A    between atoms: N_15  and  C_14 
REMARK    7  A    between atoms: N_20  and  C_19 
REMARK       I    between atoms: C_22  and  N_20 
ROOT
ATOM      1  C   LIG d   1      -6.047  77.979 117.351  0.00  0.00     0.161 C 
ATOM      2  C   LIG d   1      -7.017  78.988 117.470  0.00  0.00     0.016 C 
ATOM      3  C   LIG d   1      -6.774  80.231 118.098  0.00  0.00     0.038 C 
ATOM      4  C   LIG d   1      -5.491  80.611 118.518  0.00  0.00     0.028 C 
ATOM      5  C   LIG d   1      -4.595  79.429 118.874  0.00  0.00    -0.047 C 
ATOM      6  C   LIG d   1      -4.610  78.419 117.704  0.00  0.00     0.091 C 
ENDROOT
BRANCH   1   7
ATOM      7  O   LIG d   1      -6.086  77.417 116.024  0.00  0.00    -0.368 OA
BRANCH   7   8
ATOM      8  C   LIG d   1      -6.510  76.035 115.930  0.00  0.00     0.119 C 
BRANCH   8   9
ATOM      9  C   LIG d   1      -5.970  75.475 114.600  0.00  0.00     0.028 C 
ATOM     10  C   LIG d   1      -4.928  74.363 114.811  0.00  0.00     0.006 C 
ENDBRANCH   8   9
BRANCH   8  11
ATOM     11  C   LIG d   1      -8.034  75.925 115.826  0.00  0.00     0.028 C 
ATOM     12  C   LIG d   1      -8.671  75.285 117.069  0.00  0.00     0.006 C 
ENDBRANCH   8  11
ENDBRANCH   7   8
ENDBRANCH   1   7
BRANCH   6  13
ATOM     13  N   LIG d   1      -3.826  77.193 118.004  0.00  0.00    -0.311 N 
ATOM     14  C   LIG d   1      -2.996  76.622 117.133  0.00  0.00     0.210 C 
ATOM     15  C   LIG d   1      -2.301  75.353 117.638  0.00  0.00     0.109 C 
ATOM     16  O   LIG d   1      -2.744  77.064 116.002  0.00  0.00    -0.276 OA
ATOM     17  H   LIG d   1      -3.946  76.785 118.911  0.00  0.00     0.149 HD
ENDBRANCH   6  13
BRANCH   5  18
ATOM     18  N   LIG d   1      -3.250  79.961 119.161  0.00  0.00     0.381 N 
ATOM     19  H   LIG d   1      -2.556  79.351 118.778  0.00  0.00    -0.090 HD
ATOM     20  H   LIG d   1      -3.121  79.998 120.157  0.00  0.00    -0.090 HD
ATOM     21  H   LIG d   1      -3.153  80.873 118.772  0.00  0.00    -0.090 HD
ENDBRANCH   5  18
BRANCH   3  22
ATOM     22  C   LIG d   1      -7.831  81.094 118.346  0.00  0.00     0.382 C 
ATOM     23  O   LIG d   1      -8.569  81.470 117.404  0.00  0.00    -0.241 OA
ATOM     24  O   LIG d   1      -8.030  81.535 119.494  0.00  0.00    -0.241 OA
ENDBRANCH   3  22
TORSDOF 7
ENDMDL
MODEL 6
REMARK VINA RESULT:      -4.8     11.274     13.375
REMARK  7 active torsions:
REMARK  status: ('A' for Active; 'I' for Inactive)
REMARK    1  A    between atoms: C_2  and  C_3 
REMARK    2  A    between atoms: C_3  and  O_6 
REMARK    3  A    between atoms: C_3  and  C_4 
REMARK    4  A    between atoms: C_7  and  O_6 
REMARK    5  A    between atoms: C_9  and  C_10 
REMARK    6  A    between atoms: N_15  and  C_14 
REMARK    7  A    between atoms: N_20  and  C_19 
REMARK       I    between atoms: C_22  and  N_20 
ROOT
ATOM      1  C   LIG d   1      -2.517  89.847 118.186  0.00  0.00     0.161 C 
ATOM      2  C   LIG d   1      -3.916  89.874 118.069  0.00  0.00     0.016 C 
ATOM      3  C   LIG d   1      -4.650  91.044 117.767  0.00  0.00     0.038 C 
ATOM      4  C   LIG d   1      -4.017  92.244 117.409  0.00  0.00     0.028 C 
ATOM      5  C   LIG d   1      -2.621  92.394 118.005  0.00  0.00    -0.047 C 
ATOM      6  C   LIG d   1      -1.802  91.121 117.690  0.00  0.00     0.091 C 
ENDROOT
BRANCH   1   7
ATOM      7  O   LIG d   1      -1.993  88.685 117.513  0.00  0.00    -0.368 OA
BRANCH   7   8
ATOM      8  C   LIG d   1      -1.099  87.848 118.289  0.00  0.00     0.119 C 
BRANCH   8   9
ATOM      9  C   LIG d   1      -0.259  87.022 117.295  0.00  0.00     0.028 C 
ATOM     10  C   LIG d   1       1.215  87.459 117.269  0.00  0.00     0.006 C 
ENDBRANCH   8   9
BRANCH   8  11
ATOM     11  C   LIG d   1      -1.876  86.820 119.116  0.00  0.00     0.028 C 
ATOM     12  C   LIG d   1      -1.219  85.431 119.109  0.00  0.00     0.006 C 
ENDBRANCH   8  11
ENDBRANCH   7   8
ENDBRANCH   1   7
BRANCH   6  13
ATOM     13  N   LIG d   1      -0.451  91.149 118.309  0.00  0.00    -0.311 N 
ATOM     14  C   LIG d   1       0.678  91.044 117.610  0.00  0.00     0.210 C 
ATOM     15  C   LIG d   1       1.961  91.076 118.446  0.00  0.00     0.109 C 
ATOM     16  O   LIG d   1       0.739  90.959 116.374  0.00  0.00    -0.276 OA
ATOM     17  H   LIG d   1      -0.408  91.247 119.304  0.00  0.00     0.149 HD
ENDBRANCH   6  13
BRANCH   5  18
ATOM     18  N   LIG d   1      -2.026  93.620 117.442  0.00  0.00     0.381 N 
ATOM     19  H   LIG d   1      -1.057  93.669 117.687  0.00  0.00    -0.090 HD
ATOM     20  H   LIG d   1      -2.492  94.418 117.835  0.00  0.00    -0.090 HD
ATOM     21  H   LIG d   1      -2.125  93.623 116.450  0.00  0.00    -0.090 HD
ENDBRANCH   5  18
BRANCH   3  22
ATOM     22  C   LIG d   1      -6.033  91.031 117.860  0.00  0.00     0.382 C 
ATOM     23  O   LIG d   1      -6.610  91.727 118.730  0.00  0.00    -0.241 OA
ATOM     24  O   LIG d   1      -6.710  90.299 117.113  0.00  0.00    -0.241 OA
ENDBRANCH   3  22
TORSDOF 7
ENDMDL
MODEL 7
REMARK VINA RESULT:      -4.8     13.202     16.228
REMARK  7 active torsions:
REMARK  status: ('A' for Active; 'I' for Inactive)
REMARK    1  A    between atoms: C_2  and  C_3 
REMARK    2  A    between atoms: C_3  and  O_6 
REMARK    3  A    between atoms: C_3  and  C_4 
REMARK    4  A    between atoms: C_7  and  O_6 
REMARK    5  A    between atoms: C_9  and  C_10 
REMARK    6  A    between atoms: N_15  and  C_14 
REMARK    7  A    between atoms: N_20  and  C_19 
REMARK       I    between atoms: C_22  and  N_20 
ROOT
ATOM      1  C   LIG d   1      -6.113  93.315 118.505  0.00  0.00     0.161 C 
ATOM      2  C   LIG d   1      -6.941  92.486 117.729  0.00  0.00     0.016 C 
ATOM      3  C   LIG d   1      -6.450  91.444 116.909  0.00  0.00     0.038 C 
ATOM      4  C   LIG d   1      -5.101  91.060 116.927  0.00  0.00     0.028 C 
ATOM      5  C   LIG d   1      -4.154  92.192 117.309  0.00  0.00    -0.047 C 
ATOM      6  C   LIG d   1      -4.650  92.839 118.622  0.00  0.00     0.091 C 
ENDROOT
BRANCH   1   7
ATOM      7  O   LIG d   1      -6.689  93.492 119.814  0.00  0.00    -0.368 OA
BRANCH   7   8
ATOM      8  C   LIG d   1      -7.013  94.854 120.188  0.00  0.00     0.119 C 
BRANCH   8   9
ATOM      9  C   LIG d   1      -8.509  94.890 120.555  0.00  0.00     0.028 C 
ATOM     10  C   LIG d   1      -9.333  95.743 119.576  0.00  0.00     0.006 C 
ENDBRANCH   8   9
BRANCH   8  11
ATOM     11  C   LIG d   1      -6.863  95.809 119.001  0.00  0.00     0.028 C 
ATOM     12  C   LIG d   1      -5.970  97.019 119.318  0.00  0.00     0.006 C 
ENDBRANCH   8  11
ENDBRANCH   7   8
ENDBRANCH   1   7
BRANCH   6  13
ATOM     13  N   LIG d   1      -3.828  94.010 119.023  0.00  0.00    -0.311 N 
ATOM     14  C   LIG d   1      -2.807  93.932 119.875  0.00  0.00     0.210 C 
ATOM     15  C   LIG d   1      -2.105  95.262 120.167  0.00  0.00     0.109 C 
ATOM     16  O   LIG d   1      -2.395  92.882 120.392  0.00  0.00    -0.276 OA
ATOM     17  H   LIG d   1      -4.072  94.897 118.627  0.00  0.00     0.149 HD
ENDBRANCH   6  13
BRANCH   5  18
ATOM     18  N   LIG d   1      -2.799  91.620 117.423  0.00  0.00     0.381 N 
ATOM     19  H   LIG d   1      -2.120  92.355 117.429  0.00  0.00    -0.090 HD
ATOM     20  H   LIG d   1      -2.624  91.037 116.623  0.00  0.00    -0.090 HD
ATOM     21  H   LIG d   1      -2.724  91.083 118.258  0.00  0.00    -0.090 HD
ENDBRANCH   5  18
BRANCH   3  22
ATOM     22  C   LIG d   1      -7.307  90.800 116.029  0.00  0.00     0.382 C 
ATOM     23  O   LIG d   1      -7.826  91.436 115.081  0.00  0.00    -0.241 OA
ATOM     24  O   LIG d   1      -7.602  89.601 116.199  0.00  0.00    -0.241 OA
ENDBRANCH   3  22
TORSDOF 7
ENDMDL
MODEL 8
REMARK VINA RESULT:      -4.7      2.965      5.570
REMARK  7 active torsions:
REMARK  status: ('A' for Active; 'I' for Inactive)
REMARK    1  A    between atoms: C_2  and  C_3 
REMARK    2  A    between atoms: C_3  and  O_6 
REMARK    3  A    between atoms: C_3  and  C_4 
REMARK    4  A    between atoms: C_7  and  O_6 
REMARK    5  A    between atoms: C_9  and  C_10 
REMARK    6  A    between atoms: N_15  and  C_14 
REMARK    7  A    between atoms: N_20  and  C_19 
REMARK       I    between atoms: C_22  and  N_20 
ROOT
ATOM      1  C   LIG d   1      -3.634  77.291 117.242  0.00  0.00     0.161 C 
ATOM      2  C   LIG d   1      -4.728  78.050 117.691  0.00  0.00     0.016 C 
ATOM      3  C   LIG d   1      -6.049  77.861 117.224  0.00  0.00     0.038 C 
ATOM      4  C   LIG d   1      -6.393  76.792 116.383  0.00  0.00     0.028 C 
ATOM      5  C   LIG d   1      -5.238  76.313 115.511  0.00  0.00    -0.047 C 
ATOM      6  C   LIG d   1      -4.007  76.048 116.408  0.00  0.00     0.091 C 
ENDROOT
BRANCH   1   7
ATOM      7  O   LIG d   1      -2.809  76.913 118.363  0.00  0.00    -0.368 OA
BRANCH   7   8
ATOM      8  C   LIG d   1      -1.557  77.630 118.503  0.00  0.00     0.119 C 
BRANCH   8   9
ATOM      9  C   LIG d   1      -1.281  78.345 117.166  0.00  0.00     0.028 C 
ATOM     10  C   LIG d   1      -0.004  77.832 116.479  0.00  0.00     0.006 C 
ENDBRANCH   8   9
BRANCH   8  11
ATOM     11  C   LIG d   1      -0.383  76.666 118.698  0.00  0.00     0.028 C 
ATOM     12  C   LIG d   1      -0.791  75.365 119.406  0.00  0.00     0.006 C 
ENDBRANCH   8  11
ENDBRANCH   7   8
ENDBRANCH   1   7
BRANCH   6  13
ATOM     13  N   LIG d   1      -2.807  75.656 115.624  0.00  0.00    -0.311 N 
ATOM     14  C   LIG d   1      -2.058  74.593 115.912  0.00  0.00     0.210 C 
ATOM     15  C   LIG d   1      -0.855  74.380 114.989  0.00  0.00     0.109 C 
ATOM     16  O   LIG d   1      -2.294  73.788 116.826  0.00  0.00    -0.276 OA
ATOM     17  H   LIG d   1      -2.561  76.236 114.846  0.00  0.00     0.149 HD
ENDBRANCH   6  13
BRANCH   5  18
ATOM     18  N   LIG d   1      -5.695  75.111 114.787  0.00  0.00     0.381 N 
ATOM     19  H   LIG d   1      -6.320  74.586 115.364  0.00  0.00    -0.090 HD
ATOM     20  H   LIG d   1      -4.898  74.535 114.579  0.00  0.00    -0.090 HD
ATOM     21  H   LIG d   1      -6.153  75.375 113.942  0.00  0.00    -0.090 HD
ENDBRANCH   5  18
BRANCH   3  22
ATOM     22  C   LIG d   1      -7.036  78.772 117.569  0.00  0.00     0.382 C 
ATOM     23  O   LIG d   1      -8.155  78.365 117.965  0.00  0.00    -0.241 OA
ATOM     24  O   LIG d   1      -6.837  79.995 117.445  0.00  0.00    -0.241 OA
ENDBRANCH   3  22
TORSDOF 7
ENDMDL
MODEL 9
REMARK VINA RESULT:      -4.7      2.196      5.093
REMARK  7 active torsions:
REMARK  status: ('A' for Active; 'I' for Inactive)
REMARK    1  A    between atoms: C_2  and  C_3 
REMARK    2  A    between atoms: C_3  and  O_6 
REMARK    3  A    between atoms: C_3  and  C_4 
REMARK    4  A    between atoms: C_7  and  O_6 
REMARK    5  A    between atoms: C_9  and  C_10 
REMARK    6  A    between atoms: N_15  and  C_14 
REMARK    7  A    between atoms: N_20  and  C_19 
REMARK       I    between atoms: C_22  and  N_20 
ROOT
ATOM      1  C   LIG d   1      -6.861  77.241 116.896  0.00  0.00     0.161 C 
ATOM      2  C   LIG d   1      -8.004  76.437 117.033  0.00  0.00     0.016 C 
ATOM      3  C   LIG d   1      -8.086  75.111 116.547  0.00  0.00     0.038 C 
ATOM      4  C   LIG d   1      -6.970  74.444 116.021  0.00  0.00     0.028 C 
ATOM      5  C   LIG d   1      -5.938  75.382 115.404  0.00  0.00    -0.047 C 
ATOM      6  C   LIG d   1      -5.596  76.493 116.424  0.00  0.00     0.091 C 
ENDROOT
BRANCH   1   7
ATOM      7  O   LIG d   1      -6.600  77.935 118.132  0.00  0.00    -0.368 OA
BRANCH   7   8
ATOM      8  C   LIG d   1      -6.522  79.379 118.048  0.00  0.00     0.119 C 
BRANCH   8   9
ATOM      9  C   LIG d   1      -5.868  79.883 119.349  0.00  0.00     0.028 C 
ATOM     10  C   LIG d   1      -4.396  80.281 119.150  0.00  0.00     0.006 C 
ENDBRANCH   8   9
BRANCH   8  11
ATOM     11  C   LIG d   1      -7.917  80.012 118.023  0.00  0.00     0.028 C 
ATOM     12  C   LIG d   1      -8.829  79.488 119.144  0.00  0.00     0.006 C 
ENDBRANCH   8  11
ENDBRANCH   7   8
ENDBRANCH   1   7
BRANCH   6  13
ATOM     13  N   LIG d   1      -4.657  77.502 115.870  0.00  0.00    -0.311 N 
ATOM     14  C   LIG d   1      -3.508  77.834 116.456  0.00  0.00     0.210 C 
ATOM     15  C   LIG d   1      -2.698  78.911 115.728  0.00  0.00     0.109 C 
ATOM     16  O   LIG d   1      -3.068  77.317 117.494  0.00  0.00    -0.276 OA
ATOM     17  H   LIG d   1      -4.921  77.949 115.014  0.00  0.00     0.149 HD
ENDBRANCH   6  13
BRANCH   5  18
ATOM     18  N   LIG d   1      -4.769  74.569 115.021  0.00  0.00     0.381 N 
ATOM     19  H   LIG d   1      -5.074  73.713 114.602  0.00  0.00    -0.090 HD
ATOM     20  H   LIG d   1      -4.243  74.346 115.848  0.00  0.00    -0.090 HD
ATOM     21  H   LIG d   1      -4.197  75.075 114.381  0.00  0.00    -0.090 HD
ENDBRANCH   5  18
BRANCH   3  22
ATOM     22  C   LIG d   1      -9.307  74.453 116.548  0.00  0.00     0.382 C 
ATOM     23  O   LIG d   1     -10.354  75.074 116.246  0.00  0.00    -0.241 OA
ATOM     24  O   LIG d   1      -9.380  73.258 116.891  0.00  0.00    -0.241 OA
ENDBRANCH   3  22
TORSDOF 7
ENDMDL
