MODEL 1
REMARK VINA RESULT:      -5.3      0.000      0.000
REMARK  7 active torsions:
REMARK  status: ('A' for Active; 'I' for Inactive)
REMARK    1  A    between atoms: C_2  and  C_3 
REMARK    2  A    between atoms: C_3  and  O_6 
REMARK    3  A    between atoms: C_3  and  C_4 
REMARK    4  A    between atoms: C_7  and  O_6 
REMARK    5  A    between atoms: C_9  and  C_10 
REMARK    6  A    between atoms: N_15  and  C_14 
REMARK    7  A    between atoms: N_20  and  C_19 
REMARK       I    between atoms: C_22  and  N_20 
ROOT
ATOM      1  C   LIG d   1      -6.140  78.160 117.010  0.00  0.00     0.161 C 
ATOM      2  C   LIG d   1      -7.512  78.313 117.272  0.00  0.00     0.016 C 
ATOM      3  C   LIG d   1      -8.069  79.480 117.844  0.00  0.00     0.038 C 
ATOM      4  C   LIG d   1      -7.307  80.638 118.055  0.00  0.00     0.028 C 
ATOM      5  C   LIG d   1      -5.825  80.357 118.276  0.00  0.00    -0.047 C 
ATOM      6  C   LIG d   1      -5.310  79.455 117.131  0.00  0.00     0.091 C 
ENDROOT
BRANCH   1   7
ATOM      7  O   LIG d   1      -5.954  77.565 115.711  0.00  0.00    -0.368 OA
BRANCH   7   8
ATOM      8  C   LIG d   1      -5.519  76.182 115.699  0.00  0.00     0.119 C 
BRANCH   8   9
ATOM      9  C   LIG d   1      -4.338  76.077 114.715  0.00  0.00     0.028 C 
ATOM     10  C   LIG d   1      -3.084  75.470 115.367  0.00  0.00     0.006 C 
ENDBRANCH   8   9
BRANCH   8  11
ATOM     11  C   LIG d   1      -6.604  75.263 115.130  0.00  0.00     0.028 C 
ATOM     12  C   LIG d   1      -6.709  73.928 115.884  0.00  0.00     0.006 C 
ENDBRANCH   8  11
ENDBRANCH   7   8
ENDBRANCH   1   7
BRANCH   6  13
ATOM     13  N   LIG d   1      -3.888  79.062 117.315  0.00  0.00    -0.311 N 
ATOM     14  C   LIG d   1      -2.974  79.144 116.350  0.00  0.00     0.210 C 
ATOM     15  C   LIG d   1      -1.572  78.669 116.744  0.00  0.00     0.109 C 
ATOM     16  O   LIG d   1      -3.184  79.596 115.214  0.00  0.00    -0.276 OA
ATOM     17  H   LIG d   1      -3.624  78.714 118.216  0.00  0.00     0.149 HD
ENDBRANCH   6  13
BRANCH   5  18
ATOM     18  N   LIG d   1      -5.130  81.656 118.345  0.00  0.00     0.381 N 
ATOM     19  H   LIG d   1      -4.149  81.524 118.199  0.00  0.00    -0.090 HD
ATOM     20  H   LIG d   1      -5.263  82.048 119.261  0.00  0.00    -0.090 HD
ATOM     21  H   LIG d   1      -5.495  82.275 117.655  0.00  0.00    -0.090 HD
ENDBRANCH   5  18
BRANCH   3  22
ATOM     22  C   LIG d   1      -9.395  79.481 118.248  0.00  0.00     0.382 C 
ATOM     23  O   LIG d   1      -9.831  80.412 118.966  0.00  0.00    -0.241 OA
ATOM     24  O   LIG d   1     -10.150  78.539 117.940  0.00  0.00    -0.241 OA
ENDBRANCH   3  22
TORSDOF 7
ENDMDL
MODEL 2
REMARK VINA RESULT:      -4.7      1.458      2.209
REMARK  7 active torsions:
REMARK  status: ('A' for Active; 'I' for Inactive)
REMARK    1  A    between atoms: C_2  and  C_3 
REMARK    2  A    between atoms: C_3  and  O_6 
REMARK    3  A    between atoms: C_3  and  C_4 
REMARK    4  A    between atoms: C_7  and  O_6 
REMARK    5  A    between atoms: C_9  and  C_10 
REMARK    6  A    between atoms: N_15  and  C_14 
REMARK    7  A    between atoms: N_20  and  C_19 
REMARK       I    between atoms: C_22  and  N_20 
ROOT
ATOM      1  C   LIG d   1      -4.588  77.747 116.465  0.00  0.00     0.161 C 
ATOM      2  C   LIG d   1      -5.947  78.087 116.570  0.00  0.00     0.016 C 
ATOM      3  C   LIG d   1      -6.421  79.166 117.352  0.00  0.00     0.038 C 
ATOM      4  C   LIG d   1      -5.548  80.077 117.964  0.00  0.00     0.028 C 
ATOM      5  C   LIG d   1      -4.186  79.479 118.300  0.00  0.00    -0.047 C 
ATOM      6  C   LIG d   1      -3.612  78.797 117.036  0.00  0.00     0.091 C 
ENDROOT
BRANCH   1   7
ATOM      7  O   LIG d   1      -4.262  77.457 115.091  0.00  0.00    -0.368 OA
BRANCH   7   8
ATOM      8  C   LIG d   1      -4.040  76.062 114.770  0.00  0.00     0.119 C 
BRANCH   8   9
ATOM      9  C   LIG d   1      -5.348  75.510 114.171  0.00  0.00     0.028 C 
ATOM     10  C   LIG d   1      -6.039  74.498 115.100  0.00  0.00     0.006 C 
ENDBRANCH   8   9
BRANCH   8  11
ATOM     11  C   LIG d   1      -3.791  75.232 116.033  0.00  0.00     0.028 C 
ATOM     12  C   LIG d   1      -2.343  74.729 116.140  0.00  0.00     0.006 C 
ENDBRANCH   8  11
ENDBRANCH   7   8
ENDBRANCH   1   7
BRANCH   6  13
ATOM     13  N   LIG d   1      -2.319  78.114 117.299  0.00  0.00    -0.311 N 
ATOM     14  C   LIG d   1      -1.191  78.407 116.654  0.00  0.00     0.210 C 
ATOM     15  C   LIG d   1       0.024  77.569 117.064  0.00  0.00     0.109 C 
ATOM     16  O   LIG d   1      -1.074  79.303 115.805  0.00  0.00    -0.276 OA
ATOM     17  H   LIG d   1      -2.316  77.394 117.995  0.00  0.00     0.149 HD
ENDBRANCH   6  13
BRANCH   5  18
ATOM     18  N   LIG d   1      -3.332  80.571 118.805  0.00  0.00     0.381 N 
ATOM     19  H   LIG d   1      -3.312  80.551 119.805  0.00  0.00    -0.090 HD
ATOM     20  H   LIG d   1      -3.723  81.450 118.515  0.00  0.00    -0.090 HD
ATOM     21  H   LIG d   1      -2.408  80.476 118.445  0.00  0.00    -0.090 HD
ENDBRANCH   5  18
BRANCH   3  22
ATOM     22  C   LIG d   1      -7.783  79.318 117.559  0.00  0.00     0.382 C 
ATOM     23  O   LIG d   1      -8.374  80.335 117.123  0.00  0.00    -0.241 OA
ATOM     24  O   LIG d   1      -8.421  78.472 118.215  0.00  0.00    -0.241 OA
ENDBRANCH   3  22
TORSDOF 7
ENDMDL
MODEL 3
REMARK VINA RESULT:      -4.7     14.653     17.609
REMARK  7 active torsions:
REMARK  status: ('A' for Active; 'I' for Inactive)
REMARK    1  A    between atoms: C_2  and  C_3 
REMARK    2  A    between atoms: C_3  and  O_6 
REMARK    3  A    between atoms: C_3  and  C_4 
REMARK    4  A    between atoms: C_7  and  O_6 
REMARK    5  A    between atoms: C_9  and  C_10 
REMARK    6  A    between atoms: N_15  and  C_14 
REMARK    7  A    between atoms: N_20  and  C_19 
REMARK       I    between atoms: C_22  and  N_20 
ROOT
ATOM      1  C   LIG d   1     -16.599  64.746 116.074  0.00  0.00     0.161 C 
ATOM      2  C   LIG d   1     -16.527  66.011 115.466  0.00  0.00     0.016 C 
ATOM      3  C   LIG d   1     -15.595  67.004 115.846  0.00  0.00     0.038 C 
ATOM      4  C   LIG d   1     -14.566  66.744 116.763  0.00  0.00     0.028 C 
ATOM      5  C   LIG d   1     -14.912  65.650 117.767  0.00  0.00    -0.047 C 
ATOM      6  C   LIG d   1     -15.413  64.405 117.000  0.00  0.00     0.091 C 
ENDROOT
BRANCH   1   7
ATOM      7  O   LIG d   1     -16.757  63.728 115.067  0.00  0.00    -0.368 OA
BRANCH   7   8
ATOM      8  C   LIG d   1     -18.036  63.048 115.042  0.00  0.00     0.119 C 
BRANCH   8   9
ATOM      9  C   LIG d   1     -17.772  61.578 114.664  0.00  0.00     0.028 C 
ATOM     10  C   LIG d   1     -17.314  60.736 115.867  0.00  0.00     0.006 C 
ENDBRANCH   8   9
BRANCH   8  11
ATOM     11  C   LIG d   1     -18.937  63.597 113.932  0.00  0.00     0.028 C 
ATOM     12  C   LIG d   1     -19.961  64.621 114.446  0.00  0.00     0.006 C 
ENDBRANCH   8  11
ENDBRANCH   7   8
ENDBRANCH   1   7
BRANCH   6  13
ATOM     13  N   LIG d   1     -15.853  63.317 117.912  0.00  0.00    -0.311 N 
ATOM     14  C   LIG d   1     -15.049  62.339 118.328  0.00  0.00     0.210 C 
ATOM     15  C   LIG d   1     -15.708  61.307 119.248  0.00  0.00     0.109 C 
ATOM     16  O   LIG d   1     -13.844  62.247 118.048  0.00  0.00    -0.276 OA
ATOM     17  H   LIG d   1     -16.807  63.332 118.213  0.00  0.00     0.149 HD
ENDBRANCH   6  13
BRANCH   5  18
ATOM     18  N   LIG d   1     -13.705  65.386 118.573  0.00  0.00     0.381 N 
ATOM     19  H   LIG d   1     -13.140  64.697 118.120  0.00  0.00    -0.090 HD
ATOM     20  H   LIG d   1     -13.984  65.027 119.469  0.00  0.00    -0.090 HD
ATOM     21  H   LIG d   1     -13.184  66.227 118.692  0.00  0.00    -0.090 HD
ENDBRANCH   5  18
BRANCH   3  22
ATOM     22  C   LIG d   1     -15.713  68.288 115.334  0.00  0.00     0.382 C 
ATOM     23  O   LIG d   1     -15.991  69.244 116.097  0.00  0.00    -0.241 OA
ATOM     24  O   LIG d   1     -15.587  68.494 114.112  0.00  0.00    -0.241 OA
ENDBRANCH   3  22
TORSDOF 7
ENDMDL
MODEL 4
REMARK VINA RESULT:      -4.6      2.774      5.726
REMARK  7 active torsions:
REMARK  status: ('A' for Active; 'I' for Inactive)
REMARK    1  A    between atoms: C_2  and  C_3 
REMARK    2  A    between atoms: C_3  and  O_6 
REMARK    3  A    between atoms: C_3  and  C_4 
REMARK    4  A    between atoms: C_7  and  O_6 
REMARK    5  A    between atoms: C_9  and  C_10 
REMARK    6  A    between atoms: N_15  and  C_14 
REMARK    7  A    between atoms: N_20  and  C_19 
REMARK       I    between atoms: C_22  and  N_20 
ROOT
ATOM      1  C   LIG d   1      -3.278  77.346 116.100  0.00  0.00     0.161 C 
ATOM      2  C   LIG d   1      -2.589  76.235 115.587  0.00  0.00     0.016 C 
ATOM      3  C   LIG d   1      -1.881  75.317 116.396  0.00  0.00     0.038 C 
ATOM      4  C   LIG d   1      -1.941  75.363 117.796  0.00  0.00     0.028 C 
ATOM      5  C   LIG d   1      -2.208  76.760 118.346  0.00  0.00    -0.047 C 
ATOM      6  C   LIG d   1      -3.447  77.350 117.634  0.00  0.00     0.091 C 
ENDROOT
BRANCH   1   7
ATOM      7  O   LIG d   1      -4.561  77.467 115.454  0.00  0.00    -0.368 OA
BRANCH   7   8
ATOM      8  C   LIG d   1      -5.465  76.346 115.619  0.00  0.00     0.119 C 
BRANCH   8   9
ATOM      9  C   LIG d   1      -5.700  75.733 114.225  0.00  0.00     0.028 C 
ATOM     10  C   LIG d   1      -5.270  74.259 114.151  0.00  0.00     0.006 C 
ENDBRANCH   8   9
BRANCH   8  11
ATOM     11  C   LIG d   1      -6.844  76.809 116.097  0.00  0.00     0.028 C 
ATOM     12  C   LIG d   1      -7.984  75.913 115.585  0.00  0.00     0.006 C 
ENDBRANCH   8  11
ENDBRANCH   7   8
ENDBRANCH   1   7
BRANCH   6  13
ATOM     13  N   LIG d   1      -3.729  78.748 118.052  0.00  0.00    -0.311 N 
ATOM     14  C   LIG d   1      -4.831  79.110 118.706  0.00  0.00     0.210 C 
ATOM     15  C   LIG d   1      -4.933  80.605 119.024  0.00  0.00     0.109 C 
ATOM     16  O   LIG d   1      -5.720  78.330 119.081  0.00  0.00    -0.276 OA
ATOM     17  H   LIG d   1      -3.046  79.441 117.816  0.00  0.00     0.149 HD
ENDBRANCH   6  13
BRANCH   5  18
ATOM     18  N   LIG d   1      -2.383  76.639 119.805  0.00  0.00     0.381 N 
ATOM     19  H   LIG d   1      -3.199  76.096 120.005  0.00  0.00    -0.090 HD
ATOM     20  H   LIG d   1      -2.512  77.557 120.194  0.00  0.00    -0.090 HD
ATOM     21  H   LIG d   1      -1.581  76.209 120.210  0.00  0.00    -0.090 HD
ENDBRANCH   5  18
BRANCH   3  22
ATOM     22  C   LIG d   1      -1.069  74.362 115.802  0.00  0.00     0.382 C 
ATOM     23  O   LIG d   1      -0.480  73.512 116.512  0.00  0.00    -0.241 OA
ATOM     24  O   LIG d   1      -0.884  74.367 114.570  0.00  0.00    -0.241 OA
ENDBRANCH   3  22
TORSDOF 7
ENDMDL
MODEL 5
REMARK VINA RESULT:      -4.5      2.637      4.755
REMARK  7 active torsions:
REMARK  status: ('A' for Active; 'I' for Inactive)
REMARK    1  A    between atoms: C_2  and  C_3 
REMARK    2  A    between atoms: C_3  and  O_6 
REMARK    3  A    between atoms: C_3  and  C_4 
REMARK    4  A    between atoms: C_7  and  O_6 
REMARK    5  A    between atoms: C_9  and  C_10 
REMARK    6  A    between atoms: N_15  and  C_14 
REMARK    7  A    between atoms: N_20  and  C_19 
REMARK       I    between atoms: C_22  and  N_20 
ROOT
ATOM      1  C   LIG d   1      -3.625  77.526 116.718  0.00  0.00     0.161 C 
ATOM      2  C   LIG d   1      -4.790  78.219 117.084  0.00  0.00     0.016 C 
ATOM      3  C   LIG d   1      -6.094  77.717 116.869  0.00  0.00     0.038 C 
ATOM      4  C   LIG d   1      -6.319  76.412 116.406  0.00  0.00     0.028 C 
ATOM      5  C   LIG d   1      -5.180  75.867 115.552  0.00  0.00    -0.047 C 
ATOM      6  C   LIG d   1      -3.848  76.053 116.313  0.00  0.00     0.091 C 
ENDROOT
BRANCH   1   7
ATOM      7  O   LIG d   1      -2.651  77.612 117.777  0.00  0.00    -0.368 OA
BRANCH   7   8
ATOM      8  C   LIG d   1      -1.571  78.557 117.574  0.00  0.00     0.119 C 
BRANCH   8   9
ATOM      9  C   LIG d   1      -1.540  78.910 116.075  0.00  0.00     0.028 C 
ATOM     10  C   LIG d   1      -0.268  78.397 115.378  0.00  0.00     0.006 C 
ENDBRANCH   8   9
BRANCH   8  11
ATOM     11  C   LIG d   1      -0.210  77.920 117.870  0.00  0.00     0.028 C 
ATOM     12  C   LIG d   1      -0.325  76.615 118.673  0.00  0.00     0.006 C 
ENDBRANCH   8  11
ENDBRANCH   7   8
ENDBRANCH   1   7
BRANCH   6  13
ATOM     13  N   LIG d   1      -2.672  75.623 115.513  0.00  0.00    -0.311 N 
ATOM     14  C   LIG d   1      -1.835  74.662 115.898  0.00  0.00     0.210 C 
ATOM     15  C   LIG d   1      -0.676  74.389 114.933  0.00  0.00     0.109 C 
ATOM     16  O   LIG d   1      -1.959  73.988 116.931  0.00  0.00    -0.276 OA
ATOM     17  H   LIG d   1      -2.514  76.096 114.644  0.00  0.00     0.149 HD
ENDBRANCH   6  13
BRANCH   5  18
ATOM     18  N   LIG d   1      -5.483  74.455 115.253  0.00  0.00     0.381 N 
ATOM     19  H   LIG d   1      -4.681  73.889 115.444  0.00  0.00    -0.090 HD
ATOM     20  H   LIG d   1      -5.704  74.369 114.276  0.00  0.00    -0.090 HD
ATOM     21  H   LIG d   1      -6.254  74.148 115.804  0.00  0.00    -0.090 HD
ENDBRANCH   5  18
BRANCH   3  22
ATOM     22  C   LIG d   1      -7.190  78.539 117.080  0.00  0.00     0.382 C 
ATOM     23  O   LIG d   1      -7.045  79.786 117.099  0.00  0.00    -0.241 OA
ATOM     24  O   LIG d   1      -8.315  78.050 117.296  0.00  0.00    -0.241 OA
ENDBRANCH   3  22
TORSDOF 7
ENDMDL
MODEL 6
REMARK VINA RESULT:      -4.5     15.043     17.502
REMARK  7 active torsions:
REMARK  status: ('A' for Active; 'I' for Inactive)
REMARK    1  A    between atoms: C_2  and  C_3 
REMARK    2  A    between atoms: C_3  and  O_6 
REMARK    3  A    between atoms: C_3  and  C_4 
REMARK    4  A    between atoms: C_7  and  O_6 
REMARK    5  A    between atoms: C_9  and  C_10 
REMARK    6  A    between atoms: N_15  and  C_14 
REMARK    7  A    between atoms: N_20  and  C_19 
REMARK       I    between atoms: C_22  and  N_20 
ROOT
ATOM      1  C   LIG d   1     -15.128  64.788 116.448  0.00  0.00     0.161 C 
ATOM      2  C   LIG d   1     -15.005  66.167 116.212  0.00  0.00     0.016 C 
ATOM      3  C   LIG d   1     -16.101  67.004 115.902  0.00  0.00     0.038 C 
ATOM      4  C   LIG d   1     -17.425  66.543 115.956  0.00  0.00     0.028 C 
ATOM      5  C   LIG d   1     -17.556  65.046 115.696  0.00  0.00    -0.047 C 
ATOM      6  C   LIG d   1     -16.577  64.288 116.622  0.00  0.00     0.091 C 
ENDROOT
BRANCH   1   7
ATOM      7  O   LIG d   1     -14.329  64.415 117.589  0.00  0.00    -0.368 OA
BRANCH   7   8
ATOM      8  C   LIG d   1     -14.985  64.491 118.878  0.00  0.00     0.119 C 
BRANCH   8   9
ATOM      9  C   LIG d   1     -14.290  65.604 119.687  0.00  0.00     0.028 C 
ATOM     10  C   LIG d   1     -15.164  66.861 119.827  0.00  0.00     0.006 C 
ENDBRANCH   8   9
BRANCH   8  11
ATOM     11  C   LIG d   1     -14.773  63.209 119.688  0.00  0.00     0.028 C 
ATOM     12  C   LIG d   1     -14.006  62.130 118.907  0.00  0.00     0.006 C 
ENDBRANCH   8  11
ENDBRANCH   7   8
ENDBRANCH   1   7
BRANCH   6  13
ATOM     13  N   LIG d   1     -16.580  62.823 116.372  0.00  0.00    -0.311 N 
ATOM     14  C   LIG d   1     -17.283  61.957 117.100  0.00  0.00     0.210 C 
ATOM     15  C   LIG d   1     -17.129  60.490 116.686  0.00  0.00     0.109 C 
ATOM     16  O   LIG d   1     -18.044  62.267 118.028  0.00  0.00    -0.276 OA
ATOM     17  H   LIG d   1     -16.014  62.487 115.617  0.00  0.00     0.149 HD
ENDBRANCH   6  13
BRANCH   5  18
ATOM     18  N   LIG d   1     -18.966  64.676 115.919  0.00  0.00     0.381 N 
ATOM     19  H   LIG d   1     -19.532  65.501 115.950  0.00  0.00    -0.090 HD
ATOM     20  H   LIG d   1     -19.043  64.207 116.805  0.00  0.00    -0.090 HD
ATOM     21  H   LIG d   1     -19.281  64.076 115.189  0.00  0.00    -0.090 HD
ENDBRANCH   5  18
BRANCH   3  22
ATOM     22  C   LIG d   1     -15.876  68.310 115.493  0.00  0.00     0.382 C 
ATOM     23  O   LIG d   1     -15.575  68.550 114.299  0.00  0.00    -0.241 OA
ATOM     24  O   LIG d   1     -15.925  69.246 116.314  0.00  0.00    -0.241 OA
ENDBRANCH   3  22
TORSDOF 7
ENDMDL
MODEL 7
REMARK VINA RESULT:      -4.5     12.149     14.788
REMARK  7 active torsions:
REMARK  status: ('A' for Active; 'I' for Inactive)
REMARK    1  A    between atoms: C_2  and  C_3 
REMARK    2  A    between atoms: C_3  and  O_6 
REMARK    3  A    between atoms: C_3  and  C_4 
REMARK    4  A    between atoms: C_7  and  O_6 
REMARK    5  A    between atoms: C_9  and  C_10 
REMARK    6  A    between atoms: N_15  and  C_14 
REMARK    7  A    between atoms: N_20  and  C_19 
REMARK       I    between atoms: C_22  and  N_20 
ROOT
ATOM      1  C   LIG d   1       0.137  90.756 116.759  0.00  0.00     0.161 C 
ATOM      2  C   LIG d   1       1.499  90.518 116.506  0.00  0.00     0.016 C 
ATOM      3  C   LIG d   1       2.541  91.295 117.061  0.00  0.00     0.038 C 
ATOM      4  C   LIG d   1       2.297  92.277 118.034  0.00  0.00     0.028 C 
ATOM      5  C   LIG d   1       0.903  92.888 117.940  0.00  0.00    -0.047 C 
ATOM      6  C   LIG d   1      -0.143  91.751 117.905  0.00  0.00     0.091 C 
ENDROOT
BRANCH   1   7
ATOM      7  O   LIG d   1      -0.540  89.507 117.004  0.00  0.00    -0.368 OA
BRANCH   7   8
ATOM      8  C   LIG d   1      -0.114  88.770 118.176  0.00  0.00     0.119 C 
BRANCH   8   9
ATOM      9  C   LIG d   1       0.356  87.380 117.705  0.00  0.00     0.028 C 
ATOM     10  C   LIG d   1      -0.079  86.257 118.661  0.00  0.00     0.006 C 
ENDBRANCH   8   9
BRANCH   8  11
ATOM     11  C   LIG d   1      -1.288  88.501 119.122  0.00  0.00     0.028 C 
ATOM     12  C   LIG d   1      -2.648  88.855 118.499  0.00  0.00     0.006 C 
ENDBRANCH   8  11
ENDBRANCH   7   8
ENDBRANCH   1   7
BRANCH   6  13
ATOM     13  N   LIG d   1      -1.528  92.260 117.729  0.00  0.00    -0.311 N 
ATOM     14  C   LIG d   1      -2.350  92.515 118.746  0.00  0.00     0.210 C 
ATOM     15  C   LIG d   1      -3.741  93.014 118.343  0.00  0.00     0.109 C 
ATOM     16  O   LIG d   1      -2.048  92.407 119.944  0.00  0.00    -0.276 OA
ATOM     17  H   LIG d   1      -1.845  92.406 116.791  0.00  0.00     0.149 HD
ENDBRANCH   6  13
BRANCH   5  18
ATOM     18  N   LIG d   1       0.735  93.793 119.093  0.00  0.00     0.381 N 
ATOM     19  H   LIG d   1       1.213  93.419 119.889  0.00  0.00    -0.090 HD
ATOM     20  H   LIG d   1      -0.243  93.858 119.315  0.00  0.00    -0.090 HD
ATOM     21  H   LIG d   1       1.095  94.695 118.874  0.00  0.00    -0.090 HD
ENDBRANCH   5  18
BRANCH   3  22
ATOM     22  C   LIG d   1       3.841  91.121 116.613  0.00  0.00     0.382 C 
ATOM     23  O   LIG d   1       4.805  91.487 117.328  0.00  0.00    -0.241 OA
ATOM     24  O   LIG d   1       4.062  90.643 115.484  0.00  0.00    -0.241 OA
ENDBRANCH   3  22
TORSDOF 7
ENDMDL
MODEL 8
REMARK VINA RESULT:      -4.5     12.825     15.582
REMARK  7 active torsions:
REMARK  status: ('A' for Active; 'I' for Inactive)
REMARK    1  A    between atoms: C_2  and  C_3 
REMARK    2  A    between atoms: C_3  and  O_6 
REMARK    3  A    between atoms: C_3  and  C_4 
REMARK    4  A    between atoms: C_7  and  O_6 
REMARK    5  A    between atoms: C_9  and  C_10 
REMARK    6  A    between atoms: N_15  and  C_14 
REMARK    7  A    between atoms: N_20  and  C_19 
REMARK       I    between atoms: C_22  and  N_20 
ROOT
ATOM      1  C   LIG d   1      -6.792  93.068 117.952  0.00  0.00     0.161 C 
ATOM      2  C   LIG d   1      -7.247  92.455 116.772  0.00  0.00     0.016 C 
ATOM      3  C   LIG d   1      -6.669  91.283 116.231  0.00  0.00     0.038 C 
ATOM      4  C   LIG d   1      -5.688  90.555 116.920  0.00  0.00     0.028 C 
ATOM      5  C   LIG d   1      -4.850  91.410 117.864  0.00  0.00    -0.047 C 
ATOM      6  C   LIG d   1      -5.795  92.225 118.775  0.00  0.00     0.091 C 
ENDROOT
BRANCH   1   7
ATOM      7  O   LIG d   1      -7.916  93.452 118.768  0.00  0.00    -0.368 OA
BRANCH   7   8
ATOM      8  C   LIG d   1      -7.990  94.853 119.132  0.00  0.00     0.119 C 
BRANCH   8   9
ATOM      9  C   LIG d   1      -9.345  95.079 119.830  0.00  0.00     0.028 C 
ATOM     10  C   LIG d   1      -9.952  93.773 120.371  0.00  0.00     0.006 C 
ENDBRANCH   8   9
BRANCH   8  11
ATOM     11  C   LIG d   1      -8.018  95.750 117.891  0.00  0.00     0.028 C 
ATOM     12  C   LIG d   1      -7.010  96.908 117.971  0.00  0.00     0.006 C 
ENDBRANCH   8  11
ENDBRANCH   7   8
ENDBRANCH   1   7
BRANCH   6  13
ATOM     13  N   LIG d   1      -5.058  93.152 119.673  0.00  0.00    -0.311 N 
ATOM     14  C   LIG d   1      -4.349  94.190 119.233  0.00  0.00     0.210 C 
ATOM     15  C   LIG d   1      -3.650  95.006 120.325  0.00  0.00     0.109 C 
ATOM     16  O   LIG d   1      -4.259  94.532 118.044  0.00  0.00    -0.276 OA
ATOM     17  H   LIG d   1      -5.102  92.966 120.656  0.00  0.00     0.149 HD
ENDBRANCH   6  13
BRANCH   5  18
ATOM     18  N   LIG d   1      -3.962  90.503 118.616  0.00  0.00     0.381 N 
ATOM     19  H   LIG d   1      -3.140  90.311 118.079  0.00  0.00    -0.090 HD
ATOM     20  H   LIG d   1      -4.443  89.636 118.778  0.00  0.00    -0.090 HD
ATOM     21  H   LIG d   1      -3.709  90.918 119.486  0.00  0.00    -0.090 HD
ENDBRANCH   5  18
BRANCH   3  22
ATOM     22  C   LIG d   1      -7.046  90.852 114.969  0.00  0.00     0.382 C 
ATOM     23  O   LIG d   1      -7.729  91.599 114.228  0.00  0.00    -0.241 OA
ATOM     24  O   LIG d   1      -6.749  89.707 114.578  0.00  0.00    -0.241 OA
ENDBRANCH   3  22
TORSDOF 7
ENDMDL
MODEL 9
REMARK VINA RESULT:      -4.4     11.436     13.260
REMARK  7 active torsions:
REMARK  status: ('A' for Active; 'I' for Inactive)
REMARK    1  A    between atoms: C_2  and  C_3 
REMARK    2  A    between atoms: C_3  and  O_6 
REMARK    3  A    between atoms: C_3  and  C_4 
REMARK    4  A    between atoms: C_7  and  O_6 
REMARK    5  A    between atoms: C_9  and  C_10 
REMARK    6  A    between atoms: N_15  and  C_14 
REMARK    7  A    between atoms: N_20  and  C_19 
REMARK       I    between atoms: C_22  and  N_20 
ROOT
ATOM      1  C   LIG d   1       0.768  89.098 117.259  0.00  0.00     0.161 C 
ATOM      2  C   LIG d   1      -0.608  88.833 117.359  0.00  0.00     0.016 C 
ATOM      3  C   LIG d   1      -1.540  89.748 117.901  0.00  0.00     0.038 C 
ATOM      4  C   LIG d   1      -1.178  91.059 118.242  0.00  0.00     0.028 C 
ATOM      5  C   LIG d   1       0.290  91.202 118.629  0.00  0.00    -0.047 C 
ATOM      6  C   LIG d   1       1.164  90.566 117.524  0.00  0.00     0.091 C 
ENDROOT
BRANCH   1   7
ATOM      7  O   LIG d   1       1.255  88.673 115.971  0.00  0.00    -0.368 OA
BRANCH   7   8
ATOM      8  C   LIG d   1       2.123  87.512 115.970  0.00  0.00     0.119 C 
BRANCH   8   9
ATOM      9  C   LIG d   1       3.540  87.995 115.602  0.00  0.00     0.028 C 
ATOM     10  C   LIG d   1       3.521  89.162 114.602  0.00  0.00     0.006 C 
ENDBRANCH   8   9
BRANCH   8  11
ATOM     11  C   LIG d   1       1.732  86.525 114.866  0.00  0.00     0.028 C 
ATOM     12  C   LIG d   1       2.717  85.352 114.740  0.00  0.00     0.006 C 
ENDBRANCH   8  11
ENDBRANCH   7   8
ENDBRANCH   1   7
BRANCH   6  13
ATOM     13  N   LIG d   1       2.611  90.587 117.863  0.00  0.00    -0.311 N 
ATOM     14  C   LIG d   1       3.432  91.574 117.509  0.00  0.00     0.210 C 
ATOM     15  C   LIG d   1       4.890  91.389 117.943  0.00  0.00     0.109 C 
ATOM     16  O   LIG d   1       3.086  92.601 116.906  0.00  0.00    -0.276 OA
ATOM     17  H   LIG d   1       2.970  89.808 118.378  0.00  0.00     0.149 HD
ENDBRANCH   6  13
BRANCH   5  18
ATOM     18  N   LIG d   1       0.562  92.638 118.826  0.00  0.00     0.381 N 
ATOM     19  H   LIG d   1       0.705  93.081 117.940  0.00  0.00    -0.090 HD
ATOM     20  H   LIG d   1       1.402  92.739 119.369  0.00  0.00    -0.090 HD
ATOM     21  H   LIG d   1      -0.202  93.068 119.300  0.00  0.00    -0.090 HD
ENDBRANCH   5  18
BRANCH   3  22
ATOM     22  C   LIG d   1      -2.843  89.340 118.142  0.00  0.00     0.382 C 
ATOM     23  O   LIG d   1      -3.082  88.517 119.059  0.00  0.00    -0.241 OA
ATOM     24  O   LIG d   1      -3.776  89.750 117.427  0.00  0.00    -0.241 OA
ENDBRANCH   3  22
TORSDOF 7
ENDMDL
