MODEL 1
REMARK VINA RESULT:      -5.5      0.000      0.000
REMARK  7 active torsions:
REMARK  status: ('A' for Active; 'I' for Inactive)
REMARK    1  A    between atoms: C_2  and  C_3 
REMARK    2  A    between atoms: C_3  and  O_6 
REMARK    3  A    between atoms: C_3  and  C_4 
REMARK    4  A    between atoms: C_7  and  O_6 
REMARK    5  A    between atoms: C_9  and  C_10 
REMARK    6  A    between atoms: N_15  and  C_14 
REMARK    7  A    between atoms: N_20  and  C_19 
REMARK       I    between atoms: C_22  and  N_20 
ROOT
ATOM      1  C   LIG d   1      -5.389  92.582 117.847  0.00  0.00     0.161 C 
ATOM      2  C   LIG d   1      -6.374  91.750 117.288  0.00  0.00     0.016 C 
ATOM      3  C   LIG d   1      -6.080  90.657 116.440  0.00  0.00     0.038 C 
ATOM      4  C   LIG d   1      -4.764  90.228 116.214  0.00  0.00     0.028 C 
ATOM      5  C   LIG d   1      -3.731  91.341 116.350  0.00  0.00    -0.047 C 
ATOM      6  C   LIG d   1      -3.944  92.061 117.702  0.00  0.00     0.091 C 
ENDROOT
BRANCH   1   7
ATOM      7  O   LIG d   1      -5.693  92.835 119.233  0.00  0.00    -0.368 OA
BRANCH   7   8
ATOM      8  C   LIG d   1      -6.095  94.188 119.561  0.00  0.00     0.119 C 
BRANCH   8   9
ATOM      9  C   LIG d   1      -5.029  94.771 120.508  0.00  0.00     0.028 C 
ATOM     10  C   LIG d   1      -4.297  95.978 119.897  0.00  0.00     0.006 C 
ENDBRANCH   8   9
BRANCH   8  11
ATOM     11  C   LIG d   1      -7.401  94.203 120.361  0.00  0.00     0.028 C 
ATOM     12  C   LIG d   1      -8.644  94.026 119.476  0.00  0.00     0.006 C 
ENDBRANCH   8  11
ENDBRANCH   7   8
ENDBRANCH   1   7
BRANCH   6  13
ATOM     13  N   LIG d   1      -3.029  93.219 117.878  0.00  0.00    -0.311 N 
ATOM     14  C   LIG d   1      -1.864  93.142 118.518  0.00  0.00     0.210 C 
ATOM     15  C   LIG d   1      -1.085  94.458 118.604  0.00  0.00     0.109 C 
ATOM     16  O   LIG d   1      -1.387  92.101 118.996  0.00  0.00    -0.276 OA
ATOM     17  H   LIG d   1      -3.324  94.095 117.494  0.00  0.00     0.149 HD
ENDBRANCH   6  13
BRANCH   5  18
ATOM     18  N   LIG d   1      -2.395  90.728 116.226  0.00  0.00     0.381 N 
ATOM     19  H   LIG d   1      -2.367  89.870 116.740  0.00  0.00    -0.090 HD
ATOM     20  H   LIG d   1      -1.713  91.353 116.619  0.00  0.00    -0.090 HD
ATOM     21  H   LIG d   1      -2.186  90.557 115.267  0.00  0.00    -0.090 HD
ENDBRANCH   5  18
BRANCH   3  22
ATOM     22  C   LIG d   1      -7.108  90.006 115.776  0.00  0.00     0.382 C 
ATOM     23  O   LIG d   1      -7.970  89.369 116.428  0.00  0.00    -0.241 OA
ATOM     24  O   LIG d   1      -7.160  90.012 114.532  0.00  0.00    -0.241 OA
ENDBRANCH   3  22
TORSDOF 7
ENDMDL
MODEL 2
REMARK VINA RESULT:      -5.1     15.145     17.900
REMARK  7 active torsions:
REMARK  status: ('A' for Active; 'I' for Inactive)
REMARK    1  A    between atoms: C_2  and  C_3 
REMARK    2  A    between atoms: C_3  and  O_6 
REMARK    3  A    between atoms: C_3  and  C_4 
REMARK    4  A    between atoms: C_7  and  O_6 
REMARK    5  A    between atoms: C_9  and  C_10 
REMARK    6  A    between atoms: N_15  and  C_14 
REMARK    7  A    between atoms: N_20  and  C_19 
REMARK       I    between atoms: C_22  and  N_20 
ROOT
ATOM      1  C   LIG d   1      -7.870  75.087 117.647  0.00  0.00     0.161 C 
ATOM      2  C   LIG d   1      -9.142  75.544 118.030  0.00  0.00     0.016 C 
ATOM      3  C   LIG d   1      -9.471  76.913 118.159  0.00  0.00     0.038 C 
ATOM      4  C   LIG d   1      -8.586  77.928 117.765  0.00  0.00     0.028 C 
ATOM      5  C   LIG d   1      -7.119  77.521 117.851  0.00  0.00    -0.047 C 
ATOM      6  C   LIG d   1      -6.926  76.181 117.105  0.00  0.00     0.091 C 
ENDROOT
BRANCH   1   7
ATOM      7  O   LIG d   1      -8.002  74.020 116.687  0.00  0.00    -0.368 OA
BRANCH   7   8
ATOM      8  C   LIG d   1      -8.176  72.689 117.233  0.00  0.00     0.119 C 
BRANCH   8   9
ATOM      9  C   LIG d   1      -7.229  71.746 116.466  0.00  0.00     0.028 C 
ATOM     10  C   LIG d   1      -6.419  72.481 115.385  0.00  0.00     0.006 C 
ENDBRANCH   8   9
BRANCH   8  11
ATOM     11  C   LIG d   1      -9.586  72.156 116.963  0.00  0.00     0.028 C 
ATOM     12  C   LIG d   1      -9.717  70.650 117.241  0.00  0.00     0.006 C 
ENDBRANCH   8  11
ENDBRANCH   7   8
ENDBRANCH   1   7
BRANCH   6  13
ATOM     13  N   LIG d   1      -5.535  75.668 117.213  0.00  0.00    -0.311 N 
ATOM     14  C   LIG d   1      -4.586  75.931 116.316  0.00  0.00     0.210 C 
ATOM     15  C   LIG d   1      -3.226  75.288 116.607  0.00  0.00     0.109 C 
ATOM     16  O   LIG d   1      -4.732  76.662 115.325  0.00  0.00    -0.276 OA
ATOM     17  H   LIG d   1      -5.321  75.092 118.003  0.00  0.00     0.149 HD
ENDBRANCH   6  13
BRANCH   5  18
ATOM     18  N   LIG d   1      -6.318  78.621 117.282  0.00  0.00     0.381 N 
ATOM     19  H   LIG d   1      -6.431  79.445 117.837  0.00  0.00    -0.090 HD
ATOM     20  H   LIG d   1      -6.648  78.818 116.354  0.00  0.00    -0.090 HD
ATOM     21  H   LIG d   1      -5.356  78.361 117.252  0.00  0.00    -0.090 HD
ENDBRANCH   5  18
BRANCH   3  22
ATOM     22  C   LIG d   1     -10.682  77.278 118.726  0.00  0.00     0.382 C 
ATOM     23  O   LIG d   1     -10.799  78.392 119.292  0.00  0.00    -0.241 OA
ATOM     24  O   LIG d   1     -11.647  76.490 118.717  0.00  0.00    -0.241 OA
ENDBRANCH   3  22
TORSDOF 7
ENDMDL
MODEL 3
REMARK VINA RESULT:      -5.1      2.209      4.482
REMARK  7 active torsions:
REMARK  status: ('A' for Active; 'I' for Inactive)
REMARK    1  A    between atoms: C_2  and  C_3 
REMARK    2  A    between atoms: C_3  and  O_6 
REMARK    3  A    between atoms: C_3  and  C_4 
REMARK    4  A    between atoms: C_7  and  O_6 
REMARK    5  A    between atoms: C_9  and  C_10 
REMARK    6  A    between atoms: N_15  and  C_14 
REMARK    7  A    between atoms: N_20  and  C_19 
REMARK       I    between atoms: C_22  and  N_20 
ROOT
ATOM      1  C   LIG d   1      -3.976  90.787 117.634  0.00  0.00     0.161 C 
ATOM      2  C   LIG d   1      -4.924  90.180 116.795  0.00  0.00     0.016 C 
ATOM      3  C   LIG d   1      -6.148  90.790 116.434  0.00  0.00     0.038 C 
ATOM      4  C   LIG d   1      -6.441  92.120 116.770  0.00  0.00     0.028 C 
ATOM      5  C   LIG d   1      -5.737  92.594 118.037  0.00  0.00    -0.047 C 
ATOM      6  C   LIG d   1      -4.228  92.283 117.919  0.00  0.00     0.091 C 
ENDROOT
BRANCH   1   7
ATOM      7  O   LIG d   1      -2.653  90.596 117.095  0.00  0.00    -0.368 OA
BRANCH   7   8
ATOM      8  C   LIG d   1      -1.931  89.434 117.573  0.00  0.00     0.119 C 
BRANCH   8   9
ATOM      9  C   LIG d   1      -2.106  89.379 119.103  0.00  0.00     0.028 C 
ATOM     10  C   LIG d   1      -2.731  88.055 119.575  0.00  0.00     0.006 C 
ENDBRANCH   8   9
BRANCH   8  11
ATOM     11  C   LIG d   1      -0.424  89.580 117.343  0.00  0.00     0.028 C 
ATOM     12  C   LIG d   1      -0.020  91.003 116.925  0.00  0.00     0.006 C 
ENDBRANCH   8  11
ENDBRANCH   7   8
ENDBRANCH   1   7
BRANCH   6  13
ATOM     13  N   LIG d   1      -3.477  92.638 119.152  0.00  0.00    -0.311 N 
ATOM     14  C   LIG d   1      -2.352  93.350 119.145  0.00  0.00     0.210 C 
ATOM     15  C   LIG d   1      -1.729  93.587 120.525  0.00  0.00     0.109 C 
ATOM     16  O   LIG d   1      -1.827  93.835 118.131  0.00  0.00    -0.276 OA
ATOM     17  H   LIG d   1      -3.850  92.312 120.022  0.00  0.00     0.149 HD
ENDBRANCH   6  13
BRANCH   5  18
ATOM     18  N   LIG d   1      -6.020  94.033 118.192  0.00  0.00     0.381 N 
ATOM     19  H   LIG d   1      -6.402  94.208 119.100  0.00  0.00    -0.090 HD
ATOM     20  H   LIG d   1      -6.701  94.307 117.505  0.00  0.00    -0.090 HD
ATOM     21  H   LIG d   1      -5.184  94.561 118.069  0.00  0.00    -0.090 HD
ENDBRANCH   5  18
BRANCH   3  22
ATOM     22  C   LIG d   1      -7.112  90.052 115.764  0.00  0.00     0.382 C 
ATOM     23  O   LIG d   1      -7.971  89.406 116.412  0.00  0.00    -0.241 OA
ATOM     24  O   LIG d   1      -7.107  89.989 114.520  0.00  0.00    -0.241 OA
ENDBRANCH   3  22
TORSDOF 7
ENDMDL
MODEL 4
REMARK VINA RESULT:      -5.1      1.856      4.833
REMARK  7 active torsions:
REMARK  status: ('A' for Active; 'I' for Inactive)
REMARK    1  A    between atoms: C_2  and  C_3 
REMARK    2  A    between atoms: C_3  and  O_6 
REMARK    3  A    between atoms: C_3  and  C_4 
REMARK    4  A    between atoms: C_7  and  O_6 
REMARK    5  A    between atoms: C_9  and  C_10 
REMARK    6  A    between atoms: N_15  and  C_14 
REMARK    7  A    between atoms: N_20  and  C_19 
REMARK       I    between atoms: C_22  and  N_20 
ROOT
ATOM      1  C   LIG d   1      -5.635  91.666 118.723  0.00  0.00     0.161 C 
ATOM      2  C   LIG d   1      -6.897  92.247 118.932  0.00  0.00     0.016 C 
ATOM      3  C   LIG d   1      -7.083  93.613 119.245  0.00  0.00     0.038 C 
ATOM      4  C   LIG d   1      -6.021  94.530 119.221  0.00  0.00     0.028 C 
ATOM      5  C   LIG d   1      -4.666  93.895 119.512  0.00  0.00    -0.047 C 
ATOM      6  C   LIG d   1      -4.475  92.674 118.584  0.00  0.00     0.091 C 
ENDROOT
BRANCH   1   7
ATOM      7  O   LIG d   1      -5.682  90.795 117.576  0.00  0.00    -0.368 OA
BRANCH   7   8
ATOM      8  C   LIG d   1      -5.348  91.399 116.302  0.00  0.00     0.119 C 
BRANCH   8   9
ATOM      9  C   LIG d   1      -6.653  91.525 115.493  0.00  0.00     0.028 C 
ATOM     10  C   LIG d   1      -7.429  90.199 115.420  0.00  0.00     0.006 C 
ENDBRANCH   8   9
BRANCH   8  11
ATOM     11  C   LIG d   1      -4.443  90.484 115.472  0.00  0.00     0.028 C 
ATOM     12  C   LIG d   1      -3.775  89.385 116.313  0.00  0.00     0.006 C 
ENDBRANCH   8  11
ENDBRANCH   7   8
ENDBRANCH   1   7
BRANCH   6  13
ATOM     13  N   LIG d   1      -3.210  91.944 118.861  0.00  0.00    -0.311 N 
ATOM     14  C   LIG d   1      -2.098  92.107 118.146  0.00  0.00     0.210 C 
ATOM     15  C   LIG d   1      -0.913  91.242 118.588  0.00  0.00     0.109 C 
ATOM     16  O   LIG d   1      -1.971  92.909 117.209  0.00  0.00    -0.276 OA
ATOM     17  H   LIG d   1      -3.215  91.296 119.624  0.00  0.00     0.149 HD
ENDBRANCH   6  13
BRANCH   5  18
ATOM     18  N   LIG d   1      -3.636  94.934 119.320  0.00  0.00     0.381 N 
ATOM     19  H   LIG d   1      -3.626  95.550 120.108  0.00  0.00    -0.090 HD
ATOM     20  H   LIG d   1      -3.866  95.471 118.502  0.00  0.00    -0.090 HD
ATOM     21  H   LIG d   1      -2.742  94.511 119.208  0.00  0.00    -0.090 HD
ENDBRANCH   5  18
BRANCH   3  22
ATOM     22  C   LIG d   1      -8.337  94.067 119.625  0.00  0.00     0.382 C 
ATOM     23  O   LIG d   1      -8.441  95.064 120.379  0.00  0.00    -0.241 OA
ATOM     24  O   LIG d   1      -9.364  93.465 119.259  0.00  0.00    -0.241 OA
ENDBRANCH   3  22
TORSDOF 7
ENDMDL
MODEL 5
REMARK VINA RESULT:      -5.1      2.352      4.147
REMARK  7 active torsions:
REMARK  status: ('A' for Active; 'I' for Inactive)
REMARK    1  A    between atoms: C_2  and  C_3 
REMARK    2  A    between atoms: C_3  and  O_6 
REMARK    3  A    between atoms: C_3  and  C_4 
REMARK    4  A    between atoms: C_7  and  O_6 
REMARK    5  A    between atoms: C_9  and  C_10 
REMARK    6  A    between atoms: N_15  and  C_14 
REMARK    7  A    between atoms: N_20  and  C_19 
REMARK       I    between atoms: C_22  and  N_20 
ROOT
ATOM      1  C   LIG d   1      -5.461  91.498 119.008  0.00  0.00     0.161 C 
ATOM      2  C   LIG d   1      -4.593  90.691 118.254  0.00  0.00     0.016 C 
ATOM      3  C   LIG d   1      -4.705  90.522 116.855  0.00  0.00     0.038 C 
ATOM      4  C   LIG d   1      -5.608  91.273 116.087  0.00  0.00     0.028 C 
ATOM      5  C   LIG d   1      -6.840  91.720 116.867  0.00  0.00    -0.047 C 
ATOM      6  C   LIG d   1      -6.383  92.411 118.173  0.00  0.00     0.091 C 
ENDROOT
BRANCH   1   7
ATOM      7  O   LIG d   1      -4.705  92.280 119.954  0.00  0.00    -0.368 OA
BRANCH   7   8
ATOM      8  C   LIG d   1      -4.221  93.560 119.480  0.00  0.00     0.119 C 
BRANCH   8   9
ATOM      9  C   LIG d   1      -2.683  93.537 119.574  0.00  0.00     0.028 C 
ATOM     10  C   LIG d   1      -2.013  93.346 118.202  0.00  0.00     0.006 C 
ENDBRANCH   8   9
BRANCH   8  11
ATOM     11  C   LIG d   1      -4.666  94.700 120.400  0.00  0.00     0.028 C 
ATOM     12  C   LIG d   1      -4.739  96.055 119.679  0.00  0.00     0.006 C 
ENDBRANCH   8  11
ENDBRANCH   7   8
ENDBRANCH   1   7
BRANCH   6  13
ATOM     13  N   LIG d   1      -7.527  92.805 119.036  0.00  0.00    -0.311 N 
ATOM     14  C   LIG d   1      -8.102  94.006 118.988  0.00  0.00     0.210 C 
ATOM     15  C   LIG d   1      -9.253  94.211 119.977  0.00  0.00     0.109 C 
ATOM     16  O   LIG d   1      -7.789  94.909 118.197  0.00  0.00    -0.276 OA
ATOM     17  H   LIG d   1      -7.866  92.122 119.685  0.00  0.00     0.149 HD
ENDBRANCH   6  13
BRANCH   5  18
ATOM     18  N   LIG d   1      -7.626  92.606 115.989  0.00  0.00     0.381 N 
ATOM     19  H   LIG d   1      -8.390  92.097 115.590  0.00  0.00    -0.090 HD
ATOM     20  H   LIG d   1      -7.037  92.929 115.241  0.00  0.00    -0.090 HD
ATOM     21  H   LIG d   1      -7.971  93.383 116.508  0.00  0.00    -0.090 HD
ENDBRANCH   5  18
BRANCH   3  22
ATOM     22  C   LIG d   1      -3.935  89.563 116.214  0.00  0.00     0.382 C 
ATOM     23  O   LIG d   1      -4.335  89.052 115.141  0.00  0.00    -0.241 OA
ATOM     24  O   LIG d   1      -2.866  89.172 116.719  0.00  0.00    -0.241 OA
ENDBRANCH   3  22
TORSDOF 7
ENDMDL
MODEL 6
REMARK VINA RESULT:      -5.0     14.812     17.242
REMARK  7 active torsions:
REMARK  status: ('A' for Active; 'I' for Inactive)
REMARK    1  A    between atoms: C_2  and  C_3 
REMARK    2  A    between atoms: C_3  and  O_6 
REMARK    3  A    between atoms: C_3  and  C_4 
REMARK    4  A    between atoms: C_7  and  O_6 
REMARK    5  A    between atoms: C_9  and  C_10 
REMARK    6  A    between atoms: N_15  and  C_14 
REMARK    7  A    between atoms: N_20  and  C_19 
REMARK       I    between atoms: C_22  and  N_20 
ROOT
ATOM      1  C   LIG d   1      -7.094  75.671 117.264  0.00  0.00     0.161 C 
ATOM      2  C   LIG d   1      -8.468  75.713 117.555  0.00  0.00     0.016 C 
ATOM      3  C   LIG d   1      -9.151  76.898 117.912  0.00  0.00     0.038 C 
ATOM      4  C   LIG d   1      -8.533  78.156 117.855  0.00  0.00     0.028 C 
ATOM      5  C   LIG d   1      -7.023  78.099 118.056  0.00  0.00    -0.047 C 
ATOM      6  C   LIG d   1      -6.427  77.051 117.088  0.00  0.00     0.091 C 
ENDROOT
BRANCH   1   7
ATOM      7  O   LIG d   1      -6.867  74.852 116.099  0.00  0.00    -0.368 OA
BRANCH   7   8
ATOM      8  C   LIG d   1      -6.008  73.701 116.288  0.00  0.00     0.119 C 
BRANCH   8   9
ATOM      9  C   LIG d   1      -6.762  72.468 115.752  0.00  0.00     0.028 C 
ATOM     10  C   LIG d   1      -7.886  72.011 116.698  0.00  0.00     0.006 C 
ENDBRANCH   8   9
BRANCH   8  11
ATOM     11  C   LIG d   1      -5.773  73.418 117.775  0.00  0.00     0.028 C 
ATOM     12  C   LIG d   1      -4.282  73.339 118.138  0.00  0.00     0.006 C 
ENDBRANCH   8  11
ENDBRANCH   7   8
ENDBRANCH   1   7
BRANCH   6  13
ATOM     13  N   LIG d   1      -4.964  76.871 117.278  0.00  0.00    -0.311 N 
ATOM     14  C   LIG d   1      -4.086  76.900 116.277  0.00  0.00     0.210 C 
ATOM     15  C   LIG d   1      -2.628  76.673 116.688  0.00  0.00     0.109 C 
ATOM     16  O   LIG d   1      -4.373  77.125 115.091  0.00  0.00    -0.276 OA
ATOM     17  H   LIG d   1      -4.641  76.715 118.212  0.00  0.00     0.149 HD
ENDBRANCH   6  13
BRANCH   5  18
ATOM     18  N   LIG d   1      -6.492  79.458 117.835  0.00  0.00     0.381 N 
ATOM     19  H   LIG d   1      -7.187  80.025 117.393  0.00  0.00    -0.090 HD
ATOM     20  H   LIG d   1      -5.697  79.400 117.223  0.00  0.00    -0.090 HD
ATOM     21  H   LIG d   1      -6.223  79.864 118.703  0.00  0.00    -0.090 HD
ENDBRANCH   5  18
BRANCH   3  22
ATOM     22  C   LIG d   1     -10.458  76.827 118.371  0.00  0.00     0.382 C 
ATOM     23  O   LIG d   1     -10.941  77.773 119.038  0.00  0.00    -0.241 OA
ATOM     24  O   LIG d   1     -11.145  75.808 118.164  0.00  0.00    -0.241 OA
ENDBRANCH   3  22
TORSDOF 7
ENDMDL
MODEL 7
REMARK VINA RESULT:      -5.0     16.143     18.520
REMARK  7 active torsions:
REMARK  status: ('A' for Active; 'I' for Inactive)
REMARK    1  A    between atoms: C_2  and  C_3 
REMARK    2  A    between atoms: C_3  and  O_6 
REMARK    3  A    between atoms: C_3  and  C_4 
REMARK    4  A    between atoms: C_7  and  O_6 
REMARK    5  A    between atoms: C_9  and  C_10 
REMARK    6  A    between atoms: N_15  and  C_14 
REMARK    7  A    between atoms: N_20  and  C_19 
REMARK       I    between atoms: C_22  and  N_20 
ROOT
ATOM      1  C   LIG d   1      -5.312  74.752 117.680  0.00  0.00     0.161 C 
ATOM      2  C   LIG d   1      -6.226  73.697 117.846  0.00  0.00     0.016 C 
ATOM      3  C   LIG d   1      -6.808  72.994 116.767  0.00  0.00     0.038 C 
ATOM      4  C   LIG d   1      -6.397  73.199 115.441  0.00  0.00     0.028 C 
ATOM      5  C   LIG d   1      -5.849  74.599 115.186  0.00  0.00    -0.047 C 
ATOM      6  C   LIG d   1      -4.768  74.915 116.245  0.00  0.00     0.091 C 
ENDROOT
BRANCH   1   7
ATOM      7  O   LIG d   1      -4.225  74.608 118.615  0.00  0.00    -0.368 OA
BRANCH   7   8
ATOM      8  C   LIG d   1      -3.142  73.738 118.204  0.00  0.00     0.119 C 
BRANCH   8   9
ATOM      9  C   LIG d   1      -3.019  72.622 119.260  0.00  0.00     0.028 C 
ATOM     10  C   LIG d   1      -1.556  72.316 119.623  0.00  0.00     0.006 C 
ENDBRANCH   8   9
BRANCH   8  11
ATOM     11  C   LIG d   1      -1.797  74.471 118.230  0.00  0.00     0.028 C 
ATOM     12  C   LIG d   1      -1.899  75.881 118.832  0.00  0.00     0.006 C 
ENDBRANCH   8  11
ENDBRANCH   7   8
ENDBRANCH   1   7
BRANCH   6  13
ATOM     13  N   LIG d   1      -4.239  76.298 116.119  0.00  0.00    -0.311 N 
ATOM     14  C   LIG d   1      -3.161  76.608 115.402  0.00  0.00     0.210 C 
ATOM     15  C   LIG d   1      -2.775  78.091 115.423  0.00  0.00     0.109 C 
ATOM     16  O   LIG d   1      -2.506  75.802 114.725  0.00  0.00    -0.276 OA
ATOM     17  H   LIG d   1      -4.728  77.020 116.612  0.00  0.00     0.149 HD
ENDBRANCH   6  13
BRANCH   5  18
ATOM     18  N   LIG d   1      -5.332  74.630 113.805  0.00  0.00     0.381 N 
ATOM     19  H   LIG d   1      -5.966  75.134 113.217  0.00  0.00    -0.090 HD
ATOM     20  H   LIG d   1      -5.264  73.688 113.462  0.00  0.00    -0.090 HD
ATOM     21  H   LIG d   1      -4.435  75.063 113.786  0.00  0.00    -0.090 HD
ENDBRANCH   5  18
BRANCH   3  22
ATOM     22  C   LIG d   1      -7.841  72.101 117.006  0.00  0.00     0.382 C 
ATOM     23  O   LIG d   1      -8.255  71.359 116.083  0.00  0.00    -0.241 OA
ATOM     24  O   LIG d   1      -8.396  72.060 118.121  0.00  0.00    -0.241 OA
ENDBRANCH   3  22
TORSDOF 7
ENDMDL
MODEL 8
REMARK VINA RESULT:      -4.9      2.402      5.566
REMARK  7 active torsions:
REMARK  status: ('A' for Active; 'I' for Inactive)
REMARK    1  A    between atoms: C_2  and  C_3 
REMARK    2  A    between atoms: C_3  and  O_6 
REMARK    3  A    between atoms: C_3  and  C_4 
REMARK    4  A    between atoms: C_7  and  O_6 
REMARK    5  A    between atoms: C_9  and  C_10 
REMARK    6  A    between atoms: N_15  and  C_14 
REMARK    7  A    between atoms: N_20  and  C_19 
REMARK       I    between atoms: C_22  and  N_20 
ROOT
ATOM      1  C   LIG d   1      -4.921  92.428 118.605  0.00  0.00     0.161 C 
ATOM      2  C   LIG d   1      -5.311  93.457 119.478  0.00  0.00     0.016 C 
ATOM      3  C   LIG d   1      -6.471  94.242 119.286  0.00  0.00     0.038 C 
ATOM      4  C   LIG d   1      -7.407  93.949 118.283  0.00  0.00     0.028 C 
ATOM      5  C   LIG d   1      -6.801  93.240 117.077  0.00  0.00    -0.047 C 
ATOM      6  C   LIG d   1      -5.988  92.020 117.568  0.00  0.00     0.091 C 
ENDROOT
BRANCH   1   7
ATOM      7  O   LIG d   1      -4.495  91.279 119.364  0.00  0.00    -0.368 OA
BRANCH   7   8
ATOM      8  C   LIG d   1      -3.115  90.875 119.190  0.00  0.00     0.119 C 
BRANCH   8   9
ATOM      9  C   LIG d   1      -2.434  91.929 118.294  0.00  0.00     0.028 C 
ATOM     10  C   LIG d   1      -1.749  91.302 117.068  0.00  0.00     0.006 C 
ENDBRANCH   8   9
BRANCH   8  11
ATOM     11  C   LIG d   1      -3.012  89.558 118.416  0.00  0.00     0.028 C 
ATOM     12  C   LIG d   1      -2.695  88.358 119.323  0.00  0.00     0.006 C 
ENDBRANCH   8  11
ENDBRANCH   7   8
ENDBRANCH   1   7
BRANCH   6  13
ATOM     13  N   LIG d   1      -5.291  91.319 116.458  0.00  0.00    -0.311 N 
ATOM     14  C   LIG d   1      -5.772  90.229 115.863  0.00  0.00     0.210 C 
ATOM     15  C   LIG d   1      -4.886  89.653 114.754  0.00  0.00     0.109 C 
ATOM     16  O   LIG d   1      -6.864  89.702 116.127  0.00  0.00    -0.276 OA
ATOM     17  H   LIG d   1      -4.414  91.697 116.159  0.00  0.00     0.149 HD
ENDBRANCH   6  13
BRANCH   5  18
ATOM     18  N   LIG d   1      -7.907  92.872 116.173  0.00  0.00     0.381 N 
ATOM     19  H   LIG d   1      -7.758  91.951 115.813  0.00  0.00    -0.090 HD
ATOM     20  H   LIG d   1      -7.922  93.514 115.400  0.00  0.00    -0.090 HD
ATOM     21  H   LIG d   1      -8.774  92.909 116.663  0.00  0.00    -0.090 HD
ENDBRANCH   5  18
BRANCH   3  22
ATOM     22  C   LIG d   1      -6.684  95.359 120.079  0.00  0.00     0.382 C 
ATOM     23  O   LIG d   1      -5.717  96.086 120.410  0.00  0.00    -0.241 OA
ATOM     24  O   LIG d   1      -7.824  95.624 120.504  0.00  0.00    -0.241 OA
ENDBRANCH   3  22
TORSDOF 7
ENDMDL
MODEL 9
REMARK VINA RESULT:      -4.9      2.414      6.075
REMARK  7 active torsions:
REMARK  status: ('A' for Active; 'I' for Inactive)
REMARK    1  A    between atoms: C_2  and  C_3 
REMARK    2  A    between atoms: C_3  and  O_6 
REMARK    3  A    between atoms: C_3  and  C_4 
REMARK    4  A    between atoms: C_7  and  O_6 
REMARK    5  A    between atoms: C_9  and  C_10 
REMARK    6  A    between atoms: N_15  and  C_14 
REMARK    7  A    between atoms: N_20  and  C_19 
REMARK       I    between atoms: C_22  and  N_20 
ROOT
ATOM      1  C   LIG d   1      -4.913  91.919 117.614  0.00  0.00     0.161 C 
ATOM      2  C   LIG d   1      -4.468  92.714 118.684  0.00  0.00     0.016 C 
ATOM      3  C   LIG d   1      -5.226  93.773 119.235  0.00  0.00     0.038 C 
ATOM      4  C   LIG d   1      -6.554  94.013 118.850  0.00  0.00     0.028 C 
ATOM      5  C   LIG d   1      -6.863  93.560 117.427  0.00  0.00    -0.047 C 
ATOM      6  C   LIG d   1      -6.404  92.094 117.255  0.00  0.00     0.091 C 
ENDROOT
BRANCH   1   7
ATOM      7  O   LIG d   1      -4.622  90.533 117.881  0.00  0.00    -0.368 OA
BRANCH   7   8
ATOM      8  C   LIG d   1      -3.580  89.934 117.073  0.00  0.00     0.119 C 
BRANCH   8   9
ATOM      9  C   LIG d   1      -2.650  89.152 118.021  0.00  0.00     0.028 C 
ATOM     10  C   LIG d   1      -3.128  89.197 119.482  0.00  0.00     0.006 C 
ENDBRANCH   8   9
BRANCH   8  11
ATOM     11  C   LIG d   1      -2.694  91.001 116.425  0.00  0.00     0.028 C 
ATOM     12  C   LIG d   1      -1.208  90.844 116.788  0.00  0.00     0.006 C 
ENDBRANCH   8  11
ENDBRANCH   7   8
ENDBRANCH   1   7
BRANCH   6  13
ATOM     13  N   LIG d   1      -6.593  91.600 115.866  0.00  0.00    -0.311 N 
ATOM     14  C   LIG d   1      -7.117  90.410 115.577  0.00  0.00     0.210 C 
ATOM     15  C   LIG d   1      -7.204  90.088 114.082  0.00  0.00     0.109 C 
ATOM     16  O   LIG d   1      -7.547  89.604 116.415  0.00  0.00    -0.276 OA
ATOM     17  H   LIG d   1      -6.300  92.203 115.123  0.00  0.00     0.149 HD
ENDBRANCH   6  13
BRANCH   5  18
ATOM     18  N   LIG d   1      -8.310  93.742 117.206  0.00  0.00     0.381 N 
ATOM     19  H   LIG d   1      -8.463  94.507 116.579  0.00  0.00    -0.090 HD
ATOM     20  H   LIG d   1      -8.748  93.961 118.083  0.00  0.00    -0.090 HD
ATOM     21  H   LIG d   1      -8.705  92.909 116.828  0.00  0.00    -0.090 HD
ENDBRANCH   5  18
BRANCH   3  22
ATOM     22  C   LIG d   1      -4.642  94.630 120.154  0.00  0.00     0.382 C 
ATOM     23  O   LIG d   1      -5.268  95.641 120.555  0.00  0.00    -0.241 OA
ATOM     24  O   LIG d   1      -3.479  94.430 120.555  0.00  0.00    -0.241 OA
ENDBRANCH   3  22
TORSDOF 7
ENDMDL
