MODEL 1
REMARK VINA RESULT:      -5.4      0.000      0.000
REMARK  7 active torsions:
REMARK  status: ('A' for Active; 'I' for Inactive)
REMARK    1  A    between atoms: C_2  and  C_3 
REMARK    2  A    between atoms: C_3  and  O_6 
REMARK    3  A    between atoms: C_3  and  C_4 
REMARK    4  A    between atoms: C_7  and  O_6 
REMARK    5  A    between atoms: C_9  and  C_10 
REMARK    6  A    between atoms: N_15  and  C_14 
REMARK    7  A    between atoms: N_20  and  C_19 
REMARK       I    between atoms: C_22  and  N_20 
ROOT
ATOM      1  C   LIG d   1      -5.118  92.476 118.605  0.00  0.00     0.161 C 
ATOM      2  C   LIG d   1      -5.536  93.599 119.337  0.00  0.00     0.016 C 
ATOM      3  C   LIG d   1      -6.704  94.336 119.032  0.00  0.00     0.038 C 
ATOM      4  C   LIG d   1      -7.619  93.907 118.060  0.00  0.00     0.028 C 
ATOM      5  C   LIG d   1      -6.983  93.064 116.960  0.00  0.00    -0.047 C 
ATOM      6  C   LIG d   1      -6.162  91.927 117.610  0.00  0.00     0.091 C 
ENDROOT
BRANCH   1   7
ATOM      7  O   LIG d   1      -4.690  91.436 119.506  0.00  0.00    -0.368 OA
BRANCH   7   8
ATOM      8  C   LIG d   1      -3.274  91.130 119.499  0.00  0.00     0.119 C 
BRANCH   8   9
ATOM      9  C   LIG d   1      -2.596  92.096 118.508  0.00  0.00     0.028 C 
ATOM     10  C   LIG d   1      -1.543  92.988 119.185  0.00  0.00     0.006 C 
ENDBRANCH   8   9
BRANCH   8  11
ATOM     11  C   LIG d   1      -3.010  89.727 118.944  0.00  0.00     0.028 C 
ATOM     12  C   LIG d   1      -2.242  89.749 117.613  0.00  0.00     0.006 C 
ENDBRANCH   8  11
ENDBRANCH   7   8
ENDBRANCH   1   7
BRANCH   6  13
ATOM     13  N   LIG d   1      -5.438  91.105 116.606  0.00  0.00    -0.311 N 
ATOM     14  C   LIG d   1      -5.910  89.959 116.118  0.00  0.00     0.210 C 
ATOM     15  C   LIG d   1      -4.995  89.260 115.108  0.00  0.00     0.109 C 
ATOM     16  O   LIG d   1      -7.015  89.472 116.402  0.00  0.00    -0.276 OA
ATOM     17  H   LIG d   1      -4.547  91.443 116.297  0.00  0.00     0.149 HD
ENDBRANCH   6  13
BRANCH   5  18
ATOM     18  N   LIG d   1      -8.069  92.570 116.092  0.00  0.00     0.381 N 
ATOM     19  H   LIG d   1      -7.841  92.741 115.133  0.00  0.00    -0.090 HD
ATOM     20  H   LIG d   1      -8.912  93.071 116.310  0.00  0.00    -0.090 HD
ATOM     21  H   LIG d   1      -8.206  91.594 116.240  0.00  0.00    -0.090 HD
ENDBRANCH   5  18
BRANCH   3  22
ATOM     22  C   LIG d   1      -6.945  95.540 119.678  0.00  0.00     0.382 C 
ATOM     23  O   LIG d   1      -6.093  96.459 119.628  0.00  0.00    -0.241 OA
ATOM     24  O   LIG d   1      -7.983  95.701 120.346  0.00  0.00    -0.241 OA
ENDBRANCH   3  22
TORSDOF 7
ENDMDL
MODEL 2
REMARK VINA RESULT:      -5.3      1.869      5.018
REMARK  7 active torsions:
REMARK  status: ('A' for Active; 'I' for Inactive)
REMARK    1  A    between atoms: C_2  and  C_3 
REMARK    2  A    between atoms: C_3  and  O_6 
REMARK    3  A    between atoms: C_3  and  C_4 
REMARK    4  A    between atoms: C_7  and  O_6 
REMARK    5  A    between atoms: C_9  and  C_10 
REMARK    6  A    between atoms: N_15  and  C_14 
REMARK    7  A    between atoms: N_20  and  C_19 
REMARK       I    between atoms: C_22  and  N_20 
ROOT
ATOM      1  C   LIG d   1      -5.512  91.280 118.922  0.00  0.00     0.161 C 
ATOM      2  C   LIG d   1      -4.781  90.450 118.057  0.00  0.00     0.016 C 
ATOM      3  C   LIG d   1      -5.026  90.365 116.667  0.00  0.00     0.038 C 
ATOM      4  C   LIG d   1      -5.926  91.225 116.020  0.00  0.00     0.028 C 
ATOM      5  C   LIG d   1      -7.045  91.726 116.927  0.00  0.00    -0.047 C 
ATOM      6  C   LIG d   1      -6.423  92.307 118.217  0.00  0.00     0.091 C 
ENDROOT
BRANCH   1   7
ATOM      7  O   LIG d   1      -4.616  91.948 119.833  0.00  0.00    -0.368 OA
BRANCH   7   8
ATOM      8  C   LIG d   1      -4.075  93.214 119.381  0.00  0.00     0.119 C 
BRANCH   8   9
ATOM      9  C   LIG d   1      -2.557  93.027 119.191  0.00  0.00     0.028 C 
ATOM     10  C   LIG d   1      -1.977  91.950 120.122  0.00  0.00     0.006 C 
ENDBRANCH   8   9
BRANCH   8  11
ATOM     11  C   LIG d   1      -4.219  94.296 120.455  0.00  0.00     0.028 C 
ATOM     12  C   LIG d   1      -4.275  95.715 119.867  0.00  0.00     0.006 C 
ENDBRANCH   8  11
ENDBRANCH   7   8
ENDBRANCH   1   7
BRANCH   6  13
ATOM     13  N   LIG d   1      -7.452  92.743 119.196  0.00  0.00    -0.311 N 
ATOM     14  C   LIG d   1      -7.853  94.007 119.325  0.00  0.00     0.210 C 
ATOM     15  C   LIG d   1      -8.910  94.243 120.409  0.00  0.00     0.109 C 
ATOM     16  O   LIG d   1      -7.457  94.949 118.623  0.00  0.00    -0.276 OA
ATOM     17  H   LIG d   1      -7.850  92.037 119.785  0.00  0.00     0.149 HD
ENDBRANCH   6  13
BRANCH   5  18
ATOM     18  N   LIG d   1      -7.827  92.717 116.164  0.00  0.00     0.381 N 
ATOM     19  H   LIG d   1      -8.750  92.368 116.002  0.00  0.00    -0.090 HD
ATOM     20  H   LIG d   1      -7.385  92.864 115.274  0.00  0.00    -0.090 HD
ATOM     21  H   LIG d   1      -7.872  93.576 116.667  0.00  0.00    -0.090 HD
ENDBRANCH   5  18
BRANCH   3  22
ATOM     22  C   LIG d   1      -4.396  89.385 115.917  0.00  0.00     0.382 C 
ATOM     23  O   LIG d   1      -4.946  88.937 114.881  0.00  0.00    -0.241 OA
ATOM     24  O   LIG d   1      -3.305  88.911 116.285  0.00  0.00    -0.241 OA
ENDBRANCH   3  22
TORSDOF 7
ENDMDL
MODEL 3
REMARK VINA RESULT:      -5.3      2.224      5.581
REMARK  7 active torsions:
REMARK  status: ('A' for Active; 'I' for Inactive)
REMARK    1  A    between atoms: C_2  and  C_3 
REMARK    2  A    between atoms: C_3  and  O_6 
REMARK    3  A    between atoms: C_3  and  C_4 
REMARK    4  A    between atoms: C_7  and  O_6 
REMARK    5  A    between atoms: C_9  and  C_10 
REMARK    6  A    between atoms: N_15  and  C_14 
REMARK    7  A    between atoms: N_20  and  C_19 
REMARK       I    between atoms: C_22  and  N_20 
ROOT
ATOM      1  C   LIG d   1      -5.872  92.677 118.139  0.00  0.00     0.161 C 
ATOM      2  C   LIG d   1      -6.720  91.797 117.447  0.00  0.00     0.016 C 
ATOM      3  C   LIG d   1      -6.268  90.619 116.810  0.00  0.00     0.038 C 
ATOM      4  C   LIG d   1      -4.950  90.160 116.951  0.00  0.00     0.028 C 
ATOM      5  C   LIG d   1      -3.945  91.275 117.218  0.00  0.00    -0.047 C 
ATOM      6  C   LIG d   1      -4.450  92.135 118.398  0.00  0.00     0.091 C 
ENDROOT
BRANCH   1   7
ATOM      7  O   LIG d   1      -6.489  93.078 119.379  0.00  0.00    -0.368 OA
BRANCH   7   8
ATOM      8  C   LIG d   1      -6.881  94.469 119.475  0.00  0.00     0.119 C 
BRANCH   8   9
ATOM      9  C   LIG d   1      -5.811  95.194 120.315  0.00  0.00     0.028 C 
ATOM     10  C   LIG d   1      -5.250  96.438 119.604  0.00  0.00     0.006 C 
ENDBRANCH   8   9
BRANCH   8  11
ATOM     11  C   LIG d   1      -8.187  94.627 120.258  0.00  0.00     0.028 C 
ATOM     12  C   LIG d   1      -9.237  93.569 119.885  0.00  0.00     0.006 C 
ENDBRANCH   8  11
ENDBRANCH   7   8
ENDBRANCH   1   7
BRANCH   6  13
ATOM     13  N   LIG d   1      -3.568  93.299 118.671  0.00  0.00    -0.311 N 
ATOM     14  C   LIG d   1      -2.599  93.287 119.584  0.00  0.00     0.210 C 
ATOM     15  C   LIG d   1      -1.819  94.599 119.719  0.00  0.00     0.109 C 
ATOM     16  O   LIG d   1      -2.289  92.303 120.274  0.00  0.00    -0.276 OA
ATOM     17  H   LIG d   1      -3.729  94.129 118.134  0.00  0.00     0.149 HD
ENDBRANCH   6  13
BRANCH   5  18
ATOM     18  N   LIG d   1      -2.638  90.644 117.480  0.00  0.00     0.381 N 
ATOM     19  H   LIG d   1      -2.316  90.175 116.657  0.00  0.00    -0.090 HD
ATOM     20  H   LIG d   1      -2.747  89.961 118.210  0.00  0.00    -0.090 HD
ATOM     21  H   LIG d   1      -1.975  91.334 117.758  0.00  0.00    -0.090 HD
ENDBRANCH   5  18
BRANCH   3  22
ATOM     22  C   LIG d   1      -7.129  89.908 115.988  0.00  0.00     0.382 C 
ATOM     23  O   LIG d   1      -7.166  90.153 114.758  0.00  0.00    -0.241 OA
ATOM     24  O   LIG d   1      -7.900  89.056 116.468  0.00  0.00    -0.241 OA
ENDBRANCH   3  22
TORSDOF 7
ENDMDL
MODEL 4
REMARK VINA RESULT:      -5.0      3.473      5.789
REMARK  7 active torsions:
REMARK  status: ('A' for Active; 'I' for Inactive)
REMARK    1  A    between atoms: C_2  and  C_3 
REMARK    2  A    between atoms: C_3  and  O_6 
REMARK    3  A    between atoms: C_3  and  C_4 
REMARK    4  A    between atoms: C_7  and  O_6 
REMARK    5  A    between atoms: C_9  and  C_10 
REMARK    6  A    between atoms: N_15  and  C_14 
REMARK    7  A    between atoms: N_20  and  C_19 
REMARK       I    between atoms: C_22  and  N_20 
ROOT
ATOM      1  C   LIG d   1      -2.236  89.738 117.480  0.00  0.00     0.161 C 
ATOM      2  C   LIG d   1      -3.346  89.368 116.703  0.00  0.00     0.016 C 
ATOM      3  C   LIG d   1      -4.501  90.172 116.565  0.00  0.00     0.038 C 
ATOM      4  C   LIG d   1      -4.562  91.477 117.076  0.00  0.00     0.028 C 
ATOM      5  C   LIG d   1      -3.666  91.694 118.291  0.00  0.00    -0.047 C 
ATOM      6  C   LIG d   1      -2.238  91.206 117.954  0.00  0.00     0.091 C 
ENDROOT
BRANCH   1   7
ATOM      7  O   LIG d   1      -1.020  89.444 116.764  0.00  0.00    -0.368 OA
BRANCH   7   8
ATOM      8  C   LIG d   1      -0.138  88.472 117.377  0.00  0.00     0.119 C 
BRANCH   8   9
ATOM      9  C   LIG d   1       1.208  89.173 117.646  0.00  0.00     0.028 C 
ATOM     10  C   LIG d   1       1.410  90.415 116.761  0.00  0.00     0.006 C 
ENDBRANCH   8   9
BRANCH   8  11
ATOM     11  C   LIG d   1       0.187  87.328 116.413  0.00  0.00     0.028 C 
ATOM     12  C   LIG d   1       1.052  86.233 117.057  0.00  0.00     0.006 C 
ENDBRANCH   8  11
ENDBRANCH   7   8
ENDBRANCH   1   7
BRANCH   6  13
ATOM     13  N   LIG d   1      -1.317  91.304 119.117  0.00  0.00    -0.311 N 
ATOM     14  C   LIG d   1      -0.475  92.320 119.301  0.00  0.00     0.210 C 
ATOM     15  C   LIG d   1       0.400  92.215 120.554  0.00  0.00     0.109 C 
ATOM     16  O   LIG d   1      -0.393  93.313 118.563  0.00  0.00    -0.276 OA
ATOM     17  H   LIG d   1      -1.340  90.556 119.781  0.00  0.00     0.149 HD
ENDBRANCH   6  13
BRANCH   5  18
ATOM     18  N   LIG d   1      -3.721  93.127 118.635  0.00  0.00     0.381 N 
ATOM     19  H   LIG d   1      -4.456  93.290 119.294  0.00  0.00    -0.090 HD
ATOM     20  H   LIG d   1      -3.921  93.654 117.803  0.00  0.00    -0.090 HD
ATOM     21  H   LIG d   1      -2.849  93.419 119.019  0.00  0.00    -0.090 HD
ENDBRANCH   5  18
BRANCH   3  22
ATOM     22  C   LIG d   1      -5.628  89.656 115.942  0.00  0.00     0.382 C 
ATOM     23  O   LIG d   1      -6.723  89.624 116.554  0.00  0.00    -0.241 OA
ATOM     24  O   LIG d   1      -5.552  89.181 114.793  0.00  0.00    -0.241 OA
ENDBRANCH   3  22
TORSDOF 7
ENDMDL
MODEL 5
REMARK VINA RESULT:      -5.0     12.873     15.003
REMARK  7 active torsions:
REMARK  status: ('A' for Active; 'I' for Inactive)
REMARK    1  A    between atoms: C_2  and  C_3 
REMARK    2  A    between atoms: C_3  and  O_6 
REMARK    3  A    between atoms: C_3  and  C_4 
REMARK    4  A    between atoms: C_7  and  O_6 
REMARK    5  A    between atoms: C_9  and  C_10 
REMARK    6  A    between atoms: N_15  and  C_14 
REMARK    7  A    between atoms: N_20  and  C_19 
REMARK       I    between atoms: C_22  and  N_20 
ROOT
ATOM      1  C   LIG d   1      -5.830  77.635 116.915  0.00  0.00     0.161 C 
ATOM      2  C   LIG d   1      -7.117  77.810 117.451  0.00  0.00     0.016 C 
ATOM      3  C   LIG d   1      -7.508  78.958 118.178  0.00  0.00     0.038 C 
ATOM      4  C   LIG d   1      -6.677  80.083 118.291  0.00  0.00     0.028 C 
ATOM      5  C   LIG d   1      -5.192  79.750 118.199  0.00  0.00    -0.047 C 
ATOM      6  C   LIG d   1      -4.945  78.899 116.933  0.00  0.00     0.091 C 
ENDROOT
BRANCH   1   7
ATOM      7  O   LIG d   1      -5.925  77.108 115.577  0.00  0.00    -0.368 OA
BRANCH   7   8
ATOM      8  C   LIG d   1      -5.396  75.774 115.378  0.00  0.00     0.119 C 
BRANCH   8   9
ATOM      9  C   LIG d   1      -4.780  75.726 113.967  0.00  0.00     0.028 C 
ATOM     10  C   LIG d   1      -3.262  75.478 113.997  0.00  0.00     0.006 C 
ENDBRANCH   8   9
BRANCH   8  11
ATOM     11  C   LIG d   1      -6.514  74.727 115.369  0.00  0.00     0.028 C 
ATOM     12  C   LIG d   1      -6.025  73.337 114.931  0.00  0.00     0.006 C 
ENDBRANCH   8  11
ENDBRANCH   7   8
ENDBRANCH   1   7
BRANCH   6  13
ATOM     13  N   LIG d   1      -3.531  78.459 116.811  0.00  0.00    -0.311 N 
ATOM     14  C   LIG d   1      -2.783  78.684 115.732  0.00  0.00     0.210 C 
ATOM     15  C   LIG d   1      -1.357  78.129 115.807  0.00  0.00     0.109 C 
ATOM     16  O   LIG d   1      -3.155  79.319 114.734  0.00  0.00    -0.276 OA
ATOM     17  H   LIG d   1      -3.139  77.964 117.588  0.00  0.00     0.149 HD
ENDBRANCH   6  13
BRANCH   5  18
ATOM     18  N   LIG d   1      -4.449  81.025 118.193  0.00  0.00     0.381 N 
ATOM     19  H   LIG d   1      -3.603  80.921 117.668  0.00  0.00    -0.090 HD
ATOM     20  H   LIG d   1      -4.207  81.265 119.138  0.00  0.00    -0.090 HD
ATOM     21  H   LIG d   1      -5.011  81.744 117.793  0.00  0.00    -0.090 HD
ENDBRANCH   5  18
BRANCH   3  22
ATOM     22  C   LIG d   1      -8.728  78.972 118.837  0.00  0.00     0.382 C 
ATOM     23  O   LIG d   1      -9.794  78.859 118.185  0.00  0.00    -0.241 OA
ATOM     24  O   LIG d   1      -8.778  79.140 120.070  0.00  0.00    -0.241 OA
ENDBRANCH   3  22
TORSDOF 7
ENDMDL
MODEL 6
REMARK VINA RESULT:      -5.0     13.074     16.678
REMARK  7 active torsions:
REMARK  status: ('A' for Active; 'I' for Inactive)
REMARK    1  A    between atoms: C_2  and  C_3 
REMARK    2  A    between atoms: C_3  and  O_6 
REMARK    3  A    between atoms: C_3  and  C_4 
REMARK    4  A    between atoms: C_7  and  O_6 
REMARK    5  A    between atoms: C_9  and  C_10 
REMARK    6  A    between atoms: N_15  and  C_14 
REMARK    7  A    between atoms: N_20  and  C_19 
REMARK       I    between atoms: C_22  and  N_20 
ROOT
ATOM      1  C   LIG d   1      -2.735  77.297 115.184  0.00  0.00     0.161 C 
ATOM      2  C   LIG d   1      -2.257  75.985 115.336  0.00  0.00     0.016 C 
ATOM      3  C   LIG d   1      -1.457  75.570 116.426  0.00  0.00     0.038 C 
ATOM      4  C   LIG d   1      -1.205  76.408 117.522  0.00  0.00     0.028 C 
ATOM      5  C   LIG d   1      -1.244  77.892 117.172  0.00  0.00    -0.047 C 
ATOM      6  C   LIG d   1      -2.563  78.196 116.426  0.00  0.00     0.091 C 
ENDROOT
BRANCH   1   7
ATOM      7  O   LIG d   1      -4.116  77.269 114.773  0.00  0.00    -0.368 OA
BRANCH   7   8
ATOM      8  C   LIG d   1      -4.970  76.331 115.472  0.00  0.00     0.119 C 
BRANCH   8   9
ATOM      9  C   LIG d   1      -5.870  75.652 114.422  0.00  0.00     0.028 C 
ATOM     10  C   LIG d   1      -5.276  74.331 113.906  0.00  0.00     0.006 C 
ENDBRANCH   8   9
BRANCH   8  11
ATOM     11  C   LIG d   1      -5.930  77.053 116.422  0.00  0.00     0.028 C 
ATOM     12  C   LIG d   1      -7.313  76.386 116.493  0.00  0.00     0.006 C 
ENDBRANCH   8  11
ENDBRANCH   7   8
ENDBRANCH   1   7
BRANCH   6  13
ATOM     13  N   LIG d   1      -2.645  79.610 115.973  0.00  0.00    -0.311 N 
ATOM     14  C   LIG d   1      -3.217  80.577 116.688  0.00  0.00     0.210 C 
ATOM     15  C   LIG d   1      -3.210  81.959 116.028  0.00  0.00     0.109 C 
ATOM     16  O   LIG d   1      -3.700  80.428 117.821  0.00  0.00    -0.276 OA
ATOM     17  H   LIG d   1      -2.250  79.825 115.079  0.00  0.00     0.149 HD
ENDBRANCH   6  13
BRANCH   5  18
ATOM     18  N   LIG d   1      -1.103  78.650 118.430  0.00  0.00     0.381 N 
ATOM     19  H   LIG d   1      -0.709  79.550 118.240  0.00  0.00    -0.090 HD
ATOM     20  H   LIG d   1      -0.477  78.154 119.040  0.00  0.00    -0.090 HD
ATOM     21  H   LIG d   1      -1.992  78.754 118.867  0.00  0.00    -0.090 HD
ENDBRANCH   5  18
BRANCH   3  22
ATOM     22  C   LIG d   1      -0.866  74.316 116.406  0.00  0.00     0.382 C 
ATOM     23  O   LIG d   1      -1.002  73.543 117.385  0.00  0.00    -0.241 OA
ATOM     24  O   LIG d   1      -0.162  73.964 115.440  0.00  0.00    -0.241 OA
ENDBRANCH   3  22
TORSDOF 7
ENDMDL
MODEL 7
REMARK VINA RESULT:      -4.7      1.898      4.945
REMARK  7 active torsions:
REMARK  status: ('A' for Active; 'I' for Inactive)
REMARK    1  A    between atoms: C_2  and  C_3 
REMARK    2  A    between atoms: C_3  and  O_6 
REMARK    3  A    between atoms: C_3  and  C_4 
REMARK    4  A    between atoms: C_7  and  O_6 
REMARK    5  A    between atoms: C_9  and  C_10 
REMARK    6  A    between atoms: N_15  and  C_14 
REMARK    7  A    between atoms: N_20  and  C_19 
REMARK       I    between atoms: C_22  and  N_20 
ROOT
ATOM      1  C   LIG d   1      -5.005  91.721 118.577  0.00  0.00     0.161 C 
ATOM      2  C   LIG d   1      -3.814  92.019 119.260  0.00  0.00     0.016 C 
ATOM      3  C   LIG d   1      -2.574  91.405 118.968  0.00  0.00     0.038 C 
ATOM      4  C   LIG d   1      -2.410  90.556 117.863  0.00  0.00     0.028 C 
ATOM      5  C   LIG d   1      -3.691  89.838 117.455  0.00  0.00    -0.047 C 
ATOM      6  C   LIG d   1      -4.822  90.880 117.296  0.00  0.00     0.091 C 
ENDROOT
BRANCH   1   7
ATOM      7  O   LIG d   1      -5.715  92.939 118.279  0.00  0.00    -0.368 OA
BRANCH   7   8
ATOM      8  C   LIG d   1      -6.862  93.229 119.116  0.00  0.00     0.119 C 
BRANCH   8   9
ATOM      9  C   LIG d   1      -7.941  93.865 118.218  0.00  0.00     0.028 C 
ATOM     10  C   LIG d   1      -7.955  93.265 116.802  0.00  0.00     0.006 C 
ENDBRANCH   8   9
BRANCH   8  11
ATOM     11  C   LIG d   1      -6.531  94.292 120.167  0.00  0.00     0.028 C 
ATOM     12  C   LIG d   1      -5.696  95.452 119.599  0.00  0.00     0.006 C 
ENDBRANCH   8  11
ENDBRANCH   7   8
ENDBRANCH   1   7
BRANCH   6  13
ATOM     13  N   LIG d   1      -6.131  90.252 116.980  0.00  0.00    -0.311 N 
ATOM     14  C   LIG d   1      -6.581  90.080 115.738  0.00  0.00     0.210 C 
ATOM     15  C   LIG d   1      -7.964  89.430 115.635  0.00  0.00     0.109 C 
ATOM     16  O   LIG d   1      -5.951  90.374 114.711  0.00  0.00    -0.276 OA
ATOM     17  H   LIG d   1      -6.694  89.955 117.753  0.00  0.00     0.149 HD
ENDBRANCH   6  13
BRANCH   5  18
ATOM     18  N   LIG d   1      -3.410  89.096 116.211  0.00  0.00     0.381 N 
ATOM     19  H   LIG d   1      -4.251  88.993 115.680  0.00  0.00    -0.090 HD
ATOM     20  H   LIG d   1      -3.073  88.180 116.449  0.00  0.00    -0.090 HD
ATOM     21  H   LIG d   1      -2.726  89.580 115.673  0.00  0.00    -0.090 HD
ENDBRANCH   5  18
BRANCH   3  22
ATOM     22  C   LIG d   1      -1.491  91.608 119.810  0.00  0.00     0.382 C 
ATOM     23  O   LIG d   1      -1.244  92.758 120.246  0.00  0.00    -0.241 OA
ATOM     24  O   LIG d   1      -0.733  90.664 120.102  0.00  0.00    -0.241 OA
ENDBRANCH   3  22
TORSDOF 7
ENDMDL
MODEL 8
REMARK VINA RESULT:      -4.7     12.227     15.319
REMARK  7 active torsions:
REMARK  status: ('A' for Active; 'I' for Inactive)
REMARK    1  A    between atoms: C_2  and  C_3 
REMARK    2  A    between atoms: C_3  and  O_6 
REMARK    3  A    between atoms: C_3  and  C_4 
REMARK    4  A    between atoms: C_7  and  O_6 
REMARK    5  A    between atoms: C_9  and  C_10 
REMARK    6  A    between atoms: N_15  and  C_14 
REMARK    7  A    between atoms: N_20  and  C_19 
REMARK       I    between atoms: C_22  and  N_20 
ROOT
ATOM      1  C   LIG d   1      -3.231  77.842 115.563  0.00  0.00     0.161 C 
ATOM      2  C   LIG d   1      -3.931  78.836 116.267  0.00  0.00     0.016 C 
ATOM      3  C   LIG d   1      -3.435  80.145 116.465  0.00  0.00     0.038 C 
ATOM      4  C   LIG d   1      -2.263  80.596 115.839  0.00  0.00     0.028 C 
ATOM      5  C   LIG d   1      -1.270  79.480 115.536  0.00  0.00    -0.047 C 
ATOM      6  C   LIG d   1      -2.002  78.348 114.779  0.00  0.00     0.091 C 
ENDROOT
BRANCH   1   7
ATOM      7  O   LIG d   1      -4.131  77.139 114.685  0.00  0.00    -0.368 OA
BRANCH   7   8
ATOM      8  C   LIG d   1      -4.844  76.019 115.266  0.00  0.00     0.119 C 
BRANCH   8   9
ATOM      9  C   LIG d   1      -4.537  74.778 114.406  0.00  0.00     0.028 C 
ATOM     10  C   LIG d   1      -5.670  73.739 114.448  0.00  0.00     0.006 C 
ENDBRANCH   8   9
BRANCH   8  11
ATOM     11  C   LIG d   1      -6.361  76.214 115.169  0.00  0.00     0.028 C 
ATOM     12  C   LIG d   1      -6.992  76.650 116.500  0.00  0.00     0.006 C 
ENDBRANCH   8  11
ENDBRANCH   7   8
ENDBRANCH   1   7
BRANCH   6  13
ATOM     13  N   LIG d   1      -1.122  77.179 114.517  0.00  0.00    -0.311 N 
ATOM     14  C   LIG d   1      -0.710  76.345 115.470  0.00  0.00     0.210 C 
ATOM     15  C   LIG d   1       0.208  75.217 114.988  0.00  0.00     0.109 C 
ATOM     16  O   LIG d   1      -1.042  76.413 116.663  0.00  0.00    -0.276 OA
ATOM     17  H   LIG d   1      -0.830  77.031 113.571  0.00  0.00     0.149 HD
ENDBRANCH   6  13
BRANCH   5  18
ATOM     18  N   LIG d   1      -0.160  80.069 114.762  0.00  0.00     0.381 N 
ATOM     19  H   LIG d   1       0.081  79.464 114.002  0.00  0.00    -0.090 HD
ATOM     20  H   LIG d   1       0.642  80.158 115.361  0.00  0.00    -0.090 HD
ATOM     21  H   LIG d   1      -0.425  80.964 114.413  0.00  0.00    -0.090 HD
ENDBRANCH   5  18
BRANCH   3  22
ATOM     22  C   LIG d   1      -4.093  81.006 117.330  0.00  0.00     0.382 C 
ATOM     23  O   LIG d   1      -5.288  81.322 117.111  0.00  0.00    -0.241 OA
ATOM     24  O   LIG d   1      -3.494  81.506 118.301  0.00  0.00    -0.241 OA
ENDBRANCH   3  22
TORSDOF 7
ENDMDL
MODEL 9
REMARK VINA RESULT:      -4.5      2.746      5.459
REMARK  7 active torsions:
REMARK  status: ('A' for Active; 'I' for Inactive)
REMARK    1  A    between atoms: C_2  and  C_3 
REMARK    2  A    between atoms: C_3  and  O_6 
REMARK    3  A    between atoms: C_3  and  C_4 
REMARK    4  A    between atoms: C_7  and  O_6 
REMARK    5  A    between atoms: C_9  and  C_10 
REMARK    6  A    between atoms: N_15  and  C_14 
REMARK    7  A    between atoms: N_20  and  C_19 
REMARK       I    between atoms: C_22  and  N_20 
ROOT
ATOM      1  C   LIG d   1      -3.101  91.837 118.492  0.00  0.00     0.161 C 
ATOM      2  C   LIG d   1      -1.900  91.152 118.740  0.00  0.00     0.016 C 
ATOM      3  C   LIG d   1      -1.529  89.963 118.071  0.00  0.00     0.038 C 
ATOM      4  C   LIG d   1      -2.270  89.458 116.992  0.00  0.00     0.028 C 
ATOM      5  C   LIG d   1      -3.747  89.835 117.042  0.00  0.00    -0.047 C 
ATOM      6  C   LIG d   1      -3.869  91.363 117.240  0.00  0.00     0.091 C 
ENDROOT
BRANCH   1   7
ATOM      7  O   LIG d   1      -2.848  93.254 118.417  0.00  0.00    -0.368 OA
BRANCH   7   8
ATOM      8  C   LIG d   1      -1.643  93.722 119.072  0.00  0.00     0.119 C 
BRANCH   8   9
ATOM      9  C   LIG d   1      -2.044  94.876 120.011  0.00  0.00     0.028 C 
ATOM     10  C   LIG d   1      -2.052  96.238 119.297  0.00  0.00     0.006 C 
ENDBRANCH   8   9
BRANCH   8  11
ATOM     11  C   LIG d   1      -0.667  94.339 118.066  0.00  0.00     0.028 C 
ATOM     12  C   LIG d   1       0.731  93.701 118.124  0.00  0.00     0.006 C 
ENDBRANCH   8  11
ENDBRANCH   7   8
ENDBRANCH   1   7
BRANCH   6  13
ATOM     13  N   LIG d   1      -5.280  91.805 117.385  0.00  0.00    -0.311 N 
ATOM     14  C   LIG d   1      -6.025  92.225 116.363  0.00  0.00     0.210 C 
ATOM     15  C   LIG d   1      -7.448  92.654 116.734  0.00  0.00     0.109 C 
ATOM     16  O   LIG d   1      -5.653  92.252 115.181  0.00  0.00    -0.276 OA
ATOM     17  H   LIG d   1      -5.673  91.786 118.306  0.00  0.00     0.149 HD
ENDBRANCH   6  13
BRANCH   5  18
ATOM     18  N   LIG d   1      -4.371  89.362 115.791  0.00  0.00     0.381 N 
ATOM     19  H   LIG d   1      -3.742  88.751 115.310  0.00  0.00    -0.090 HD
ATOM     20  H   LIG d   1      -4.555  90.154 115.201  0.00  0.00    -0.090 HD
ATOM     21  H   LIG d   1      -5.221  88.885 115.993  0.00  0.00    -0.090 HD
ENDBRANCH   5  18
BRANCH   3  22
ATOM     22  C   LIG d   1      -0.427  89.244 118.506  0.00  0.00     0.382 C 
ATOM     23  O   LIG d   1      -0.080  89.296 119.711  0.00  0.00    -0.241 OA
ATOM     24  O   LIG d   1       0.252  88.579 117.701  0.00  0.00    -0.241 OA
ENDBRANCH   3  22
TORSDOF 7
ENDMDL
