MODEL 1
REMARK VINA RESULT:      -6.0      0.000      0.000
REMARK  7 active torsions:
REMARK  status: ('A' for Active; 'I' for Inactive)
REMARK    1  A    between atoms: C_2  and  C_3 
REMARK    2  A    between atoms: C_3  and  O_6 
REMARK    3  A    between atoms: C_3  and  C_4 
REMARK    4  A    between atoms: C_7  and  O_6 
REMARK    5  A    between atoms: C_9  and  C_10 
REMARK    6  A    between atoms: N_15  and  C_14 
REMARK    7  A    between atoms: N_20  and  C_19 
REMARK       I    between atoms: C_22  and  N_20 
ROOT
ATOM      1  C   LIG d   1      -7.208  75.965 116.304  0.00  0.00     0.161 C 
ATOM      2  C   LIG d   1      -6.007  75.455 115.784  0.00  0.00     0.016 C 
ATOM      3  C   LIG d   1      -4.753  75.623 116.416  0.00  0.00     0.038 C 
ATOM      4  C   LIG d   1      -4.636  76.186 117.695  0.00  0.00     0.028 C 
ATOM      5  C   LIG d   1      -5.756  77.165 118.030  0.00  0.00    -0.047 C 
ATOM      6  C   LIG d   1      -7.117  76.485 117.754  0.00  0.00     0.091 C 
ENDROOT
BRANCH   1   7
ATOM      7  O   LIG d   1      -8.248  74.973 116.192  0.00  0.00    -0.368 OA
BRANCH   7   8
ATOM      8  C   LIG d   1      -8.291  73.973 117.240  0.00  0.00     0.119 C 
BRANCH   8   9
ATOM      9  C   LIG d   1      -7.618  72.700 116.692  0.00  0.00     0.028 C 
ATOM     10  C   LIG d   1      -8.498  71.451 116.864  0.00  0.00     0.006 C 
ENDBRANCH   8   9
BRANCH   8  11
ATOM     11  C   LIG d   1      -9.731  73.564 117.562  0.00  0.00     0.028 C 
ATOM     12  C   LIG d   1     -10.723  74.732 117.443  0.00  0.00     0.006 C 
ENDBRANCH   8  11
ENDBRANCH   7   8
ENDBRANCH   1   7
BRANCH   6  13
ATOM     13  N   LIG d   1      -8.265  77.403 117.975  0.00  0.00    -0.311 N 
ATOM     14  C   LIG d   1      -8.931  77.479 119.126  0.00  0.00     0.210 C 
ATOM     15  C   LIG d   1     -10.094  78.476 119.136  0.00  0.00     0.109 C 
ATOM     16  O   LIG d   1      -8.648  76.839 120.151  0.00  0.00    -0.276 OA
ATOM     17  H   LIG d   1      -8.542  77.981 117.206  0.00  0.00     0.149 HD
ENDBRANCH   6  13
BRANCH   5  18
ATOM     18  N   LIG d   1      -5.588  77.570 119.439  0.00  0.00     0.381 N 
ATOM     19  H   LIG d   1      -5.539  76.758 120.021  0.00  0.00    -0.090 HD
ATOM     20  H   LIG d   1      -6.387  78.111 119.719  0.00  0.00    -0.090 HD
ATOM     21  H   LIG d   1      -4.759  78.112 119.541  0.00  0.00    -0.090 HD
ENDBRANCH   5  18
BRANCH   3  22
ATOM     22  C   LIG d   1      -3.593  75.261 115.747  0.00  0.00     0.382 C 
ATOM     23  O   LIG d   1      -3.463  75.528 114.528  0.00  0.00    -0.241 OA
ATOM     24  O   LIG d   1      -2.694  74.632 116.337  0.00  0.00    -0.241 OA
ENDBRANCH   3  22
TORSDOF 7
ENDMDL
MODEL 2
REMARK VINA RESULT:      -5.8     15.351     17.665
REMARK  7 active torsions:
REMARK  status: ('A' for Active; 'I' for Inactive)
REMARK    1  A    between atoms: C_2  and  C_3 
REMARK    2  A    between atoms: C_3  and  O_6 
REMARK    3  A    between atoms: C_3  and  C_4 
REMARK    4  A    between atoms: C_7  and  O_6 
REMARK    5  A    between atoms: C_9  and  C_10 
REMARK    6  A    between atoms: N_15  and  C_14 
REMARK    7  A    between atoms: N_20  and  C_19 
REMARK       I    between atoms: C_22  and  N_20 
ROOT
ATOM      1  C   LIG d   1      -5.629  92.824 117.256  0.00  0.00     0.161 C 
ATOM      2  C   LIG d   1      -6.560  91.852 116.851  0.00  0.00     0.016 C 
ATOM      3  C   LIG d   1      -6.207  90.520 116.537  0.00  0.00     0.038 C 
ATOM      4  C   LIG d   1      -4.912  90.025 116.754  0.00  0.00     0.028 C 
ATOM      5  C   LIG d   1      -3.833  91.099 116.682  0.00  0.00    -0.047 C 
ATOM      6  C   LIG d   1      -4.231  92.273 117.606  0.00  0.00     0.091 C 
ENDROOT
BRANCH   1   7
ATOM      7  O   LIG d   1      -6.161  93.579 118.363  0.00  0.00    -0.368 OA
BRANCH   7   8
ATOM      8  C   LIG d   1      -7.187  94.549 118.037  0.00  0.00     0.119 C 
BRANCH   8   9
ATOM      9  C   LIG d   1      -6.598  95.949 118.296  0.00  0.00     0.028 C 
ATOM     10  C   LIG d   1      -5.388  95.911 119.245  0.00  0.00     0.006 C 
ENDBRANCH   8   9
BRANCH   8  11
ATOM     11  C   LIG d   1      -8.385  94.432 118.984  0.00  0.00     0.028 C 
ATOM     12  C   LIG d   1      -8.368  93.135 119.809  0.00  0.00     0.006 C 
ENDBRANCH   8  11
ENDBRANCH   7   8
ENDBRANCH   1   7
BRANCH   6  13
ATOM     13  N   LIG d   1      -3.270  93.405 117.530  0.00  0.00    -0.311 N 
ATOM     14  C   LIG d   1      -2.250  93.558 118.372  0.00  0.00     0.210 C 
ATOM     15  C   LIG d   1      -1.393  94.805 118.130  0.00  0.00     0.109 C 
ATOM     16  O   LIG d   1      -1.955  92.763 119.278  0.00  0.00    -0.276 OA
ATOM     17  H   LIG d   1      -3.417  94.080 116.805  0.00  0.00     0.149 HD
ENDBRANCH   6  13
BRANCH   5  18
ATOM     18  N   LIG d   1      -2.553  90.472 117.062  0.00  0.00     0.381 N 
ATOM     19  H   LIG d   1      -2.728  89.636 117.583  0.00  0.00    -0.090 HD
ATOM     20  H   LIG d   1      -2.041  91.108 117.648  0.00  0.00    -0.090 HD
ATOM     21  H   LIG d   1      -2.022  90.259 116.247  0.00  0.00    -0.090 HD
ENDBRANCH   5  18
BRANCH   3  22
ATOM     22  C   LIG d   1      -7.146  89.678 115.961  0.00  0.00     0.382 C 
ATOM     23  O   LIG d   1      -7.390  88.562 116.481  0.00  0.00    -0.241 OA
ATOM     24  O   LIG d   1      -7.721  90.000 114.905  0.00  0.00    -0.241 OA
ENDBRANCH   3  22
TORSDOF 7
ENDMDL
MODEL 3
REMARK VINA RESULT:      -5.6      2.025      4.928
REMARK  7 active torsions:
REMARK  status: ('A' for Active; 'I' for Inactive)
REMARK    1  A    between atoms: C_2  and  C_3 
REMARK    2  A    between atoms: C_3  and  O_6 
REMARK    3  A    between atoms: C_3  and  C_4 
REMARK    4  A    between atoms: C_7  and  O_6 
REMARK    5  A    between atoms: C_9  and  C_10 
REMARK    6  A    between atoms: N_15  and  C_14 
REMARK    7  A    between atoms: N_20  and  C_19 
REMARK       I    between atoms: C_22  and  N_20 
ROOT
ATOM      1  C   LIG d   1      -6.235  74.914 116.740  0.00  0.00     0.161 C 
ATOM      2  C   LIG d   1      -6.839  73.671 116.485  0.00  0.00     0.016 C 
ATOM      3  C   LIG d   1      -8.156  73.349 116.887  0.00  0.00     0.038 C 
ATOM      4  C   LIG d   1      -9.018  74.307 117.441  0.00  0.00     0.028 C 
ATOM      5  C   LIG d   1      -8.287  75.426 118.175  0.00  0.00    -0.047 C 
ATOM      6  C   LIG d   1      -7.198  76.009 117.245  0.00  0.00     0.091 C 
ENDROOT
BRANCH   1   7
ATOM      7  O   LIG d   1      -5.534  75.366 115.565  0.00  0.00    -0.368 OA
BRANCH   7   8
ATOM      8  C   LIG d   1      -4.091  75.438 115.672  0.00  0.00     0.119 C 
BRANCH   8   9
ATOM      9  C   LIG d   1      -3.703  74.902 117.064  0.00  0.00     0.028 C 
ATOM     10  C   LIG d   1      -2.857  75.906 117.865  0.00  0.00     0.006 C 
ENDBRANCH   8   9
BRANCH   8  11
ATOM     11  C   LIG d   1      -3.601  76.889 115.645  0.00  0.00     0.028 C 
ATOM     12  C   LIG d   1      -2.917  77.262 114.321  0.00  0.00     0.006 C 
ENDBRANCH   8  11
ENDBRANCH   7   8
ENDBRANCH   1   7
BRANCH   6  13
ATOM     13  N   LIG d   1      -6.380  77.053 117.915  0.00  0.00    -0.311 N 
ATOM     14  C   LIG d   1      -6.651  78.355 117.842  0.00  0.00     0.210 C 
ATOM     15  C   LIG d   1      -5.669  79.263 118.590  0.00  0.00     0.109 C 
ATOM     16  O   LIG d   1      -7.630  78.843 117.257  0.00  0.00    -0.276 OA
ATOM     17  H   LIG d   1      -5.584  76.744 118.437  0.00  0.00     0.149 HD
ENDBRANCH   6  13
BRANCH   5  18
ATOM     18  N   LIG d   1      -9.294  76.424 118.582  0.00  0.00     0.381 N 
ATOM     19  H   LIG d   1     -10.041  75.972 119.071  0.00  0.00    -0.090 HD
ATOM     20  H   LIG d   1      -9.673  76.858 117.759  0.00  0.00    -0.090 HD
ATOM     21  H   LIG d   1      -8.874  77.114 119.166  0.00  0.00    -0.090 HD
ENDBRANCH   5  18
BRANCH   3  22
ATOM     22  C   LIG d   1      -8.609  72.043 116.771  0.00  0.00     0.382 C 
ATOM     23  O   LIG d   1      -9.799  71.766 117.056  0.00  0.00    -0.241 OA
ATOM     24  O   LIG d   1      -7.832  71.133 116.428  0.00  0.00    -0.241 OA
ENDBRANCH   3  22
TORSDOF 7
ENDMDL
MODEL 4
REMARK VINA RESULT:      -5.5      2.410      6.062
REMARK  7 active torsions:
REMARK  status: ('A' for Active; 'I' for Inactive)
REMARK    1  A    between atoms: C_2  and  C_3 
REMARK    2  A    between atoms: C_3  and  O_6 
REMARK    3  A    between atoms: C_3  and  C_4 
REMARK    4  A    between atoms: C_7  and  O_6 
REMARK    5  A    between atoms: C_9  and  C_10 
REMARK    6  A    between atoms: N_15  and  C_14 
REMARK    7  A    between atoms: N_20  and  C_19 
REMARK       I    between atoms: C_22  and  N_20 
ROOT
ATOM      1  C   LIG d   1      -6.861  76.815 117.518  0.00  0.00     0.161 C 
ATOM      2  C   LIG d   1      -8.225  76.743 117.848  0.00  0.00     0.016 C 
ATOM      3  C   LIG d   1      -9.002  75.572 117.696  0.00  0.00     0.038 C 
ATOM      4  C   LIG d   1      -8.427  74.342 117.343  0.00  0.00     0.028 C 
ATOM      5  C   LIG d   1      -7.154  74.483 116.515  0.00  0.00    -0.047 C 
ATOM      6  C   LIG d   1      -6.192  75.454 117.237  0.00  0.00     0.091 C 
ENDROOT
BRANCH   1   7
ATOM      7  O   LIG d   1      -6.145  77.522 118.550  0.00  0.00    -0.368 OA
BRANCH   7   8
ATOM      8  C   LIG d   1      -5.691  78.855 118.212  0.00  0.00     0.119 C 
BRANCH   8   9
ATOM      9  C   LIG d   1      -4.355  79.089 118.944  0.00  0.00     0.028 C 
ATOM     10  C   LIG d   1      -3.180  78.363 118.268  0.00  0.00     0.006 C 
ENDBRANCH   8   9
BRANCH   8  11
ATOM     11  C   LIG d   1      -6.644  79.924 118.755  0.00  0.00     0.028 C 
ATOM     12  C   LIG d   1      -7.620  80.449 117.691  0.00  0.00     0.006 C 
ENDBRANCH   8  11
ENDBRANCH   7   8
ENDBRANCH   1   7
BRANCH   6  13
ATOM     13  N   LIG d   1      -4.956  75.714 116.453  0.00  0.00    -0.311 N 
ATOM     14  C   LIG d   1      -3.822  75.036 116.625  0.00  0.00     0.210 C 
ATOM     15  C   LIG d   1      -2.662  75.478 115.727  0.00  0.00     0.109 C 
ATOM     16  O   LIG d   1      -3.676  74.091 117.414  0.00  0.00    -0.276 OA
ATOM     17  H   LIG d   1      -4.995  76.443 115.769  0.00  0.00     0.149 HD
ENDBRANCH   6  13
BRANCH   5  18
ATOM     18  N   LIG d   1      -6.587  73.133 116.335  0.00  0.00     0.381 N 
ATOM     19  H   LIG d   1      -7.239  72.446 116.659  0.00  0.00    -0.090 HD
ATOM     20  H   LIG d   1      -5.750  73.057 116.885  0.00  0.00    -0.090 HD
ATOM     21  H   LIG d   1      -6.378  72.976 115.374  0.00  0.00    -0.090 HD
ENDBRANCH   5  18
BRANCH   3  22
ATOM     22  C   LIG d   1     -10.377  75.634 117.860  0.00  0.00     0.382 C 
ATOM     23  O   LIG d   1     -11.098  74.681 117.475  0.00  0.00    -0.241 OA
ATOM     24  O   LIG d   1     -10.911  76.649 118.346  0.00  0.00    -0.241 OA
ENDBRANCH   3  22
TORSDOF 7
ENDMDL
MODEL 5
REMARK VINA RESULT:      -5.3      2.262      4.793
REMARK  7 active torsions:
REMARK  status: ('A' for Active; 'I' for Inactive)
REMARK    1  A    between atoms: C_2  and  C_3 
REMARK    2  A    between atoms: C_3  and  O_6 
REMARK    3  A    between atoms: C_3  and  C_4 
REMARK    4  A    between atoms: C_7  and  O_6 
REMARK    5  A    between atoms: C_9  and  C_10 
REMARK    6  A    between atoms: N_15  and  C_14 
REMARK    7  A    between atoms: N_20  and  C_19 
REMARK       I    between atoms: C_22  and  N_20 
ROOT
ATOM      1  C   LIG d   1      -6.820  76.734 117.488  0.00  0.00     0.161 C 
ATOM      2  C   LIG d   1      -7.115  75.406 117.134  0.00  0.00     0.016 C 
ATOM      3  C   LIG d   1      -8.379  74.808 117.344  0.00  0.00     0.038 C 
ATOM      4  C   LIG d   1      -9.486  75.548 117.787  0.00  0.00     0.028 C 
ATOM      5  C   LIG d   1      -9.106  76.760 118.630  0.00  0.00    -0.047 C 
ATOM      6  C   LIG d   1      -8.046  77.589 117.869  0.00  0.00     0.091 C 
ENDROOT
BRANCH   1   7
ATOM      7  O   LIG d   1      -6.077  77.367 116.428  0.00  0.00    -0.368 OA
BRANCH   7   8
ATOM      8  C   LIG d   1      -4.678  77.631 116.700  0.00  0.00     0.119 C 
BRANCH   8   9
ATOM      9  C   LIG d   1      -3.860  76.489 116.066  0.00  0.00     0.028 C 
ATOM     10  C   LIG d   1      -4.426  76.047 114.706  0.00  0.00     0.006 C 
ENDBRANCH   8   9
BRANCH   8  11
ATOM     11  C   LIG d   1      -4.379  77.559 118.200  0.00  0.00     0.028 C 
ATOM     12  C   LIG d   1      -3.882  78.896 118.773  0.00  0.00     0.006 C 
ENDBRANCH   8  11
ENDBRANCH   7   8
ENDBRANCH   1   7
BRANCH   6  13
ATOM     13  N   LIG d   1      -7.557  78.748 118.661  0.00  0.00    -0.311 N 
ATOM     14  C   LIG d   1      -7.611  80.007 118.228  0.00  0.00     0.210 C 
ATOM     15  C   LIG d   1      -7.034  81.047 119.193  0.00  0.00     0.109 C 
ATOM     16  O   LIG d   1      -8.111  80.363 117.151  0.00  0.00    -0.276 OA
ATOM     17  H   LIG d   1      -7.164  78.553 119.561  0.00  0.00     0.149 HD
ENDBRANCH   6  13
BRANCH   5  18
ATOM     18  N   LIG d   1     -10.342  77.516 118.907  0.00  0.00     0.381 N 
ATOM     19  H   LIG d   1     -10.328  78.383 118.408  0.00  0.00    -0.090 HD
ATOM     20  H   LIG d   1     -10.385  77.719 119.890  0.00  0.00    -0.090 HD
ATOM     21  H   LIG d   1     -11.137  76.980 118.636  0.00  0.00    -0.090 HD
ENDBRANCH   5  18
BRANCH   3  22
ATOM     22  C   LIG d   1      -8.535  73.444 117.148  0.00  0.00     0.382 C 
ATOM     23  O   LIG d   1      -9.664  72.915 117.290  0.00  0.00    -0.241 OA
ATOM     24  O   LIG d   1      -7.552  72.729 116.875  0.00  0.00    -0.241 OA
ENDBRANCH   3  22
TORSDOF 7
ENDMDL
MODEL 6
REMARK VINA RESULT:      -5.3     15.817     18.040
REMARK  7 active torsions:
REMARK  status: ('A' for Active; 'I' for Inactive)
REMARK    1  A    between atoms: C_2  and  C_3 
REMARK    2  A    between atoms: C_3  and  O_6 
REMARK    3  A    between atoms: C_3  and  C_4 
REMARK    4  A    between atoms: C_7  and  O_6 
REMARK    5  A    between atoms: C_9  and  C_10 
REMARK    6  A    between atoms: N_15  and  C_14 
REMARK    7  A    between atoms: N_20  and  C_19 
REMARK       I    between atoms: C_22  and  N_20 
ROOT
ATOM      1  C   LIG d   1      -5.140  92.687 117.692  0.00  0.00     0.161 C 
ATOM      2  C   LIG d   1      -6.372  93.357 117.607  0.00  0.00     0.016 C 
ATOM      3  C   LIG d   1      -6.633  94.591 118.246  0.00  0.00     0.038 C 
ATOM      4  C   LIG d   1      -5.623  95.318 118.894  0.00  0.00     0.028 C 
ATOM      5  C   LIG d   1      -4.498  94.442 119.435  0.00  0.00    -0.047 C 
ATOM      6  C   LIG d   1      -3.993  93.519 118.303  0.00  0.00     0.091 C 
ENDROOT
BRANCH   1   7
ATOM      7  O   LIG d   1      -4.763  92.191 116.392  0.00  0.00    -0.368 OA
BRANCH   7   8
ATOM      8  C   LIG d   1      -4.796  90.753 116.225  0.00  0.00     0.119 C 
BRANCH   8   9
ATOM      9  C   LIG d   1      -6.074  90.407 115.437  0.00  0.00     0.028 C 
ATOM     10  C   LIG d   1      -7.007  89.466 116.216  0.00  0.00     0.006 C 
ENDBRANCH   8   9
BRANCH   8  11
ATOM     11  C   LIG d   1      -4.944  90.038 117.572  0.00  0.00     0.028 C 
ATOM     12  C   LIG d   1      -3.706  89.208 117.945  0.00  0.00     0.006 C 
ENDBRANCH   8  11
ENDBRANCH   7   8
ENDBRANCH   1   7
BRANCH   6  13
ATOM     13  N   LIG d   1      -2.948  92.570 118.769  0.00  0.00    -0.311 N 
ATOM     14  C   LIG d   1      -1.724  92.513 118.248  0.00  0.00     0.210 C 
ATOM     15  C   LIG d   1      -0.809  91.449 118.861  0.00  0.00     0.109 C 
ATOM     16  O   LIG d   1      -1.299  93.265 117.358  0.00  0.00    -0.276 OA
ATOM     17  H   LIG d   1      -3.198  91.944 119.509  0.00  0.00     0.149 HD
ENDBRANCH   6  13
BRANCH   5  18
ATOM     18  N   LIG d   1      -3.451  95.337 119.962  0.00  0.00     0.381 N 
ATOM     19  H   LIG d   1      -2.899  95.694 119.208  0.00  0.00    -0.090 HD
ATOM     20  H   LIG d   1      -2.849  94.810 120.571  0.00  0.00    -0.090 HD
ATOM     21  H   LIG d   1      -3.867  96.090 120.464  0.00  0.00    -0.090 HD
ENDBRANCH   5  18
BRANCH   3  22
ATOM     22  C   LIG d   1      -7.926  95.091 118.274  0.00  0.00     0.382 C 
ATOM     23  O   LIG d   1      -8.142  96.288 117.969  0.00  0.00    -0.241 OA
ATOM     24  O   LIG d   1      -8.873  94.371 118.643  0.00  0.00    -0.241 OA
ENDBRANCH   3  22
TORSDOF 7
ENDMDL
MODEL 7
REMARK VINA RESULT:      -5.2     14.697     16.737
REMARK  7 active torsions:
REMARK  status: ('A' for Active; 'I' for Inactive)
REMARK    1  A    between atoms: C_2  and  C_3 
REMARK    2  A    between atoms: C_3  and  O_6 
REMARK    3  A    between atoms: C_3  and  C_4 
REMARK    4  A    between atoms: C_7  and  O_6 
REMARK    5  A    between atoms: C_9  and  C_10 
REMARK    6  A    between atoms: N_15  and  C_14 
REMARK    7  A    between atoms: N_20  and  C_19 
REMARK       I    between atoms: C_22  and  N_20 
ROOT
ATOM      1  C   LIG d   1      -3.737  90.866 117.741  0.00  0.00     0.161 C 
ATOM      2  C   LIG d   1      -4.664  90.127 116.987  0.00  0.00     0.016 C 
ATOM      3  C   LIG d   1      -5.868  90.672 116.484  0.00  0.00     0.038 C 
ATOM      4  C   LIG d   1      -6.156  92.042 116.573  0.00  0.00     0.028 C 
ATOM      5  C   LIG d   1      -5.490  92.725 117.762  0.00  0.00    -0.047 C 
ATOM      6  C   LIG d   1      -3.981  92.390 117.753  0.00  0.00     0.091 C 
ENDROOT
BRANCH   1   7
ATOM      7  O   LIG d   1      -2.399  90.576 117.290  0.00  0.00    -0.368 OA
BRANCH   7   8
ATOM      8  C   LIG d   1      -1.558  89.845 118.216  0.00  0.00     0.119 C 
BRANCH   8   9
ATOM      9  C   LIG d   1      -0.273  90.669 118.425  0.00  0.00     0.028 C 
ATOM     10  C   LIG d   1       0.305  91.200 117.102  0.00  0.00     0.006 C 
ENDBRANCH   8   9
BRANCH   8  11
ATOM     11  C   LIG d   1      -1.094  88.515 117.615  0.00  0.00     0.028 C 
ATOM     12  C   LIG d   1      -2.088  87.369 117.864  0.00  0.00     0.006 C 
ENDBRANCH   8  11
ENDBRANCH   7   8
ENDBRANCH   1   7
BRANCH   6  13
ATOM     13  N   LIG d   1      -3.268  92.949 118.931  0.00  0.00    -0.311 N 
ATOM     14  C   LIG d   1      -2.212  93.755 118.835  0.00  0.00     0.210 C 
ATOM     15  C   LIG d   1      -1.616  94.202 120.173  0.00  0.00     0.109 C 
ATOM     16  O   LIG d   1      -1.732  94.166 117.768  0.00  0.00    -0.276 OA
ATOM     17  H   LIG d   1      -3.611  92.692 119.836  0.00  0.00     0.149 HD
ENDBRANCH   6  13
BRANCH   5  18
ATOM     18  N   LIG d   1      -5.761  94.171 117.656  0.00  0.00     0.381 N 
ATOM     19  H   LIG d   1      -6.737  94.343 117.788  0.00  0.00    -0.090 HD
ATOM     20  H   LIG d   1      -5.508  94.482 116.734  0.00  0.00    -0.090 HD
ATOM     21  H   LIG d   1      -5.233  94.669 118.339  0.00  0.00    -0.090 HD
ENDBRANCH   5  18
BRANCH   3  22
ATOM     22  C   LIG d   1      -6.817  89.835 115.918  0.00  0.00     0.382 C 
ATOM     23  O   LIG d   1      -7.480  90.220 114.925  0.00  0.00    -0.241 OA
ATOM     24  O   LIG d   1      -7.051  88.717 116.415  0.00  0.00    -0.241 OA
ENDBRANCH   3  22
TORSDOF 7
ENDMDL
MODEL 8
REMARK VINA RESULT:      -5.2     15.717     17.975
REMARK  7 active torsions:
REMARK  status: ('A' for Active; 'I' for Inactive)
REMARK    1  A    between atoms: C_2  and  C_3 
REMARK    2  A    between atoms: C_3  and  O_6 
REMARK    3  A    between atoms: C_3  and  C_4 
REMARK    4  A    between atoms: C_7  and  O_6 
REMARK    5  A    between atoms: C_9  and  C_10 
REMARK    6  A    between atoms: N_15  and  C_14 
REMARK    7  A    between atoms: N_20  and  C_19 
REMARK       I    between atoms: C_22  and  N_20 
ROOT
ATOM      1  C   LIG d   1      -5.949  92.859 118.135  0.00  0.00     0.161 C 
ATOM      2  C   LIG d   1      -6.469  91.694 117.546  0.00  0.00     0.016 C 
ATOM      3  C   LIG d   1      -5.667  90.721 116.907  0.00  0.00     0.038 C 
ATOM      4  C   LIG d   1      -4.265  90.773 116.947  0.00  0.00     0.028 C 
ATOM      5  C   LIG d   1      -3.716  92.188 117.092  0.00  0.00    -0.047 C 
ATOM      6  C   LIG d   1      -4.414  92.878 118.286  0.00  0.00     0.091 C 
ENDROOT
BRANCH   1   7
ATOM      7  O   LIG d   1      -6.581  93.084 119.411  0.00  0.00    -0.368 OA
BRANCH   7   8
ATOM      8  C   LIG d   1      -7.350  94.305 119.535  0.00  0.00     0.119 C 
BRANCH   8   9
ATOM      9  C   LIG d   1      -8.805  93.906 119.849  0.00  0.00     0.028 C 
ATOM     10  C   LIG d   1      -9.612  95.063 120.461  0.00  0.00     0.006 C 
ENDBRANCH   8   9
BRANCH   8  11
ATOM     11  C   LIG d   1      -7.415  95.060 118.204  0.00  0.00     0.028 C 
ATOM     12  C   LIG d   1      -6.886  96.499 118.309  0.00  0.00     0.006 C 
ENDBRANCH   8  11
ENDBRANCH   7   8
ENDBRANCH   1   7
BRANCH   6  13
ATOM     13  N   LIG d   1      -3.995  94.295 118.446  0.00  0.00    -0.311 N 
ATOM     14  C   LIG d   1      -3.016  94.682 119.261  0.00  0.00     0.210 C 
ATOM     15  C   LIG d   1      -2.759  96.192 119.291  0.00  0.00     0.109 C 
ATOM     16  O   LIG d   1      -2.315  93.916 119.939  0.00  0.00    -0.276 OA
ATOM     17  H   LIG d   1      -4.490  94.980 117.909  0.00  0.00     0.149 HD
ENDBRANCH   6  13
BRANCH   5  18
ATOM     18  N   LIG d   1      -2.254  92.083 117.258  0.00  0.00     0.381 N 
ATOM     19  H   LIG d   1      -1.857  92.997 117.346  0.00  0.00    -0.090 HD
ATOM     20  H   LIG d   1      -1.864  91.647 116.441  0.00  0.00    -0.090 HD
ATOM     21  H   LIG d   1      -2.041  91.541 118.067  0.00  0.00    -0.090 HD
ENDBRANCH   5  18
BRANCH   3  22
ATOM     22  C   LIG d   1      -6.268  89.701 116.185  0.00  0.00     0.382 C 
ATOM     23  O   LIG d   1      -5.962  89.521 114.981  0.00  0.00    -0.241 OA
ATOM     24  O   LIG d   1      -7.145  88.988 116.708  0.00  0.00    -0.241 OA
ENDBRANCH   3  22
TORSDOF 7
ENDMDL
MODEL 9
REMARK VINA RESULT:      -5.1      2.456      5.974
REMARK  7 active torsions:
REMARK  status: ('A' for Active; 'I' for Inactive)
REMARK    1  A    between atoms: C_2  and  C_3 
REMARK    2  A    between atoms: C_3  and  O_6 
REMARK    3  A    between atoms: C_3  and  C_4 
REMARK    4  A    between atoms: C_7  and  O_6 
REMARK    5  A    between atoms: C_9  and  C_10 
REMARK    6  A    between atoms: N_15  and  C_14 
REMARK    7  A    between atoms: N_20  and  C_19 
REMARK       I    between atoms: C_22  and  N_20 
ROOT
ATOM      1  C   LIG d   1      -7.604  77.088 117.964  0.00  0.00     0.161 C 
ATOM      2  C   LIG d   1      -8.884  76.515 118.038  0.00  0.00     0.016 C 
ATOM      3  C   LIG d   1      -9.167  75.188 117.639  0.00  0.00     0.038 C 
ATOM      4  C   LIG d   1      -8.152  74.290 117.277  0.00  0.00     0.028 C 
ATOM      5  C   LIG d   1      -6.914  74.974 116.706  0.00  0.00    -0.047 C 
ATOM      6  C   LIG d   1      -6.464  76.089 117.676  0.00  0.00     0.091 C 
ENDROOT
BRANCH   1   7
ATOM      7  O   LIG d   1      -7.330  77.829 119.169  0.00  0.00    -0.368 OA
BRANCH   7   8
ATOM      8  C   LIG d   1      -7.617  79.248 119.125  0.00  0.00     0.119 C 
BRANCH   8   9
ATOM      9  C   LIG d   1      -7.411  79.717 117.671  0.00  0.00     0.028 C 
ATOM     10  C   LIG d   1      -8.076  81.076 117.393  0.00  0.00     0.006 C 
ENDBRANCH   8   9
BRANCH   8  11
ATOM     11  C   LIG d   1      -6.609  80.047 119.956  0.00  0.00     0.028 C 
ATOM     12  C   LIG d   1      -5.161  79.860 119.476  0.00  0.00     0.006 C 
ENDBRANCH   8  11
ENDBRANCH   7   8
ENDBRANCH   1   7
BRANCH   6  13
ATOM     13  N   LIG d   1      -5.309  76.864 117.153  0.00  0.00    -0.311 N 
ATOM     14  C   LIG d   1      -4.043  76.596 117.469  0.00  0.00     0.210 C 
ATOM     15  C   LIG d   1      -3.007  77.530 116.835  0.00  0.00     0.109 C 
ATOM     16  O   LIG d   1      -3.677  75.655 118.189  0.00  0.00    -0.276 OA
ATOM     17  H   LIG d   1      -5.512  77.626 116.536  0.00  0.00     0.149 HD
ENDBRANCH   6  13
BRANCH   5  18
ATOM     18  N   LIG d   1      -5.887  73.935 116.501  0.00  0.00     0.381 N 
ATOM     19  H   LIG d   1      -5.839  73.693 115.532  0.00  0.00    -0.090 HD
ATOM     20  H   LIG d   1      -6.146  73.114 117.019  0.00  0.00    -0.090 HD
ATOM     21  H   LIG d   1      -5.000  74.267 116.812  0.00  0.00    -0.090 HD
ENDBRANCH   5  18
BRANCH   3  22
ATOM     22  C   LIG d   1     -10.484  74.760 117.561  0.00  0.00     0.382 C 
ATOM     23  O   LIG d   1     -11.419  75.559 117.811  0.00  0.00    -0.241 OA
ATOM     24  O   LIG d   1     -10.747  73.574 117.287  0.00  0.00    -0.241 OA
ENDBRANCH   3  22
TORSDOF 7
ENDMDL
