MODEL 1
REMARK VINA RESULT:      -5.5      0.000      0.000
REMARK  7 active torsions:
REMARK  status: ('A' for Active; 'I' for Inactive)
REMARK    1  A    between atoms: C_2  and  C_3 
REMARK    2  A    between atoms: C_3  and  O_6 
REMARK    3  A    between atoms: C_3  and  C_4 
REMARK    4  A    between atoms: C_7  and  O_6 
REMARK    5  A    between atoms: C_9  and  C_10 
REMARK    6  A    between atoms: N_15  and  C_14 
REMARK    7  A    between atoms: N_20  and  C_19 
REMARK       I    between atoms: C_22  and  N_20 
ROOT
ATOM      1  C   LIG d   1      -7.482  75.707 117.754  0.00  0.00     0.161 C 
ATOM      2  C   LIG d   1      -8.822  75.944 118.100  0.00  0.00     0.016 C 
ATOM      3  C   LIG d   1      -9.328  77.224 118.423  0.00  0.00     0.038 C 
ATOM      4  C   LIG d   1      -8.555  78.386 118.274  0.00  0.00     0.028 C 
ATOM      5  C   LIG d   1      -7.057  78.139 118.413  0.00  0.00    -0.047 C 
ATOM      6  C   LIG d   1      -6.651  76.977 117.478  0.00  0.00     0.091 C 
ENDROOT
BRANCH   1   7
ATOM      7  O   LIG d   1      -7.419  74.812 116.626  0.00  0.00    -0.368 OA
BRANCH   7   8
ATOM      8  C   LIG d   1      -7.072  73.437 116.921  0.00  0.00     0.119 C 
BRANCH   8   9
ATOM      9  C   LIG d   1      -6.233  72.907 115.741  0.00  0.00     0.028 C 
ATOM     10  C   LIG d   1      -5.484  74.030 115.004  0.00  0.00     0.006 C 
ENDBRANCH   8   9
BRANCH   8  11
ATOM     11  C   LIG d   1      -8.316  72.545 116.967  0.00  0.00     0.028 C 
ATOM     12  C   LIG d   1      -7.983  71.050 116.843  0.00  0.00     0.006 C 
ENDBRANCH   8  11
ENDBRANCH   7   8
ENDBRANCH   1   7
BRANCH   6  13
ATOM     13  N   LIG d   1      -5.216  76.614 117.615  0.00  0.00    -0.311 N 
ATOM     14  C   LIG d   1      -4.258  77.103 116.829  0.00  0.00     0.210 C 
ATOM     15  C   LIG d   1      -2.848  76.583 117.128  0.00  0.00     0.109 C 
ATOM     16  O   LIG d   1      -4.437  77.942 115.934  0.00  0.00    -0.276 OA
ATOM     17  H   LIG d   1      -4.977  75.963 118.337  0.00  0.00     0.149 HD
ENDBRANCH   6  13
BRANCH   5  18
ATOM     18  N   LIG d   1      -6.366  79.403 118.099  0.00  0.00     0.381 N 
ATOM     19  H   LIG d   1      -6.829  79.863 117.341  0.00  0.00    -0.090 HD
ATOM     20  H   LIG d   1      -5.424  79.197 117.815  0.00  0.00    -0.090 HD
ATOM     21  H   LIG d   1      -6.356  79.995 118.901  0.00  0.00    -0.090 HD
ENDBRANCH   5  18
BRANCH   3  22
ATOM     22  C   LIG d   1     -10.609  77.347 118.939  0.00  0.00     0.382 C 
ATOM     23  O   LIG d   1     -10.815  78.079 119.937  0.00  0.00    -0.241 OA
ATOM     24  O   LIG d   1     -11.553  76.700 118.447  0.00  0.00    -0.241 OA
ENDBRANCH   3  22
TORSDOF 7
ENDMDL
MODEL 2
REMARK VINA RESULT:      -5.4     15.270     17.917
REMARK  7 active torsions:
REMARK  status: ('A' for Active; 'I' for Inactive)
REMARK    1  A    between atoms: C_2  and  C_3 
REMARK    2  A    between atoms: C_3  and  O_6 
REMARK    3  A    between atoms: C_3  and  C_4 
REMARK    4  A    between atoms: C_7  and  O_6 
REMARK    5  A    between atoms: C_9  and  C_10 
REMARK    6  A    between atoms: N_15  and  C_14 
REMARK    7  A    between atoms: N_20  and  C_19 
REMARK       I    between atoms: C_22  and  N_20 
ROOT
ATOM      1  C   LIG d   1      -5.861  93.242 118.145  0.00  0.00     0.161 C 
ATOM      2  C   LIG d   1      -6.694  92.464 117.324  0.00  0.00     0.016 C 
ATOM      3  C   LIG d   1      -6.210  91.469 116.444  0.00  0.00     0.038 C 
ATOM      4  C   LIG d   1      -4.863  91.076 116.438  0.00  0.00     0.028 C 
ATOM      5  C   LIG d   1      -3.909  92.179 116.885  0.00  0.00    -0.047 C 
ATOM      6  C   LIG d   1      -4.400  92.752 118.234  0.00  0.00     0.091 C 
ENDROOT
BRANCH   1   7
ATOM      7  O   LIG d   1      -6.435  93.346 119.463  0.00  0.00    -0.368 OA
BRANCH   7   8
ATOM      8  C   LIG d   1      -6.968  94.644 119.825  0.00  0.00     0.119 C 
BRANCH   8   9
ATOM      9  C   LIG d   1      -8.498  94.579 119.655  0.00  0.00     0.028 C 
ATOM     10  C   LIG d   1      -9.004  95.506 118.536  0.00  0.00     0.006 C 
ENDBRANCH   8   9
BRANCH   8  11
ATOM     11  C   LIG d   1      -6.497  95.730 118.854  0.00  0.00     0.028 C 
ATOM     12  C   LIG d   1      -5.619  96.795 119.530  0.00  0.00     0.006 C 
ENDBRANCH   8  11
ENDBRANCH   7   8
ENDBRANCH   1   7
BRANCH   6  13
ATOM     13  N   LIG d   1      -3.571  93.893 118.701  0.00  0.00    -0.311 N 
ATOM     14  C   LIG d   1      -2.549  93.759 119.545  0.00  0.00     0.210 C 
ATOM     15  C   LIG d   1      -1.839  95.066 119.913  0.00  0.00     0.109 C 
ATOM     16  O   LIG d   1      -2.142  92.679 119.998  0.00  0.00    -0.276 OA
ATOM     17  H   LIG d   1      -3.811  94.802 118.358  0.00  0.00     0.149 HD
ENDBRANCH   6  13
BRANCH   5  18
ATOM     18  N   LIG d   1      -2.557  91.594 116.963  0.00  0.00     0.381 N 
ATOM     19  H   LIG d   1      -2.172  91.507 116.044  0.00  0.00    -0.090 HD
ATOM     20  H   LIG d   1      -2.623  90.676 117.366  0.00  0.00    -0.090 HD
ATOM     21  H   LIG d   1      -1.969  92.169 117.524  0.00  0.00    -0.090 HD
ENDBRANCH   5  18
BRANCH   3  22
ATOM     22  C   LIG d   1      -7.071  90.882 115.530  0.00  0.00     0.382 C 
ATOM     23  O   LIG d   1      -7.268  91.425 114.416  0.00  0.00    -0.241 OA
ATOM     24  O   LIG d   1      -7.688  89.840 115.822  0.00  0.00    -0.241 OA
ENDBRANCH   3  22
TORSDOF 7
ENDMDL
MODEL 3
REMARK VINA RESULT:      -5.3      2.058      5.103
REMARK  7 active torsions:
REMARK  status: ('A' for Active; 'I' for Inactive)
REMARK    1  A    between atoms: C_2  and  C_3 
REMARK    2  A    between atoms: C_3  and  O_6 
REMARK    3  A    between atoms: C_3  and  C_4 
REMARK    4  A    between atoms: C_7  and  O_6 
REMARK    5  A    between atoms: C_9  and  C_10 
REMARK    6  A    between atoms: N_15  and  C_14 
REMARK    7  A    between atoms: N_20  and  C_19 
REMARK       I    between atoms: C_22  and  N_20 
ROOT
ATOM      1  C   LIG d   1      -7.536  75.235 117.539  0.00  0.00     0.161 C 
ATOM      2  C   LIG d   1      -7.806  73.892 117.226  0.00  0.00     0.016 C 
ATOM      3  C   LIG d   1      -6.947  73.089 116.441  0.00  0.00     0.038 C 
ATOM      4  C   LIG d   1      -5.678  73.533 116.039  0.00  0.00     0.028 C 
ATOM      5  C   LIG d   1      -5.582  75.048 115.903  0.00  0.00    -0.047 C 
ATOM      6  C   LIG d   1      -6.105  75.703 117.202  0.00  0.00     0.091 C 
ENDROOT
BRANCH   1   7
ATOM      7  O   LIG d   1      -7.831  75.482 118.928  0.00  0.00    -0.368 OA
BRANCH   7   8
ATOM      8  C   LIG d   1      -9.018  76.267 119.198  0.00  0.00     0.119 C 
BRANCH   8   9
ATOM      9  C   LIG d   1      -9.733  76.503 117.854  0.00  0.00     0.028 C 
ATOM     10  C   LIG d   1     -11.144  75.891 117.825  0.00  0.00     0.006 C 
ENDBRANCH   8   9
BRANCH   8  11
ATOM     11  C   LIG d   1      -8.657  77.663 119.716  0.00  0.00     0.028 C 
ATOM     12  C   LIG d   1      -9.152  78.787 118.793  0.00  0.00     0.006 C 
ENDBRANCH   8  11
ENDBRANCH   7   8
ENDBRANCH   1   7
BRANCH   6  13
ATOM     13  N   LIG d   1      -6.124  77.187 117.121  0.00  0.00    -0.311 N 
ATOM     14  C   LIG d   1      -5.481  77.976 117.980  0.00  0.00     0.210 C 
ATOM     15  C   LIG d   1      -5.649  79.478 117.728  0.00  0.00     0.109 C 
ATOM     16  O   LIG d   1      -4.761  77.575 118.906  0.00  0.00    -0.276 OA
ATOM     17  H   LIG d   1      -6.659  77.596 116.380  0.00  0.00     0.149 HD
ENDBRANCH   6  13
BRANCH   5  18
ATOM     18  N   LIG d   1      -4.174  75.382 115.614  0.00  0.00     0.381 N 
ATOM     19  H   LIG d   1      -3.727  74.604 115.171  0.00  0.00    -0.090 HD
ATOM     20  H   LIG d   1      -3.700  75.567 116.480  0.00  0.00    -0.090 HD
ATOM     21  H   LIG d   1      -4.128  76.182 115.023  0.00  0.00    -0.090 HD
ENDBRANCH   5  18
BRANCH   3  22
ATOM     22  C   LIG d   1      -7.372  71.839 116.017  0.00  0.00     0.382 C 
ATOM     23  O   LIG d   1      -6.619  71.127 115.311  0.00  0.00    -0.241 OA
ATOM     24  O   LIG d   1      -8.517  71.434 116.294  0.00  0.00    -0.241 OA
ENDBRANCH   3  22
TORSDOF 7
ENDMDL
MODEL 4
REMARK VINA RESULT:      -4.9      2.060      3.097
REMARK  7 active torsions:
REMARK  status: ('A' for Active; 'I' for Inactive)
REMARK    1  A    between atoms: C_2  and  C_3 
REMARK    2  A    between atoms: C_3  and  O_6 
REMARK    3  A    between atoms: C_3  and  C_4 
REMARK    4  A    between atoms: C_7  and  O_6 
REMARK    5  A    between atoms: C_9  and  C_10 
REMARK    6  A    between atoms: N_15  and  C_14 
REMARK    7  A    between atoms: N_20  and  C_19 
REMARK       I    between atoms: C_22  and  N_20 
ROOT
ATOM      1  C   LIG d   1      -7.430  77.640 117.932  0.00  0.00     0.161 C 
ATOM      2  C   LIG d   1      -8.673  77.018 118.133  0.00  0.00     0.016 C 
ATOM      3  C   LIG d   1      -9.786  77.673 118.710  0.00  0.00     0.038 C 
ATOM      4  C   LIG d   1      -9.775  79.048 118.989  0.00  0.00     0.028 C 
ATOM      5  C   LIG d   1      -8.380  79.597 119.270  0.00  0.00    -0.047 C 
ATOM      6  C   LIG d   1      -7.432  79.170 118.127  0.00  0.00     0.091 C 
ENDROOT
BRANCH   1   7
ATOM      7  O   LIG d   1      -6.920  77.302 116.626  0.00  0.00    -0.368 OA
BRANCH   7   8
ATOM      8  C   LIG d   1      -6.168  76.067 116.535  0.00  0.00     0.119 C 
BRANCH   8   9
ATOM      9  C   LIG d   1      -4.884  76.244 117.368  0.00  0.00     0.028 C 
ATOM     10  C   LIG d   1      -3.871  77.184 116.693  0.00  0.00     0.006 C 
ENDBRANCH   8   9
BRANCH   8  11
ATOM     11  C   LIG d   1      -5.690  75.810 115.103  0.00  0.00     0.028 C 
ATOM     12  C   LIG d   1      -5.481  74.317 114.804  0.00  0.00     0.006 C 
ENDBRANCH   8  11
ENDBRANCH   7   8
ENDBRANCH   1   7
BRANCH   6  13
ATOM     13  N   LIG d   1      -6.028  79.596 118.366  0.00  0.00    -0.311 N 
ATOM     14  C   LIG d   1      -5.529  80.752 117.932  0.00  0.00     0.210 C 
ATOM     15  C   LIG d   1      -4.053  80.985 118.269  0.00  0.00     0.109 C 
ATOM     16  O   LIG d   1      -6.176  81.620 117.328  0.00  0.00    -0.276 OA
ATOM     17  H   LIG d   1      -5.441  78.965 118.875  0.00  0.00     0.149 HD
ENDBRANCH   6  13
BRANCH   5  18
ATOM     18  N   LIG d   1      -8.498  81.061 119.408  0.00  0.00     0.381 N 
ATOM     19  H   LIG d   1      -7.594  81.483 119.329  0.00  0.00    -0.090 HD
ATOM     20  H   LIG d   1      -8.867  81.274 120.318  0.00  0.00    -0.090 HD
ATOM     21  H   LIG d   1      -9.103  81.422 118.704  0.00  0.00    -0.090 HD
ENDBRANCH   5  18
BRANCH   3  22
ATOM     22  C   LIG d   1     -10.912  76.940 119.052  0.00  0.00     0.382 C 
ATOM     23  O   LIG d   1     -11.612  76.411 118.155  0.00  0.00    -0.241 OA
ATOM     24  O   LIG d   1     -11.264  76.840 120.243  0.00  0.00    -0.241 OA
ENDBRANCH   3  22
TORSDOF 7
ENDMDL
MODEL 5
REMARK VINA RESULT:      -4.9      2.334      4.856
REMARK  7 active torsions:
REMARK  status: ('A' for Active; 'I' for Inactive)
REMARK    1  A    between atoms: C_2  and  C_3 
REMARK    2  A    between atoms: C_3  and  O_6 
REMARK    3  A    between atoms: C_3  and  C_4 
REMARK    4  A    between atoms: C_7  and  O_6 
REMARK    5  A    between atoms: C_9  and  C_10 
REMARK    6  A    between atoms: N_15  and  C_14 
REMARK    7  A    between atoms: N_20  and  C_19 
REMARK       I    between atoms: C_22  and  N_20 
ROOT
ATOM      1  C   LIG d   1      -5.587  75.095 116.372  0.00  0.00     0.161 C 
ATOM      2  C   LIG d   1      -6.098  73.822 116.068  0.00  0.00     0.016 C 
ATOM      3  C   LIG d   1      -7.283  73.303 116.638  0.00  0.00     0.038 C 
ATOM      4  C   LIG d   1      -8.124  74.086 117.442  0.00  0.00     0.028 C 
ATOM      5  C   LIG d   1      -7.391  75.203 118.178  0.00  0.00    -0.047 C 
ATOM      6  C   LIG d   1      -6.550  76.007 117.161  0.00  0.00     0.091 C 
ENDROOT
BRANCH   1   7
ATOM      7  O   LIG d   1      -5.155  75.749 115.163  0.00  0.00    -0.368 OA
BRANCH   7   8
ATOM      8  C   LIG d   1      -3.729  75.739 114.907  0.00  0.00     0.119 C 
BRANCH   8   9
ATOM      9  C   LIG d   1      -3.022  75.405 116.235  0.00  0.00     0.028 C 
ATOM     10  C   LIG d   1      -1.975  74.290 116.078  0.00  0.00     0.006 C 
ENDBRANCH   8   9
BRANCH   8  11
ATOM     11  C   LIG d   1      -3.222  77.130 114.517  0.00  0.00     0.028 C 
ATOM     12  C   LIG d   1      -2.917  78.016 115.735  0.00  0.00     0.006 C 
ENDBRANCH   8  11
ENDBRANCH   7   8
ENDBRANCH   1   7
BRANCH   6  13
ATOM     13  N   LIG d   1      -5.735  77.066 117.811  0.00  0.00    -0.311 N 
ATOM     14  C   LIG d   1      -6.131  78.333 117.920  0.00  0.00     0.210 C 
ATOM     15  C   LIG d   1      -5.130  79.267 118.608  0.00  0.00     0.109 C 
ATOM     16  O   LIG d   1      -7.230  78.765 117.541  0.00  0.00    -0.276 OA
ATOM     17  H   LIG d   1      -4.842  76.796 118.175  0.00  0.00     0.149 HD
ENDBRANCH   6  13
BRANCH   5  18
ATOM     18  N   LIG d   1      -8.405  76.023 118.867  0.00  0.00     0.381 N 
ATOM     19  H   LIG d   1      -9.192  75.455 119.111  0.00  0.00    -0.090 HD
ATOM     20  H   LIG d   1      -8.718  76.745 118.242  0.00  0.00    -0.090 HD
ATOM     21  H   LIG d   1      -8.014  76.431 119.688  0.00  0.00    -0.090 HD
ENDBRANCH   5  18
BRANCH   3  22
ATOM     22  C   LIG d   1      -7.616  71.972 116.438  0.00  0.00     0.382 C 
ATOM     23  O   LIG d   1      -6.932  71.265 115.659  0.00  0.00    -0.241 OA
ATOM     24  O   LIG d   1      -8.618  71.481 116.991  0.00  0.00    -0.241 OA
ENDBRANCH   3  22
TORSDOF 7
ENDMDL
MODEL 6
REMARK VINA RESULT:      -4.8      1.756      2.755
REMARK  7 active torsions:
REMARK  status: ('A' for Active; 'I' for Inactive)
REMARK    1  A    between atoms: C_2  and  C_3 
REMARK    2  A    between atoms: C_3  and  O_6 
REMARK    3  A    between atoms: C_3  and  C_4 
REMARK    4  A    between atoms: C_7  and  O_6 
REMARK    5  A    between atoms: C_9  and  C_10 
REMARK    6  A    between atoms: N_15  and  C_14 
REMARK    7  A    between atoms: N_20  and  C_19 
REMARK       I    between atoms: C_22  and  N_20 
ROOT
ATOM      1  C   LIG d   1      -6.908  77.098 117.251  0.00  0.00     0.161 C 
ATOM      2  C   LIG d   1      -8.193  76.528 117.263  0.00  0.00     0.016 C 
ATOM      3  C   LIG d   1      -9.303  77.127 117.901  0.00  0.00     0.038 C 
ATOM      4  C   LIG d   1      -9.239  78.418 118.446  0.00  0.00     0.028 C 
ATOM      5  C   LIG d   1      -7.838  78.814 118.900  0.00  0.00    -0.047 C 
ATOM      6  C   LIG d   1      -6.844  78.559 117.744  0.00  0.00     0.091 C 
ENDROOT
BRANCH   1   7
ATOM      7  O   LIG d   1      -6.338  76.988 115.932  0.00  0.00    -0.368 OA
BRANCH   7   8
ATOM      8  C   LIG d   1      -5.221  76.075 115.795  0.00  0.00     0.119 C 
BRANCH   8   9
ATOM      9  C   LIG d   1      -5.692  74.896 114.923  0.00  0.00     0.028 C 
ATOM     10  C   LIG d   1      -5.861  73.599 115.731  0.00  0.00     0.006 C 
ENDBRANCH   8   9
BRANCH   8  11
ATOM     11  C   LIG d   1      -4.838  75.456 117.142  0.00  0.00     0.028 C 
ATOM     12  C   LIG d   1      -3.419  75.837 117.592  0.00  0.00     0.006 C 
ENDBRANCH   8  11
ENDBRANCH   7   8
ENDBRANCH   1   7
BRANCH   6  13
ATOM     13  N   LIG d   1      -5.438  78.841 118.133  0.00  0.00    -0.311 N 
ATOM     14  C   LIG d   1      -4.834  80.006 117.907  0.00  0.00     0.210 C 
ATOM     15  C   LIG d   1      -3.376  80.080 118.369  0.00  0.00     0.109 C 
ATOM     16  O   LIG d   1      -5.378  80.997 117.396  0.00  0.00    -0.276 OA
ATOM     17  H   LIG d   1      -4.931  78.102 118.581  0.00  0.00     0.149 HD
ENDBRANCH   6  13
BRANCH   5  18
ATOM     18  N   LIG d   1      -7.888  80.228 119.317  0.00  0.00     0.381 N 
ATOM     19  H   LIG d   1      -8.478  80.744 118.695  0.00  0.00    -0.090 HD
ATOM     20  H   LIG d   1      -6.962  80.615 119.267  0.00  0.00    -0.090 HD
ATOM     21  H   LIG d   1      -8.235  80.297 120.249  0.00  0.00    -0.090 HD
ENDBRANCH   5  18
BRANCH   3  22
ATOM     22  C   LIG d   1     -10.485  76.414 118.035  0.00  0.00     0.382 C 
ATOM     23  O   LIG d   1     -11.280  76.687 118.966  0.00  0.00    -0.241 OA
ATOM     24  O   LIG d   1     -10.746  75.473 117.262  0.00  0.00    -0.241 OA
ENDBRANCH   3  22
TORSDOF 7
ENDMDL
MODEL 7
REMARK VINA RESULT:      -4.7      1.845      2.855
REMARK  7 active torsions:
REMARK  status: ('A' for Active; 'I' for Inactive)
REMARK    1  A    between atoms: C_2  and  C_3 
REMARK    2  A    between atoms: C_3  and  O_6 
REMARK    3  A    between atoms: C_3  and  C_4 
REMARK    4  A    between atoms: C_7  and  O_6 
REMARK    5  A    between atoms: C_9  and  C_10 
REMARK    6  A    between atoms: N_15  and  C_14 
REMARK    7  A    between atoms: N_20  and  C_19 
REMARK       I    between atoms: C_22  and  N_20 
ROOT
ATOM      1  C   LIG d   1      -7.834  77.876 118.191  0.00  0.00     0.161 C 
ATOM      2  C   LIG d   1      -8.928  78.706 118.489  0.00  0.00     0.016 C 
ATOM      3  C   LIG d   1      -8.834  80.114 118.581  0.00  0.00     0.038 C 
ATOM      4  C   LIG d   1      -7.664  80.804 118.231  0.00  0.00     0.028 C 
ATOM      5  C   LIG d   1      -6.395  79.977 118.413  0.00  0.00    -0.047 C 
ATOM      6  C   LIG d   1      -6.575  78.619 117.697  0.00  0.00     0.091 C 
ENDROOT
BRANCH   1   7
ATOM      7  O   LIG d   1      -8.229  76.871 117.237  0.00  0.00    -0.368 OA
BRANCH   7   8
ATOM      8  C   LIG d   1      -8.618  75.588 117.788  0.00  0.00     0.119 C 
BRANCH   8   9
ATOM      9  C   LIG d   1      -7.546  74.562 117.374  0.00  0.00     0.028 C 
ATOM     10  C   LIG d   1      -8.122  73.146 117.208  0.00  0.00     0.006 C 
ENDBRANCH   8   9
BRANCH   8  11
ATOM     11  C   LIG d   1      -9.923  75.086 117.163  0.00  0.00     0.028 C 
ATOM     12  C   LIG d   1     -11.165  75.796 117.724  0.00  0.00     0.006 C 
ENDBRANCH   8  11
ENDBRANCH   7   8
ENDBRANCH   1   7
BRANCH   6  13
ATOM     13  N   LIG d   1      -5.412  77.715 117.897  0.00  0.00    -0.311 N 
ATOM     14  C   LIG d   1      -4.840  77.027 116.910  0.00  0.00     0.210 C 
ATOM     15  C   LIG d   1      -3.667  76.138 117.336  0.00  0.00     0.109 C 
ATOM     16  O   LIG d   1      -5.172  77.093 115.717  0.00  0.00    -0.276 OA
ATOM     17  H   LIG d   1      -5.058  77.626 118.829  0.00  0.00     0.149 HD
ENDBRANCH   6  13
BRANCH   5  18
ATOM     18  N   LIG d   1      -5.268  80.766 117.883  0.00  0.00     0.381 N 
ATOM     19  H   LIG d   1      -5.162  81.606 118.416  0.00  0.00    -0.090 HD
ATOM     20  H   LIG d   1      -5.469  81.020 116.931  0.00  0.00    -0.090 HD
ATOM     21  H   LIG d   1      -4.429  80.231 117.922  0.00  0.00    -0.090 HD
ENDBRANCH   5  18
BRANCH   3  22
ATOM     22  C   LIG d   1      -9.908  80.844 119.067  0.00  0.00     0.382 C 
ATOM     23  O   LIG d   1     -10.433  80.532 120.163  0.00  0.00    -0.241 OA
ATOM     24  O   LIG d   1     -10.387  81.782 118.402  0.00  0.00    -0.241 OA
ENDBRANCH   3  22
TORSDOF 7
ENDMDL
MODEL 8
REMARK VINA RESULT:      -4.7      3.596      6.379
REMARK  7 active torsions:
REMARK  status: ('A' for Active; 'I' for Inactive)
REMARK    1  A    between atoms: C_2  and  C_3 
REMARK    2  A    between atoms: C_3  and  O_6 
REMARK    3  A    between atoms: C_3  and  C_4 
REMARK    4  A    between atoms: C_7  and  O_6 
REMARK    5  A    between atoms: C_9  and  C_10 
REMARK    6  A    between atoms: N_15  and  C_14 
REMARK    7  A    between atoms: N_20  and  C_19 
REMARK       I    between atoms: C_22  and  N_20 
ROOT
ATOM      1  C   LIG d   1      -3.206  76.777 116.349  0.00  0.00     0.161 C 
ATOM      2  C   LIG d   1      -3.212  78.015 115.684  0.00  0.00     0.016 C 
ATOM      3  C   LIG d   1      -2.044  78.634 115.183  0.00  0.00     0.038 C 
ATOM      4  C   LIG d   1      -0.802  77.981 115.179  0.00  0.00     0.028 C 
ATOM      5  C   LIG d   1      -0.658  76.947 116.291  0.00  0.00    -0.047 C 
ATOM      6  C   LIG d   1      -1.877  75.999 116.255  0.00  0.00     0.091 C 
ENDROOT
BRANCH   1   7
ATOM      7  O   LIG d   1      -4.298  75.964 115.875  0.00  0.00    -0.368 OA
BRANCH   7   8
ATOM      8  C   LIG d   1      -5.252  75.532 116.876  0.00  0.00     0.119 C 
BRANCH   8   9
ATOM      9  C   LIG d   1      -6.087  74.393 116.259  0.00  0.00     0.028 C 
ATOM     10  C   LIG d   1      -5.469  73.851 114.958  0.00  0.00     0.006 C 
ENDBRANCH   8   9
BRANCH   8  11
ATOM     11  C   LIG d   1      -6.257  76.640 117.202  0.00  0.00     0.028 C 
ATOM     12  C   LIG d   1      -7.713  76.221 116.940  0.00  0.00     0.006 C 
ENDBRANCH   8  11
ENDBRANCH   7   8
ENDBRANCH   1   7
BRANCH   6  13
ATOM     13  N   LIG d   1      -1.858  75.008 117.363  0.00  0.00    -0.311 N 
ATOM     14  C   LIG d   1      -1.429  73.755 117.218  0.00  0.00     0.210 C 
ATOM     15  C   LIG d   1      -1.512  72.894 118.482  0.00  0.00     0.109 C 
ATOM     16  O   LIG d   1      -0.958  73.285 116.172  0.00  0.00    -0.276 OA
ATOM     17  H   LIG d   1      -2.194  75.314 118.255  0.00  0.00     0.149 HD
ENDBRANCH   6  13
BRANCH   5  18
ATOM     18  N   LIG d   1       0.625  76.248 116.085  0.00  0.00     0.381 N 
ATOM     19  H   LIG d   1       0.576  75.329 116.477  0.00  0.00    -0.090 HD
ATOM     20  H   LIG d   1       1.351  76.755 116.559  0.00  0.00    -0.090 HD
ATOM     21  H   LIG d   1       0.830  76.191 115.112  0.00  0.00    -0.090 HD
ENDBRANCH   5  18
BRANCH   3  22
ATOM     22  C   LIG d   1      -2.104  79.938 114.714  0.00  0.00     0.382 C 
ATOM     23  O   LIG d   1      -1.084  80.667 114.757  0.00  0.00    -0.241 OA
ATOM     24  O   LIG d   1      -3.177  80.408 114.291  0.00  0.00    -0.241 OA
ENDBRANCH   3  22
TORSDOF 7
ENDMDL
MODEL 9
REMARK VINA RESULT:      -4.6     15.991     18.021
REMARK  7 active torsions:
REMARK  status: ('A' for Active; 'I' for Inactive)
REMARK    1  A    between atoms: C_2  and  C_3 
REMARK    2  A    between atoms: C_3  and  O_6 
REMARK    3  A    between atoms: C_3  and  C_4 
REMARK    4  A    between atoms: C_7  and  O_6 
REMARK    5  A    between atoms: C_9  and  C_10 
REMARK    6  A    between atoms: N_15  and  C_14 
REMARK    7  A    between atoms: N_20  and  C_19 
REMARK       I    between atoms: C_22  and  N_20 
ROOT
ATOM      1  C   LIG d   1      -5.510  93.151 119.307  0.00  0.00     0.161 C 
ATOM      2  C   LIG d   1      -6.869  93.401 119.057  0.00  0.00     0.016 C 
ATOM      3  C   LIG d   1      -7.388  94.691 118.799  0.00  0.00     0.038 C 
ATOM      4  C   LIG d   1      -6.553  95.804 118.623  0.00  0.00     0.028 C 
ATOM      5  C   LIG d   1      -5.226  95.690 119.364  0.00  0.00    -0.047 C 
ATOM      6  C   LIG d   1      -4.568  94.336 119.009  0.00  0.00     0.091 C 
ENDROOT
BRANCH   1   7
ATOM      7  O   LIG d   1      -5.087  91.980 118.580  0.00  0.00    -0.368 OA
BRANCH   7   8
ATOM      8  C   LIG d   1      -4.542  92.213 117.258  0.00  0.00     0.119 C 
BRANCH   8   9
ATOM      9  C   LIG d   1      -5.425  91.449 116.252  0.00  0.00     0.028 C 
ATOM     10  C   LIG d   1      -6.466  92.358 115.577  0.00  0.00     0.006 C 
ENDBRANCH   8   9
BRANCH   8  11
ATOM     11  C   LIG d   1      -3.144  91.603 117.116  0.00  0.00     0.028 C 
ATOM     12  C   LIG d   1      -2.855  90.525 118.173  0.00  0.00     0.006 C 
ENDBRANCH   8  11
ENDBRANCH   7   8
ENDBRANCH   1   7
BRANCH   6  13
ATOM     13  N   LIG d   1      -3.305  94.106 119.757  0.00  0.00    -0.311 N 
ATOM     14  C   LIG d   1      -2.101  94.405 119.272  0.00  0.00     0.210 C 
ATOM     15  C   LIG d   1      -0.929  94.069 120.199  0.00  0.00     0.109 C 
ATOM     16  O   LIG d   1      -1.894  94.947 118.176  0.00  0.00    -0.276 OA
ATOM     17  H   LIG d   1      -3.382  93.699 120.669  0.00  0.00     0.149 HD
ENDBRANCH   6  13
BRANCH   5  18
ATOM     18  N   LIG d   1      -4.400  96.851 118.983  0.00  0.00     0.381 N 
ATOM     19  H   LIG d   1      -4.972  97.670 118.928  0.00  0.00    -0.090 HD
ATOM     20  H   LIG d   1      -4.002  96.683 118.075  0.00  0.00    -0.090 HD
ATOM     21  H   LIG d   1      -3.674  96.988 119.651  0.00  0.00    -0.090 HD
ENDBRANCH   5  18
BRANCH   3  22
ATOM     22  C   LIG d   1      -8.761  94.883 118.754  0.00  0.00     0.382 C 
ATOM     23  O   LIG d   1      -9.260  95.637 117.885  0.00  0.00    -0.241 OA
ATOM     24  O   LIG d   1      -9.501  94.348 119.600  0.00  0.00    -0.241 OA
ENDBRANCH   3  22
TORSDOF 7
ENDMDL
