MODEL 1
REMARK VINA RESULT:      -6.0      0.000      0.000
REMARK  7 active torsions:
REMARK  status: ('A' for Active; 'I' for Inactive)
REMARK    1  A    between atoms: C_2  and  C_3 
REMARK    2  A    between atoms: C_3  and  O_6 
REMARK    3  A    between atoms: C_3  and  C_4 
REMARK    4  A    between atoms: C_7  and  O_6 
REMARK    5  A    between atoms: C_9  and  C_10 
REMARK    6  A    between atoms: N_15  and  C_14 
REMARK    7  A    between atoms: N_20  and  C_19 
REMARK       I    between atoms: C_22  and  N_20 
ROOT
ATOM      1  C   LIG d   1      -8.519  74.237 117.483  0.00  0.00     0.161 C 
ATOM      2  C   LIG d   1      -8.174  73.001 116.911  0.00  0.00     0.016 C 
ATOM      3  C   LIG d   1      -8.979  71.843 117.017  0.00  0.00     0.038 C 
ATOM      4  C   LIG d   1     -10.265  71.882 117.577  0.00  0.00     0.028 C 
ATOM      5  C   LIG d   1     -10.441  72.987 118.613  0.00  0.00    -0.047 C 
ATOM      6  C   LIG d   1      -9.969  74.327 118.002  0.00  0.00     0.091 C 
ENDROOT
BRANCH   1   7
ATOM      7  O   LIG d   1      -8.255  75.299 116.546  0.00  0.00    -0.368 OA
BRANCH   7   8
ATOM      8  C   LIG d   1      -6.865  75.514 116.201  0.00  0.00     0.119 C 
BRANCH   8   9
ATOM      9  C   LIG d   1      -6.521  76.975 116.552  0.00  0.00     0.028 C 
ATOM     10  C   LIG d   1      -7.528  77.595 117.535  0.00  0.00     0.006 C 
ENDBRANCH   8   9
BRANCH   8  11
ATOM     11  C   LIG d   1      -6.641  75.397 114.690  0.00  0.00     0.028 C 
ATOM     12  C   LIG d   1      -5.740  74.210 114.312  0.00  0.00     0.006 C 
ENDBRANCH   8  11
ENDBRANCH   7   8
ENDBRANCH   1   7
BRANCH   6  13
ATOM     13  N   LIG d   1     -10.028  75.446 118.978  0.00  0.00    -0.311 N 
ATOM     14  C   LIG d   1     -11.039  76.312 119.040  0.00  0.00     0.210 C 
ATOM     15  C   LIG d   1     -10.892  77.402 120.106  0.00  0.00     0.109 C 
ATOM     16  O   LIG d   1     -12.058  76.262 118.335  0.00  0.00    -0.276 OA
ATOM     17  H   LIG d   1      -9.257  75.543 119.609  0.00  0.00     0.149 HD
ENDBRANCH   6  13
BRANCH   5  18
ATOM     18  N   LIG d   1     -11.860  73.002 119.012  0.00  0.00     0.381 N 
ATOM     19  H   LIG d   1     -12.091  73.890 119.411  0.00  0.00    -0.090 HD
ATOM     20  H   LIG d   1     -12.009  72.295 119.710  0.00  0.00    -0.090 HD
ATOM     21  H   LIG d   1     -12.439  72.824 118.221  0.00  0.00    -0.090 HD
ENDBRANCH   5  18
BRANCH   3  22
ATOM     22  C   LIG d   1      -8.482  70.619 116.594  0.00  0.00     0.382 C 
ATOM     23  O   LIG d   1      -9.012  69.555 116.994  0.00  0.00    -0.241 OA
ATOM     24  O   LIG d   1      -7.483  70.566 115.852  0.00  0.00    -0.241 OA
ENDBRANCH   3  22
TORSDOF 7
ENDMDL
MODEL 2
REMARK VINA RESULT:      -5.4      2.021      4.309
REMARK  7 active torsions:
REMARK  status: ('A' for Active; 'I' for Inactive)
REMARK    1  A    between atoms: C_2  and  C_3 
REMARK    2  A    between atoms: C_3  and  O_6 
REMARK    3  A    between atoms: C_3  and  C_4 
REMARK    4  A    between atoms: C_7  and  O_6 
REMARK    5  A    between atoms: C_9  and  C_10 
REMARK    6  A    between atoms: N_15  and  C_14 
REMARK    7  A    between atoms: N_20  and  C_19 
REMARK       I    between atoms: C_22  and  N_20 
ROOT
ATOM      1  C   LIG d   1      -9.288  74.243 117.476  0.00  0.00     0.161 C 
ATOM      2  C   LIG d   1      -9.318  72.864 117.213  0.00  0.00     0.016 C 
ATOM      3  C   LIG d   1      -8.162  72.100 116.933  0.00  0.00     0.038 C 
ATOM      4  C   LIG d   1      -6.872  72.638 117.047  0.00  0.00     0.028 C 
ATOM      5  C   LIG d   1      -6.822  74.145 116.815  0.00  0.00    -0.047 C 
ATOM      6  C   LIG d   1      -7.879  74.826 117.714  0.00  0.00     0.091 C 
ENDROOT
BRANCH   1   7
ATOM      7  O   LIG d   1     -10.151  74.547 118.590  0.00  0.00    -0.368 OA
BRANCH   7   8
ATOM      8  C   LIG d   1     -11.367  75.268 118.276  0.00  0.00     0.119 C 
BRANCH   8   9
ATOM      9  C   LIG d   1     -11.523  76.390 119.321  0.00  0.00     0.028 C 
ATOM     10  C   LIG d   1     -10.336  76.453 120.296  0.00  0.00     0.006 C 
ENDBRANCH   8   9
BRANCH   8  11
ATOM     11  C   LIG d   1     -12.602  74.379 118.448  0.00  0.00     0.028 C 
ATOM     12  C   LIG d   1     -12.412  73.297 119.522  0.00  0.00     0.006 C 
ENDBRANCH   8  11
ENDBRANCH   7   8
ENDBRANCH   1   7
BRANCH   6  13
ATOM     13  N   LIG d   1      -7.955  76.293 117.488  0.00  0.00    -0.311 N 
ATOM     14  C   LIG d   1      -7.305  77.184 118.234  0.00  0.00     0.210 C 
ATOM     15  C   LIG d   1      -7.537  78.647 117.843  0.00  0.00     0.109 C 
ATOM     16  O   LIG d   1      -6.532  76.900 119.162  0.00  0.00    -0.276 OA
ATOM     17  H   LIG d   1      -8.535  76.609 116.735  0.00  0.00     0.149 HD
ENDBRANCH   6  13
BRANCH   5  18
ATOM     18  N   LIG d   1      -5.446  74.594 117.100  0.00  0.00     0.381 N 
ATOM     19  H   LIG d   1      -4.798  74.079 116.537  0.00  0.00    -0.090 HD
ATOM     20  H   LIG d   1      -5.237  74.412 118.066  0.00  0.00    -0.090 HD
ATOM     21  H   LIG d   1      -5.359  75.568 116.911  0.00  0.00    -0.090 HD
ENDBRANCH   5  18
BRANCH   3  22
ATOM     22  C   LIG d   1      -8.293  70.790 116.495  0.00  0.00     0.382 C 
ATOM     23  O   LIG d   1      -7.281  70.151 116.119  0.00  0.00    -0.241 OA
ATOM     24  O   LIG d   1      -9.416  70.255 116.429  0.00  0.00    -0.241 OA
ENDBRANCH   3  22
TORSDOF 7
ENDMDL
MODEL 3
REMARK VINA RESULT:      -5.3     16.478     19.693
REMARK  7 active torsions:
REMARK  status: ('A' for Active; 'I' for Inactive)
REMARK    1  A    between atoms: C_2  and  C_3 
REMARK    2  A    between atoms: C_3  and  O_6 
REMARK    3  A    between atoms: C_3  and  C_4 
REMARK    4  A    between atoms: C_7  and  O_6 
REMARK    5  A    between atoms: C_9  and  C_10 
REMARK    6  A    between atoms: N_15  and  C_14 
REMARK    7  A    between atoms: N_20  and  C_19 
REMARK       I    between atoms: C_22  and  N_20 
ROOT
ATOM      1  C   LIG d   1      -6.375  92.496 117.712  0.00  0.00     0.161 C 
ATOM      2  C   LIG d   1      -7.465  93.381 117.661  0.00  0.00     0.016 C 
ATOM      3  C   LIG d   1      -7.491  94.624 118.334  0.00  0.00     0.038 C 
ATOM      4  C   LIG d   1      -6.359  95.138 118.985  0.00  0.00     0.028 C 
ATOM      5  C   LIG d   1      -5.407  94.058 119.487  0.00  0.00    -0.047 C 
ATOM      6  C   LIG d   1      -5.090  93.088 118.326  0.00  0.00     0.091 C 
ENDROOT
BRANCH   1   7
ATOM      7  O   LIG d   1      -6.107  91.974 116.395  0.00  0.00    -0.368 OA
BRANCH   7   8
ATOM      8  C   LIG d   1      -6.508  90.602 116.160  0.00  0.00     0.119 C 
BRANCH   8   9
ATOM      9  C   LIG d   1      -6.631  90.411 114.636  0.00  0.00     0.028 C 
ATOM     10  C   LIG d   1      -7.089  91.692 113.918  0.00  0.00     0.006 C 
ENDBRANCH   8   9
BRANCH   8  11
ATOM     11  C   LIG d   1      -7.908  90.327 116.717  0.00  0.00     0.028 C 
ATOM     12  C   LIG d   1      -8.590  89.123 116.048  0.00  0.00     0.006 C 
ENDBRANCH   8  11
ENDBRANCH   7   8
ENDBRANCH   1   7
BRANCH   6  13
ATOM     13  N   LIG d   1      -4.231  91.953 118.753  0.00  0.00    -0.311 N 
ATOM     14  C   LIG d   1      -2.917  91.908 118.541  0.00  0.00     0.210 C 
ATOM     15  C   LIG d   1      -2.224  90.637 119.044  0.00  0.00     0.109 C 
ATOM     16  O   LIG d   1      -2.254  92.813 118.012  0.00  0.00    -0.276 OA
ATOM     17  H   LIG d   1      -4.682  91.190 119.218  0.00  0.00     0.149 HD
ENDBRANCH   6  13
BRANCH   5  18
ATOM     18  N   LIG d   1      -4.209  94.733 120.021  0.00  0.00     0.381 N 
ATOM     19  H   LIG d   1      -3.496  94.761 119.320  0.00  0.00    -0.090 HD
ATOM     20  H   LIG d   1      -3.861  94.208 120.804  0.00  0.00    -0.090 HD
ATOM     21  H   LIG d   1      -4.439  95.659 120.308  0.00  0.00    -0.090 HD
ENDBRANCH   5  18
BRANCH   3  22
ATOM     22  C   LIG d   1      -8.671  95.349 118.393  0.00  0.00     0.382 C 
ATOM     23  O   LIG d   1      -9.767  94.753 118.525  0.00  0.00    -0.241 OA
ATOM     24  O   LIG d   1      -8.657  96.589 118.272  0.00  0.00    -0.241 OA
ENDBRANCH   3  22
TORSDOF 7
ENDMDL
MODEL 4
REMARK VINA RESULT:      -5.2      2.258      4.910
REMARK  7 active torsions:
REMARK  status: ('A' for Active; 'I' for Inactive)
REMARK    1  A    between atoms: C_2  and  C_3 
REMARK    2  A    between atoms: C_3  and  O_6 
REMARK    3  A    between atoms: C_3  and  C_4 
REMARK    4  A    between atoms: C_7  and  O_6 
REMARK    5  A    between atoms: C_9  and  C_10 
REMARK    6  A    between atoms: N_15  and  C_14 
REMARK    7  A    between atoms: N_20  and  C_19 
REMARK       I    between atoms: C_22  and  N_20 
ROOT
ATOM      1  C   LIG d   1      -8.154  74.546 116.752  0.00  0.00     0.161 C 
ATOM      2  C   LIG d   1      -7.178  74.218 115.795  0.00  0.00     0.016 C 
ATOM      3  C   LIG d   1      -6.156  75.107 115.390  0.00  0.00     0.038 C 
ATOM      4  C   LIG d   1      -5.949  76.340 116.027  0.00  0.00     0.028 C 
ATOM      5  C   LIG d   1      -7.215  76.921 116.648  0.00  0.00    -0.047 C 
ATOM      6  C   LIG d   1      -7.877  75.844 117.538  0.00  0.00     0.091 C 
ENDROOT
BRANCH   1   7
ATOM      7  O   LIG d   1      -8.341  73.441 117.658  0.00  0.00    -0.368 OA
BRANCH   7   8
ATOM      8  C   LIG d   1      -9.600  72.733 117.549  0.00  0.00     0.119 C 
BRANCH   8   9
ATOM      9  C   LIG d   1      -9.379  71.537 116.603  0.00  0.00     0.028 C 
ATOM     10  C   LIG d   1      -9.806  70.202 117.235  0.00  0.00     0.006 C 
ENDBRANCH   8   9
BRANCH   8  11
ATOM     11  C   LIG d   1     -10.667  73.596 116.869  0.00  0.00     0.028 C 
ATOM     12  C   LIG d   1     -11.867  73.891 117.784  0.00  0.00     0.006 C 
ENDBRANCH   8  11
ENDBRANCH   7   8
ENDBRANCH   1   7
BRANCH   6  13
ATOM     13  N   LIG d   1      -9.167  76.302 118.117  0.00  0.00    -0.311 N 
ATOM     14  C   LIG d   1      -9.436  76.276 119.422  0.00  0.00     0.210 C 
ATOM     15  C   LIG d   1     -10.833  76.775 119.804  0.00  0.00     0.109 C 
ATOM     16  O   LIG d   1      -8.639  75.916 120.301  0.00  0.00    -0.276 OA
ATOM     17  H   LIG d   1      -9.860  76.639 117.478  0.00  0.00     0.149 HD
ENDBRANCH   6  13
BRANCH   5  18
ATOM     18  N   LIG d   1      -6.830  78.132 117.396  0.00  0.00     0.381 N 
ATOM     19  H   LIG d   1      -7.061  78.022 118.363  0.00  0.00    -0.090 HD
ATOM     20  H   LIG d   1      -7.347  78.915 117.035  0.00  0.00    -0.090 HD
ATOM     21  H   LIG d   1      -5.852  78.297 117.297  0.00  0.00    -0.090 HD
ENDBRANCH   5  18
BRANCH   3  22
ATOM     22  C   LIG d   1      -5.353  74.783 114.307  0.00  0.00     0.382 C 
ATOM     23  O   LIG d   1      -5.411  73.634 113.805  0.00  0.00    -0.241 OA
ATOM     24  O   LIG d   1      -4.539  75.610 113.854  0.00  0.00    -0.241 OA
ENDBRANCH   3  22
TORSDOF 7
ENDMDL
MODEL 5
REMARK VINA RESULT:      -5.2     17.656     20.577
REMARK  7 active torsions:
REMARK  status: ('A' for Active; 'I' for Inactive)
REMARK    1  A    between atoms: C_2  and  C_3 
REMARK    2  A    between atoms: C_3  and  O_6 
REMARK    3  A    between atoms: C_3  and  C_4 
REMARK    4  A    between atoms: C_7  and  O_6 
REMARK    5  A    between atoms: C_9  and  C_10 
REMARK    6  A    between atoms: N_15  and  C_14 
REMARK    7  A    between atoms: N_20  and  C_19 
REMARK       I    between atoms: C_22  and  N_20 
ROOT
ATOM      1  C   LIG d   1      -6.321  93.225 119.407  0.00  0.00     0.161 C 
ATOM      2  C   LIG d   1      -7.609  93.721 119.140  0.00  0.00     0.016 C 
ATOM      3  C   LIG d   1      -7.876  95.079 118.853  0.00  0.00     0.038 C 
ATOM      4  C   LIG d   1      -6.846  96.013 118.664  0.00  0.00     0.028 C 
ATOM      5  C   LIG d   1      -5.567  95.667 119.419  0.00  0.00    -0.047 C 
ATOM      6  C   LIG d   1      -5.173  94.208 119.095  0.00  0.00     0.091 C 
ENDROOT
BRANCH   1   7
ATOM      7  O   LIG d   1      -6.121  91.982 118.705  0.00  0.00    -0.368 OA
BRANCH   7   8
ATOM      8  C   LIG d   1      -5.495  92.079 117.402  0.00  0.00     0.119 C 
BRANCH   8   9
ATOM      9  C   LIG d   1      -6.607  91.949 116.343  0.00  0.00     0.028 C 
ATOM     10  C   LIG d   1      -7.342  90.600 116.425  0.00  0.00     0.006 C 
ENDBRANCH   8   9
BRANCH   8  11
ATOM     11  C   LIG d   1      -4.553  90.898 117.147  0.00  0.00     0.028 C 
ATOM     12  C   LIG d   1      -3.782  90.469 118.406  0.00  0.00     0.006 C 
ENDBRANCH   8  11
ENDBRANCH   7   8
ENDBRANCH   1   7
BRANCH   6  13
ATOM     13  N   LIG d   1      -3.979  93.761 119.858  0.00  0.00    -0.311 N 
ATOM     14  C   LIG d   1      -2.741  93.795 119.368  0.00  0.00     0.210 C 
ATOM     15  C   LIG d   1      -1.656  93.269 120.314  0.00  0.00     0.109 C 
ATOM     16  O   LIG d   1      -2.433  94.241 118.253  0.00  0.00    -0.276 OA
ATOM     17  H   LIG d   1      -4.133  93.413 120.784  0.00  0.00     0.149 HD
ENDBRANCH   6  13
BRANCH   5  18
ATOM     18  N   LIG d   1      -4.537  96.646 119.023  0.00  0.00     0.381 N 
ATOM     19  H   LIG d   1      -3.653  96.188 118.929  0.00  0.00    -0.090 HD
ATOM     20  H   LIG d   1      -4.457  97.342 119.743  0.00  0.00    -0.090 HD
ATOM     21  H   LIG d   1      -4.790  97.076 118.161  0.00  0.00    -0.090 HD
ENDBRANCH   5  18
BRANCH   3  22
ATOM     22  C   LIG d   1      -9.188  95.524 118.793  0.00  0.00     0.382 C 
ATOM     23  O   LIG d   1     -10.130  94.732 119.040  0.00  0.00    -0.241 OA
ATOM     24  O   LIG d   1      -9.443  96.694 118.451  0.00  0.00    -0.241 OA
ENDBRANCH   3  22
TORSDOF 7
ENDMDL
MODEL 6
REMARK VINA RESULT:      -4.8      2.369      4.321
REMARK  7 active torsions:
REMARK  status: ('A' for Active; 'I' for Inactive)
REMARK    1  A    between atoms: C_2  and  C_3 
REMARK    2  A    between atoms: C_3  and  O_6 
REMARK    3  A    between atoms: C_3  and  C_4 
REMARK    4  A    between atoms: C_7  and  O_6 
REMARK    5  A    between atoms: C_9  and  C_10 
REMARK    6  A    between atoms: N_15  and  C_14 
REMARK    7  A    between atoms: N_20  and  C_19 
REMARK       I    between atoms: C_22  and  N_20 
ROOT
ATOM      1  C   LIG d   1      -7.863  74.877 117.737  0.00  0.00     0.161 C 
ATOM      2  C   LIG d   1      -6.609  75.176 117.180  0.00  0.00     0.016 C 
ATOM      3  C   LIG d   1      -5.891  74.280 116.354  0.00  0.00     0.038 C 
ATOM      4  C   LIG d   1      -6.452  73.076 115.903  0.00  0.00     0.028 C 
ATOM      5  C   LIG d   1      -7.508  72.509 116.846  0.00  0.00    -0.047 C 
ATOM      6  C   LIG d   1      -8.540  73.614 117.166  0.00  0.00     0.091 C 
ENDROOT
BRANCH   1   7
ATOM      7  O   LIG d   1      -8.738  76.016 117.609  0.00  0.00    -0.368 OA
BRANCH   7   8
ATOM      8  C   LIG d   1      -8.728  76.954 118.713  0.00  0.00     0.119 C 
BRANCH   8   9
ATOM      9  C   LIG d   1      -9.658  76.394 119.806  0.00  0.00     0.028 C 
ATOM     10  C   LIG d   1     -11.139  76.710 119.535  0.00  0.00     0.006 C 
ENDBRANCH   8   9
BRANCH   8  11
ATOM     11  C   LIG d   1      -9.341  78.298 118.307  0.00  0.00     0.028 C 
ATOM     12  C   LIG d   1      -8.289  79.402 118.122  0.00  0.00     0.006 C 
ENDBRANCH   8  11
ENDBRANCH   7   8
ENDBRANCH   1   7
BRANCH   6  13
ATOM     13  N   LIG d   1      -9.562  73.167 118.149  0.00  0.00    -0.311 N 
ATOM     14  C   LIG d   1     -10.867  73.384 118.000  0.00  0.00     0.210 C 
ATOM     15  C   LIG d   1     -11.745  72.858 119.140  0.00  0.00     0.109 C 
ATOM     16  O   LIG d   1     -11.385  73.933 117.015  0.00  0.00    -0.276 OA
ATOM     17  H   LIG d   1      -9.232  72.686 118.963  0.00  0.00     0.149 HD
ENDBRANCH   6  13
BRANCH   5  18
ATOM     18  N   LIG d   1      -8.106  71.331 116.189  0.00  0.00     0.381 N 
ATOM     19  H   LIG d   1      -7.391  70.795 115.739  0.00  0.00    -0.090 HD
ATOM     20  H   LIG d   1      -8.753  71.644 115.487  0.00  0.00    -0.090 HD
ATOM     21  H   LIG d   1      -8.579  70.769 116.861  0.00  0.00    -0.090 HD
ENDBRANCH   5  18
BRANCH   3  22
ATOM     22  C   LIG d   1      -4.581  74.569 116.003  0.00  0.00     0.382 C 
ATOM     23  O   LIG d   1      -3.902  75.356 116.706  0.00  0.00    -0.241 OA
ATOM     24  O   LIG d   1      -4.083  74.086 114.968  0.00  0.00    -0.241 OA
ENDBRANCH   3  22
TORSDOF 7
ENDMDL
MODEL 7
REMARK VINA RESULT:      -4.4     10.157     12.971
REMARK  7 active torsions:
REMARK  status: ('A' for Active; 'I' for Inactive)
REMARK    1  A    between atoms: C_2  and  C_3 
REMARK    2  A    between atoms: C_3  and  O_6 
REMARK    3  A    between atoms: C_3  and  C_4 
REMARK    4  A    between atoms: C_7  and  O_6 
REMARK    5  A    between atoms: C_9  and  C_10 
REMARK    6  A    between atoms: N_15  and  C_14 
REMARK    7  A    between atoms: N_20  and  C_19 
REMARK       I    between atoms: C_22  and  N_20 
ROOT
ATOM      1  C   LIG d   1     -18.388  65.549 115.950  0.00  0.00     0.161 C 
ATOM      2  C   LIG d   1     -17.365  65.997 115.096  0.00  0.00     0.016 C 
ATOM      3  C   LIG d   1     -16.546  67.113 115.383  0.00  0.00     0.038 C 
ATOM      4  C   LIG d   1     -16.594  67.770 116.622  0.00  0.00     0.028 C 
ATOM      5  C   LIG d   1     -17.952  67.669 117.309  0.00  0.00    -0.047 C 
ATOM      6  C   LIG d   1     -18.381  66.184 117.356  0.00  0.00     0.091 C 
ENDROOT
BRANCH   1   7
ATOM      7  O   LIG d   1     -18.346  64.112 116.049  0.00  0.00    -0.368 OA
BRANCH   7   8
ATOM      8  C   LIG d   1     -17.082  63.486 115.715  0.00  0.00     0.119 C 
BRANCH   8   9
ATOM      9  C   LIG d   1     -17.395  62.224 114.888  0.00  0.00     0.028 C 
ATOM     10  C   LIG d   1     -17.271  60.934 115.716  0.00  0.00     0.006 C 
ENDBRANCH   8   9
BRANCH   8  11
ATOM     11  C   LIG d   1     -16.362  62.981 116.969  0.00  0.00     0.028 C 
ATOM     12  C   LIG d   1     -15.270  63.946 117.457  0.00  0.00     0.006 C 
ENDBRANCH   8  11
ENDBRANCH   7   8
ENDBRANCH   1   7
BRANCH   6  13
ATOM     13  N   LIG d   1     -19.737  66.005 117.937  0.00  0.00    -0.311 N 
ATOM     14  C   LIG d   1     -19.958  65.798 119.234  0.00  0.00     0.210 C 
ATOM     15  C   LIG d   1     -21.429  65.619 119.619  0.00  0.00     0.109 C 
ATOM     16  O   LIG d   1     -19.077  65.779 120.107  0.00  0.00    -0.276 OA
ATOM     17  H   LIG d   1     -20.512  66.037 117.304  0.00  0.00     0.149 HD
ENDBRANCH   6  13
BRANCH   5  18
ATOM     18  N   LIG d   1     -17.821  68.275 118.647  0.00  0.00     0.381 N 
ATOM     19  H   LIG d   1     -16.953  67.998 119.061  0.00  0.00    -0.090 HD
ATOM     20  H   LIG d   1     -18.569  67.943 119.229  0.00  0.00    -0.090 HD
ATOM     21  H   LIG d   1     -17.861  69.268 118.577  0.00  0.00    -0.090 HD
ENDBRANCH   5  18
BRANCH   3  22
ATOM     22  C   LIG d   1     -15.693  67.608 114.408  0.00  0.00     0.382 C 
ATOM     23  O   LIG d   1     -15.735  68.823 114.096  0.00  0.00    -0.241 OA
ATOM     24  O   LIG d   1     -14.913  66.847 113.805  0.00  0.00    -0.241 OA
ENDBRANCH   3  22
TORSDOF 7
ENDMDL
MODEL 8
REMARK VINA RESULT:      -4.3      3.309      5.142
REMARK  7 active torsions:
REMARK  status: ('A' for Active; 'I' for Inactive)
REMARK    1  A    between atoms: C_2  and  C_3 
REMARK    2  A    between atoms: C_3  and  O_6 
REMARK    3  A    between atoms: C_3  and  C_4 
REMARK    4  A    between atoms: C_7  and  O_6 
REMARK    5  A    between atoms: C_9  and  C_10 
REMARK    6  A    between atoms: N_15  and  C_14 
REMARK    7  A    between atoms: N_20  and  C_19 
REMARK       I    between atoms: C_22  and  N_20 
ROOT
ATOM      1  C   LIG d   1      -7.081  76.822 117.183  0.00  0.00     0.161 C 
ATOM      2  C   LIG d   1      -8.271  76.093 117.025  0.00  0.00     0.016 C 
ATOM      3  C   LIG d   1      -9.491  76.451 117.644  0.00  0.00     0.038 C 
ATOM      4  C   LIG d   1      -9.640  77.655 118.347  0.00  0.00     0.028 C 
ATOM      5  C   LIG d   1      -8.338  78.168 118.954  0.00  0.00    -0.047 C 
ATOM      6  C   LIG d   1      -7.251  78.200 117.855  0.00  0.00     0.091 C 
ENDROOT
BRANCH   1   7
ATOM      7  O   LIG d   1      -6.422  76.964 115.909  0.00  0.00    -0.368 OA
BRANCH   7   8
ATOM      8  C   LIG d   1      -5.326  76.052 115.653  0.00  0.00     0.119 C 
BRANCH   8   9
ATOM      9  C   LIG d   1      -4.032  76.888 115.598  0.00  0.00     0.028 C 
ATOM     10  C   LIG d   1      -3.348  76.821 114.222  0.00  0.00     0.006 C 
ENDBRANCH   8   9
BRANCH   8  11
ATOM     11  C   LIG d   1      -5.450  75.406 114.270  0.00  0.00     0.028 C 
ATOM     12  C   LIG d   1      -5.672  73.887 114.341  0.00  0.00     0.006 C 
ENDBRANCH   8  11
ENDBRANCH   7   8
ENDBRANCH   1   7
BRANCH   6  13
ATOM     13  N   LIG d   1      -5.924  78.610 118.384  0.00  0.00    -0.311 N 
ATOM     14  C   LIG d   1      -5.133  79.492 117.775  0.00  0.00     0.210 C 
ATOM     15  C   LIG d   1      -3.798  79.757 118.479  0.00  0.00     0.109 C 
ATOM     16  O   LIG d   1      -5.424  80.104 116.736  0.00  0.00    -0.276 OA
ATOM     17  H   LIG d   1      -5.622  78.186 119.239  0.00  0.00     0.149 HD
ENDBRANCH   6  13
BRANCH   5  18
ATOM     18  N   LIG d   1      -8.611  79.495 119.537  0.00  0.00     0.381 N 
ATOM     19  H   LIG d   1      -7.784  80.058 119.500  0.00  0.00    -0.090 HD
ATOM     20  H   LIG d   1      -8.871  79.380 120.501  0.00  0.00    -0.090 HD
ATOM     21  H   LIG d   1      -9.348  79.942 119.037  0.00  0.00    -0.090 HD
ENDBRANCH   5  18
BRANCH   3  22
ATOM     22  C   LIG d   1     -10.567  75.578 117.597  0.00  0.00     0.382 C 
ATOM     23  O   LIG d   1     -10.392  74.383 117.256  0.00  0.00    -0.241 OA
ATOM     24  O   LIG d   1     -11.719  75.982 117.847  0.00  0.00    -0.241 OA
ENDBRANCH   3  22
TORSDOF 7
ENDMDL
MODEL 9
REMARK VINA RESULT:      -4.3      3.979      7.490
REMARK  7 active torsions:
REMARK  status: ('A' for Active; 'I' for Inactive)
REMARK    1  A    between atoms: C_2  and  C_3 
REMARK    2  A    between atoms: C_3  and  O_6 
REMARK    3  A    between atoms: C_3  and  C_4 
REMARK    4  A    between atoms: C_7  and  O_6 
REMARK    5  A    between atoms: C_9  and  C_10 
REMARK    6  A    between atoms: N_15  and  C_14 
REMARK    7  A    between atoms: N_20  and  C_19 
REMARK       I    between atoms: C_22  and  N_20 
ROOT
ATOM      1  C   LIG d   1      -6.154  76.865 116.744  0.00  0.00     0.161 C 
ATOM      2  C   LIG d   1      -6.828  78.030 117.145  0.00  0.00     0.016 C 
ATOM      3  C   LIG d   1      -6.177  79.261 117.388  0.00  0.00     0.038 C 
ATOM      4  C   LIG d   1      -4.817  79.451 117.099  0.00  0.00     0.028 C 
ATOM      5  C   LIG d   1      -3.998  78.167 117.173  0.00  0.00    -0.047 C 
ATOM      6  C   LIG d   1      -4.687  77.081 116.316  0.00  0.00     0.091 C 
ENDROOT
BRANCH   1   7
ATOM      7  O   LIG d   1      -6.891  76.211 115.692  0.00  0.00    -0.368 OA
BRANCH   7   8
ATOM      8  C   LIG d   1      -7.559  74.977 116.053  0.00  0.00     0.119 C 
BRANCH   8   9
ATOM      9  C   LIG d   1      -9.068  75.276 116.142  0.00  0.00     0.028 C 
ATOM     10  C   LIG d   1      -9.549  75.441 117.593  0.00  0.00     0.006 C 
ENDBRANCH   8   9
BRANCH   8  11
ATOM     11  C   LIG d   1      -7.154  74.515 117.456  0.00  0.00     0.028 C 
ATOM     12  C   LIG d   1      -6.375  73.190 117.444  0.00  0.00     0.006 C 
ENDBRANCH   8  11
ENDBRANCH   7   8
ENDBRANCH   1   7
BRANCH   6  13
ATOM     13  N   LIG d   1      -3.996  75.768 116.400  0.00  0.00    -0.311 N 
ATOM     14  C   LIG d   1      -3.126  75.338 115.488  0.00  0.00     0.210 C 
ATOM     15  C   LIG d   1      -2.543  73.947 115.757  0.00  0.00     0.109 C 
ATOM     16  O   LIG d   1      -2.757  75.990 114.500  0.00  0.00    -0.276 OA
ATOM     17  H   LIG d   1      -4.213  75.188 117.187  0.00  0.00     0.149 HD
ENDBRANCH   6  13
BRANCH   5  18
ATOM     18  N   LIG d   1      -2.632  78.484 116.716  0.00  0.00     0.381 N 
ATOM     19  H   LIG d   1      -1.963  78.058 117.327  0.00  0.00    -0.090 HD
ATOM     20  H   LIG d   1      -2.500  79.479 116.750  0.00  0.00    -0.090 HD
ATOM     21  H   LIG d   1      -2.499  78.154 115.785  0.00  0.00    -0.090 HD
ENDBRANCH   5  18
BRANCH   3  22
ATOM     22  C   LIG d   1      -6.880  80.308 117.965  0.00  0.00     0.382 C 
ATOM     23  O   LIG d   1      -6.958  80.398 119.214  0.00  0.00    -0.241 OA
ATOM     24  O   LIG d   1      -7.474  81.139 117.252  0.00  0.00    -0.241 OA
ENDBRANCH   3  22
TORSDOF 7
ENDMDL
