MODEL 1
REMARK VINA RESULT:      -5.8      0.000      0.000
REMARK  7 active torsions:
REMARK  status: ('A' for Active; 'I' for Inactive)
REMARK    1  A    between atoms: C_2  and  C_3 
REMARK    2  A    between atoms: C_3  and  O_6 
REMARK    3  A    between atoms: C_3  and  C_4 
REMARK    4  A    between atoms: C_7  and  O_6 
REMARK    5  A    between atoms: C_9  and  C_10 
REMARK    6  A    between atoms: N_15  and  C_14 
REMARK    7  A    between atoms: N_20  and  C_19 
REMARK       I    between atoms: C_22  and  N_20 
ROOT
ATOM      1  C   LIG d   1      -5.363  75.259 116.045  0.00  0.00     0.161 C 
ATOM      2  C   LIG d   1      -4.170  74.581 115.743  0.00  0.00     0.016 C 
ATOM      3  C   LIG d   1      -2.959  74.789 116.441  0.00  0.00     0.038 C 
ATOM      4  C   LIG d   1      -2.895  75.583 117.596  0.00  0.00     0.028 C 
ATOM      5  C   LIG d   1      -3.955  76.679 117.636  0.00  0.00    -0.047 C 
ATOM      6  C   LIG d   1      -5.341  76.046 117.372  0.00  0.00     0.091 C 
ENDROOT
BRANCH   1   7
ATOM      7  O   LIG d   1      -6.468  74.334 116.030  0.00  0.00    -0.368 OA
BRANCH   7   8
ATOM      8  C   LIG d   1      -6.488  73.348 117.092  0.00  0.00     0.119 C 
BRANCH   8   9
ATOM      9  C   LIG d   1      -6.693  71.968 116.439  0.00  0.00     0.028 C 
ATOM     10  C   LIG d   1      -8.057  71.349 116.790  0.00  0.00     0.006 C 
ENDBRANCH   8   9
BRANCH   8  11
ATOM     11  C   LIG d   1      -7.697  73.545 118.012  0.00  0.00     0.028 C 
ATOM     12  C   LIG d   1      -7.307  73.651 119.495  0.00  0.00     0.006 C 
ENDBRANCH   8  11
ENDBRANCH   7   8
ENDBRANCH   1   7
BRANCH   6  13
ATOM     13  N   LIG d   1      -6.424  77.062 117.311  0.00  0.00    -0.311 N 
ATOM     14  C   LIG d   1      -7.142  77.432 118.370  0.00  0.00     0.210 C 
ATOM     15  C   LIG d   1      -8.224  78.479 118.084  0.00  0.00     0.109 C 
ATOM     16  O   LIG d   1      -6.964  77.018 119.525  0.00  0.00    -0.276 OA
ATOM     17  H   LIG d   1      -6.615  77.472 116.418  0.00  0.00     0.149 HD
ENDBRANCH   6  13
BRANCH   5  18
ATOM     18  N   LIG d   1      -3.863  77.340 118.952  0.00  0.00     0.381 N 
ATOM     19  H   LIG d   1      -2.904  77.528 119.170  0.00  0.00    -0.090 HD
ATOM     20  H   LIG d   1      -4.230  76.721 119.653  0.00  0.00    -0.090 HD
ATOM     21  H   LIG d   1      -4.382  78.190 118.943  0.00  0.00    -0.090 HD
ENDBRANCH   5  18
BRANCH   3  22
ATOM     22  C   LIG d   1      -1.784  74.229 115.962  0.00  0.00     0.382 C 
ATOM     23  O   LIG d   1      -1.495  74.325 114.744  0.00  0.00    -0.241 OA
ATOM     24  O   LIG d   1      -1.032  73.591 116.722  0.00  0.00    -0.241 OA
ENDBRANCH   3  22
TORSDOF 7
ENDMDL
MODEL 2
REMARK VINA RESULT:      -5.2     15.530     17.835
REMARK  7 active torsions:
REMARK  status: ('A' for Active; 'I' for Inactive)
REMARK    1  A    between atoms: C_2  and  C_3 
REMARK    2  A    between atoms: C_3  and  O_6 
REMARK    3  A    between atoms: C_3  and  C_4 
REMARK    4  A    between atoms: C_7  and  O_6 
REMARK    5  A    between atoms: C_9  and  C_10 
REMARK    6  A    between atoms: N_15  and  C_14 
REMARK    7  A    between atoms: N_20  and  C_19 
REMARK       I    between atoms: C_22  and  N_20 
ROOT
ATOM      1  C   LIG d   1      -4.660  92.806 116.986  0.00  0.00     0.161 C 
ATOM      2  C   LIG d   1      -5.699  92.535 116.081  0.00  0.00     0.016 C 
ATOM      3  C   LIG d   1      -5.871  91.284 115.445  0.00  0.00     0.038 C 
ATOM      4  C   LIG d   1      -5.098  90.165 115.789  0.00  0.00     0.028 C 
ATOM      5  C   LIG d   1      -3.716  90.526 116.324  0.00  0.00    -0.047 C 
ATOM      6  C   LIG d   1      -3.873  91.566 117.457  0.00  0.00     0.091 C 
ENDROOT
BRANCH   1   7
ATOM      7  O   LIG d   1      -5.175  93.533 118.118  0.00  0.00    -0.368 OA
BRANCH   7   8
ATOM      8  C   LIG d   1      -6.600  93.795 118.113  0.00  0.00     0.119 C 
BRANCH   8   9
ATOM      9  C   LIG d   1      -6.790  95.324 118.151  0.00  0.00     0.028 C 
ATOM     10  C   LIG d   1      -5.803  96.014 119.107  0.00  0.00     0.006 C 
ENDBRANCH   8   9
BRANCH   8  11
ATOM     11  C   LIG d   1      -7.268  93.272 119.388  0.00  0.00     0.028 C 
ATOM     12  C   LIG d   1      -6.325  92.413 120.245  0.00  0.00     0.006 C 
ENDBRANCH   8  11
ENDBRANCH   7   8
ENDBRANCH   1   7
BRANCH   6  13
ATOM     13  N   LIG d   1      -2.564  92.036 117.980  0.00  0.00    -0.311 N 
ATOM     14  C   LIG d   1      -2.208  91.937 119.260  0.00  0.00     0.210 C 
ATOM     15  C   LIG d   1      -0.822  92.501 119.591  0.00  0.00     0.109 C 
ATOM     16  O   LIG d   1      -2.894  91.408 120.147  0.00  0.00    -0.276 OA
ATOM     17  H   LIG d   1      -1.932  92.450 117.323  0.00  0.00     0.149 HD
ENDBRANCH   6  13
BRANCH   5  18
ATOM     18  N   LIG d   1      -3.072  89.276 116.772  0.00  0.00     0.381 N 
ATOM     19  H   LIG d   1      -2.622  88.831 115.997  0.00  0.00    -0.090 HD
ATOM     20  H   LIG d   1      -3.778  88.655 117.126  0.00  0.00    -0.090 HD
ATOM     21  H   LIG d   1      -2.404  89.473 117.484  0.00  0.00    -0.090 HD
ENDBRANCH   5  18
BRANCH   3  22
ATOM     22  C   LIG d   1      -6.800  91.154 114.424  0.00  0.00     0.382 C 
ATOM     23  O   LIG d   1      -7.242  92.175 113.844  0.00  0.00    -0.241 OA
ATOM     24  O   LIG d   1      -7.235  90.031 114.104  0.00  0.00    -0.241 OA
ENDBRANCH   3  22
TORSDOF 7
ENDMDL
MODEL 3
REMARK VINA RESULT:      -5.2     15.339     17.699
REMARK  7 active torsions:
REMARK  status: ('A' for Active; 'I' for Inactive)
REMARK    1  A    between atoms: C_2  and  C_3 
REMARK    2  A    between atoms: C_3  and  O_6 
REMARK    3  A    between atoms: C_3  and  C_4 
REMARK    4  A    between atoms: C_7  and  O_6 
REMARK    5  A    between atoms: C_9  and  C_10 
REMARK    6  A    between atoms: N_15  and  C_14 
REMARK    7  A    between atoms: N_20  and  C_19 
REMARK       I    between atoms: C_22  and  N_20 
ROOT
ATOM      1  C   LIG d   1      -5.558  92.169 117.853  0.00  0.00     0.161 C 
ATOM      2  C   LIG d   1      -6.505  91.587 116.994  0.00  0.00     0.016 C 
ATOM      3  C   LIG d   1      -6.182  90.606 116.028  0.00  0.00     0.038 C 
ATOM      4  C   LIG d   1      -4.905  90.028 115.958  0.00  0.00     0.028 C 
ATOM      5  C   LIG d   1      -3.797  90.944 116.465  0.00  0.00    -0.047 C 
ATOM      6  C   LIG d   1      -4.182  91.470 117.866  0.00  0.00     0.091 C 
ENDROOT
BRANCH   1   7
ATOM      7  O   LIG d   1      -6.093  92.248 119.189  0.00  0.00    -0.368 OA
BRANCH   7   8
ATOM      8  C   LIG d   1      -6.417  93.577 119.667  0.00  0.00     0.119 C 
BRANCH   8   9
ATOM      9  C   LIG d   1      -7.947  93.740 119.579  0.00  0.00     0.028 C 
ATOM     10  C   LIG d   1      -8.375  94.619 118.391  0.00  0.00     0.006 C 
ENDBRANCH   8   9
BRANCH   8  11
ATOM     11  C   LIG d   1      -5.840  94.657 118.748  0.00  0.00     0.028 C 
ATOM     12  C   LIG d   1      -4.830  95.570 119.462  0.00  0.00     0.006 C 
ENDBRANCH   8  11
ENDBRANCH   7   8
ENDBRANCH   1   7
BRANCH   6  13
ATOM     13  N   LIG d   1      -3.191  92.440 118.400  0.00  0.00    -0.311 N 
ATOM     14  C   LIG d   1      -2.620  92.321 119.597  0.00  0.00     0.210 C 
ATOM     15  C   LIG d   1      -1.641  93.442 119.961  0.00  0.00     0.109 C 
ATOM     16  O   LIG d   1      -2.807  91.377 120.379  0.00  0.00    -0.276 OA
ATOM     17  H   LIG d   1      -2.957  93.221 117.818  0.00  0.00     0.149 HD
ENDBRANCH   6  13
BRANCH   5  18
ATOM     18  N   LIG d   1      -2.542  90.167 116.465  0.00  0.00     0.381 N 
ATOM     19  H   LIG d   1      -1.875  90.601 117.071  0.00  0.00    -0.090 HD
ATOM     20  H   LIG d   1      -2.164  90.161 115.534  0.00  0.00    -0.090 HD
ATOM     21  H   LIG d   1      -2.719  89.234 116.765  0.00  0.00    -0.090 HD
ENDBRANCH   5  18
BRANCH   3  22
ATOM     22  C   LIG d   1      -7.131  90.223 115.093  0.00  0.00     0.382 C 
ATOM     23  O   LIG d   1      -7.383  90.967 114.114  0.00  0.00    -0.241 OA
ATOM     24  O   LIG d   1      -7.770  89.164 115.238  0.00  0.00    -0.241 OA
ENDBRANCH   3  22
TORSDOF 7
ENDMDL
MODEL 4
REMARK VINA RESULT:      -5.1     14.384     17.041
REMARK  7 active torsions:
REMARK  status: ('A' for Active; 'I' for Inactive)
REMARK    1  A    between atoms: C_2  and  C_3 
REMARK    2  A    between atoms: C_3  and  O_6 
REMARK    3  A    between atoms: C_3  and  C_4 
REMARK    4  A    between atoms: C_7  and  O_6 
REMARK    5  A    between atoms: C_9  and  C_10 
REMARK    6  A    between atoms: N_15  and  C_14 
REMARK    7  A    between atoms: N_20  and  C_19 
REMARK       I    between atoms: C_22  and  N_20 
ROOT
ATOM      1  C   LIG d   1      -4.089  90.879 117.024  0.00  0.00     0.161 C 
ATOM      2  C   LIG d   1      -4.902  90.415 115.978  0.00  0.00     0.016 C 
ATOM      3  C   LIG d   1      -5.960  91.169 115.421  0.00  0.00     0.038 C 
ATOM      4  C   LIG d   1      -6.181  92.509 115.773  0.00  0.00     0.028 C 
ATOM      5  C   LIG d   1      -5.707  92.851 117.181  0.00  0.00    -0.047 C 
ATOM      6  C   LIG d   1      -4.243  92.381 117.346  0.00  0.00     0.091 C 
ENDROOT
BRANCH   1   7
ATOM      7  O   LIG d   1      -2.709  90.566 116.747  0.00  0.00    -0.368 OA
BRANCH   7   8
ATOM      8  C   LIG d   1      -2.060  89.668 117.680  0.00  0.00     0.119 C 
BRANCH   8   9
ATOM      9  C   LIG d   1      -0.564  90.039 117.714  0.00  0.00     0.028 C 
ATOM     10  C   LIG d   1      -0.335  91.558 117.652  0.00  0.00     0.006 C 
ENDBRANCH   8   9
BRANCH   8  11
ATOM     11  C   LIG d   1      -2.107  88.220 117.185  0.00  0.00     0.028 C 
ATOM     12  C   LIG d   1      -1.956  87.196 118.322  0.00  0.00     0.006 C 
ENDBRANCH   8  11
ENDBRANCH   7   8
ENDBRANCH   1   7
BRANCH   6  13
ATOM     13  N   LIG d   1      -3.728  92.601 118.722  0.00  0.00    -0.311 N 
ATOM     14  C   LIG d   1      -3.080  93.703 119.095  0.00  0.00     0.210 C 
ATOM     15  C   LIG d   1      -2.617  93.719 120.555  0.00  0.00     0.109 C 
ATOM     16  O   LIG d   1      -2.872  94.683 118.363  0.00  0.00    -0.276 OA
ATOM     17  H   LIG d   1      -3.881  91.870 119.389  0.00  0.00     0.149 HD
ENDBRANCH   6  13
BRANCH   5  18
ATOM     18  N   LIG d   1      -5.871  94.305 117.366  0.00  0.00     0.381 N 
ATOM     19  H   LIG d   1      -6.292  94.705 116.551  0.00  0.00    -0.090 HD
ATOM     20  H   LIG d   1      -4.965  94.721 117.489  0.00  0.00    -0.090 HD
ATOM     21  H   LIG d   1      -6.439  94.485 118.165  0.00  0.00    -0.090 HD
ENDBRANCH   5  18
BRANCH   3  22
ATOM     22  C   LIG d   1      -6.836  90.570 114.528  0.00  0.00     0.382 C 
ATOM     23  O   LIG d   1      -6.852  89.321 114.409  0.00  0.00    -0.241 OA
ATOM     24  O   LIG d   1      -7.579  91.265 113.809  0.00  0.00    -0.241 OA
ENDBRANCH   3  22
TORSDOF 7
ENDMDL
MODEL 5
REMARK VINA RESULT:      -5.1     14.783     17.345
REMARK  7 active torsions:
REMARK  status: ('A' for Active; 'I' for Inactive)
REMARK    1  A    between atoms: C_2  and  C_3 
REMARK    2  A    between atoms: C_3  and  O_6 
REMARK    3  A    between atoms: C_3  and  C_4 
REMARK    4  A    between atoms: C_7  and  O_6 
REMARK    5  A    between atoms: C_9  and  C_10 
REMARK    6  A    between atoms: N_15  and  C_14 
REMARK    7  A    between atoms: N_20  and  C_19 
REMARK       I    between atoms: C_22  and  N_20 
ROOT
ATOM      1  C   LIG d   1      -4.186  91.635 117.746  0.00  0.00     0.161 C 
ATOM      2  C   LIG d   1      -4.383  90.618 116.797  0.00  0.00     0.016 C 
ATOM      3  C   LIG d   1      -5.403  90.653 115.819  0.00  0.00     0.038 C 
ATOM      4  C   LIG d   1      -6.207  91.787 115.626  0.00  0.00     0.028 C 
ATOM      5  C   LIG d   1      -6.377  92.630 116.886  0.00  0.00    -0.047 C 
ATOM      6  C   LIG d   1      -4.982  92.930 117.481  0.00  0.00     0.091 C 
ENDROOT
BRANCH   1   7
ATOM      7  O   LIG d   1      -2.779  91.927 117.865  0.00  0.00    -0.368 OA
BRANCH   7   8
ATOM      8  C   LIG d   1      -1.876  90.819 117.626  0.00  0.00     0.119 C 
BRANCH   8   9
ATOM      9  C   LIG d   1      -1.720  90.055 118.955  0.00  0.00     0.028 C 
ATOM     10  C   LIG d   1      -1.819  88.531 118.771  0.00  0.00     0.006 C 
ENDBRANCH   8   9
BRANCH   8  11
ATOM     11  C   LIG d   1      -0.470  91.313 117.274  0.00  0.00     0.028 C 
ATOM     12  C   LIG d   1      -0.333  92.840 117.373  0.00  0.00     0.006 C 
ENDBRANCH   8  11
ENDBRANCH   7   8
ENDBRANCH   1   7
BRANCH   6  13
ATOM     13  N   LIG d   1      -5.061  93.679 118.762  0.00  0.00    -0.311 N 
ATOM     14  C   LIG d   1      -4.210  94.647 119.099  0.00  0.00     0.210 C 
ATOM     15  C   LIG d   1      -4.459  95.277 120.473  0.00  0.00     0.109 C 
ATOM     16  O   LIG d   1      -3.293  95.066 118.376  0.00  0.00    -0.276 OA
ATOM     17  H   LIG d   1      -5.795  93.425 119.394  0.00  0.00     0.149 HD
ENDBRANCH   6  13
BRANCH   5  18
ATOM     18  N   LIG d   1      -7.119  93.848 116.510  0.00  0.00     0.381 N 
ATOM     19  H   LIG d   1      -6.702  94.647 116.945  0.00  0.00    -0.090 HD
ATOM     20  H   LIG d   1      -8.065  93.767 116.840  0.00  0.00    -0.090 HD
ATOM     21  H   LIG d   1      -7.113  93.959 115.520  0.00  0.00    -0.090 HD
ENDBRANCH   5  18
BRANCH   3  22
ATOM     22  C   LIG d   1      -5.654  89.529 115.046  0.00  0.00     0.382 C 
ATOM     23  O   LIG d   1      -6.740  89.424 114.427  0.00  0.00    -0.241 OA
ATOM     24  O   LIG d   1      -4.827  88.599 114.997  0.00  0.00    -0.241 OA
ENDBRANCH   3  22
TORSDOF 7
ENDMDL
MODEL 6
REMARK VINA RESULT:      -5.0     14.136     16.689
REMARK  7 active torsions:
REMARK  status: ('A' for Active; 'I' for Inactive)
REMARK    1  A    between atoms: C_2  and  C_3 
REMARK    2  A    between atoms: C_3  and  O_6 
REMARK    3  A    between atoms: C_3  and  C_4 
REMARK    4  A    between atoms: C_7  and  O_6 
REMARK    5  A    between atoms: C_9  and  C_10 
REMARK    6  A    between atoms: N_15  and  C_14 
REMARK    7  A    between atoms: N_20  and  C_19 
REMARK       I    between atoms: C_22  and  N_20 
ROOT
ATOM      1  C   LIG d   1      -2.540  90.344 117.452  0.00  0.00     0.161 C 
ATOM      2  C   LIG d   1      -3.718  89.945 116.799  0.00  0.00     0.016 C 
ATOM      3  C   LIG d   1      -4.765  90.836 116.470  0.00  0.00     0.038 C 
ATOM      4  C   LIG d   1      -4.638  92.223 116.637  0.00  0.00     0.028 C 
ATOM      5  C   LIG d   1      -3.674  92.614 117.752  0.00  0.00    -0.047 C 
ATOM      6  C   LIG d   1      -2.335  91.871 117.541  0.00  0.00     0.091 C 
ENDROOT
BRANCH   1   7
ATOM      7  O   LIG d   1      -1.400  89.722 116.825  0.00  0.00    -0.368 OA
BRANCH   7   8
ATOM      8  C   LIG d   1      -0.725  88.702 117.601  0.00  0.00     0.119 C 
BRANCH   8   9
ATOM      9  C   LIG d   1       0.732  89.162 117.802  0.00  0.00     0.028 C 
ATOM     10  C   LIG d   1       1.328  89.796 116.534  0.00  0.00     0.006 C 
ENDBRANCH   8   9
BRANCH   8  11
ATOM     11  C   LIG d   1      -0.630  87.384 116.826  0.00  0.00     0.028 C 
ATOM     12  C   LIG d   1      -1.980  86.657 116.719  0.00  0.00     0.006 C 
ENDBRANCH   8  11
ENDBRANCH   7   8
ENDBRANCH   1   7
BRANCH   6  13
ATOM     13  N   LIG d   1      -1.364  92.131 118.636  0.00  0.00    -0.311 N 
ATOM     14  C   LIG d   1      -0.170  92.687 118.439  0.00  0.00     0.210 C 
ATOM     15  C   LIG d   1       0.684  92.848 119.701  0.00  0.00     0.109 C 
ATOM     16  O   LIG d   1       0.250  93.092 117.345  0.00  0.00    -0.276 OA
ATOM     17  H   LIG d   1      -1.636  91.861 119.561  0.00  0.00     0.149 HD
ENDBRANCH   6  13
BRANCH   5  18
ATOM     18  N   LIG d   1      -3.532  94.081 117.725  0.00  0.00     0.381 N 
ATOM     19  H   LIG d   1      -4.433  94.508 117.640  0.00  0.00    -0.090 HD
ATOM     20  H   LIG d   1      -2.983  94.340 116.923  0.00  0.00    -0.090 HD
ATOM     21  H   LIG d   1      -3.085  94.396 118.558  0.00  0.00    -0.090 HD
ENDBRANCH   5  18
BRANCH   3  22
ATOM     22  C   LIG d   1      -5.972  90.337 116.004  0.00  0.00     0.382 C 
ATOM     23  O   LIG d   1      -7.014  91.029 116.096  0.00  0.00    -0.241 OA
ATOM     24  O   LIG d   1      -6.040  89.186 115.534  0.00  0.00    -0.241 OA
ENDBRANCH   3  22
TORSDOF 7
ENDMDL
MODEL 7
REMARK VINA RESULT:      -5.0     14.188     17.271
REMARK  7 active torsions:
REMARK  status: ('A' for Active; 'I' for Inactive)
REMARK    1  A    between atoms: C_2  and  C_3 
REMARK    2  A    between atoms: C_3  and  O_6 
REMARK    3  A    between atoms: C_3  and  C_4 
REMARK    4  A    between atoms: C_7  and  O_6 
REMARK    5  A    between atoms: C_9  and  C_10 
REMARK    6  A    between atoms: N_15  and  C_14 
REMARK    7  A    between atoms: N_20  and  C_19 
REMARK       I    between atoms: C_22  and  N_20 
ROOT
ATOM      1  C   LIG d   1      -3.544  91.431 117.197  0.00  0.00     0.161 C 
ATOM      2  C   LIG d   1      -4.634  92.269 116.906  0.00  0.00     0.016 C 
ATOM      3  C   LIG d   1      -5.666  91.919 116.006  0.00  0.00     0.038 C 
ATOM      4  C   LIG d   1      -5.758  90.636 115.447  0.00  0.00     0.028 C 
ATOM      5  C   LIG d   1      -4.411  89.933 115.318  0.00  0.00    -0.047 C 
ATOM      6  C   LIG d   1      -3.686  89.984 116.682  0.00  0.00     0.091 C 
ENDROOT
BRANCH   1   7
ATOM      7  O   LIG d   1      -3.290  91.435 118.616  0.00  0.00    -0.368 OA
BRANCH   7   8
ATOM      8  C   LIG d   1      -2.058  92.068 119.041  0.00  0.00     0.119 C 
BRANCH   8   9
ATOM      9  C   LIG d   1      -2.352  93.568 119.239  0.00  0.00     0.028 C 
ATOM     10  C   LIG d   1      -3.557  93.812 120.163  0.00  0.00     0.006 C 
ENDBRANCH   8   9
BRANCH   8  11
ATOM     11  C   LIG d   1      -0.992  92.006 117.943  0.00  0.00     0.028 C 
ATOM     12  C   LIG d   1      -0.662  93.386 117.354  0.00  0.00     0.006 C 
ENDBRANCH   8  11
ENDBRANCH   7   8
ENDBRANCH   1   7
BRANCH   6  13
ATOM     13  N   LIG d   1      -2.324  89.392 116.622  0.00  0.00    -0.311 N 
ATOM     14  C   LIG d   1      -1.961  88.317 117.319  0.00  0.00     0.210 C 
ATOM     15  C   LIG d   1      -0.504  87.884 117.127  0.00  0.00     0.109 C 
ATOM     16  O   LIG d   1      -2.715  87.662 118.053  0.00  0.00    -0.276 OA
ATOM     17  H   LIG d   1      -1.657  89.843 116.027  0.00  0.00     0.149 HD
ENDBRANCH   6  13
BRANCH   5  18
ATOM     18  N   LIG d   1      -4.669  88.558 114.851  0.00  0.00     0.381 N 
ATOM     19  H   LIG d   1      -3.959  87.944 115.197  0.00  0.00    -0.090 HD
ATOM     20  H   LIG d   1      -4.636  88.544 113.846  0.00  0.00    -0.090 HD
ATOM     21  H   LIG d   1      -5.564  88.253 115.165  0.00  0.00    -0.090 HD
ENDBRANCH   5  18
BRANCH   3  22
ATOM     22  C   LIG d   1      -6.599  92.872 115.626  0.00  0.00     0.382 C 
ATOM     23  O   LIG d   1      -6.976  92.938 114.431  0.00  0.00    -0.241 OA
ATOM     24  O   LIG d   1      -7.036  93.694 116.454  0.00  0.00    -0.241 OA
ENDBRANCH   3  22
TORSDOF 7
ENDMDL
MODEL 8
REMARK VINA RESULT:      -4.6      4.107      6.795
REMARK  7 active torsions:
REMARK  status: ('A' for Active; 'I' for Inactive)
REMARK    1  A    between atoms: C_2  and  C_3 
REMARK    2  A    between atoms: C_3  and  O_6 
REMARK    3  A    between atoms: C_3  and  C_4 
REMARK    4  A    between atoms: C_7  and  O_6 
REMARK    5  A    between atoms: C_9  and  C_10 
REMARK    6  A    between atoms: N_15  and  C_14 
REMARK    7  A    between atoms: N_20  and  C_19 
REMARK       I    between atoms: C_22  and  N_20 
ROOT
ATOM      1  C   LIG d   1      -0.623  76.784 117.133  0.00  0.00     0.161 C 
ATOM      2  C   LIG d   1      -1.792  76.819 116.353  0.00  0.00     0.016 C 
ATOM      3  C   LIG d   1      -2.627  75.695 116.153  0.00  0.00     0.038 C 
ATOM      4  C   LIG d   1      -2.429  74.492 116.847  0.00  0.00     0.028 C 
ATOM      5  C   LIG d   1      -0.978  74.257 117.251  0.00  0.00    -0.047 C 
ATOM      6  C   LIG d   1      -0.452  75.511 117.986  0.00  0.00     0.091 C 
ENDROOT
BRANCH   1   7
ATOM      7  O   LIG d   1      -0.557  77.959 117.966  0.00  0.00    -0.368 OA
BRANCH   7   8
ATOM      8  C   LIG d   1      -1.109  77.827 119.299  0.00  0.00     0.119 C 
BRANCH   8   9
ATOM      9  C   LIG d   1      -2.337  78.754 119.385  0.00  0.00     0.028 C 
ATOM     10  C   LIG d   1      -3.654  77.973 119.524  0.00  0.00     0.006 C 
ENDBRANCH   8   9
BRANCH   8  11
ATOM     11  C   LIG d   1      -0.134  78.344 120.360  0.00  0.00     0.028 C 
ATOM     12  C   LIG d   1       1.211  78.792 119.765  0.00  0.00     0.006 C 
ENDBRANCH   8  11
ENDBRANCH   7   8
ENDBRANCH   1   7
BRANCH   6  13
ATOM     13  N   LIG d   1       0.986  75.398 118.343  0.00  0.00    -0.311 N 
ATOM     14  C   LIG d   1       1.416  74.976 119.530  0.00  0.00     0.210 C 
ATOM     15  C   LIG d   1       2.939  74.954 119.696  0.00  0.00     0.109 C 
ATOM     16  O   LIG d   1       0.682  74.587 120.451  0.00  0.00    -0.276 OA
ATOM     17  H   LIG d   1       1.651  75.663 117.643  0.00  0.00     0.149 HD
ENDBRANCH   6  13
BRANCH   5  18
ATOM     18  N   LIG d   1      -0.939  73.039 118.083  0.00  0.00     0.381 N 
ATOM     19  H   LIG d   1      -1.410  73.206 118.950  0.00  0.00    -0.090 HD
ATOM     20  H   LIG d   1       0.020  72.813 118.283  0.00  0.00    -0.090 HD
ATOM     21  H   LIG d   1      -1.373  72.283 117.601  0.00  0.00    -0.090 HD
ENDBRANCH   5  18
BRANCH   3  22
ATOM     22  C   LIG d   1      -3.650  75.757 115.220  0.00  0.00     0.382 C 
ATOM     23  O   LIG d   1      -4.133  74.700 114.748  0.00  0.00    -0.241 OA
ATOM     24  O   LIG d   1      -4.066  76.858 114.811  0.00  0.00    -0.241 OA
ENDBRANCH   3  22
TORSDOF 7
ENDMDL
MODEL 9
REMARK VINA RESULT:      -4.6     14.630     16.383
REMARK  7 active torsions:
REMARK  status: ('A' for Active; 'I' for Inactive)
REMARK    1  A    between atoms: C_2  and  C_3 
REMARK    2  A    between atoms: C_3  and  O_6 
REMARK    3  A    between atoms: C_3  and  C_4 
REMARK    4  A    between atoms: C_7  and  O_6 
REMARK    5  A    between atoms: C_9  and  C_10 
REMARK    6  A    between atoms: N_15  and  C_14 
REMARK    7  A    between atoms: N_20  and  C_19 
REMARK       I    between atoms: C_22  and  N_20 
ROOT
ATOM      1  C   LIG d   1       0.446  89.986 116.594  0.00  0.00     0.161 C 
ATOM      2  C   LIG d   1       1.784  90.317 116.867  0.00  0.00     0.016 C 
ATOM      3  C   LIG d   1       2.178  91.542 117.453  0.00  0.00     0.038 C 
ATOM      4  C   LIG d   1       1.243  92.462 117.947  0.00  0.00     0.028 C 
ATOM      5  C   LIG d   1      -0.105  92.397 117.237  0.00  0.00    -0.047 C 
ATOM      6  C   LIG d   1      -0.596  90.931 117.228  0.00  0.00     0.091 C 
ENDROOT
BRANCH   1   7
ATOM      7  O   LIG d   1       0.190  88.623 116.985  0.00  0.00    -0.368 OA
BRANCH   7   8
ATOM      8  C   LIG d   1      -0.121  88.409 118.384  0.00  0.00     0.119 C 
BRANCH   8   9
ATOM      9  C   LIG d   1       0.939  87.445 118.952  0.00  0.00     0.028 C 
ATOM     10  C   LIG d   1       1.691  86.683 117.848  0.00  0.00     0.006 C 
ENDBRANCH   8   9
BRANCH   8  11
ATOM     11  C   LIG d   1      -1.460  87.685 118.553  0.00  0.00     0.028 C 
ATOM     12  C   LIG d   1      -2.011  87.135 117.228  0.00  0.00     0.006 C 
ENDBRANCH   8  11
ENDBRANCH   7   8
ENDBRANCH   1   7
BRANCH   6  13
ATOM     13  N   LIG d   1      -1.869  90.764 116.478  0.00  0.00    -0.311 N 
ATOM     14  C   LIG d   1      -3.065  90.737 117.062  0.00  0.00     0.210 C 
ATOM     15  C   LIG d   1      -4.246  90.536 116.107  0.00  0.00     0.109 C 
ATOM     16  O   LIG d   1      -3.263  90.893 118.276  0.00  0.00    -0.276 OA
ATOM     17  H   LIG d   1      -1.803  90.662 115.484  0.00  0.00     0.149 HD
ENDBRANCH   6  13
BRANCH   5  18
ATOM     18  N   LIG d   1      -1.025  93.310 117.942  0.00  0.00     0.381 N 
ATOM     19  H   LIG d   1      -1.273  94.070 117.341  0.00  0.00    -0.090 HD
ATOM     20  H   LIG d   1      -0.557  93.684 118.748  0.00  0.00    -0.090 HD
ATOM     21  H   LIG d   1      -1.845  92.818 118.223  0.00  0.00    -0.090 HD
ENDBRANCH   5  18
BRANCH   3  22
ATOM     22  C   LIG d   1       3.523  91.873 117.513  0.00  0.00     0.382 C 
ATOM     23  O   LIG d   1       4.363  91.020 117.889  0.00  0.00    -0.241 OA
ATOM     24  O   LIG d   1       3.903  93.027 117.238  0.00  0.00    -0.241 OA
ENDBRANCH   3  22
TORSDOF 7
ENDMDL
