MODEL 1
REMARK VINA RESULT:      -6.0      0.000      0.000
REMARK  7 active torsions:
REMARK  status: ('A' for Active; 'I' for Inactive)
REMARK    1  A    between atoms: C_2  and  C_3 
REMARK    2  A    between atoms: C_3  and  O_6 
REMARK    3  A    between atoms: C_3  and  C_4 
REMARK    4  A    between atoms: C_7  and  O_6 
REMARK    5  A    between atoms: C_9  and  C_10 
REMARK    6  A    between atoms: N_15  and  C_14 
REMARK    7  A    between atoms: N_20  and  C_19 
REMARK       I    between atoms: C_22  and  N_20 
ROOT
ATOM      1  C   LIG d   1      -7.307  75.938 117.288  0.00  0.00     0.161 C 
ATOM      2  C   LIG d   1      -8.606  76.211 117.749  0.00  0.00     0.016 C 
ATOM      3  C   LIG d   1      -9.041  77.501 118.130  0.00  0.00     0.038 C 
ATOM      4  C   LIG d   1      -8.247  78.640 117.931  0.00  0.00     0.028 C 
ATOM      5  C   LIG d   1      -6.751  78.345 117.941  0.00  0.00    -0.047 C 
ATOM      6  C   LIG d   1      -6.462  77.187 116.959  0.00  0.00     0.091 C 
ENDROOT
BRANCH   1   7
ATOM      7  O   LIG d   1      -7.368  75.060 116.147  0.00  0.00    -0.368 OA
BRANCH   7   8
ATOM      8  C   LIG d   1      -7.139  73.654 116.412  0.00  0.00     0.119 C 
BRANCH   8   9
ATOM      9  C   LIG d   1      -6.005  73.186 115.479  0.00  0.00     0.028 C 
ATOM     10  C   LIG d   1      -5.528  74.299 114.531  0.00  0.00     0.006 C 
ENDBRANCH   8   9
BRANCH   8  11
ATOM     11  C   LIG d   1      -8.356  72.808 116.027  0.00  0.00     0.028 C 
ATOM     12  C   LIG d   1      -8.412  71.468 116.776  0.00  0.00     0.006 C 
ENDBRANCH   8  11
ENDBRANCH   7   8
ENDBRANCH   1   7
BRANCH   6  13
ATOM     13  N   LIG d   1      -5.033  76.778 116.970  0.00  0.00    -0.311 N 
ATOM     14  C   LIG d   1      -4.124  77.267 116.128  0.00  0.00     0.210 C 
ATOM     15  C   LIG d   1      -2.713  76.696 116.297  0.00  0.00     0.109 C 
ATOM     16  O   LIG d   1      -4.346  78.142 115.278  0.00  0.00    -0.276 OA
ATOM     17  H   LIG d   1      -4.759  76.094 117.648  0.00  0.00     0.149 HD
ENDBRANCH   6  13
BRANCH   5  18
ATOM     18  N   LIG d   1      -6.048  79.593 117.586  0.00  0.00     0.381 N 
ATOM     19  H   LIG d   1      -5.184  79.377 117.131  0.00  0.00    -0.090 HD
ATOM     20  H   LIG d   1      -5.843  80.101 118.428  0.00  0.00    -0.090 HD
ATOM     21  H   LIG d   1      -6.619  80.147 116.985  0.00  0.00    -0.090 HD
ENDBRANCH   5  18
BRANCH   3  22
ATOM     22  C   LIG d   1     -10.270  77.655 118.754  0.00  0.00     0.382 C 
ATOM     23  O   LIG d   1     -10.910  78.726 118.622  0.00  0.00    -0.241 OA
ATOM     24  O   LIG d   1     -10.725  76.754 119.484  0.00  0.00    -0.241 OA
ENDBRANCH   3  22
TORSDOF 7
ENDMDL
MODEL 2
REMARK VINA RESULT:      -5.7      0.840      1.837
REMARK  7 active torsions:
REMARK  status: ('A' for Active; 'I' for Inactive)
REMARK    1  A    between atoms: C_2  and  C_3 
REMARK    2  A    between atoms: C_3  and  O_6 
REMARK    3  A    between atoms: C_3  and  C_4 
REMARK    4  A    between atoms: C_7  and  O_6 
REMARK    5  A    between atoms: C_9  and  C_10 
REMARK    6  A    between atoms: N_15  and  C_14 
REMARK    7  A    between atoms: N_20  and  C_19 
REMARK       I    between atoms: C_22  and  N_20 
ROOT
ATOM      1  C   LIG d   1      -7.786  76.263 117.425  0.00  0.00     0.161 C 
ATOM      2  C   LIG d   1      -9.074  76.620 117.860  0.00  0.00     0.016 C 
ATOM      3  C   LIG d   1      -9.416  77.921 118.293  0.00  0.00     0.038 C 
ATOM      4  C   LIG d   1      -8.526  78.999 118.176  0.00  0.00     0.028 C 
ATOM      5  C   LIG d   1      -7.060  78.582 118.216  0.00  0.00    -0.047 C 
ATOM      6  C   LIG d   1      -6.832  77.452 117.186  0.00  0.00     0.091 C 
ENDROOT
BRANCH   1   7
ATOM      7  O   LIG d   1      -7.880  75.449 116.239  0.00  0.00    -0.368 OA
BRANCH   7   8
ATOM      8  C   LIG d   1      -7.842  74.015 116.446  0.00  0.00     0.119 C 
BRANCH   8   9
ATOM      9  C   LIG d   1      -7.651  73.770 117.955  0.00  0.00     0.028 C 
ATOM     10  C   LIG d   1      -7.799  72.286 118.332  0.00  0.00     0.006 C 
ENDBRANCH   8   9
BRANCH   8  11
ATOM     11  C   LIG d   1      -6.618  73.387 115.774  0.00  0.00     0.028 C 
ATOM     12  C   LIG d   1      -5.863  74.373 114.869  0.00  0.00     0.006 C 
ENDBRANCH   8  11
ENDBRANCH   7   8
ENDBRANCH   1   7
BRANCH   6  13
ATOM     13  N   LIG d   1      -5.442  76.926 117.219  0.00  0.00    -0.311 N 
ATOM     14  C   LIG d   1      -4.470  77.376 116.428  0.00  0.00     0.210 C 
ATOM     15  C   LIG d   1      -3.116  76.683 116.610  0.00  0.00     0.109 C 
ATOM     16  O   LIG d   1      -4.592  78.304 115.614  0.00  0.00    -0.276 OA
ATOM     17  H   LIG d   1      -5.247  76.193 117.872  0.00  0.00     0.149 HD
ENDBRANCH   6  13
BRANCH   5  18
ATOM     18  N   LIG d   1      -6.247  79.782 117.946  0.00  0.00     0.381 N 
ATOM     19  H   LIG d   1      -6.212  80.358 118.764  0.00  0.00    -0.090 HD
ATOM     20  H   LIG d   1      -6.679  80.309 117.208  0.00  0.00    -0.090 HD
ATOM     21  H   LIG d   1      -5.325  79.517 117.679  0.00  0.00    -0.090 HD
ENDBRANCH   5  18
BRANCH   3  22
ATOM     22  C   LIG d   1     -10.649  78.146 118.887  0.00  0.00     0.382 C 
ATOM     23  O   LIG d   1     -11.592  77.341 118.697  0.00  0.00    -0.241 OA
ATOM     24  O   LIG d   1     -10.842  79.167 119.574  0.00  0.00    -0.241 OA
ENDBRANCH   3  22
TORSDOF 7
ENDMDL
MODEL 3
REMARK VINA RESULT:      -5.5      2.131      5.166
REMARK  7 active torsions:
REMARK  status: ('A' for Active; 'I' for Inactive)
REMARK    1  A    between atoms: C_2  and  C_3 
REMARK    2  A    between atoms: C_3  and  O_6 
REMARK    3  A    between atoms: C_3  and  C_4 
REMARK    4  A    between atoms: C_7  and  O_6 
REMARK    5  A    between atoms: C_9  and  C_10 
REMARK    6  A    between atoms: N_15  and  C_14 
REMARK    7  A    between atoms: N_20  and  C_19 
REMARK       I    between atoms: C_22  and  N_20 
ROOT
ATOM      1  C   LIG d   1      -5.505  76.072 116.172  0.00  0.00     0.161 C 
ATOM      2  C   LIG d   1      -5.769  74.769 115.717  0.00  0.00     0.016 C 
ATOM      3  C   LIG d   1      -6.920  74.035 116.084  0.00  0.00     0.038 C 
ATOM      4  C   LIG d   1      -7.967  74.615 116.815  0.00  0.00     0.028 C 
ATOM      5  C   LIG d   1      -7.515  75.758 117.718  0.00  0.00    -0.047 C 
ATOM      6  C   LIG d   1      -6.690  76.761 116.881  0.00  0.00     0.091 C 
ENDROOT
BRANCH   1   7
ATOM      7  O   LIG d   1      -5.033  76.885 115.079  0.00  0.00    -0.368 OA
BRANCH   7   8
ATOM      8  C   LIG d   1      -3.597  77.041 114.975  0.00  0.00     0.119 C 
BRANCH   8   9
ATOM      9  C   LIG d   1      -3.316  78.515 114.623  0.00  0.00     0.028 C 
ATOM     10  C   LIG d   1      -3.518  79.454 115.823  0.00  0.00     0.006 C 
ENDBRANCH   8   9
BRANCH   8  11
ATOM     11  C   LIG d   1      -3.031  76.230 113.806  0.00  0.00     0.028 C 
ATOM     12  C   LIG d   1      -1.539  75.901 113.975  0.00  0.00     0.006 C 
ENDBRANCH   8  11
ENDBRANCH   7   8
ENDBRANCH   1   7
BRANCH   6  13
ATOM     13  N   LIG d   1      -6.138  77.868 117.705  0.00  0.00    -0.311 N 
ATOM     14  C   LIG d   1      -6.755  79.037 117.871  0.00  0.00     0.210 C 
ATOM     15  C   LIG d   1      -6.003  80.047 118.744  0.00  0.00     0.109 C 
ATOM     16  O   LIG d   1      -7.868  79.321 117.404  0.00  0.00    -0.276 OA
ATOM     17  H   LIG d   1      -5.253  77.711 118.146  0.00  0.00     0.149 HD
ENDBRANCH   6  13
BRANCH   5  18
ATOM     18  N   LIG d   1      -8.723  76.359 118.315  0.00  0.00     0.381 N 
ATOM     19  H   LIG d   1      -9.108  77.038 117.689  0.00  0.00    -0.090 HD
ATOM     20  H   LIG d   1      -8.467  76.825 119.167  0.00  0.00    -0.090 HD
ATOM     21  H   LIG d   1      -9.398  75.651 118.504  0.00  0.00    -0.090 HD
ENDBRANCH   5  18
BRANCH   3  22
ATOM     22  C   LIG d   1      -7.013  72.692 115.751  0.00  0.00     0.382 C 
ATOM     23  O   LIG d   1      -6.126  72.158 115.043  0.00  0.00    -0.241 OA
ATOM     24  O   LIG d   1      -7.997  72.019 116.113  0.00  0.00    -0.241 OA
ENDBRANCH   3  22
TORSDOF 7
ENDMDL
MODEL 4
REMARK VINA RESULT:      -5.5      1.723      4.890
REMARK  7 active torsions:
REMARK  status: ('A' for Active; 'I' for Inactive)
REMARK    1  A    between atoms: C_2  and  C_3 
REMARK    2  A    between atoms: C_3  and  O_6 
REMARK    3  A    between atoms: C_3  and  C_4 
REMARK    4  A    between atoms: C_7  and  O_6 
REMARK    5  A    between atoms: C_9  and  C_10 
REMARK    6  A    between atoms: N_15  and  C_14 
REMARK    7  A    between atoms: N_20  and  C_19 
REMARK       I    between atoms: C_22  and  N_20 
ROOT
ATOM      1  C   LIG d   1      -6.798  77.081 116.771  0.00  0.00     0.161 C 
ATOM      2  C   LIG d   1      -5.565  77.575 116.313  0.00  0.00     0.016 C 
ATOM      3  C   LIG d   1      -5.049  78.840 116.678  0.00  0.00     0.038 C 
ATOM      4  C   LIG d   1      -5.666  79.639 117.652  0.00  0.00     0.028 C 
ATOM      5  C   LIG d   1      -7.169  79.406 117.764  0.00  0.00    -0.047 C 
ATOM      6  C   LIG d   1      -7.432  77.891 117.921  0.00  0.00     0.091 C 
ENDROOT
BRANCH   1   7
ATOM      7  O   LIG d   1      -6.659  75.697 117.149  0.00  0.00    -0.368 OA
BRANCH   7   8
ATOM      8  C   LIG d   1      -7.068  74.722 116.159  0.00  0.00     0.119 C 
BRANCH   8   9
ATOM      9  C   LIG d   1      -7.937  73.671 116.876  0.00  0.00     0.028 C 
ATOM     10  C   LIG d   1      -8.019  72.347 116.097  0.00  0.00     0.006 C 
ENDBRANCH   8   9
BRANCH   8  11
ATOM     11  C   LIG d   1      -5.865  73.948 115.611  0.00  0.00     0.028 C 
ATOM     12  C   LIG d   1      -5.310  74.552 114.311  0.00  0.00     0.006 C 
ENDBRANCH   8  11
ENDBRANCH   7   8
ENDBRANCH   1   7
BRANCH   6  13
ATOM     13  N   LIG d   1      -8.882  77.567 117.953  0.00  0.00    -0.311 N 
ATOM     14  C   LIG d   1      -9.589  77.480 119.079  0.00  0.00     0.210 C 
ATOM     15  C   LIG d   1     -11.065  77.115 118.888  0.00  0.00     0.109 C 
ATOM     16  O   LIG d   1      -9.142  77.702 120.214  0.00  0.00    -0.276 OA
ATOM     17  H   LIG d   1      -9.332  77.403 117.074  0.00  0.00     0.149 HD
ENDBRANCH   6  13
BRANCH   5  18
ATOM     18  N   LIG d   1      -7.659  80.200 118.907  0.00  0.00     0.381 N 
ATOM     19  H   LIG d   1      -7.156  79.949 119.734  0.00  0.00    -0.090 HD
ATOM     20  H   LIG d   1      -8.631  79.992 119.054  0.00  0.00    -0.090 HD
ATOM     21  H   LIG d   1      -7.544  81.172 118.722  0.00  0.00    -0.090 HD
ENDBRANCH   5  18
BRANCH   3  22
ATOM     22  C   LIG d   1      -3.925  79.336 116.036  0.00  0.00     0.382 C 
ATOM     23  O   LIG d   1      -3.031  79.918 116.696  0.00  0.00    -0.241 OA
ATOM     24  O   LIG d   1      -3.814  79.247 114.798  0.00  0.00    -0.241 OA
ENDBRANCH   3  22
TORSDOF 7
ENDMDL
MODEL 5
REMARK VINA RESULT:      -5.4      1.568      2.001
REMARK  7 active torsions:
REMARK  status: ('A' for Active; 'I' for Inactive)
REMARK    1  A    between atoms: C_2  and  C_3 
REMARK    2  A    between atoms: C_3  and  O_6 
REMARK    3  A    between atoms: C_3  and  C_4 
REMARK    4  A    between atoms: C_7  and  O_6 
REMARK    5  A    between atoms: C_9  and  C_10 
REMARK    6  A    between atoms: N_15  and  C_14 
REMARK    7  A    between atoms: N_20  and  C_19 
REMARK       I    between atoms: C_22  and  N_20 
ROOT
ATOM      1  C   LIG d   1      -6.391  77.444 116.947  0.00  0.00     0.161 C 
ATOM      2  C   LIG d   1      -7.701  77.502 117.451  0.00  0.00     0.016 C 
ATOM      3  C   LIG d   1      -8.253  78.657 118.052  0.00  0.00     0.038 C 
ATOM      4  C   LIG d   1      -7.578  79.886 118.053  0.00  0.00     0.028 C 
ATOM      5  C   LIG d   1      -6.061  79.744 118.009  0.00  0.00    -0.047 C 
ATOM      6  C   LIG d   1      -5.679  78.808 116.840  0.00  0.00     0.091 C 
ENDROOT
BRANCH   1   7
ATOM      7  O   LIG d   1      -6.388  76.775 115.670  0.00  0.00    -0.368 OA
BRANCH   7   8
ATOM      8  C   LIG d   1      -5.685  75.509 115.615  0.00  0.00     0.119 C 
BRANCH   8   9
ATOM      9  C   LIG d   1      -5.319  75.247 114.142  0.00  0.00     0.028 C 
ATOM     10  C   LIG d   1      -3.882  75.681 113.808  0.00  0.00     0.006 C 
ENDBRANCH   8   9
BRANCH   8  11
ATOM     11  C   LIG d   1      -6.597  74.347 116.020  0.00  0.00     0.028 C 
ATOM     12  C   LIG d   1      -6.158  73.006 115.412  0.00  0.00     0.006 C 
ENDBRANCH   8  11
ENDBRANCH   7   8
ENDBRANCH   1   7
BRANCH   6  13
ATOM     13  N   LIG d   1      -4.217  78.548 116.776  0.00  0.00    -0.311 N 
ATOM     14  C   LIG d   1      -3.473  78.798 115.700  0.00  0.00     0.210 C 
ATOM     15  C   LIG d   1      -1.991  78.437 115.839  0.00  0.00     0.109 C 
ATOM     16  O   LIG d   1      -3.895  79.314 114.654  0.00  0.00    -0.276 OA
ATOM     17  H   LIG d   1      -3.787  78.158 117.593  0.00  0.00     0.149 HD
ENDBRANCH   6  13
BRANCH   5  18
ATOM     18  N   LIG d   1      -5.490  81.098 117.875  0.00  0.00     0.381 N 
ATOM     19  H   LIG d   1      -4.515  81.035 117.659  0.00  0.00    -0.090 HD
ATOM     20  H   LIG d   1      -5.588  81.580 118.752  0.00  0.00    -0.090 HD
ATOM     21  H   LIG d   1      -5.965  81.599 117.158  0.00  0.00    -0.090 HD
ENDBRANCH   5  18
BRANCH   3  22
ATOM     22  C   LIG d   1      -9.479  78.577 118.695  0.00  0.00     0.382 C 
ATOM     23  O   LIG d   1      -9.621  77.815 119.682  0.00  0.00    -0.241 OA
ATOM     24  O   LIG d   1     -10.456  79.225 118.275  0.00  0.00    -0.241 OA
ENDBRANCH   3  22
TORSDOF 7
ENDMDL
MODEL 6
REMARK VINA RESULT:      -5.4      2.141      5.353
REMARK  7 active torsions:
REMARK  status: ('A' for Active; 'I' for Inactive)
REMARK    1  A    between atoms: C_2  and  C_3 
REMARK    2  A    between atoms: C_3  and  O_6 
REMARK    3  A    between atoms: C_3  and  C_4 
REMARK    4  A    between atoms: C_7  and  O_6 
REMARK    5  A    between atoms: C_9  and  C_10 
REMARK    6  A    between atoms: N_15  and  C_14 
REMARK    7  A    between atoms: N_20  and  C_19 
REMARK       I    between atoms: C_22  and  N_20 
ROOT
ATOM      1  C   LIG d   1      -5.109  76.494 115.788  0.00  0.00     0.161 C 
ATOM      2  C   LIG d   1      -3.911  75.808 115.532  0.00  0.00     0.016 C 
ATOM      3  C   LIG d   1      -2.789  75.853 116.392  0.00  0.00     0.038 C 
ATOM      4  C   LIG d   1      -2.844  76.471 117.650  0.00  0.00     0.028 C 
ATOM      5  C   LIG d   1      -3.865  77.601 117.726  0.00  0.00    -0.047 C 
ATOM      6  C   LIG d   1      -5.227  77.083 117.209  0.00  0.00     0.091 C 
ENDROOT
BRANCH   1   7
ATOM      7  O   LIG d   1      -6.233  75.637 115.506  0.00  0.00    -0.368 OA
BRANCH   7   8
ATOM      8  C   LIG d   1      -6.400  74.496 116.383  0.00  0.00     0.119 C 
BRANCH   8   9
ATOM      9  C   LIG d   1      -6.322  73.227 115.512  0.00  0.00     0.028 C 
ATOM     10  C   LIG d   1      -7.356  72.166 115.927  0.00  0.00     0.006 C 
ENDBRANCH   8   9
BRANCH   8  11
ATOM     11  C   LIG d   1      -7.798  74.474 117.008  0.00  0.00     0.028 C 
ATOM     12  C   LIG d   1      -8.712  75.582 116.463  0.00  0.00     0.006 C 
ENDBRANCH   8  11
ENDBRANCH   7   8
ENDBRANCH   1   7
BRANCH   6  13
ATOM     13  N   LIG d   1      -6.262  78.149 117.171  0.00  0.00    -0.311 N 
ATOM     14  C   LIG d   1      -7.104  78.389 118.174  0.00  0.00     0.210 C 
ATOM     15  C   LIG d   1      -8.105  79.521 117.920  0.00  0.00     0.109 C 
ATOM     16  O   LIG d   1      -7.097  77.795 119.262  0.00  0.00    -0.276 OA
ATOM     17  H   LIG d   1      -6.317  78.701 116.337  0.00  0.00     0.149 HD
ENDBRANCH   6  13
BRANCH   5  18
ATOM     18  N   LIG d   1      -3.916  78.063 119.126  0.00  0.00     0.381 N 
ATOM     19  H   LIG d   1      -3.228  78.774 119.273  0.00  0.00    -0.090 HD
ATOM     20  H   LIG d   1      -3.704  77.289 119.731  0.00  0.00    -0.090 HD
ATOM     21  H   LIG d   1      -4.822  78.419 119.335  0.00  0.00    -0.090 HD
ENDBRANCH   5  18
BRANCH   3  22
ATOM     22  C   LIG d   1      -1.583  75.310 115.977  0.00  0.00     0.382 C 
ATOM     23  O   LIG d   1      -1.038  74.404 116.653  0.00  0.00    -0.241 OA
ATOM     24  O   LIG d   1      -1.010  75.744 114.960  0.00  0.00    -0.241 OA
ENDBRANCH   3  22
TORSDOF 7
ENDMDL
MODEL 7
REMARK VINA RESULT:      -5.4      2.031      5.059
REMARK  7 active torsions:
REMARK  status: ('A' for Active; 'I' for Inactive)
REMARK    1  A    between atoms: C_2  and  C_3 
REMARK    2  A    between atoms: C_3  and  O_6 
REMARK    3  A    between atoms: C_3  and  C_4 
REMARK    4  A    between atoms: C_7  and  O_6 
REMARK    5  A    between atoms: C_9  and  C_10 
REMARK    6  A    between atoms: N_15  and  C_14 
REMARK    7  A    between atoms: N_20  and  C_19 
REMARK       I    between atoms: C_22  and  N_20 
ROOT
ATOM      1  C   LIG d   1      -7.385  76.192 117.465  0.00  0.00     0.161 C 
ATOM      2  C   LIG d   1      -7.684  74.842 117.219  0.00  0.00     0.016 C 
ATOM      3  C   LIG d   1      -6.962  74.039 116.306  0.00  0.00     0.038 C 
ATOM      4  C   LIG d   1      -5.790  74.494 115.684  0.00  0.00     0.028 C 
ATOM      5  C   LIG d   1      -5.742  76.009 115.516  0.00  0.00    -0.047 C 
ATOM      6  C   LIG d   1      -6.042  76.675 116.879  0.00  0.00     0.091 C 
ENDROOT
BRANCH   1   7
ATOM      7  O   LIG d   1      -7.437  76.455 118.881  0.00  0.00    -0.368 OA
BRANCH   7   8
ATOM      8  C   LIG d   1      -8.529  77.293 119.334  0.00  0.00     0.119 C 
BRANCH   8   9
ATOM      9  C   LIG d   1      -9.644  76.363 119.850  0.00  0.00     0.028 C 
ATOM     10  C   LIG d   1     -11.048  76.942 119.611  0.00  0.00     0.006 C 
ENDBRANCH   8   9
BRANCH   8  11
ATOM     11  C   LIG d   1      -9.154  78.070 118.172  0.00  0.00     0.028 C 
ATOM     12  C   LIG d   1      -9.015  79.593 118.330  0.00  0.00     0.006 C 
ENDBRANCH   8  11
ENDBRANCH   7   8
ENDBRANCH   1   7
BRANCH   6  13
ATOM     13  N   LIG d   1      -6.098  78.157 116.785  0.00  0.00    -0.311 N 
ATOM     14  C   LIG d   1      -5.314  78.966 117.495  0.00  0.00     0.210 C 
ATOM     15  C   LIG d   1      -5.549  80.462 117.262  0.00  0.00     0.109 C 
ATOM     16  O   LIG d   1      -4.424  78.588 118.271  0.00  0.00    -0.276 OA
ATOM     17  H   LIG d   1      -6.771  78.549 116.156  0.00  0.00     0.149 HD
ENDBRANCH   6  13
BRANCH   5  18
ATOM     18  N   LIG d   1      -4.412  76.357 114.983  0.00  0.00     0.381 N 
ATOM     19  H   LIG d   1      -3.818  75.552 115.003  0.00  0.00    -0.090 HD
ATOM     20  H   LIG d   1      -4.003  77.065 115.566  0.00  0.00    -0.090 HD
ATOM     21  H   LIG d   1      -4.496  76.693 114.049  0.00  0.00    -0.090 HD
ENDBRANCH   5  18
BRANCH   3  22
ATOM     22  C   LIG d   1      -7.435  72.778 115.977  0.00  0.00     0.382 C 
ATOM     23  O   LIG d   1      -8.566  72.408 116.376  0.00  0.00    -0.241 OA
ATOM     24  O   LIG d   1      -6.727  71.988 115.324  0.00  0.00    -0.241 OA
ENDBRANCH   3  22
TORSDOF 7
ENDMDL
MODEL 8
REMARK VINA RESULT:      -5.3      2.342      4.379
REMARK  7 active torsions:
REMARK  status: ('A' for Active; 'I' for Inactive)
REMARK    1  A    between atoms: C_2  and  C_3 
REMARK    2  A    between atoms: C_3  and  O_6 
REMARK    3  A    between atoms: C_3  and  C_4 
REMARK    4  A    between atoms: C_7  and  O_6 
REMARK    5  A    between atoms: C_9  and  C_10 
REMARK    6  A    between atoms: N_15  and  C_14 
REMARK    7  A    between atoms: N_20  and  C_19 
REMARK       I    between atoms: C_22  and  N_20 
ROOT
ATOM      1  C   LIG d   1      -6.352  76.750 116.428  0.00  0.00     0.161 C 
ATOM      2  C   LIG d   1      -6.181  78.102 116.769  0.00  0.00     0.016 C 
ATOM      3  C   LIG d   1      -6.950  78.758 117.758  0.00  0.00     0.038 C 
ATOM      4  C   LIG d   1      -7.845  78.061 118.584  0.00  0.00     0.028 C 
ATOM      5  C   LIG d   1      -8.414  76.803 117.936  0.00  0.00    -0.047 C 
ATOM      6  C   LIG d   1      -7.246  75.947 117.395  0.00  0.00     0.091 C 
ENDROOT
BRANCH   1   7
ATOM      7  O   LIG d   1      -5.065  76.114 116.291  0.00  0.00    -0.368 OA
BRANCH   7   8
ATOM      8  C   LIG d   1      -4.348  76.386 115.062  0.00  0.00     0.119 C 
BRANCH   8   9
ATOM      9  C   LIG d   1      -5.020  75.566 113.943  0.00  0.00     0.028 C 
ATOM     10  C   LIG d   1      -5.231  74.095 114.340  0.00  0.00     0.006 C 
ENDBRANCH   8   9
BRANCH   8  11
ATOM     11  C   LIG d   1      -2.907  75.871 115.132  0.00  0.00     0.028 C 
ATOM     12  C   LIG d   1      -2.469  75.520 116.563  0.00  0.00     0.006 C 
ENDBRANCH   8  11
ENDBRANCH   7   8
ENDBRANCH   1   7
BRANCH   6  13
ATOM     13  N   LIG d   1      -7.719  74.738 116.670  0.00  0.00    -0.311 N 
ATOM     14  C   LIG d   1      -7.832  73.539 117.240  0.00  0.00     0.210 C 
ATOM     15  C   LIG d   1      -8.319  72.424 116.309  0.00  0.00     0.109 C 
ATOM     16  O   LIG d   1      -7.606  73.300 118.436  0.00  0.00    -0.276 OA
ATOM     17  H   LIG d   1      -7.954  74.848 115.703  0.00  0.00     0.149 HD
ENDBRANCH   6  13
BRANCH   5  18
ATOM     18  N   LIG d   1      -9.221  76.104 118.953  0.00  0.00     0.381 N 
ATOM     19  H   LIG d   1      -9.656  75.300 118.546  0.00  0.00    -0.090 HD
ATOM     20  H   LIG d   1      -9.943  76.723 119.277  0.00  0.00    -0.090 HD
ATOM     21  H   LIG d   1      -8.643  75.828 119.716  0.00  0.00    -0.090 HD
ENDBRANCH   5  18
BRANCH   3  22
ATOM     22  C   LIG d   1      -6.855  80.133 117.902  0.00  0.00     0.382 C 
ATOM     23  O   LIG d   1      -7.041  80.881 116.912  0.00  0.00    -0.241 OA
ATOM     24  O   LIG d   1      -6.543  80.634 118.999  0.00  0.00    -0.241 OA
ENDBRANCH   3  22
TORSDOF 7
ENDMDL
MODEL 9
REMARK VINA RESULT:      -5.3      2.339      3.521
REMARK  7 active torsions:
REMARK  status: ('A' for Active; 'I' for Inactive)
REMARK    1  A    between atoms: C_2  and  C_3 
REMARK    2  A    between atoms: C_3  and  O_6 
REMARK    3  A    between atoms: C_3  and  C_4 
REMARK    4  A    between atoms: C_7  and  O_6 
REMARK    5  A    between atoms: C_9  and  C_10 
REMARK    6  A    between atoms: N_15  and  C_14 
REMARK    7  A    between atoms: N_20  and  C_19 
REMARK       I    between atoms: C_22  and  N_20 
ROOT
ATOM      1  C   LIG d   1      -6.789  79.021 117.772  0.00  0.00     0.161 C 
ATOM      2  C   LIG d   1      -8.106  78.623 118.057  0.00  0.00     0.016 C 
ATOM      3  C   LIG d   1      -9.111  79.515 118.496  0.00  0.00     0.038 C 
ATOM      4  C   LIG d   1      -8.905  80.902 118.534  0.00  0.00     0.028 C 
ATOM      5  C   LIG d   1      -7.445  81.293 118.739  0.00  0.00    -0.047 C 
ATOM      6  C   LIG d   1      -6.576  80.547 117.701  0.00  0.00     0.091 C 
ENDROOT
BRANCH   1   7
ATOM      7  O   LIG d   1      -6.343  78.395 116.552  0.00  0.00    -0.368 OA
BRANCH   7   8
ATOM      8  C   LIG d   1      -5.919  77.014 116.662  0.00  0.00     0.119 C 
BRANCH   8   9
ATOM      9  C   LIG d   1      -4.530  76.903 116.004  0.00  0.00     0.028 C 
ATOM     10  C   LIG d   1      -3.934  78.277 115.655  0.00  0.00     0.006 C 
ENDBRANCH   8   9
BRANCH   8  11
ATOM     11  C   LIG d   1      -6.828  76.086 115.851  0.00  0.00     0.028 C 
ATOM     12  C   LIG d   1      -6.104  75.429 114.666  0.00  0.00     0.006 C 
ENDBRANCH   8  11
ENDBRANCH   7   8
ENDBRANCH   1   7
BRANCH   6  13
ATOM     13  N   LIG d   1      -5.125  80.808 117.885  0.00  0.00    -0.311 N 
ATOM     14  C   LIG d   1      -4.383  81.480 117.006  0.00  0.00     0.210 C 
ATOM     15  C   LIG d   1      -2.904  81.618 117.380  0.00  0.00     0.109 C 
ATOM     16  O   LIG d   1      -4.816  82.001 115.967  0.00  0.00    -0.276 OA
ATOM     17  H   LIG d   1      -4.698  80.447 118.716  0.00  0.00     0.149 HD
ENDBRANCH   6  13
BRANCH   5  18
ATOM     18  N   LIG d   1      -7.356  82.761 118.620  0.00  0.00     0.381 N 
ATOM     19  H   LIG d   1      -6.437  83.066 118.873  0.00  0.00    -0.090 HD
ATOM     20  H   LIG d   1      -8.013  83.179 119.255  0.00  0.00    -0.090 HD
ATOM     21  H   LIG d   1      -7.562  83.040 117.686  0.00  0.00    -0.090 HD
ENDBRANCH   5  18
BRANCH   3  22
ATOM     22  C   LIG d   1     -10.326  79.017 118.941  0.00  0.00     0.382 C 
ATOM     23  O   LIG d   1     -10.817  77.993 118.407  0.00  0.00    -0.241 OA
ATOM     24  O   LIG d   1     -10.958  79.603 119.839  0.00  0.00    -0.241 OA
ENDBRANCH   3  22
TORSDOF 7
ENDMDL
