MODEL 1
REMARK VINA RESULT:      -5.8      0.000      0.000
REMARK  7 active torsions:
REMARK  status: ('A' for Active; 'I' for Inactive)
REMARK    1  A    between atoms: C_2  and  C_3 
REMARK    2  A    between atoms: C_3  and  O_6 
REMARK    3  A    between atoms: C_3  and  C_4 
REMARK    4  A    between atoms: C_7  and  O_6 
REMARK    5  A    between atoms: C_9  and  C_10 
REMARK    6  A    between atoms: N_15  and  C_14 
REMARK    7  A    between atoms: N_20  and  C_19 
REMARK       I    between atoms: C_22  and  N_20 
ROOT
ATOM      1  C   LIG d   1      -7.591  75.222 117.421  0.00  0.00     0.161 C 
ATOM      2  C   LIG d   1      -8.818  75.893 117.549  0.00  0.00     0.016 C 
ATOM      3  C   LIG d   1      -8.924  77.283 117.782  0.00  0.00     0.038 C 
ATOM      4  C   LIG d   1      -7.804  78.127 117.753  0.00  0.00     0.028 C 
ATOM      5  C   LIG d   1      -6.504  77.423 118.129  0.00  0.00    -0.047 C 
ATOM      6  C   LIG d   1      -6.361  76.143 117.275  0.00  0.00     0.091 C 
ENDROOT
BRANCH   1   7
ATOM      7  O   LIG d   1      -7.654  74.293 116.320  0.00  0.00    -0.368 OA
BRANCH   7   8
ATOM      8  C   LIG d   1      -7.746  72.891 116.673  0.00  0.00     0.119 C 
BRANCH   8   9
ATOM      9  C   LIG d   1      -6.782  72.118 115.752  0.00  0.00     0.028 C 
ATOM     10  C   LIG d   1      -5.883  73.052 114.926  0.00  0.00     0.006 C 
ENDBRANCH   8   9
BRANCH   8  11
ATOM     11  C   LIG d   1      -9.138  72.330 116.367  0.00  0.00     0.028 C 
ATOM     12  C   LIG d   1      -9.397  70.976 117.048  0.00  0.00     0.006 C 
ENDBRANCH   8  11
ENDBRANCH   7   8
ENDBRANCH   1   7
BRANCH   6  13
ATOM     13  N   LIG d   1      -5.159  75.350 117.639  0.00  0.00    -0.311 N 
ATOM     14  C   LIG d   1      -3.990  75.458 117.009  0.00  0.00     0.210 C 
ATOM     15  C   LIG d   1      -2.886  74.534 117.531  0.00  0.00     0.109 C 
ATOM     16  O   LIG d   1      -3.755  76.255 116.088  0.00  0.00    -0.276 OA
ATOM     17  H   LIG d   1      -5.252  74.701 118.396  0.00  0.00     0.149 HD
ENDBRANCH   6  13
BRANCH   5  18
ATOM     18  N   LIG d   1      -5.402  78.382 117.924  0.00  0.00     0.381 N 
ATOM     19  H   LIG d   1      -5.532  78.867 117.059  0.00  0.00    -0.090 HD
ATOM     20  H   LIG d   1      -4.536  77.875 117.875  0.00  0.00    -0.090 HD
ATOM     21  H   LIG d   1      -5.372  79.033 118.677  0.00  0.00    -0.090 HD
ENDBRANCH   5  18
BRANCH   3  22
ATOM     22  C   LIG d   1     -10.158  77.837 118.088  0.00  0.00     0.382 C 
ATOM     23  O   LIG d   1     -11.124  77.092 118.381  0.00  0.00    -0.241 OA
ATOM     24  O   LIG d   1     -10.328  79.069 118.033  0.00  0.00    -0.241 OA
ENDBRANCH   3  22
TORSDOF 7
ENDMDL
MODEL 2
REMARK VINA RESULT:      -5.4     15.309     17.315
REMARK  7 active torsions:
REMARK  status: ('A' for Active; 'I' for Inactive)
REMARK    1  A    between atoms: C_2  and  C_3 
REMARK    2  A    between atoms: C_3  and  O_6 
REMARK    3  A    between atoms: C_3  and  C_4 
REMARK    4  A    between atoms: C_7  and  O_6 
REMARK    5  A    between atoms: C_9  and  C_10 
REMARK    6  A    between atoms: N_15  and  C_14 
REMARK    7  A    between atoms: N_20  and  C_19 
REMARK       I    between atoms: C_22  and  N_20 
ROOT
ATOM      1  C   LIG d   1      -5.741  91.802 119.147  0.00  0.00     0.161 C 
ATOM      2  C   LIG d   1      -6.996  92.420 119.276  0.00  0.00     0.016 C 
ATOM      3  C   LIG d   1      -7.162  93.810 119.480  0.00  0.00     0.038 C 
ATOM      4  C   LIG d   1      -6.082  94.702 119.418  0.00  0.00     0.028 C 
ATOM      5  C   LIG d   1      -4.748  94.066 119.793  0.00  0.00    -0.047 C 
ATOM      6  C   LIG d   1      -4.557  92.774 118.965  0.00  0.00     0.091 C 
ENDROOT
BRANCH   1   7
ATOM      7  O   LIG d   1      -5.776  90.847 118.068  0.00  0.00    -0.368 OA
BRANCH   7   8
ATOM      8  C   LIG d   1      -5.264  91.307 116.793  0.00  0.00     0.119 C 
BRANCH   8   9
ATOM      9  C   LIG d   1      -6.472  91.717 115.930  0.00  0.00     0.028 C 
ATOM     10  C   LIG d   1      -7.501  90.584 115.783  0.00  0.00     0.006 C 
ENDBRANCH   8   9
BRANCH   8  11
ATOM     11  C   LIG d   1      -4.583  90.171 116.024  0.00  0.00     0.028 C 
ATOM     12  C   LIG d   1      -3.395  89.563 116.786  0.00  0.00     0.006 C 
ENDBRANCH   8  11
ENDBRANCH   7   8
ENDBRANCH   1   7
BRANCH   6  13
ATOM     13  N   LIG d   1      -3.316  92.044 119.331  0.00  0.00    -0.311 N 
ATOM     14  C   LIG d   1      -2.146  92.235 118.723  0.00  0.00     0.210 C 
ATOM     15  C   LIG d   1      -0.998  91.364 119.242  0.00  0.00     0.109 C 
ATOM     16  O   LIG d   1      -1.944  93.065 117.824  0.00  0.00    -0.276 OA
ATOM     17  H   LIG d   1      -3.382  91.374 120.072  0.00  0.00     0.149 HD
ENDBRANCH   6  13
BRANCH   5  18
ATOM     18  N   LIG d   1      -3.692  95.068 119.552  0.00  0.00     0.381 N 
ATOM     19  H   LIG d   1      -3.078  95.109 120.341  0.00  0.00    -0.090 HD
ATOM     20  H   LIG d   1      -4.120  95.970 119.438  0.00  0.00    -0.090 HD
ATOM     21  H   LIG d   1      -3.177  94.830 118.733  0.00  0.00    -0.090 HD
ENDBRANCH   5  18
BRANCH   3  22
ATOM     22  C   LIG d   1      -8.416  94.314 119.790  0.00  0.00     0.382 C 
ATOM     23  O   LIG d   1      -9.440  93.815 119.264  0.00  0.00    -0.241 OA
ATOM     24  O   LIG d   1      -8.533  95.291 120.554  0.00  0.00    -0.241 OA
ENDBRANCH   3  22
TORSDOF 7
ENDMDL
MODEL 3
REMARK VINA RESULT:      -5.4     14.935     17.564
REMARK  7 active torsions:
REMARK  status: ('A' for Active; 'I' for Inactive)
REMARK    1  A    between atoms: C_2  and  C_3 
REMARK    2  A    between atoms: C_3  and  O_6 
REMARK    3  A    between atoms: C_3  and  C_4 
REMARK    4  A    between atoms: C_7  and  O_6 
REMARK    5  A    between atoms: C_9  and  C_10 
REMARK    6  A    between atoms: N_15  and  C_14 
REMARK    7  A    between atoms: N_20  and  C_19 
REMARK       I    between atoms: C_22  and  N_20 
ROOT
ATOM      1  C   LIG d   1      -5.654  92.669 118.764  0.00  0.00     0.161 C 
ATOM      2  C   LIG d   1      -6.077  93.731 119.581  0.00  0.00     0.016 C 
ATOM      3  C   LIG d   1      -7.176  94.564 119.268  0.00  0.00     0.038 C 
ATOM      4  C   LIG d   1      -8.026  94.294 118.186  0.00  0.00     0.028 C 
ATOM      5  C   LIG d   1      -7.342  93.536 117.053  0.00  0.00    -0.047 C 
ATOM      6  C   LIG d   1      -6.637  92.291 117.636  0.00  0.00     0.091 C 
ENDROOT
BRANCH   1   7
ATOM      7  O   LIG d   1      -5.356  91.517 119.576  0.00  0.00    -0.368 OA
BRANCH   7   8
ATOM      8  C   LIG d   1      -3.955  91.284 119.862  0.00  0.00     0.119 C 
BRANCH   8   9
ATOM      9  C   LIG d   1      -3.133  92.091 118.838  0.00  0.00     0.028 C 
ATOM     10  C   LIG d   1      -1.991  92.883 119.496  0.00  0.00     0.006 C 
ENDBRANCH   8   9
BRANCH   8  11
ATOM     11  C   LIG d   1      -3.574  89.820 119.624  0.00  0.00     0.028 C 
ATOM     12  C   LIG d   1      -3.112  89.551 118.183  0.00  0.00     0.006 C 
ENDBRANCH   8  11
ENDBRANCH   7   8
ENDBRANCH   1   7
BRANCH   6  13
ATOM     13  N   LIG d   1      -5.872  91.539 116.607  0.00  0.00    -0.311 N 
ATOM     14  C   LIG d   1      -6.252  90.354 116.132  0.00  0.00     0.210 C 
ATOM     15  C   LIG d   1      -5.309  89.742 115.091  0.00  0.00     0.109 C 
ATOM     16  O   LIG d   1      -7.297  89.767 116.449  0.00  0.00    -0.276 OA
ATOM     17  H   LIG d   1      -5.027  91.957 116.271  0.00  0.00     0.149 HD
ENDBRANCH   6  13
BRANCH   5  18
ATOM     18  N   LIG d   1      -8.374  93.202 116.053  0.00  0.00     0.381 N 
ATOM     19  H   LIG d   1      -7.955  92.724 115.281  0.00  0.00    -0.090 HD
ATOM     20  H   LIG d   1      -8.785  94.053 115.713  0.00  0.00    -0.090 HD
ATOM     21  H   LIG d   1      -9.076  92.628 116.467  0.00  0.00    -0.090 HD
ENDBRANCH   5  18
BRANCH   3  22
ATOM     22  C   LIG d   1      -7.410  95.704 120.021  0.00  0.00     0.382 C 
ATOM     23  O   LIG d   1      -8.554  95.923 120.489  0.00  0.00    -0.241 OA
ATOM     24  O   LIG d   1      -6.504  96.539 120.202  0.00  0.00    -0.241 OA
ENDBRANCH   3  22
TORSDOF 7
ENDMDL
MODEL 4
REMARK VINA RESULT:      -5.2     14.321     16.383
REMARK  7 active torsions:
REMARK  status: ('A' for Active; 'I' for Inactive)
REMARK    1  A    between atoms: C_2  and  C_3 
REMARK    2  A    between atoms: C_3  and  O_6 
REMARK    3  A    between atoms: C_3  and  C_4 
REMARK    4  A    between atoms: C_7  and  O_6 
REMARK    5  A    between atoms: C_9  and  C_10 
REMARK    6  A    between atoms: N_15  and  C_14 
REMARK    7  A    between atoms: N_20  and  C_19 
REMARK       I    between atoms: C_22  and  N_20 
ROOT
ATOM      1  C   LIG d   1      -4.464  90.834 117.639  0.00  0.00     0.161 C 
ATOM      2  C   LIG d   1      -5.437  90.267 116.800  0.00  0.00     0.016 C 
ATOM      3  C   LIG d   1      -6.651  90.912 116.469  0.00  0.00     0.038 C 
ATOM      4  C   LIG d   1      -6.908  92.241 116.836  0.00  0.00     0.028 C 
ATOM      5  C   LIG d   1      -6.178  92.671 118.104  0.00  0.00    -0.047 C 
ATOM      6  C   LIG d   1      -4.678  92.328 117.960  0.00  0.00     0.091 C 
ENDROOT
BRANCH   1   7
ATOM      7  O   LIG d   1      -3.153  90.624 117.079  0.00  0.00    -0.368 OA
BRANCH   7   8
ATOM      8  C   LIG d   1      -2.529  89.350 117.376  0.00  0.00     0.119 C 
BRANCH   8   9
ATOM      9  C   LIG d   1      -2.733  89.074 118.878  0.00  0.00     0.028 C 
ATOM     10  C   LIG d   1      -2.039  87.780 119.335  0.00  0.00     0.006 C 
ENDBRANCH   8   9
BRANCH   8  11
ATOM     11  C   LIG d   1      -1.012  89.413 117.177  0.00  0.00     0.028 C 
ATOM     12  C   LIG d   1      -0.416  90.775 117.567  0.00  0.00     0.006 C 
ENDBRANCH   8  11
ENDBRANCH   7   8
ENDBRANCH   1   7
BRANCH   6  13
ATOM     13  N   LIG d   1      -3.904  92.639 119.190  0.00  0.00    -0.311 N 
ATOM     14  C   LIG d   1      -2.708  93.224 119.176  0.00  0.00     0.210 C 
ATOM     15  C   LIG d   1      -2.075  93.436 120.555  0.00  0.00     0.109 C 
ATOM     16  O   LIG d   1      -2.125  93.618 118.154  0.00  0.00    -0.276 OA
ATOM     17  H   LIG d   1      -4.317  92.382 120.066  0.00  0.00     0.149 HD
ENDBRANCH   6  13
BRANCH   5  18
ATOM     18  N   LIG d   1      -6.426  94.113 118.294  0.00  0.00     0.381 N 
ATOM     19  H   LIG d   1      -6.343  94.589 117.418  0.00  0.00    -0.090 HD
ATOM     20  H   LIG d   1      -5.733  94.482 118.921  0.00  0.00    -0.090 HD
ATOM     21  H   LIG d   1      -7.336  94.255 118.673  0.00  0.00    -0.090 HD
ENDBRANCH   5  18
BRANCH   3  22
ATOM     22  C   LIG d   1      -7.640  90.212 115.795  0.00  0.00     0.382 C 
ATOM     23  O   LIG d   1      -8.333  89.362 116.405  0.00  0.00    -0.241 OA
ATOM     24  O   LIG d   1      -7.818  90.386 114.574  0.00  0.00    -0.241 OA
ENDBRANCH   3  22
TORSDOF 7
ENDMDL
MODEL 5
REMARK VINA RESULT:      -5.0     15.397     17.204
REMARK  7 active torsions:
REMARK  status: ('A' for Active; 'I' for Inactive)
REMARK    1  A    between atoms: C_2  and  C_3 
REMARK    2  A    between atoms: C_3  and  O_6 
REMARK    3  A    between atoms: C_3  and  C_4 
REMARK    4  A    between atoms: C_7  and  O_6 
REMARK    5  A    between atoms: C_9  and  C_10 
REMARK    6  A    between atoms: N_15  and  C_14 
REMARK    7  A    between atoms: N_20  and  C_19 
REMARK       I    between atoms: C_22  and  N_20 
ROOT
ATOM      1  C   LIG d   1      -5.053  92.114 118.311  0.00  0.00     0.161 C 
ATOM      2  C   LIG d   1      -6.340  92.531 117.929  0.00  0.00     0.016 C 
ATOM      3  C   LIG d   1      -6.931  93.735 118.374  0.00  0.00     0.038 C 
ATOM      4  C   LIG d   1      -6.213  94.685 119.115  0.00  0.00     0.028 C 
ATOM      5  C   LIG d   1      -5.085  94.080 119.943  0.00  0.00    -0.047 C 
ATOM      6  C   LIG d   1      -4.212  93.190 119.029  0.00  0.00     0.091 C 
ENDROOT
BRANCH   1   7
ATOM      7  O   LIG d   1      -4.344  91.607 117.163  0.00  0.00    -0.368 OA
BRANCH   7   8
ATOM      8  C   LIG d   1      -4.609  90.227 116.809  0.00  0.00     0.119 C 
BRANCH   8   9
ATOM      9  C   LIG d   1      -3.260  89.482 116.806  0.00  0.00     0.028 C 
ATOM     10  C   LIG d   1      -2.801  89.094 118.221  0.00  0.00     0.006 C 
ENDBRANCH   8   9
BRANCH   8  11
ATOM     11  C   LIG d   1      -5.139  90.112 115.377  0.00  0.00     0.028 C 
ATOM     12  C   LIG d   1      -6.670  90.228 115.297  0.00  0.00     0.006 C 
ENDBRANCH   8  11
ENDBRANCH   7   8
ENDBRANCH   1   7
BRANCH   6  13
ATOM     13  N   LIG d   1      -3.134  92.492 119.778  0.00  0.00    -0.311 N 
ATOM     14  C   LIG d   1      -1.858  92.492 119.396  0.00  0.00     0.210 C 
ATOM     15  C   LIG d   1      -0.913  91.694 120.301  0.00  0.00     0.109 C 
ATOM     16  O   LIG d   1      -1.414  93.103 118.413  0.00  0.00    -0.276 OA
ATOM     17  H   LIG d   1      -3.402  91.997 120.606  0.00  0.00     0.149 HD
ENDBRANCH   6  13
BRANCH   5  18
ATOM     18  N   LIG d   1      -4.334  95.193 120.555  0.00  0.00     0.381 N 
ATOM     19  H   LIG d   1      -3.397  95.203 120.203  0.00  0.00    -0.090 HD
ATOM     20  H   LIG d   1      -4.296  95.052 121.549  0.00  0.00    -0.090 HD
ATOM     21  H   LIG d   1      -4.782  96.059 120.351  0.00  0.00    -0.090 HD
ENDBRANCH   5  18
BRANCH   3  22
ATOM     22  C   LIG d   1      -8.270  93.981 118.110  0.00  0.00     0.382 C 
ATOM     23  O   LIG d   1      -9.097  94.022 119.052  0.00  0.00    -0.241 OA
ATOM     24  O   LIG d   1      -8.668  94.119 116.938  0.00  0.00    -0.241 OA
ENDBRANCH   3  22
TORSDOF 7
ENDMDL
MODEL 6
REMARK VINA RESULT:      -5.0      2.460      5.594
REMARK  7 active torsions:
REMARK  status: ('A' for Active; 'I' for Inactive)
REMARK    1  A    between atoms: C_2  and  C_3 
REMARK    2  A    between atoms: C_3  and  O_6 
REMARK    3  A    between atoms: C_3  and  C_4 
REMARK    4  A    between atoms: C_7  and  O_6 
REMARK    5  A    between atoms: C_9  and  C_10 
REMARK    6  A    between atoms: N_15  and  C_14 
REMARK    7  A    between atoms: N_20  and  C_19 
REMARK       I    between atoms: C_22  and  N_20 
ROOT
ATOM      1  C   LIG d   1      -5.014  75.849 115.767  0.00  0.00     0.161 C 
ATOM      2  C   LIG d   1      -5.473  74.582 115.368  0.00  0.00     0.016 C 
ATOM      3  C   LIG d   1      -6.620  73.963 115.915  0.00  0.00     0.038 C 
ATOM      4  C   LIG d   1      -7.479  74.638 116.796  0.00  0.00     0.028 C 
ATOM      5  C   LIG d   1      -6.781  75.723 117.609  0.00  0.00    -0.047 C 
ATOM      6  C   LIG d   1      -6.000  76.646 116.647  0.00  0.00     0.091 C 
ENDROOT
BRANCH   1   7
ATOM      7  O   LIG d   1      -4.639  76.620 114.609  0.00  0.00    -0.368 OA
BRANCH   7   8
ATOM      8  C   LIG d   1      -3.229  76.626 114.276  0.00  0.00     0.119 C 
BRANCH   8   9
ATOM      9  C   LIG d   1      -2.449  76.282 115.560  0.00  0.00     0.028 C 
ATOM     10  C   LIG d   1      -1.266  75.336 115.293  0.00  0.00     0.006 C 
ENDBRANCH   8   9
BRANCH   8  11
ATOM     11  C   LIG d   1      -2.756  78.027 113.877  0.00  0.00     0.028 C 
ATOM     12  C   LIG d   1      -2.670  78.989 115.072  0.00  0.00     0.006 C 
ENDBRANCH   8  11
ENDBRANCH   7   8
ENDBRANCH   1   7
BRANCH   6  13
ATOM     13  N   LIG d   1      -5.220  77.686 117.367  0.00  0.00    -0.311 N 
ATOM     14  C   LIG d   1      -5.692  78.902 117.637  0.00  0.00     0.210 C 
ATOM     15  C   LIG d   1      -4.717  79.827 118.372  0.00  0.00     0.109 C 
ATOM     16  O   LIG d   1      -6.839  79.291 117.367  0.00  0.00    -0.276 OA
ATOM     17  H   LIG d   1      -4.290  77.444 117.651  0.00  0.00     0.149 HD
ENDBRANCH   6  13
BRANCH   5  18
ATOM     18  N   LIG d   1      -7.816  76.436 118.381  0.00  0.00     0.381 N 
ATOM     19  H   LIG d   1      -8.672  75.918 118.360  0.00  0.00    -0.090 HD
ATOM     20  H   LIG d   1      -7.979  77.332 117.957  0.00  0.00    -0.090 HD
ATOM     21  H   LIG d   1      -7.516  76.556 119.323  0.00  0.00    -0.090 HD
ENDBRANCH   5  18
BRANCH   3  22
ATOM     22  C   LIG d   1      -6.897  72.639 115.611  0.00  0.00     0.382 C 
ATOM     23  O   LIG d   1      -6.085  71.970 114.927  0.00  0.00    -0.241 OA
ATOM     24  O   LIG d   1      -7.969  72.118 115.973  0.00  0.00    -0.241 OA
ENDBRANCH   3  22
TORSDOF 7
ENDMDL
MODEL 7
REMARK VINA RESULT:      -4.9      2.005      4.515
REMARK  7 active torsions:
REMARK  status: ('A' for Active; 'I' for Inactive)
REMARK    1  A    between atoms: C_2  and  C_3 
REMARK    2  A    between atoms: C_3  and  O_6 
REMARK    3  A    between atoms: C_3  and  C_4 
REMARK    4  A    between atoms: C_7  and  O_6 
REMARK    5  A    between atoms: C_9  and  C_10 
REMARK    6  A    between atoms: N_15  and  C_14 
REMARK    7  A    between atoms: N_20  and  C_19 
REMARK       I    between atoms: C_22  and  N_20 
ROOT
ATOM      1  C   LIG d   1      -6.059  76.045 117.478  0.00  0.00     0.161 C 
ATOM      2  C   LIG d   1      -6.720  74.861 117.111  0.00  0.00     0.016 C 
ATOM      3  C   LIG d   1      -8.128  74.740 117.060  0.00  0.00     0.038 C 
ATOM      4  C   LIG d   1      -8.974  75.846 117.229  0.00  0.00     0.028 C 
ATOM      5  C   LIG d   1      -8.369  76.944 118.097  0.00  0.00    -0.047 C 
ATOM      6  C   LIG d   1      -6.963  77.293 117.558  0.00  0.00     0.091 C 
ENDROOT
BRANCH   1   7
ATOM      7  O   LIG d   1      -4.953  76.284 116.586  0.00  0.00    -0.368 OA
BRANCH   7   8
ATOM      8  C   LIG d   1      -4.251  75.109 116.111  0.00  0.00     0.119 C 
BRANCH   8   9
ATOM      9  C   LIG d   1      -2.850  75.116 116.752  0.00  0.00     0.028 C 
ATOM     10  C   LIG d   1      -1.773  75.667 115.802  0.00  0.00     0.006 C 
ENDBRANCH   8   9
BRANCH   8  11
ATOM     11  C   LIG d   1      -4.007  75.179 114.600  0.00  0.00     0.028 C 
ATOM     12  C   LIG d   1      -5.280  75.510 113.805  0.00  0.00     0.006 C 
ENDBRANCH   8  11
ENDBRANCH   7   8
ENDBRANCH   1   7
BRANCH   6  13
ATOM     13  N   LIG d   1      -6.267  78.300 118.401  0.00  0.00    -0.311 N 
ATOM     14  C   LIG d   1      -6.419  79.614 118.248  0.00  0.00     0.210 C 
ATOM     15  C   LIG d   1      -5.593  80.476 119.209  0.00  0.00     0.109 C 
ATOM     16  O   LIG d   1      -7.183  80.148 117.430  0.00  0.00    -0.276 OA
ATOM     17  H   LIG d   1      -5.651  77.954 119.110  0.00  0.00     0.149 HD
ENDBRANCH   6  13
BRANCH   5  18
ATOM     18  N   LIG d   1      -9.297  78.091 118.076  0.00  0.00     0.381 N 
ATOM     19  H   LIG d   1      -9.718  78.202 118.977  0.00  0.00    -0.090 HD
ATOM     20  H   LIG d   1     -10.025  77.907 117.408  0.00  0.00    -0.090 HD
ATOM     21  H   LIG d   1      -8.808  78.921 117.825  0.00  0.00    -0.090 HD
ENDBRANCH   5  18
BRANCH   3  22
ATOM     22  C   LIG d   1      -8.703  73.492 116.878  0.00  0.00     0.382 C 
ATOM     23  O   LIG d   1      -9.856  73.262 117.318  0.00  0.00    -0.241 OA
ATOM     24  O   LIG d   1      -8.068  72.579 116.317  0.00  0.00    -0.241 OA
ENDBRANCH   3  22
TORSDOF 7
ENDMDL
MODEL 8
REMARK VINA RESULT:      -4.8     13.755     15.678
REMARK  7 active torsions:
REMARK  status: ('A' for Active; 'I' for Inactive)
REMARK    1  A    between atoms: C_2  and  C_3 
REMARK    2  A    between atoms: C_3  and  O_6 
REMARK    3  A    between atoms: C_3  and  C_4 
REMARK    4  A    between atoms: C_7  and  O_6 
REMARK    5  A    between atoms: C_9  and  C_10 
REMARK    6  A    between atoms: N_15  and  C_14 
REMARK    7  A    between atoms: N_20  and  C_19 
REMARK       I    between atoms: C_22  and  N_20 
ROOT
ATOM      1  C   LIG d   1      -2.094  89.726 117.572  0.00  0.00     0.161 C 
ATOM      2  C   LIG d   1      -3.223  89.477 116.773  0.00  0.00     0.016 C 
ATOM      3  C   LIG d   1      -4.274  90.406 116.599  0.00  0.00     0.038 C 
ATOM      4  C   LIG d   1      -4.195  91.716 117.096  0.00  0.00     0.028 C 
ATOM      5  C   LIG d   1      -3.308  91.844 118.329  0.00  0.00    -0.047 C 
ATOM      6  C   LIG d   1      -1.938  91.191 118.032  0.00  0.00     0.091 C 
ENDROOT
BRANCH   1   7
ATOM      7  O   LIG d   1      -0.904  89.286 116.888  0.00  0.00    -0.368 OA
BRANCH   7   8
ATOM      8  C   LIG d   1      -0.490  87.921 117.143  0.00  0.00     0.119 C 
BRANCH   8   9
ATOM      9  C   LIG d   1      -0.424  87.735 118.671  0.00  0.00     0.028 C 
ATOM     10  C   LIG d   1      -1.082  86.424 119.132  0.00  0.00     0.006 C 
ENDBRANCH   8   9
BRANCH   8  11
ATOM     11  C   LIG d   1       0.934  87.668 116.641  0.00  0.00     0.028 C 
ATOM     12  C   LIG d   1       1.063  86.357 115.849  0.00  0.00     0.006 C 
ENDBRANCH   8  11
ENDBRANCH   7   8
ENDBRANCH   1   7
BRANCH   6  13
ATOM     13  N   LIG d   1      -1.038  91.198 119.214  0.00  0.00    -0.311 N 
ATOM     14  C   LIG d   1       0.278  91.380 119.132  0.00  0.00     0.210 C 
ATOM     15  C   LIG d   1       1.023  91.331 120.470  0.00  0.00     0.109 C 
ATOM     16  O   LIG d   1       0.896  91.611 118.082  0.00  0.00    -0.276 OA
ATOM     17  H   LIG d   1      -1.461  91.049 120.110  0.00  0.00     0.149 HD
ENDBRANCH   6  13
BRANCH   5  18
ATOM     18  N   LIG d   1      -3.205  93.278 118.658  0.00  0.00     0.381 N 
ATOM     19  H   LIG d   1      -3.826  93.498 119.410  0.00  0.00    -0.090 HD
ATOM     20  H   LIG d   1      -3.479  93.816 117.854  0.00  0.00    -0.090 HD
ATOM     21  H   LIG d   1      -2.269  93.503 118.913  0.00  0.00    -0.090 HD
ENDBRANCH   5  18
BRANCH   3  22
ATOM     22  C   LIG d   1      -5.438  90.014 115.956  0.00  0.00     0.382 C 
ATOM     23  O   LIG d   1      -6.553  90.238 116.485  0.00  0.00    -0.241 OA
ATOM     24  O   LIG d   1      -5.385  89.401 114.873  0.00  0.00    -0.241 OA
ENDBRANCH   3  22
TORSDOF 7
ENDMDL
MODEL 9
REMARK VINA RESULT:      -4.6     14.550     16.983
REMARK  7 active torsions:
REMARK  status: ('A' for Active; 'I' for Inactive)
REMARK    1  A    between atoms: C_2  and  C_3 
REMARK    2  A    between atoms: C_3  and  O_6 
REMARK    3  A    between atoms: C_3  and  C_4 
REMARK    4  A    between atoms: C_7  and  O_6 
REMARK    5  A    between atoms: C_9  and  C_10 
REMARK    6  A    between atoms: N_15  and  C_14 
REMARK    7  A    between atoms: N_20  and  C_19 
REMARK       I    between atoms: C_22  and  N_20 
ROOT
ATOM      1  C   LIG d   1      -4.930  91.517 118.277  0.00  0.00     0.161 C 
ATOM      2  C   LIG d   1      -4.091  92.443 118.919  0.00  0.00     0.016 C 
ATOM      3  C   LIG d   1      -4.572  93.572 119.622  0.00  0.00     0.038 C 
ATOM      4  C   LIG d   1      -5.941  93.769 119.860  0.00  0.00     0.028 C 
ATOM      5  C   LIG d   1      -6.837  93.134 118.802  0.00  0.00    -0.047 C 
ATOM      6  C   LIG d   1      -6.428  91.655 118.620  0.00  0.00     0.091 C 
ENDROOT
BRANCH   1   7
ATOM      7  O   LIG d   1      -4.475  90.176 118.548  0.00  0.00    -0.368 OA
BRANCH   7   8
ATOM      8  C   LIG d   1      -3.040  89.977 118.543  0.00  0.00     0.119 C 
BRANCH   8   9
ATOM      9  C   LIG d   1      -2.662  89.374 117.176  0.00  0.00     0.028 C 
ATOM     10  C   LIG d   1      -3.815  89.452 116.161  0.00  0.00     0.006 C 
ENDBRANCH   8   9
BRANCH   8  11
ATOM     11  C   LIG d   1      -2.619  88.930 119.578  0.00  0.00     0.028 C 
ATOM     12  C   LIG d   1      -1.631  87.897 119.014  0.00  0.00     0.006 C 
ENDBRANCH   8  11
ENDBRANCH   7   8
ENDBRANCH   1   7
BRANCH   6  13
ATOM     13  N   LIG d   1      -7.200  90.982 117.543  0.00  0.00    -0.311 N 
ATOM     14  C   LIG d   1      -7.108  91.316 116.257  0.00  0.00     0.210 C 
ATOM     15  C   LIG d   1      -8.005  90.509 115.313  0.00  0.00     0.109 C 
ATOM     16  O   LIG d   1      -6.345  92.182 115.804  0.00  0.00    -0.276 OA
ATOM     17  H   LIG d   1      -7.820  90.246 117.818  0.00  0.00     0.149 HD
ENDBRANCH   6  13
BRANCH   5  18
ATOM     18  N   LIG d   1      -8.234  93.297 119.246  0.00  0.00     0.381 N 
ATOM     19  H   LIG d   1      -8.857  92.979 118.530  0.00  0.00    -0.090 HD
ATOM     20  H   LIG d   1      -8.412  94.273 119.408  0.00  0.00    -0.090 HD
ATOM     21  H   LIG d   1      -8.388  92.781 120.084  0.00  0.00    -0.090 HD
ENDBRANCH   5  18
BRANCH   3  22
ATOM     22  C   LIG d   1      -3.681  94.539 120.061  0.00  0.00     0.382 C 
ATOM     23  O   LIG d   1      -3.957  95.755 119.922  0.00  0.00    -0.241 OA
ATOM     24  O   LIG d   1      -2.586  94.211 120.555  0.00  0.00    -0.241 OA
ENDBRANCH   3  22
TORSDOF 7
ENDMDL
