MODEL 1
REMARK VINA RESULT:      -5.0      0.000      0.000
REMARK  7 active torsions:
REMARK  status: ('A' for Active; 'I' for Inactive)
REMARK    1  A    between atoms: C_2  and  C_3 
REMARK    2  A    between atoms: C_3  and  O_6 
REMARK    3  A    between atoms: C_3  and  C_4 
REMARK    4  A    between atoms: C_7  and  O_6 
REMARK    5  A    between atoms: C_9  and  C_10 
REMARK    6  A    between atoms: N_15  and  C_14 
REMARK    7  A    between atoms: N_20  and  C_19 
REMARK       I    between atoms: C_22  and  N_20 
ROOT
ATOM      1  C   LIG d   1      -6.223  93.493 116.870  0.00  0.00     0.161 C 
ATOM      2  C   LIG d   1      -6.830  92.497 116.088  0.00  0.00     0.016 C 
ATOM      3  C   LIG d   1      -6.227  91.248 115.813  0.00  0.00     0.038 C 
ATOM      4  C   LIG d   1      -5.033  90.849 116.431  0.00  0.00     0.028 C 
ATOM      5  C   LIG d   1      -4.137  92.017 116.829  0.00  0.00    -0.047 C 
ATOM      6  C   LIG d   1      -4.970  93.033 117.644  0.00  0.00     0.091 C 
ENDROOT
BRANCH   1   7
ATOM      7  O   LIG d   1      -7.191  94.061 117.775  0.00  0.00    -0.368 OA
BRANCH   7   8
ATOM      8  C   LIG d   1      -7.478  95.470 117.599  0.00  0.00     0.119 C 
BRANCH   8   9
ATOM      9  C   LIG d   1      -7.001  96.202 118.868  0.00  0.00     0.028 C 
ATOM     10  C   LIG d   1      -7.049  95.305 120.116  0.00  0.00     0.006 C 
ENDBRANCH   8   9
BRANCH   8  11
ATOM     11  C   LIG d   1      -8.986  95.726 117.526  0.00  0.00     0.028 C 
ATOM     12  C   LIG d   1      -9.357  97.189 117.817  0.00  0.00     0.006 C 
ENDBRANCH   8  11
ENDBRANCH   7   8
ENDBRANCH   1   7
BRANCH   6  13
ATOM     13  N   LIG d   1      -4.191  94.247 118.002  0.00  0.00    -0.311 N 
ATOM     14  C   LIG d   1      -3.575  94.405 119.172  0.00  0.00     0.210 C 
ATOM     15  C   LIG d   1      -2.844  95.741 119.343  0.00  0.00     0.109 C 
ATOM     16  O   LIG d   1      -3.537  93.552 120.072  0.00  0.00    -0.276 OA
ATOM     17  H   LIG d   1      -4.144  94.977 117.317  0.00  0.00     0.149 HD
ENDBRANCH   6  13
BRANCH   5  18
ATOM     18  N   LIG d   1      -2.996  91.467 117.584  0.00  0.00     0.381 N 
ATOM     19  H   LIG d   1      -2.168  91.987 117.373  0.00  0.00    -0.090 HD
ATOM     20  H   LIG d   1      -2.850  90.513 117.303  0.00  0.00    -0.090 HD
ATOM     21  H   LIG d   1      -3.182  91.508 118.562  0.00  0.00    -0.090 HD
ENDBRANCH   5  18
BRANCH   3  22
ATOM     22  C   LIG d   1      -6.801  90.399 114.879  0.00  0.00     0.382 C 
ATOM     23  O   LIG d   1      -6.341  89.243 114.717  0.00  0.00    -0.241 OA
ATOM     24  O   LIG d   1      -7.744  90.789 114.165  0.00  0.00    -0.241 OA
ENDBRANCH   3  22
TORSDOF 7
ENDMDL
MODEL 2
REMARK VINA RESULT:      -5.0      2.123      4.577
REMARK  7 active torsions:
REMARK  status: ('A' for Active; 'I' for Inactive)
REMARK    1  A    between atoms: C_2  and  C_3 
REMARK    2  A    between atoms: C_3  and  O_6 
REMARK    3  A    between atoms: C_3  and  C_4 
REMARK    4  A    between atoms: C_7  and  O_6 
REMARK    5  A    between atoms: C_9  and  C_10 
REMARK    6  A    between atoms: N_15  and  C_14 
REMARK    7  A    between atoms: N_20  and  C_19 
REMARK       I    between atoms: C_22  and  N_20 
ROOT
ATOM      1  C   LIG d   1      -5.009  91.347 118.142  0.00  0.00     0.161 C 
ATOM      2  C   LIG d   1      -4.590  90.274 117.338  0.00  0.00     0.016 C 
ATOM      3  C   LIG d   1      -5.099  90.027 116.042  0.00  0.00     0.038 C 
ATOM      4  C   LIG d   1      -5.957  90.931 115.398  0.00  0.00     0.028 C 
ATOM      5  C   LIG d   1      -6.796  91.762 116.363  0.00  0.00    -0.047 C 
ATOM      6  C   LIG d   1      -5.862  92.406 117.413  0.00  0.00     0.091 C 
ENDROOT
BRANCH   1   7
ATOM      7  O   LIG d   1      -3.866  91.967 118.764  0.00  0.00    -0.368 OA
BRANCH   7   8
ATOM      8  C   LIG d   1      -2.722  92.200 117.907  0.00  0.00     0.119 C 
BRANCH   8   9
ATOM      9  C   LIG d   1      -1.489  91.594 118.605  0.00  0.00     0.028 C 
ATOM     10  C   LIG d   1      -0.594  90.804 117.634  0.00  0.00     0.006 C 
ENDBRANCH   8   9
BRANCH   8  11
ATOM     11  C   LIG d   1      -2.419  93.696 117.777  0.00  0.00     0.028 C 
ATOM     12  C   LIG d   1      -3.159  94.547 118.821  0.00  0.00     0.006 C 
ENDBRANCH   8  11
ENDBRANCH   7   8
ENDBRANCH   1   7
BRANCH   6  13
ATOM     13  N   LIG d   1      -6.611  93.169 118.446  0.00  0.00    -0.311 N 
ATOM     14  C   LIG d   1      -6.945  94.451 118.312  0.00  0.00     0.210 C 
ATOM     15  C   LIG d   1      -7.698  95.051 119.503  0.00  0.00     0.109 C 
ATOM     16  O   LIG d   1      -6.717  95.140 117.306  0.00  0.00    -0.276 OA
ATOM     17  H   LIG d   1      -6.863  92.679 119.281  0.00  0.00     0.149 HD
ENDBRANCH   6  13
BRANCH   5  18
ATOM     18  N   LIG d   1      -7.541  92.754 115.565  0.00  0.00     0.381 N 
ATOM     19  H   LIG d   1      -6.936  93.162 114.881  0.00  0.00    -0.090 HD
ATOM     20  H   LIG d   1      -7.865  93.485 116.175  0.00  0.00    -0.090 HD
ATOM     21  H   LIG d   1      -8.316  92.318 115.117  0.00  0.00    -0.090 HD
ENDBRANCH   5  18
BRANCH   3  22
ATOM     22  C   LIG d   1      -4.780  88.845 115.393  0.00  0.00     0.382 C 
ATOM     23  O   LIG d   1      -5.186  88.643 114.223  0.00  0.00    -0.241 OA
ATOM     24  O   LIG d   1      -4.129  87.958 115.977  0.00  0.00    -0.241 OA
ENDBRANCH   3  22
TORSDOF 7
ENDMDL
MODEL 3
REMARK VINA RESULT:      -5.0     13.828     16.503
REMARK  7 active torsions:
REMARK  status: ('A' for Active; 'I' for Inactive)
REMARK    1  A    between atoms: C_2  and  C_3 
REMARK    2  A    between atoms: C_3  and  O_6 
REMARK    3  A    between atoms: C_3  and  C_4 
REMARK    4  A    between atoms: C_7  and  O_6 
REMARK    5  A    between atoms: C_9  and  C_10 
REMARK    6  A    between atoms: N_15  and  C_14 
REMARK    7  A    between atoms: N_20  and  C_19 
REMARK       I    between atoms: C_22  and  N_20 
ROOT
ATOM      1  C   LIG d   1      -6.087  77.453 117.062  0.00  0.00     0.161 C 
ATOM      2  C   LIG d   1      -7.397  77.955 117.136  0.00  0.00     0.016 C 
ATOM      3  C   LIG d   1      -7.754  79.089 117.901  0.00  0.00     0.038 C 
ATOM      4  C   LIG d   1      -6.790  79.894 118.528  0.00  0.00     0.028 C 
ATOM      5  C   LIG d   1      -5.518  79.138 118.896  0.00  0.00    -0.047 C 
ATOM      6  C   LIG d   1      -5.004  78.382 117.649  0.00  0.00     0.091 C 
ENDROOT
BRANCH   1   7
ATOM      7  O   LIG d   1      -5.770  77.114 115.697  0.00  0.00    -0.368 OA
BRANCH   7   8
ATOM      8  C   LIG d   1      -6.059  75.753 115.295  0.00  0.00     0.119 C 
BRANCH   8   9
ATOM      9  C   LIG d   1      -5.541  74.821 116.407  0.00  0.00     0.028 C 
ATOM     10  C   LIG d   1      -6.317  73.495 116.471  0.00  0.00     0.006 C 
ENDBRANCH   8   9
BRANCH   8  11
ATOM     11  C   LIG d   1      -5.271  75.364 114.040  0.00  0.00     0.028 C 
ATOM     12  C   LIG d   1      -3.777  75.705 114.145  0.00  0.00     0.006 C 
ENDBRANCH   8  11
ENDBRANCH   7   8
ENDBRANCH   1   7
BRANCH   6  13
ATOM     13  N   LIG d   1      -3.809  77.550 117.944  0.00  0.00    -0.311 N 
ATOM     14  C   LIG d   1      -2.694  77.585 117.217  0.00  0.00     0.210 C 
ATOM     15  C   LIG d   1      -1.588  76.632 117.681  0.00  0.00     0.109 C 
ATOM     16  O   LIG d   1      -2.503  78.339 116.251  0.00  0.00    -0.276 OA
ATOM     17  H   LIG d   1      -3.866  76.932 118.729  0.00  0.00     0.149 HD
ENDBRANCH   6  13
BRANCH   5  18
ATOM     18  N   LIG d   1      -4.549  80.123 119.414  0.00  0.00     0.381 N 
ATOM     19  H   LIG d   1      -4.093  79.755 120.225  0.00  0.00    -0.090 HD
ATOM     20  H   LIG d   1      -5.044  80.956 119.682  0.00  0.00    -0.090 HD
ATOM     21  H   LIG d   1      -3.875  80.339 118.714  0.00  0.00    -0.090 HD
ENDBRANCH   5  18
BRANCH   3  22
ATOM     22  C   LIG d   1      -9.092  79.406 118.077  0.00  0.00     0.382 C 
ATOM     23  O   LIG d   1      -9.919  78.503 118.349  0.00  0.00    -0.241 OA
ATOM     24  O   LIG d   1      -9.490  80.577 117.924  0.00  0.00    -0.241 OA
ENDBRANCH   3  22
TORSDOF 7
ENDMDL
MODEL 4
REMARK VINA RESULT:      -4.9      2.494      6.288
REMARK  7 active torsions:
REMARK  status: ('A' for Active; 'I' for Inactive)
REMARK    1  A    between atoms: C_2  and  C_3 
REMARK    2  A    between atoms: C_3  and  O_6 
REMARK    3  A    between atoms: C_3  and  C_4 
REMARK    4  A    between atoms: C_7  and  O_6 
REMARK    5  A    between atoms: C_9  and  C_10 
REMARK    6  A    between atoms: N_15  and  C_14 
REMARK    7  A    between atoms: N_20  and  C_19 
REMARK       I    between atoms: C_22  and  N_20 
ROOT
ATOM      1  C   LIG d   1      -4.833  92.029 117.706  0.00  0.00     0.161 C 
ATOM      2  C   LIG d   1      -5.030  93.198 118.458  0.00  0.00     0.016 C 
ATOM      3  C   LIG d   1      -6.011  94.168 118.146  0.00  0.00     0.038 C 
ATOM      4  C   LIG d   1      -6.968  93.959 117.143  0.00  0.00     0.028 C 
ATOM      5  C   LIG d   1      -6.490  93.025 116.035  0.00  0.00    -0.047 C 
ATOM      6  C   LIG d   1      -5.941  91.729 116.674  0.00  0.00     0.091 C 
ENDROOT
BRANCH   1   7
ATOM      7  O   LIG d   1      -4.654  90.904 118.589  0.00  0.00    -0.368 OA
BRANCH   7   8
ATOM      8  C   LIG d   1      -3.285  90.503 118.842  0.00  0.00     0.119 C 
BRANCH   8   9
ATOM      9  C   LIG d   1      -2.462  90.848 117.586  0.00  0.00     0.028 C 
ATOM     10  C   LIG d   1      -1.176  91.622 117.920  0.00  0.00     0.006 C 
ENDBRANCH   8   9
BRANCH   8  11
ATOM     11  C   LIG d   1      -3.169  88.984 118.999  0.00  0.00     0.028 C 
ATOM     12  C   LIG d   1      -2.812  88.275 117.683  0.00  0.00     0.006 C 
ENDBRANCH   8  11
ENDBRANCH   7   8
ENDBRANCH   1   7
BRANCH   6  13
ATOM     13  N   LIG d   1      -5.375  90.796 115.665  0.00  0.00    -0.311 N 
ATOM     14  C   LIG d   1      -5.694  89.505 115.600  0.00  0.00     0.210 C 
ATOM     15  C   LIG d   1      -4.981  88.716 114.497  0.00  0.00     0.109 C 
ATOM     16  O   LIG d   1      -6.524  88.944 116.332  0.00  0.00    -0.276 OA
ATOM     17  H   LIG d   1      -4.717  91.174 115.012  0.00  0.00     0.149 HD
ENDBRANCH   6  13
BRANCH   5  18
ATOM     18  N   LIG d   1      -7.631  92.786 115.131  0.00  0.00     0.381 N 
ATOM     19  H   LIG d   1      -7.708  91.808 114.934  0.00  0.00    -0.090 HD
ATOM     20  H   LIG d   1      -7.467  93.270 114.266  0.00  0.00    -0.090 HD
ATOM     21  H   LIG d   1      -8.473  93.116 115.550  0.00  0.00    -0.090 HD
ENDBRANCH   5  18
BRANCH   3  22
ATOM     22  C   LIG d   1      -6.015  95.382 118.817  0.00  0.00     0.382 C 
ATOM     23  O   LIG d   1      -4.930  95.939 119.111  0.00  0.00    -0.241 OA
ATOM     24  O   LIG d   1      -7.088  95.904 119.172  0.00  0.00    -0.241 OA
ENDBRANCH   3  22
TORSDOF 7
ENDMDL
MODEL 5
REMARK VINA RESULT:      -4.9      2.646      4.849
REMARK  7 active torsions:
REMARK  status: ('A' for Active; 'I' for Inactive)
REMARK    1  A    between atoms: C_2  and  C_3 
REMARK    2  A    between atoms: C_3  and  O_6 
REMARK    3  A    between atoms: C_3  and  C_4 
REMARK    4  A    between atoms: C_7  and  O_6 
REMARK    5  A    between atoms: C_9  and  C_10 
REMARK    6  A    between atoms: N_15  and  C_14 
REMARK    7  A    between atoms: N_20  and  C_19 
REMARK       I    between atoms: C_22  and  N_20 
ROOT
ATOM      1  C   LIG d   1      -6.046  90.921 118.279  0.00  0.00     0.161 C 
ATOM      2  C   LIG d   1      -5.020  90.529 119.155  0.00  0.00     0.016 C 
ATOM      3  C   LIG d   1      -3.892  89.781 118.746  0.00  0.00     0.038 C 
ATOM      4  C   LIG d   1      -3.638  89.501 117.395  0.00  0.00     0.028 C 
ATOM      5  C   LIG d   1      -4.900  89.441 116.541  0.00  0.00    -0.047 C 
ATOM      6  C   LIG d   1      -5.731  90.721 116.782  0.00  0.00     0.091 C 
ENDROOT
BRANCH   1   7
ATOM      7  O   LIG d   1      -6.410  92.292 118.536  0.00  0.00    -0.368 OA
BRANCH   7   8
ATOM      8  C   LIG d   1      -5.806  93.285 117.671  0.00  0.00     0.119 C 
BRANCH   8   9
ATOM      9  C   LIG d   1      -4.770  94.060 118.508  0.00  0.00     0.028 C 
ATOM     10  C   LIG d   1      -3.324  93.750 118.086  0.00  0.00     0.006 C 
ENDBRANCH   8   9
BRANCH   8  11
ATOM     11  C   LIG d   1      -6.831  94.331 117.223  0.00  0.00     0.028 C 
ATOM     12  C   LIG d   1      -7.158  95.353 118.323  0.00  0.00     0.006 C 
ENDBRANCH   8  11
ENDBRANCH   7   8
ENDBRANCH   1   7
BRANCH   6  13
ATOM     13  N   LIG d   1      -7.023  90.705 116.049  0.00  0.00    -0.311 N 
ATOM     14  C   LIG d   1      -7.214  91.323 114.884  0.00  0.00     0.210 C 
ATOM     15  C   LIG d   1      -8.627  91.197 114.308  0.00  0.00     0.109 C 
ATOM     16  O   LIG d   1      -6.337  91.937 114.258  0.00  0.00    -0.276 OA
ATOM     17  H   LIG d   1      -7.781  90.203 116.470  0.00  0.00     0.149 HD
ENDBRANCH   6  13
BRANCH   5  18
ATOM     18  N   LIG d   1      -4.480  89.280 115.136  0.00  0.00     0.381 N 
ATOM     19  H   LIG d   1      -5.056  89.844 114.544  0.00  0.00    -0.090 HD
ATOM     20  H   LIG d   1      -4.599  88.319 114.869  0.00  0.00    -0.090 HD
ATOM     21  H   LIG d   1      -3.525  89.545 115.033  0.00  0.00    -0.090 HD
ENDBRANCH   5  18
BRANCH   3  22
ATOM     22  C   LIG d   1      -3.025  89.269 119.699  0.00  0.00     0.382 C 
ATOM     23  O   LIG d   1      -2.254  90.038 120.323  0.00  0.00    -0.241 OA
ATOM     24  O   LIG d   1      -2.972  88.043 119.912  0.00  0.00    -0.241 OA
ENDBRANCH   3  22
TORSDOF 7
ENDMDL
MODEL 6
REMARK VINA RESULT:      -4.9      2.536      4.985
REMARK  7 active torsions:
REMARK  status: ('A' for Active; 'I' for Inactive)
REMARK    1  A    between atoms: C_2  and  C_3 
REMARK    2  A    between atoms: C_3  and  O_6 
REMARK    3  A    between atoms: C_3  and  C_4 
REMARK    4  A    between atoms: C_7  and  O_6 
REMARK    5  A    between atoms: C_9  and  C_10 
REMARK    6  A    between atoms: N_15  and  C_14 
REMARK    7  A    between atoms: N_20  and  C_19 
REMARK       I    between atoms: C_22  and  N_20 
ROOT
ATOM      1  C   LIG d   1      -4.086  91.352 117.527  0.00  0.00     0.161 C 
ATOM      2  C   LIG d   1      -4.386  90.407 116.531  0.00  0.00     0.016 C 
ATOM      3  C   LIG d   1      -5.413  90.584 115.575  0.00  0.00     0.038 C 
ATOM      4  C   LIG d   1      -6.115  91.792 115.455  0.00  0.00     0.028 C 
ATOM      5  C   LIG d   1      -6.191  92.580 116.759  0.00  0.00    -0.047 C 
ATOM      6  C   LIG d   1      -4.767  92.724 117.343  0.00  0.00     0.091 C 
ENDROOT
BRANCH   1   7
ATOM      7  O   LIG d   1      -2.658  91.512 117.634  0.00  0.00    -0.368 OA
BRANCH   7   8
ATOM      8  C   LIG d   1      -2.001  90.707 118.644  0.00  0.00     0.119 C 
BRANCH   8   9
ATOM      9  C   LIG d   1      -1.372  91.672 119.668  0.00  0.00     0.028 C 
ATOM     10  C   LIG d   1      -0.399  92.668 119.015  0.00  0.00     0.006 C 
ENDBRANCH   8   9
BRANCH   8  11
ATOM     11  C   LIG d   1      -0.827  89.921 118.054  0.00  0.00     0.028 C 
ATOM     12  C   LIG d   1      -1.184  88.458 117.746  0.00  0.00     0.006 C 
ENDBRANCH   8  11
ENDBRANCH   7   8
ENDBRANCH   1   7
BRANCH   6  13
ATOM     13  N   LIG d   1      -4.762  93.409 118.661  0.00  0.00    -0.311 N 
ATOM     14  C   LIG d   1      -3.874  94.344 118.998  0.00  0.00     0.210 C 
ATOM     15  C   LIG d   1      -4.035  94.908 120.413  0.00  0.00     0.109 C 
ATOM     16  O   LIG d   1      -2.990  94.782 118.248  0.00  0.00    -0.276 OA
ATOM     17  H   LIG d   1      -5.465  93.137 119.320  0.00  0.00     0.149 HD
ENDBRANCH   6  13
BRANCH   5  18
ATOM     18  N   LIG d   1      -6.827  93.877 116.460  0.00  0.00     0.381 N 
ATOM     19  H   LIG d   1      -7.596  94.028 117.081  0.00  0.00    -0.090 HD
ATOM     20  H   LIG d   1      -7.182  93.855 115.519  0.00  0.00    -0.090 HD
ATOM     21  H   LIG d   1      -6.163  94.613 116.555  0.00  0.00    -0.090 HD
ENDBRANCH   5  18
BRANCH   3  22
ATOM     22  C   LIG d   1      -5.773  89.528 114.751  0.00  0.00     0.382 C 
ATOM     23  O   LIG d   1      -4.963  88.594 114.538  0.00  0.00    -0.241 OA
ATOM     24  O   LIG d   1      -6.882  89.520 114.184  0.00  0.00    -0.241 OA
ENDBRANCH   3  22
TORSDOF 7
ENDMDL
MODEL 7
REMARK VINA RESULT:      -4.7     16.256     18.564
REMARK  7 active torsions:
REMARK  status: ('A' for Active; 'I' for Inactive)
REMARK    1  A    between atoms: C_2  and  C_3 
REMARK    2  A    between atoms: C_3  and  O_6 
REMARK    3  A    between atoms: C_3  and  C_4 
REMARK    4  A    between atoms: C_7  and  O_6 
REMARK    5  A    between atoms: C_9  and  C_10 
REMARK    6  A    between atoms: N_15  and  C_14 
REMARK    7  A    between atoms: N_20  and  C_19 
REMARK       I    between atoms: C_22  and  N_20 
ROOT
ATOM      1  C   LIG d   1      -0.769  76.001 115.581  0.00  0.00     0.161 C 
ATOM      2  C   LIG d   1      -2.025  76.095 114.958  0.00  0.00     0.016 C 
ATOM      3  C   LIG d   1      -3.029  75.107 115.080  0.00  0.00     0.038 C 
ATOM      4  C   LIG d   1      -2.900  74.023 115.961  0.00  0.00     0.028 C 
ATOM      5  C   LIG d   1      -1.452  73.624 116.222  0.00  0.00    -0.047 C 
ATOM      6  C   LIG d   1      -0.652  74.880 116.635  0.00  0.00     0.091 C 
ENDROOT
BRANCH   1   7
ATOM      7  O   LIG d   1      -0.414  77.272 116.160  0.00  0.00    -0.368 OA
BRANCH   7   8
ATOM      8  C   LIG d   1      -0.938  77.538 117.484  0.00  0.00     0.119 C 
BRANCH   8   9
ATOM      9  C   LIG d   1      -1.885  78.748 117.374  0.00  0.00     0.028 C 
ATOM     10  C   LIG d   1      -3.355  78.367 117.617  0.00  0.00     0.006 C 
ENDBRANCH   8   9
BRANCH   8  11
ATOM     11  C   LIG d   1       0.171  77.977 118.444  0.00  0.00     0.028 C 
ATOM     12  C   LIG d   1       1.551  78.040 117.771  0.00  0.00     0.006 C 
ENDBRANCH   8  11
ENDBRANCH   7   8
ENDBRANCH   1   7
BRANCH   6  13
ATOM     13  N   LIG d   1       0.794  74.593 116.827  0.00  0.00    -0.311 N 
ATOM     14  C   LIG d   1       1.343  74.359 118.018  0.00  0.00     0.210 C 
ATOM     15  C   LIG d   1       2.853  74.106 117.995  0.00  0.00     0.109 C 
ATOM     16  O   LIG d   1       0.717  74.306 119.087  0.00  0.00    -0.276 OA
ATOM     17  H   LIG d   1       1.370  74.586 116.009  0.00  0.00     0.149 HD
ENDBRANCH   6  13
BRANCH   5  18
ATOM     18  N   LIG d   1      -1.459  72.576 117.260  0.00  0.00     0.381 N 
ATOM     19  H   LIG d   1      -0.712  71.930 117.095  0.00  0.00    -0.090 HD
ATOM     20  H   LIG d   1      -2.327  72.073 117.209  0.00  0.00    -0.090 HD
ATOM     21  H   LIG d   1      -1.358  72.988 118.162  0.00  0.00    -0.090 HD
ENDBRANCH   5  18
BRANCH   3  22
ATOM     22  C   LIG d   1      -4.163  75.178 114.285  0.00  0.00     0.382 C 
ATOM     23  O   LIG d   1      -4.674  76.293 114.020  0.00  0.00    -0.241 OA
ATOM     24  O   LIG d   1      -4.706  74.138 113.865  0.00  0.00    -0.241 OA
ENDBRANCH   3  22
TORSDOF 7
ENDMDL
MODEL 8
REMARK VINA RESULT:      -4.7     16.863     19.174
REMARK  7 active torsions:
REMARK  status: ('A' for Active; 'I' for Inactive)
REMARK    1  A    between atoms: C_2  and  C_3 
REMARK    2  A    between atoms: C_3  and  O_6 
REMARK    3  A    between atoms: C_3  and  C_4 
REMARK    4  A    between atoms: C_7  and  O_6 
REMARK    5  A    between atoms: C_9  and  C_10 
REMARK    6  A    between atoms: N_15  and  C_14 
REMARK    7  A    between atoms: N_20  and  C_19 
REMARK       I    between atoms: C_22  and  N_20 
ROOT
ATOM      1  C   LIG d   1      -2.680  74.356 116.157  0.00  0.00     0.161 C 
ATOM      2  C   LIG d   1      -1.766  75.322 115.706  0.00  0.00     0.016 C 
ATOM      3  C   LIG d   1      -2.115  76.375 114.829  0.00  0.00     0.038 C 
ATOM      4  C   LIG d   1      -3.446  76.623 114.462  0.00  0.00     0.028 C 
ATOM      5  C   LIG d   1      -4.324  75.376 114.488  0.00  0.00    -0.047 C 
ATOM      6  C   LIG d   1      -4.159  74.675 115.856  0.00  0.00     0.091 C 
ENDROOT
BRANCH   1   7
ATOM      7  O   LIG d   1      -2.494  74.129 117.568  0.00  0.00    -0.368 OA
BRANCH   7   8
ATOM      8  C   LIG d   1      -1.587  75.034 118.245  0.00  0.00     0.119 C 
BRANCH   8   9
ATOM      9  C   LIG d   1      -0.620  74.177 119.086  0.00  0.00     0.028 C 
ATOM     10  C   LIG d   1      -0.819  72.670 118.854  0.00  0.00     0.006 C 
ENDBRANCH   8   9
BRANCH   8  11
ATOM     11  C   LIG d   1      -2.330  75.915 119.254  0.00  0.00     0.028 C 
ATOM     12  C   LIG d   1      -2.826  77.234 118.642  0.00  0.00     0.006 C 
ENDBRANCH   8  11
ENDBRANCH   7   8
ENDBRANCH   1   7
BRANCH   6  13
ATOM     13  N   LIG d   1      -4.920  73.400 115.935  0.00  0.00    -0.311 N 
ATOM     14  C   LIG d   1      -6.156  73.313 116.422  0.00  0.00     0.210 C 
ATOM     15  C   LIG d   1      -6.750  71.901 116.430  0.00  0.00     0.109 C 
ATOM     16  O   LIG d   1      -6.830  74.276 116.818  0.00  0.00    -0.276 OA
ATOM     17  H   LIG d   1      -4.460  72.574 115.606  0.00  0.00     0.149 HD
ENDBRANCH   6  13
BRANCH   5  18
ATOM     18  N   LIG d   1      -5.711  75.802 114.220  0.00  0.00     0.381 N 
ATOM     19  H   LIG d   1      -5.712  76.562 113.570  0.00  0.00    -0.090 HD
ATOM     20  H   LIG d   1      -6.125  76.120 115.079  0.00  0.00    -0.090 HD
ATOM     21  H   LIG d   1      -6.236  75.040 113.852  0.00  0.00    -0.090 HD
ENDBRANCH   5  18
BRANCH   3  22
ATOM     22  C   LIG d   1      -1.121  77.169 114.278  0.00  0.00     0.382 C 
ATOM     23  O   LIG d   1      -0.087  76.641 113.805  0.00  0.00    -0.241 OA
ATOM     24  O   LIG d   1      -1.226  78.410 114.289  0.00  0.00    -0.241 OA
ENDBRANCH   3  22
TORSDOF 7
ENDMDL
MODEL 9
REMARK VINA RESULT:      -4.7      1.962      5.062
REMARK  7 active torsions:
REMARK  status: ('A' for Active; 'I' for Inactive)
REMARK    1  A    between atoms: C_2  and  C_3 
REMARK    2  A    between atoms: C_3  and  O_6 
REMARK    3  A    between atoms: C_3  and  C_4 
REMARK    4  A    between atoms: C_7  and  O_6 
REMARK    5  A    between atoms: C_9  and  C_10 
REMARK    6  A    between atoms: N_15  and  C_14 
REMARK    7  A    between atoms: N_20  and  C_19 
REMARK       I    between atoms: C_22  and  N_20 
ROOT
ATOM      1  C   LIG d   1      -5.863  93.234 117.490  0.00  0.00     0.161 C 
ATOM      2  C   LIG d   1      -6.958  94.058 117.179  0.00  0.00     0.016 C 
ATOM      3  C   LIG d   1      -7.149  95.342 117.738  0.00  0.00     0.038 C 
ATOM      4  C   LIG d   1      -6.172  95.956 118.536  0.00  0.00     0.028 C 
ATOM      5  C   LIG d   1      -5.286  94.963 119.280  0.00  0.00    -0.047 C 
ATOM      6  C   LIG d   1      -4.731  93.932 118.272  0.00  0.00     0.091 C 
ENDROOT
BRANCH   1   7
ATOM      7  O   LIG d   1      -5.345  92.635 116.285  0.00  0.00    -0.368 OA
BRANCH   7   8
ATOM      8  C   LIG d   1      -5.833  91.307 115.973  0.00  0.00     0.119 C 
BRANCH   8   9
ATOM      9  C   LIG d   1      -4.612  90.370 115.903  0.00  0.00     0.028 C 
ATOM     10  C   LIG d   1      -4.883  89.115 115.058  0.00  0.00     0.006 C 
ENDBRANCH   8   9
BRANCH   8  11
ATOM     11  C   LIG d   1      -6.462  91.258 114.578  0.00  0.00     0.028 C 
ATOM     12  C   LIG d   1      -7.997  91.187 114.618  0.00  0.00     0.006 C 
ENDBRANCH   8  11
ENDBRANCH   7   8
ENDBRANCH   1   7
BRANCH   6  13
ATOM     13  N   LIG d   1      -3.922  92.874 118.931  0.00  0.00    -0.311 N 
ATOM     14  C   LIG d   1      -2.663  92.597 118.593  0.00  0.00     0.210 C 
ATOM     15  C   LIG d   1      -2.018  91.455 119.385  0.00  0.00     0.109 C 
ATOM     16  O   LIG d   1      -2.010  93.209 117.736  0.00  0.00    -0.276 OA
ATOM     17  H   LIG d   1      -4.364  92.348 119.659  0.00  0.00     0.149 HD
ENDBRANCH   6  13
BRANCH   5  18
ATOM     18  N   LIG d   1      -4.228  95.733 119.962  0.00  0.00     0.381 N 
ATOM     19  H   LIG d   1      -3.893  95.221 120.753  0.00  0.00    -0.090 HD
ATOM     20  H   LIG d   1      -4.617  96.600 120.289  0.00  0.00    -0.090 HD
ATOM     21  H   LIG d   1      -3.479  95.914 119.331  0.00  0.00    -0.090 HD
ENDBRANCH   5  18
BRANCH   3  22
ATOM     22  C   LIG d   1      -8.347  96.010 117.532  0.00  0.00     0.382 C 
ATOM     23  O   LIG d   1      -9.435  95.431 117.762  0.00  0.00    -0.241 OA
ATOM     24  O   LIG d   1      -8.353  97.170 117.077  0.00  0.00    -0.241 OA
ENDBRANCH   3  22
TORSDOF 7
ENDMDL
