MODEL 1
REMARK VINA RESULT:      -5.3      0.000      0.000
REMARK  7 active torsions:
REMARK  status: ('A' for Active; 'I' for Inactive)
REMARK    1  A    between atoms: C_2  and  C_3 
REMARK    2  A    between atoms: C_3  and  O_6 
REMARK    3  A    between atoms: C_3  and  C_4 
REMARK    4  A    between atoms: C_7  and  O_6 
REMARK    5  A    between atoms: C_9  and  C_10 
REMARK    6  A    between atoms: N_15  and  C_14 
REMARK    7  A    between atoms: N_20  and  C_19 
REMARK       I    between atoms: C_22  and  N_20 
ROOT
ATOM      1  C   LIG d   1      -0.505  57.789 117.098  0.00  0.00     0.161 C 
ATOM      2  C   LIG d   1      -1.526  58.677 117.474  0.00  0.00     0.016 C 
ATOM      3  C   LIG d   1      -2.816  58.256 117.873  0.00  0.00     0.038 C 
ATOM      4  C   LIG d   1      -3.126  56.902 118.069  0.00  0.00     0.028 C 
ATOM      5  C   LIG d   1      -2.283  55.958 117.217  0.00  0.00    -0.047 C 
ATOM      6  C   LIG d   1      -0.789  56.305 117.412  0.00  0.00     0.091 C 
ENDROOT
BRANCH   1   7
ATOM      7  O   LIG d   1       0.742  58.197 117.695  0.00  0.00    -0.368 OA
BRANCH   7   8
ATOM      8  C   LIG d   1       0.881  57.945 119.115  0.00  0.00     0.119 C 
BRANCH   8   9
ATOM      9  C   LIG d   1       0.922  59.312 119.826  0.00  0.00     0.028 C 
ATOM     10  C   LIG d   1       2.254  59.555 120.555  0.00  0.00     0.006 C 
ENDBRANCH   8   9
BRANCH   8  11
ATOM     11  C   LIG d   1       2.224  57.282 119.434  0.00  0.00     0.028 C 
ATOM     12  C   LIG d   1       3.024  56.920 118.173  0.00  0.00     0.006 C 
ENDBRANCH   8  11
ENDBRANCH   7   8
ENDBRANCH   1   7
BRANCH   6  13
ATOM     13  N   LIG d   1       0.100  55.484 116.550  0.00  0.00    -0.311 N 
ATOM     14  C   LIG d   1       0.710  54.377 116.970  0.00  0.00     0.210 C 
ATOM     15  C   LIG d   1       1.599  53.693 115.926  0.00  0.00     0.109 C 
ATOM     16  O   LIG d   1       0.575  53.879 118.098  0.00  0.00    -0.276 OA
ATOM     17  H   LIG d   1       0.242  55.799 115.610  0.00  0.00     0.149 HD
ENDBRANCH   6  13
BRANCH   5  18
ATOM     18  N   LIG d   1      -2.613  54.578 117.622  0.00  0.00     0.381 N 
ATOM     19  H   LIG d   1      -3.568  54.379 117.399  0.00  0.00    -0.090 HD
ATOM     20  H   LIG d   1      -2.497  54.494 118.616  0.00  0.00    -0.090 HD
ATOM     21  H   LIG d   1      -2.015  53.933 117.154  0.00  0.00    -0.090 HD
ENDBRANCH   5  18
BRANCH   3  22
ATOM     22  C   LIG d   1      -3.823  59.193 118.042  0.00  0.00     0.382 C 
ATOM     23  O   LIG d   1      -3.895  59.851 119.108  0.00  0.00    -0.241 OA
ATOM     24  O   LIG d   1      -4.687  59.358 117.160  0.00  0.00    -0.241 OA
ENDBRANCH   3  22
TORSDOF 7
ENDMDL
MODEL 2
REMARK VINA RESULT:      -5.3     17.027     19.259
REMARK  7 active torsions:
REMARK  status: ('A' for Active; 'I' for Inactive)
REMARK    1  A    between atoms: C_2  and  C_3 
REMARK    2  A    between atoms: C_3  and  O_6 
REMARK    3  A    between atoms: C_3  and  C_4 
REMARK    4  A    between atoms: C_7  and  O_6 
REMARK    5  A    between atoms: C_9  and  C_10 
REMARK    6  A    between atoms: N_15  and  C_14 
REMARK    7  A    between atoms: N_20  and  C_19 
REMARK       I    between atoms: C_22  and  N_20 
ROOT
ATOM      1  C   LIG d   1      -7.601  74.440 118.651  0.00  0.00     0.161 C 
ATOM      2  C   LIG d   1      -7.753  73.081 118.328  0.00  0.00     0.016 C 
ATOM      3  C   LIG d   1      -8.868  72.569 117.625  0.00  0.00     0.038 C 
ATOM      4  C   LIG d   1      -9.840  73.409 117.062  0.00  0.00     0.028 C 
ATOM      5  C   LIG d   1      -9.990  74.738 117.795  0.00  0.00    -0.047 C 
ATOM      6  C   LIG d   1      -8.595  75.387 117.948  0.00  0.00     0.091 C 
ENDROOT
BRANCH   1   7
ATOM      7  O   LIG d   1      -6.245  74.854 118.391  0.00  0.00    -0.368 OA
BRANCH   7   8
ATOM      8  C   LIG d   1      -5.582  74.206 117.277  0.00  0.00     0.119 C 
BRANCH   8   9
ATOM      9  C   LIG d   1      -4.107  74.000 117.672  0.00  0.00     0.028 C 
ATOM     10  C   LIG d   1      -3.624  75.037 118.700  0.00  0.00     0.006 C 
ENDBRANCH   8   9
BRANCH   8  11
ATOM     11  C   LIG d   1      -5.549  75.114 116.044  0.00  0.00     0.028 C 
ATOM     12  C   LIG d   1      -5.325  74.336 114.737  0.00  0.00     0.006 C 
ENDBRANCH   8  11
ENDBRANCH   7   8
ENDBRANCH   1   7
BRANCH   6  13
ATOM     13  N   LIG d   1      -8.641  76.651 118.728  0.00  0.00    -0.311 N 
ATOM     14  C   LIG d   1      -7.985  77.755 118.375  0.00  0.00     0.210 C 
ATOM     15  C   LIG d   1      -8.152  78.941 119.331  0.00  0.00     0.109 C 
ATOM     16  O   LIG d   1      -7.307  77.876 117.343  0.00  0.00    -0.276 OA
ATOM     17  H   LIG d   1      -9.192  76.652 119.564  0.00  0.00     0.149 HD
ENDBRANCH   6  13
BRANCH   5  18
ATOM     18  N   LIG d   1     -10.933  75.569 117.023  0.00  0.00     0.381 N 
ATOM     19  H   LIG d   1     -11.842  75.523 117.437  0.00  0.00    -0.090 HD
ATOM     20  H   LIG d   1     -10.993  75.208 116.087  0.00  0.00    -0.090 HD
ATOM     21  H   LIG d   1     -10.617  76.514 117.002  0.00  0.00    -0.090 HD
ENDBRANCH   5  18
BRANCH   3  22
ATOM     22  C   LIG d   1      -9.040  71.197 117.515  0.00  0.00     0.382 C 
ATOM     23  O   LIG d   1      -9.955  70.626 118.156  0.00  0.00    -0.241 OA
ATOM     24  O   LIG d   1      -8.263  70.518 116.817  0.00  0.00    -0.241 OA
ENDBRANCH   3  22
TORSDOF 7
ENDMDL
MODEL 3
REMARK VINA RESULT:      -5.0     16.839     19.171
REMARK  7 active torsions:
REMARK  status: ('A' for Active; 'I' for Inactive)
REMARK    1  A    between atoms: C_2  and  C_3 
REMARK    2  A    between atoms: C_3  and  O_6 
REMARK    3  A    between atoms: C_3  and  C_4 
REMARK    4  A    between atoms: C_7  and  O_6 
REMARK    5  A    between atoms: C_9  and  C_10 
REMARK    6  A    between atoms: N_15  and  C_14 
REMARK    7  A    between atoms: N_20  and  C_19 
REMARK       I    between atoms: C_22  and  N_20 
ROOT
ATOM      1  C   LIG d   1      -6.101  75.069 116.869  0.00  0.00     0.161 C 
ATOM      2  C   LIG d   1      -4.908  74.498 116.396  0.00  0.00     0.016 C 
ATOM      3  C   LIG d   1      -3.716  74.445 117.155  0.00  0.00     0.038 C 
ATOM      4  C   LIG d   1      -3.679  74.827 118.504  0.00  0.00     0.028 C 
ATOM      5  C   LIG d   1      -4.725  75.875 118.866  0.00  0.00    -0.047 C 
ATOM      6  C   LIG d   1      -6.110  75.391 118.378  0.00  0.00     0.091 C 
ENDROOT
BRANCH   1   7
ATOM      7  O   LIG d   1      -7.217  74.222 116.531  0.00  0.00    -0.368 OA
BRANCH   7   8
ATOM      8  C   LIG d   1      -7.400  73.048 117.360  0.00  0.00     0.119 C 
BRANCH   8   9
ATOM      9  C   LIG d   1      -7.350  71.816 116.436  0.00  0.00     0.028 C 
ATOM     10  C   LIG d   1      -8.599  70.929 116.573  0.00  0.00     0.006 C 
ENDBRANCH   8   9
BRANCH   8  11
ATOM     11  C   LIG d   1      -8.794  73.024 117.993  0.00  0.00     0.028 C 
ATOM     12  C   LIG d   1      -9.734  74.089 117.404  0.00  0.00     0.006 C 
ENDBRANCH   8  11
ENDBRANCH   7   8
ENDBRANCH   1   7
BRANCH   6  13
ATOM     13  N   LIG d   1      -7.179  76.396 118.617  0.00  0.00    -0.311 N 
ATOM     14  C   LIG d   1      -8.016  76.343 119.651  0.00  0.00     0.210 C 
ATOM     15  C   LIG d   1      -9.056  77.468 119.699  0.00  0.00     0.109 C 
ATOM     16  O   LIG d   1      -7.977  75.491 120.551  0.00  0.00    -0.276 OA
ATOM     17  H   LIG d   1      -7.262  77.140 117.953  0.00  0.00     0.149 HD
ENDBRANCH   6  13
BRANCH   5  18
ATOM     18  N   LIG d   1      -4.666  76.080 120.326  0.00  0.00     0.381 N 
ATOM     19  H   LIG d   1      -5.583  76.003 120.716  0.00  0.00    -0.090 HD
ATOM     20  H   LIG d   1      -4.320  77.005 120.510  0.00  0.00    -0.090 HD
ATOM     21  H   LIG d   1      -4.063  75.403 120.740  0.00  0.00    -0.090 HD
ENDBRANCH   5  18
BRANCH   3  22
ATOM     22  C   LIG d   1      -2.535  74.042 116.551  0.00  0.00     0.382 C 
ATOM     23  O   LIG d   1      -1.696  73.371 117.200  0.00  0.00    -0.241 OA
ATOM     24  O   LIG d   1      -2.277  74.378 115.380  0.00  0.00    -0.241 OA
ENDBRANCH   3  22
TORSDOF 7
ENDMDL
MODEL 4
REMARK VINA RESULT:      -5.0     17.505     19.986
REMARK  7 active torsions:
REMARK  status: ('A' for Active; 'I' for Inactive)
REMARK    1  A    between atoms: C_2  and  C_3 
REMARK    2  A    between atoms: C_3  and  O_6 
REMARK    3  A    between atoms: C_3  and  C_4 
REMARK    4  A    between atoms: C_7  and  O_6 
REMARK    5  A    between atoms: C_9  and  C_10 
REMARK    6  A    between atoms: N_15  and  C_14 
REMARK    7  A    between atoms: N_20  and  C_19 
REMARK       I    between atoms: C_22  and  N_20 
ROOT
ATOM      1  C   LIG d   1      -7.530  75.337 119.197  0.00  0.00     0.161 C 
ATOM      2  C   LIG d   1      -8.749  75.929 118.825  0.00  0.00     0.016 C 
ATOM      3  C   LIG d   1      -8.839  77.181 118.175  0.00  0.00     0.038 C 
ATOM      4  C   LIG d   1      -7.702  77.861 117.714  0.00  0.00     0.028 C 
ATOM      5  C   LIG d   1      -6.442  77.545 118.513  0.00  0.00    -0.047 C 
ATOM      6  C   LIG d   1      -6.276  76.011 118.603  0.00  0.00     0.091 C 
ENDROOT
BRANCH   1   7
ATOM      7  O   LIG d   1      -7.548  73.934 118.867  0.00  0.00    -0.368 OA
BRANCH   7   8
ATOM      8  C   LIG d   1      -7.957  73.601 117.518  0.00  0.00     0.119 C 
BRANCH   8   9
ATOM      9  C   LIG d   1      -9.082  72.553 117.620  0.00  0.00     0.028 C 
ATOM     10  C   LIG d   1      -8.976  71.471 116.531  0.00  0.00     0.006 C 
ENDBRANCH   8   9
BRANCH   8  11
ATOM     11  C   LIG d   1      -6.827  72.910 116.748  0.00  0.00     0.028 C 
ATOM     12  C   LIG d   1      -6.081  73.864 115.801  0.00  0.00     0.006 C 
ENDBRANCH   8  11
ENDBRANCH   7   8
ENDBRANCH   1   7
BRANCH   6  13
ATOM     13  N   LIG d   1      -5.113  75.615 119.440  0.00  0.00    -0.311 N 
ATOM     14  C   LIG d   1      -3.897  75.391 118.946  0.00  0.00     0.210 C 
ATOM     15  C   LIG d   1      -2.846  74.973 119.980  0.00  0.00     0.109 C 
ATOM     16  O   LIG d   1      -3.580  75.531 117.755  0.00  0.00    -0.276 OA
ATOM     17  H   LIG d   1      -5.274  75.509 120.423  0.00  0.00     0.149 HD
ENDBRANCH   6  13
BRANCH   5  18
ATOM     18  N   LIG d   1      -5.310  78.211 117.842  0.00  0.00     0.381 N 
ATOM     19  H   LIG d   1      -4.576  77.551 117.680  0.00  0.00    -0.090 HD
ATOM     20  H   LIG d   1      -4.956  78.935 118.443  0.00  0.00    -0.090 HD
ATOM     21  H   LIG d   1      -5.610  78.605 116.977  0.00  0.00    -0.090 HD
ENDBRANCH   5  18
BRANCH   3  22
ATOM     22  C   LIG d   1     -10.077  77.785 118.016  0.00  0.00     0.382 C 
ATOM     23  O   LIG d   1     -10.163  79.035 117.963  0.00  0.00    -0.241 OA
ATOM     24  O   LIG d   1     -11.114  77.097 117.968  0.00  0.00    -0.241 OA
ENDBRANCH   3  22
TORSDOF 7
ENDMDL
MODEL 5
REMARK VINA RESULT:      -4.7     17.305     20.120
REMARK  7 active torsions:
REMARK  status: ('A' for Active; 'I' for Inactive)
REMARK    1  A    between atoms: C_2  and  C_3 
REMARK    2  A    between atoms: C_3  and  O_6 
REMARK    3  A    between atoms: C_3  and  C_4 
REMARK    4  A    between atoms: C_7  and  O_6 
REMARK    5  A    between atoms: C_9  and  C_10 
REMARK    6  A    between atoms: N_15  and  C_14 
REMARK    7  A    between atoms: N_20  and  C_19 
REMARK       I    between atoms: C_22  and  N_20 
ROOT
ATOM      1  C   LIG d   1      -8.009  75.334 117.928  0.00  0.00     0.161 C 
ATOM      2  C   LIG d   1      -8.552  74.040 117.855  0.00  0.00     0.016 C 
ATOM      3  C   LIG d   1      -7.882  72.947 117.259  0.00  0.00     0.038 C 
ATOM      4  C   LIG d   1      -6.550  73.040 116.827  0.00  0.00     0.028 C 
ATOM      5  C   LIG d   1      -6.143  74.453 116.422  0.00  0.00    -0.047 C 
ATOM      6  C   LIG d   1      -6.513  75.429 117.562  0.00  0.00     0.091 C 
ENDROOT
BRANCH   1   7
ATOM      7  O   LIG d   1      -8.240  75.887 119.238  0.00  0.00    -0.368 OA
BRANCH   7   8
ATOM      8  C   LIG d   1      -9.190  76.979 119.310  0.00  0.00     0.119 C 
BRANCH   8   9
ATOM      9  C   LIG d   1      -9.913  77.055 117.952  0.00  0.00     0.028 C 
ATOM     10  C   LIG d   1     -11.344  76.494 118.017  0.00  0.00     0.006 C 
ENDBRANCH   8   9
BRANCH   8  11
ATOM     11  C   LIG d   1      -8.478  78.327 119.466  0.00  0.00     0.028 C 
ATOM     12  C   LIG d   1      -8.706  79.263 118.268  0.00  0.00     0.006 C 
ENDBRANCH   8  11
ENDBRANCH   7   8
ENDBRANCH   1   7
BRANCH   6  13
ATOM     13  N   LIG d   1      -6.225  76.844 117.212  0.00  0.00    -0.311 N 
ATOM     14  C   LIG d   1      -5.106  77.473 117.567  0.00  0.00     0.210 C 
ATOM     15  C   LIG d   1      -5.018  78.937 117.122  0.00  0.00     0.109 C 
ATOM     16  O   LIG d   1      -4.164  76.950 118.181  0.00  0.00    -0.276 OA
ATOM     17  H   LIG d   1      -6.922  77.336 116.688  0.00  0.00     0.149 HD
ENDBRANCH   6  13
BRANCH   5  18
ATOM     18  N   LIG d   1      -4.698  74.432 116.126  0.00  0.00     0.381 N 
ATOM     19  H   LIG d   1      -4.440  75.265 115.635  0.00  0.00    -0.090 HD
ATOM     20  H   LIG d   1      -4.498  73.644 115.535  0.00  0.00    -0.090 HD
ATOM     21  H   LIG d   1      -4.177  74.361 116.972  0.00  0.00    -0.090 HD
ENDBRANCH   5  18
BRANCH   3  22
ATOM     22  C   LIG d   1      -8.559  71.754 117.054  0.00  0.00     0.382 C 
ATOM     23  O   LIG d   1      -8.363  71.095 116.005  0.00  0.00    -0.241 OA
ATOM     24  O   LIG d   1      -9.395  71.352 117.885  0.00  0.00    -0.241 OA
ENDBRANCH   3  22
TORSDOF 7
ENDMDL
MODEL 6
REMARK VINA RESULT:      -4.5      2.351      2.912
REMARK  7 active torsions:
REMARK  status: ('A' for Active; 'I' for Inactive)
REMARK    1  A    between atoms: C_2  and  C_3 
REMARK    2  A    between atoms: C_3  and  O_6 
REMARK    3  A    between atoms: C_3  and  C_4 
REMARK    4  A    between atoms: C_7  and  O_6 
REMARK    5  A    between atoms: C_9  and  C_10 
REMARK    6  A    between atoms: N_15  and  C_14 
REMARK    7  A    between atoms: N_20  and  C_19 
REMARK       I    between atoms: C_22  and  N_20 
ROOT
ATOM      1  C   LIG d   1       0.698  57.397 118.353  0.00  0.00     0.161 C 
ATOM      2  C   LIG d   1       0.647  58.191 117.196  0.00  0.00     0.016 C 
ATOM      3  C   LIG d   1      -0.362  58.070 116.213  0.00  0.00     0.038 C 
ATOM      4  C   LIG d   1      -1.481  57.244 116.396  0.00  0.00     0.028 C 
ATOM      5  C   LIG d   1      -1.212  56.055 117.313  0.00  0.00    -0.047 C 
ATOM      6  C   LIG d   1      -0.575  56.567 118.625  0.00  0.00     0.091 C 
ENDROOT
BRANCH   1   7
ATOM      7  O   LIG d   1       1.014  58.217 119.496  0.00  0.00    -0.368 OA
BRANCH   7   8
ATOM      8  C   LIG d   1       2.327  58.020 120.077  0.00  0.00     0.119 C 
BRANCH   8   9
ATOM      9  C   LIG d   1       3.008  59.400 120.160  0.00  0.00     0.028 C 
ATOM     10  C   LIG d   1       3.769  59.757 118.872  0.00  0.00     0.006 C 
ENDBRANCH   8   9
BRANCH   8  11
ATOM     11  C   LIG d   1       3.222  57.180 119.162  0.00  0.00     0.028 C 
ATOM     12  C   LIG d   1       3.939  56.044 119.908  0.00  0.00     0.006 C 
ENDBRANCH   8  11
ENDBRANCH   7   8
ENDBRANCH   1   7
BRANCH   6  13
ATOM     13  N   LIG d   1      -0.203  55.460 119.544  0.00  0.00    -0.311 N 
ATOM     14  C   LIG d   1       0.639  54.483 119.211  0.00  0.00     0.210 C 
ATOM     15  C   LIG d   1       0.870  53.430 120.300  0.00  0.00     0.109 C 
ATOM     16  O   LIG d   1       1.241  54.405 118.130  0.00  0.00    -0.276 OA
ATOM     17  H   LIG d   1      -0.621  55.462 120.454  0.00  0.00     0.149 HD
ENDBRANCH   6  13
BRANCH   5  18
ATOM     18  N   LIG d   1      -2.495  55.359 117.527  0.00  0.00     0.381 N 
ATOM     19  H   LIG d   1      -3.240  56.025 117.566  0.00  0.00    -0.090 HD
ATOM     20  H   LIG d   1      -2.459  54.874 118.406  0.00  0.00    -0.090 HD
ATOM     21  H   LIG d   1      -2.658  54.710 116.788  0.00  0.00    -0.090 HD
ENDBRANCH   5  18
BRANCH   3  22
ATOM     22  C   LIG d   1      -0.237  58.752 115.012  0.00  0.00     0.382 C 
ATOM     23  O   LIG d   1       0.849  58.721 114.384  0.00  0.00    -0.241 OA
ATOM     24  O   LIG d   1      -1.181  59.434 114.571  0.00  0.00    -0.241 OA
ENDBRANCH   3  22
TORSDOF 7
ENDMDL
MODEL 7
REMARK VINA RESULT:      -4.5     20.505     23.012
REMARK  7 active torsions:
REMARK  status: ('A' for Active; 'I' for Inactive)
REMARK    1  A    between atoms: C_2  and  C_3 
REMARK    2  A    between atoms: C_3  and  O_6 
REMARK    3  A    between atoms: C_3  and  C_4 
REMARK    4  A    between atoms: C_7  and  O_6 
REMARK    5  A    between atoms: C_9  and  C_10 
REMARK    6  A    between atoms: N_15  and  C_14 
REMARK    7  A    between atoms: N_20  and  C_19 
REMARK       I    between atoms: C_22  and  N_20 
ROOT
ATOM      1  C   LIG d   1      -7.785  78.835 118.071  0.00  0.00     0.161 C 
ATOM      2  C   LIG d   1      -8.593  79.980 118.174  0.00  0.00     0.016 C 
ATOM      3  C   LIG d   1      -8.144  81.280 117.848  0.00  0.00     0.038 C 
ATOM      4  C   LIG d   1      -6.896  81.505 117.249  0.00  0.00     0.028 C 
ATOM      5  C   LIG d   1      -5.858  80.443 117.594  0.00  0.00    -0.047 C 
ATOM      6  C   LIG d   1      -6.457  79.046 117.315  0.00  0.00     0.091 C 
ENDROOT
BRANCH   1   7
ATOM      7  O   LIG d   1      -8.537  77.759 117.475  0.00  0.00    -0.368 OA
BRANCH   7   8
ATOM      8  C   LIG d   1      -9.141  76.817 118.395  0.00  0.00     0.119 C 
BRANCH   8   9
ATOM      9  C   LIG d   1      -8.375  75.487 118.265  0.00  0.00     0.028 C 
ATOM     10  C   LIG d   1      -7.490  75.198 119.490  0.00  0.00     0.006 C 
ENDBRANCH   8   9
BRANCH   8  11
ATOM     11  C   LIG d   1     -10.584  76.495 117.994  0.00  0.00     0.028 C 
ATOM     12  C   LIG d   1     -10.701  75.190 117.191  0.00  0.00     0.006 C 
ENDBRANCH   8  11
ENDBRANCH   7   8
ENDBRANCH   1   7
BRANCH   6  13
ATOM     13  N   LIG d   1      -5.537  77.946 117.705  0.00  0.00    -0.311 N 
ATOM     14  C   LIG d   1      -5.130  76.997 116.863  0.00  0.00     0.210 C 
ATOM     15  C   LIG d   1      -4.199  75.946 117.476  0.00  0.00     0.109 C 
ATOM     16  O   LIG d   1      -5.425  76.945 115.660  0.00  0.00    -0.276 OA
ATOM     17  H   LIG d   1      -5.224  77.929 118.656  0.00  0.00     0.149 HD
ENDBRANCH   6  13
BRANCH   5  18
ATOM     18  N   LIG d   1      -4.649  80.724 116.796  0.00  0.00     0.381 N 
ATOM     19  H   LIG d   1      -4.162  79.871 116.608  0.00  0.00    -0.090 HD
ATOM     20  H   LIG d   1      -4.042  81.324 117.326  0.00  0.00    -0.090 HD
ATOM     21  H   LIG d   1      -4.902  81.166 115.940  0.00  0.00    -0.090 HD
ENDBRANCH   5  18
BRANCH   3  22
ATOM     22  C   LIG d   1      -8.933  82.377 118.158  0.00  0.00     0.382 C 
ATOM     23  O   LIG d   1      -8.473  83.297 118.876  0.00  0.00    -0.241 OA
ATOM     24  O   LIG d   1     -10.113  82.438 117.765  0.00  0.00    -0.241 OA
ENDBRANCH   3  22
TORSDOF 7
ENDMDL
MODEL 8
REMARK VINA RESULT:      -4.4     16.800     18.832
REMARK  7 active torsions:
REMARK  status: ('A' for Active; 'I' for Inactive)
REMARK    1  A    between atoms: C_2  and  C_3 
REMARK    2  A    between atoms: C_3  and  O_6 
REMARK    3  A    between atoms: C_3  and  C_4 
REMARK    4  A    between atoms: C_7  and  O_6 
REMARK    5  A    between atoms: C_9  and  C_10 
REMARK    6  A    between atoms: N_15  and  C_14 
REMARK    7  A    between atoms: N_20  and  C_19 
REMARK       I    between atoms: C_22  and  N_20 
ROOT
ATOM      1  C   LIG d   1      -3.926  74.796 115.950  0.00  0.00     0.161 C 
ATOM      2  C   LIG d   1      -3.278  76.042 115.925  0.00  0.00     0.016 C 
ATOM      3  C   LIG d   1      -3.937  77.267 116.179  0.00  0.00     0.038 C 
ATOM      4  C   LIG d   1      -5.265  77.315 116.628  0.00  0.00     0.028 C 
ATOM      5  C   LIG d   1      -6.100  76.119 116.181  0.00  0.00    -0.047 C 
ATOM      6  C   LIG d   1      -5.349  74.818 116.546  0.00  0.00     0.091 C 
ENDROOT
BRANCH   1   7
ATOM      7  O   LIG d   1      -3.107  73.833 116.643  0.00  0.00    -0.368 OA
BRANCH   7   8
ATOM      8  C   LIG d   1      -2.136  74.374 117.572  0.00  0.00     0.119 C 
BRANCH   8   9
ATOM      9  C   LIG d   1      -0.828  73.582 117.388  0.00  0.00     0.028 C 
ATOM     10  C   LIG d   1      -0.499  73.328 115.907  0.00  0.00     0.006 C 
ENDBRANCH   8   9
BRANCH   8  11
ATOM     11  C   LIG d   1      -2.557  74.130 119.024  0.00  0.00     0.028 C 
ATOM     12  C   LIG d   1      -3.265  75.341 119.652  0.00  0.00     0.006 C 
ENDBRANCH   8  11
ENDBRANCH   7   8
ENDBRANCH   1   7
BRANCH   6  13
ATOM     13  N   LIG d   1      -6.057  73.602 116.068  0.00  0.00    -0.311 N 
ATOM     14  C   LIG d   1      -6.900  72.900 116.823  0.00  0.00     0.210 C 
ATOM     15  C   LIG d   1      -7.506  71.669 116.142  0.00  0.00     0.109 C 
ATOM     16  O   LIG d   1      -7.228  73.198 117.981  0.00  0.00    -0.276 OA
ATOM     17  H   LIG d   1      -5.873  73.307 115.129  0.00  0.00     0.149 HD
ENDBRANCH   6  13
BRANCH   5  18
ATOM     18  N   LIG d   1      -7.419  76.228 116.831  0.00  0.00     0.381 N 
ATOM     19  H   LIG d   1      -7.340  76.769 117.669  0.00  0.00    -0.090 HD
ATOM     20  H   LIG d   1      -7.736  75.307 117.079  0.00  0.00    -0.090 HD
ATOM     21  H   LIG d   1      -8.071  76.656 116.211  0.00  0.00    -0.090 HD
ENDBRANCH   5  18
BRANCH   3  22
ATOM     22  C   LIG d   1      -3.277  78.464 115.947  0.00  0.00     0.382 C 
ATOM     23  O   LIG d   1      -2.055  78.460 115.661  0.00  0.00    -0.241 OA
ATOM     24  O   LIG d   1      -3.877  79.549 116.062  0.00  0.00    -0.241 OA
ENDBRANCH   3  22
TORSDOF 7
ENDMDL
MODEL 9
REMARK VINA RESULT:      -4.4     19.135     21.539
REMARK  7 active torsions:
REMARK  status: ('A' for Active; 'I' for Inactive)
REMARK    1  A    between atoms: C_2  and  C_3 
REMARK    2  A    between atoms: C_3  and  O_6 
REMARK    3  A    between atoms: C_3  and  C_4 
REMARK    4  A    between atoms: C_7  and  O_6 
REMARK    5  A    between atoms: C_9  and  C_10 
REMARK    6  A    between atoms: N_15  and  C_14 
REMARK    7  A    between atoms: N_20  and  C_19 
REMARK       I    between atoms: C_22  and  N_20 
ROOT
ATOM      1  C   LIG d   1      -6.780  77.114 117.031  0.00  0.00     0.161 C 
ATOM      2  C   LIG d   1      -8.025  76.470 116.937  0.00  0.00     0.016 C 
ATOM      3  C   LIG d   1      -9.207  76.970 117.530  0.00  0.00     0.038 C 
ATOM      4  C   LIG d   1      -9.256  78.235 118.133  0.00  0.00     0.028 C 
ATOM      5  C   LIG d   1      -7.912  78.692 118.692  0.00  0.00    -0.047 C 
ATOM      6  C   LIG d   1      -6.837  78.551 117.591  0.00  0.00     0.091 C 
ENDROOT
BRANCH   1   7
ATOM      7  O   LIG d   1      -6.125  77.102 115.748  0.00  0.00    -0.368 OA
BRANCH   7   8
ATOM      8  C   LIG d   1      -4.936  76.281 115.647  0.00  0.00     0.119 C 
BRANCH   8   9
ATOM      9  C   LIG d   1      -5.247  75.133 114.667  0.00  0.00     0.028 C 
ATOM     10  C   LIG d   1      -5.808  73.890 115.378  0.00  0.00     0.006 C 
ENDBRANCH   8   9
BRANCH   8  11
ATOM     11  C   LIG d   1      -4.614  75.599 116.980  0.00  0.00     0.028 C 
ATOM     12  C   LIG d   1      -3.241  76.003 117.539  0.00  0.00     0.006 C 
ENDBRANCH   8  11
ENDBRANCH   7   8
ENDBRANCH   1   7
BRANCH   6  13
ATOM     13  N   LIG d   1      -5.476  78.897 118.080  0.00  0.00    -0.311 N 
ATOM     14  C   LIG d   1      -4.680  79.774 117.471  0.00  0.00     0.210 C 
ATOM     15  C   LIG d   1      -3.310  79.969 118.129  0.00  0.00     0.109 C 
ATOM     16  O   LIG d   1      -4.989  80.432 116.466  0.00  0.00    -0.276 OA
ATOM     17  H   LIG d   1      -5.157  78.432 118.907  0.00  0.00     0.149 HD
ENDBRANCH   6  13
BRANCH   5  18
ATOM     18  N   LIG d   1      -8.075  80.079 119.167  0.00  0.00     0.381 N 
ATOM     19  H   LIG d   1      -7.302  80.330 119.750  0.00  0.00    -0.090 HD
ATOM     20  H   LIG d   1      -8.916  80.138 119.715  0.00  0.00    -0.090 HD
ATOM     21  H   LIG d   1      -8.131  80.701 118.391  0.00  0.00    -0.090 HD
ENDBRANCH   5  18
BRANCH   3  22
ATOM     22  C   LIG d   1     -10.348  76.183 117.556  0.00  0.00     0.382 C 
ATOM     23  O   LIG d   1     -11.465  76.706 117.786  0.00  0.00    -0.241 OA
ATOM     24  O   LIG d   1     -10.270  74.950 117.398  0.00  0.00    -0.241 OA
ENDBRANCH   3  22
TORSDOF 7
ENDMDL
