MODEL 1
REMARK VINA RESULT:      -5.4      0.000      0.000
REMARK  7 active torsions:
REMARK  status: ('A' for Active; 'I' for Inactive)
REMARK    1  A    between atoms: C_2  and  C_3 
REMARK    2  A    between atoms: C_3  and  O_6 
REMARK    3  A    between atoms: C_3  and  C_4 
REMARK    4  A    between atoms: C_7  and  O_6 
REMARK    5  A    between atoms: C_9  and  C_10 
REMARK    6  A    between atoms: N_15  and  C_14 
REMARK    7  A    between atoms: N_20  and  C_19 
REMARK       I    between atoms: C_22  and  N_20 
ROOT
ATOM      1  C   LIG d   1      -6.165  77.734 117.078  0.00  0.00     0.161 C 
ATOM      2  C   LIG d   1      -7.533  77.637 117.386  0.00  0.00     0.016 C 
ATOM      3  C   LIG d   1      -8.275  78.688 117.973  0.00  0.00     0.038 C 
ATOM      4  C   LIG d   1      -7.731  79.968 118.155  0.00  0.00     0.028 C 
ATOM      5  C   LIG d   1      -6.216  79.964 118.326  0.00  0.00    -0.047 C 
ATOM      6  C   LIG d   1      -5.582  79.160 117.167  0.00  0.00     0.091 C 
ENDROOT
BRANCH   1   7
ATOM      7  O   LIG d   1      -5.916  77.172 115.775  0.00  0.00    -0.368 OA
BRANCH   7   8
ATOM      8  C   LIG d   1      -5.245  75.888 115.752  0.00  0.00     0.119 C 
BRANCH   8   9
ATOM      9  C   LIG d   1      -3.910  76.077 115.007  0.00  0.00     0.028 C 
ATOM     10  C   LIG d   1      -2.714  75.513 115.792  0.00  0.00     0.006 C 
ENDBRANCH   8   9
BRANCH   8  11
ATOM     11  C   LIG d   1      -6.029  74.864 114.927  0.00  0.00     0.028 C 
ATOM     12  C   LIG d   1      -6.199  73.519 115.652  0.00  0.00     0.006 C 
ENDBRANCH   8  11
ENDBRANCH   7   8
ENDBRANCH   1   7
BRANCH   6  13
ATOM     13  N   LIG d   1      -4.108  79.035 117.304  0.00  0.00    -0.311 N 
ATOM     14  C   LIG d   1      -3.254  79.315 116.320  0.00  0.00     0.210 C 
ATOM     15  C   LIG d   1      -1.777  79.099 116.665  0.00  0.00     0.109 C 
ATOM     16  O   LIG d   1      -3.578  79.751 115.205  0.00  0.00    -0.276 OA
ATOM     17  H   LIG d   1      -3.756  78.717 118.186  0.00  0.00     0.149 HD
ENDBRANCH   6  13
BRANCH   5  18
ATOM     18  N   LIG d   1      -5.768  81.369 118.368  0.00  0.00     0.381 N 
ATOM     19  H   LIG d   1      -4.860  81.447 117.955  0.00  0.00    -0.090 HD
ATOM     20  H   LIG d   1      -5.705  81.661 119.327  0.00  0.00    -0.090 HD
ATOM     21  H   LIG d   1      -6.414  81.947 117.878  0.00  0.00    -0.090 HD
ENDBRANCH   5  18
BRANCH   3  22
ATOM     22  C   LIG d   1      -9.565  78.450 118.422  0.00  0.00     0.382 C 
ATOM     23  O   LIG d   1     -10.107  77.339 118.211  0.00  0.00    -0.241 OA
ATOM     24  O   LIG d   1     -10.210  79.348 118.996  0.00  0.00    -0.241 OA
ENDBRANCH   3  22
TORSDOF 7
ENDMDL
MODEL 2
REMARK VINA RESULT:      -5.4      0.885      1.794
REMARK  7 active torsions:
REMARK  status: ('A' for Active; 'I' for Inactive)
REMARK    1  A    between atoms: C_2  and  C_3 
REMARK    2  A    between atoms: C_3  and  O_6 
REMARK    3  A    between atoms: C_3  and  C_4 
REMARK    4  A    between atoms: C_7  and  O_6 
REMARK    5  A    between atoms: C_9  and  C_10 
REMARK    6  A    between atoms: N_15  and  C_14 
REMARK    7  A    between atoms: N_20  and  C_19 
REMARK       I    between atoms: C_22  and  N_20 
ROOT
ATOM      1  C   LIG d   1      -5.771  77.219 116.692  0.00  0.00     0.161 C 
ATOM      2  C   LIG d   1      -7.078  76.863 117.063  0.00  0.00     0.016 C 
ATOM      3  C   LIG d   1      -7.858  77.609 117.976  0.00  0.00     0.038 C 
ATOM      4  C   LIG d   1      -7.436  78.853 118.468  0.00  0.00     0.028 C 
ATOM      5  C   LIG d   1      -5.919  79.003 118.515  0.00  0.00    -0.047 C 
ATOM      6  C   LIG d   1      -5.335  78.632 117.132  0.00  0.00     0.091 C 
ENDROOT
BRANCH   1   7
ATOM      7  O   LIG d   1      -5.608  77.066 115.268  0.00  0.00    -0.368 OA
BRANCH   7   8
ATOM      8  C   LIG d   1      -4.697  76.024 114.839  0.00  0.00     0.119 C 
BRANCH   8   9
ATOM      9  C   LIG d   1      -5.547  74.865 114.284  0.00  0.00     0.028 C 
ATOM     10  C   LIG d   1      -5.830  73.786 115.342  0.00  0.00     0.006 C 
ENDBRANCH   8   9
BRANCH   8  11
ATOM     11  C   LIG d   1      -3.929  75.433 116.024  0.00  0.00     0.028 C 
ATOM     12  C   LIG d   1      -2.409  75.411 115.798  0.00  0.00     0.006 C 
ENDBRANCH   8  11
ENDBRANCH   7   8
ENDBRANCH   1   7
BRANCH   6  13
ATOM     13  N   LIG d   1      -3.850  78.670 117.116  0.00  0.00    -0.311 N 
ATOM     14  C   LIG d   1      -3.142  79.210 116.125  0.00  0.00     0.210 C 
ATOM     15  C   LIG d   1      -1.622  79.126 116.297  0.00  0.00     0.109 C 
ATOM     16  O   LIG d   1      -3.628  79.778 115.136  0.00  0.00    -0.276 OA
ATOM     17  H   LIG d   1      -3.374  78.259 117.895  0.00  0.00     0.149 HD
ENDBRANCH   6  13
BRANCH   5  18
ATOM     18  N   LIG d   1      -5.621  80.391 118.915  0.00  0.00     0.381 N 
ATOM     19  H   LIG d   1      -6.274  80.691 119.611  0.00  0.00    -0.090 HD
ATOM     20  H   LIG d   1      -5.718  80.989 118.113  0.00  0.00    -0.090 HD
ATOM     21  H   LIG d   1      -4.693  80.451 119.272  0.00  0.00    -0.090 HD
ENDBRANCH   5  18
BRANCH   3  22
ATOM     22  C   LIG d   1      -9.059  77.092 118.437  0.00  0.00     0.382 C 
ATOM     23  O   LIG d   1     -10.142  77.641 118.119  0.00  0.00    -0.241 OA
ATOM     24  O   LIG d   1      -9.071  76.110 119.203  0.00  0.00    -0.241 OA
ENDBRANCH   3  22
TORSDOF 7
ENDMDL
MODEL 3
REMARK VINA RESULT:      -5.3     13.080     14.961
REMARK  7 active torsions:
REMARK  status: ('A' for Active; 'I' for Inactive)
REMARK    1  A    between atoms: C_2  and  C_3 
REMARK    2  A    between atoms: C_3  and  O_6 
REMARK    3  A    between atoms: C_3  and  C_4 
REMARK    4  A    between atoms: C_7  and  O_6 
REMARK    5  A    between atoms: C_9  and  C_10 
REMARK    6  A    between atoms: N_15  and  C_14 
REMARK    7  A    between atoms: N_20  and  C_19 
REMARK       I    between atoms: C_22  and  N_20 
ROOT
ATOM      1  C   LIG d   1      -5.669  92.453 117.422  0.00  0.00     0.161 C 
ATOM      2  C   LIG d   1      -6.708  93.387 117.571  0.00  0.00     0.016 C 
ATOM      3  C   LIG d   1      -6.635  94.502 118.437  0.00  0.00     0.038 C 
ATOM      4  C   LIG d   1      -5.449  94.845 119.105  0.00  0.00     0.028 C 
ATOM      5  C   LIG d   1      -4.540  93.652 119.376  0.00  0.00    -0.047 C 
ATOM      6  C   LIG d   1      -4.327  92.873 118.058  0.00  0.00     0.091 C 
ENDROOT
BRANCH   1   7
ATOM      7  O   LIG d   1      -5.487  92.143 116.026  0.00  0.00    -0.368 OA
BRANCH   7   8
ATOM      8  C   LIG d   1      -5.694  90.760 115.648  0.00  0.00     0.119 C 
BRANCH   8   9
ATOM      9  C   LIG d   1      -6.640  90.749 114.432  0.00  0.00     0.028 C 
ATOM     10  C   LIG d   1      -7.024  92.166 113.974  0.00  0.00     0.006 C 
ENDBRANCH   8   9
BRANCH   8  11
ATOM     11  C   LIG d   1      -6.434  89.988 116.744  0.00  0.00     0.028 C 
ATOM     12  C   LIG d   1      -7.858  89.583 116.330  0.00  0.00     0.006 C 
ENDBRANCH   8  11
ENDBRANCH   7   8
ENDBRANCH   1   7
BRANCH   6  13
ATOM     13  N   LIG d   1      -3.517  91.642 118.251  0.00  0.00    -0.311 N 
ATOM     14  C   LIG d   1      -2.195  91.602 118.093  0.00  0.00     0.210 C 
ATOM     15  C   LIG d   1      -1.558  90.228 118.322  0.00  0.00     0.109 C 
ATOM     16  O   LIG d   1      -1.486  92.582 117.818  0.00  0.00    -0.276 OA
ATOM     17  H   LIG d   1      -4.008  90.808 118.506  0.00  0.00     0.149 HD
ENDBRANCH   6  13
BRANCH   5  18
ATOM     18  N   LIG d   1      -3.284  94.170 119.950  0.00  0.00     0.381 N 
ATOM     19  H   LIG d   1      -2.571  93.470 119.893  0.00  0.00    -0.090 HD
ATOM     20  H   LIG d   1      -3.435  94.389 120.919  0.00  0.00    -0.090 HD
ATOM     21  H   LIG d   1      -2.996  94.987 119.458  0.00  0.00    -0.090 HD
ENDBRANCH   5  18
BRANCH   3  22
ATOM     22  C   LIG d   1      -7.768  95.265 118.674  0.00  0.00     0.382 C 
ATOM     23  O   LIG d   1      -7.725  96.214 119.493  0.00  0.00    -0.241 OA
ATOM     24  O   LIG d   1      -8.844  94.988 118.111  0.00  0.00    -0.241 OA
ENDBRANCH   3  22
TORSDOF 7
ENDMDL
MODEL 4
REMARK VINA RESULT:      -5.2      2.430      3.633
REMARK  7 active torsions:
REMARK  status: ('A' for Active; 'I' for Inactive)
REMARK    1  A    between atoms: C_2  and  C_3 
REMARK    2  A    between atoms: C_3  and  O_6 
REMARK    3  A    between atoms: C_3  and  C_4 
REMARK    4  A    between atoms: C_7  and  O_6 
REMARK    5  A    between atoms: C_9  and  C_10 
REMARK    6  A    between atoms: N_15  and  C_14 
REMARK    7  A    between atoms: N_20  and  C_19 
REMARK       I    between atoms: C_22  and  N_20 
ROOT
ATOM      1  C   LIG d   1      -5.464  77.309 116.882  0.00  0.00     0.161 C 
ATOM      2  C   LIG d   1      -6.102  78.538 117.116  0.00  0.00     0.016 C 
ATOM      3  C   LIG d   1      -5.416  79.773 117.173  0.00  0.00     0.038 C 
ATOM      4  C   LIG d   1      -4.055  79.881 116.849  0.00  0.00     0.028 C 
ATOM      5  C   LIG d   1      -3.269  78.599 117.101  0.00  0.00    -0.047 C 
ATOM      6  C   LIG d   1      -3.997  77.420 116.415  0.00  0.00     0.091 C 
ENDROOT
BRANCH   1   7
ATOM      7  O   LIG d   1      -6.231  76.531 115.942  0.00  0.00    -0.368 OA
BRANCH   7   8
ATOM      8  C   LIG d   1      -6.932  75.385 116.485  0.00  0.00     0.119 C 
BRANCH   8   9
ATOM      9  C   LIG d   1      -6.539  74.159 115.638  0.00  0.00     0.028 C 
ATOM     10  C   LIG d   1      -5.611  74.526 114.468  0.00  0.00     0.006 C 
ENDBRANCH   8   9
BRANCH   8  11
ATOM     11  C   LIG d   1      -8.447  75.527 116.314  0.00  0.00     0.028 C 
ATOM     12  C   LIG d   1      -9.092  76.389 117.411  0.00  0.00     0.006 C 
ENDBRANCH   8  11
ENDBRANCH   7   8
ENDBRANCH   1   7
BRANCH   6  13
ATOM     13  N   LIG d   1      -3.340  76.115 116.683  0.00  0.00    -0.311 N 
ATOM     14  C   LIG d   1      -2.468  75.548 115.850  0.00  0.00     0.210 C 
ATOM     15  C   LIG d   1      -1.923  74.192 116.308  0.00  0.00     0.109 C 
ATOM     16  O   LIG d   1      -2.070  76.055 114.790  0.00  0.00    -0.276 OA
ATOM     17  H   LIG d   1      -3.581  75.648 117.535  0.00  0.00     0.149 HD
ENDBRANCH   6  13
BRANCH   5  18
ATOM     18  N   LIG d   1      -1.900  78.808 116.591  0.00  0.00     0.381 N 
ATOM     19  H   LIG d   1      -1.937  79.179 115.663  0.00  0.00    -0.090 HD
ATOM     20  H   LIG d   1      -1.427  77.922 116.558  0.00  0.00    -0.090 HD
ATOM     21  H   LIG d   1      -1.406  79.434 117.188  0.00  0.00    -0.090 HD
ENDBRANCH   5  18
BRANCH   3  22
ATOM     22  C   LIG d   1      -6.084  80.911 117.598  0.00  0.00     0.382 C 
ATOM     23  O   LIG d   1      -5.800  81.428 118.706  0.00  0.00    -0.241 OA
ATOM     24  O   LIG d   1      -6.997  81.403 116.908  0.00  0.00    -0.241 OA
ENDBRANCH   3  22
TORSDOF 7
ENDMDL
MODEL 5
REMARK VINA RESULT:      -5.2     12.355     15.152
REMARK  7 active torsions:
REMARK  status: ('A' for Active; 'I' for Inactive)
REMARK    1  A    between atoms: C_2  and  C_3 
REMARK    2  A    between atoms: C_3  and  O_6 
REMARK    3  A    between atoms: C_3  and  C_4 
REMARK    4  A    between atoms: C_7  and  O_6 
REMARK    5  A    between atoms: C_9  and  C_10 
REMARK    6  A    between atoms: N_15  and  C_14 
REMARK    7  A    between atoms: N_20  and  C_19 
REMARK       I    between atoms: C_22  and  N_20 
ROOT
ATOM      1  C   LIG d   1      -5.552  91.778 118.250  0.00  0.00     0.161 C 
ATOM      2  C   LIG d   1      -4.517  91.297 119.070  0.00  0.00     0.016 C 
ATOM      3  C   LIG d   1      -3.583  90.321 118.653  0.00  0.00     0.038 C 
ATOM      4  C   LIG d   1      -3.528  89.867 117.327  0.00  0.00     0.028 C 
ATOM      5  C   LIG d   1      -4.867  89.950 116.602  0.00  0.00    -0.047 C 
ATOM      6  C   LIG d   1      -5.439  91.376 116.765  0.00  0.00     0.091 C 
ENDROOT
BRANCH   1   7
ATOM      7  O   LIG d   1      -5.649  93.211 118.376  0.00  0.00    -0.368 OA
BRANCH   7   8
ATOM      8  C   LIG d   1      -6.769  93.708 119.149  0.00  0.00     0.119 C 
BRANCH   8   9
ATOM      9  C   LIG d   1      -7.409  94.858 118.348  0.00  0.00     0.028 C 
ATOM     10  C   LIG d   1      -8.646  95.444 119.049  0.00  0.00     0.006 C 
ENDBRANCH   8   9
BRANCH   8  11
ATOM     11  C   LIG d   1      -6.302  94.341 120.463  0.00  0.00     0.028 C 
ATOM     12  C   LIG d   1      -4.864  94.880 120.387  0.00  0.00     0.006 C 
ENDBRANCH   8  11
ENDBRANCH   7   8
ENDBRANCH   1   7
BRANCH   6  13
ATOM     13  N   LIG d   1      -6.787  91.519 116.156  0.00  0.00    -0.311 N 
ATOM     14  C   LIG d   1      -6.989  91.959 114.915  0.00  0.00     0.210 C 
ATOM     15  C   LIG d   1      -8.458  92.049 114.492  0.00  0.00     0.109 C 
ATOM     16  O   LIG d   1      -6.089  92.252 114.114  0.00  0.00    -0.276 OA
ATOM     17  H   LIG d   1      -7.573  91.274 116.726  0.00  0.00     0.149 HD
ENDBRANCH   6  13
BRANCH   5  18
ATOM     18  N   LIG d   1      -4.635  89.577 115.194  0.00  0.00     0.381 N 
ATOM     19  H   LIG d   1      -5.454  89.770 114.653  0.00  0.00    -0.090 HD
ATOM     20  H   LIG d   1      -4.450  88.590 115.145  0.00  0.00    -0.090 HD
ATOM     21  H   LIG d   1      -3.860  90.086 114.830  0.00  0.00    -0.090 HD
ENDBRANCH   5  18
BRANCH   3  22
ATOM     22  C   LIG d   1      -2.717  89.760 119.579  0.00  0.00     0.382 C 
ATOM     23  O   LIG d   1      -1.806  90.456 120.088  0.00  0.00    -0.241 OA
ATOM     24  O   LIG d   1      -2.807  88.554 119.877  0.00  0.00    -0.241 OA
ENDBRANCH   3  22
TORSDOF 7
ENDMDL
MODEL 6
REMARK VINA RESULT:      -5.0     18.761     21.218
REMARK  7 active torsions:
REMARK  status: ('A' for Active; 'I' for Inactive)
REMARK    1  A    between atoms: C_2  and  C_3 
REMARK    2  A    between atoms: C_3  and  O_6 
REMARK    3  A    between atoms: C_3  and  C_4 
REMARK    4  A    between atoms: C_7  and  O_6 
REMARK    5  A    between atoms: C_9  and  C_10 
REMARK    6  A    between atoms: N_15  and  C_14 
REMARK    7  A    between atoms: N_20  and  C_19 
REMARK       I    between atoms: C_22  and  N_20 
ROOT
ATOM      1  C   LIG d   1      -1.349  58.108 119.662  0.00  0.00     0.161 C 
ATOM      2  C   LIG d   1      -2.669  58.447 119.318  0.00  0.00     0.016 C 
ATOM      3  C   LIG d   1      -3.030  58.996 118.067  0.00  0.00     0.038 C 
ATOM      4  C   LIG d   1      -2.112  59.105 117.012  0.00  0.00     0.028 C 
ATOM      5  C   LIG d   1      -0.667  59.246 117.478  0.00  0.00    -0.047 C 
ATOM      6  C   LIG d   1      -0.352  58.116 118.485  0.00  0.00     0.091 C 
ENDROOT
BRANCH   1   7
ATOM      7  O   LIG d   1      -1.330  56.829 120.327  0.00  0.00    -0.368 OA
BRANCH   7   8
ATOM      8  C   LIG d   1      -1.370  55.664 119.467  0.00  0.00     0.119 C 
BRANCH   8   9
ATOM      9  C   LIG d   1      -2.666  54.895 119.790  0.00  0.00     0.028 C 
ATOM     10  C   LIG d   1      -3.687  54.956 118.642  0.00  0.00     0.006 C 
ENDBRANCH   8   9
BRANCH   8  11
ATOM     11  C   LIG d   1      -0.231  54.693 119.791  0.00  0.00     0.028 C 
ATOM     12  C   LIG d   1       0.386  54.058 118.534  0.00  0.00     0.006 C 
ENDBRANCH   8  11
ENDBRANCH   7   8
ENDBRANCH   1   7
BRANCH   6  13
ATOM     13  N   LIG d   1       1.016  58.230 119.055  0.00  0.00    -0.311 N 
ATOM     14  C   LIG d   1       2.084  57.637 118.522  0.00  0.00     0.210 C 
ATOM     15  C   LIG d   1       3.395  57.868 119.279  0.00  0.00     0.109 C 
ATOM     16  O   LIG d   1       2.074  56.969 117.477  0.00  0.00    -0.276 OA
ATOM     17  H   LIG d   1       1.120  58.779 119.885  0.00  0.00     0.149 HD
ENDBRANCH   6  13
BRANCH   5  18
ATOM     18  N   LIG d   1       0.193  59.210 116.280  0.00  0.00     0.381 N 
ATOM     19  H   LIG d   1       0.250  60.124 115.877  0.00  0.00    -0.090 HD
ATOM     20  H   LIG d   1      -0.217  58.591 115.604  0.00  0.00    -0.090 HD
ATOM     21  H   LIG d   1       1.105  58.890 116.525  0.00  0.00    -0.090 HD
ENDBRANCH   5  18
BRANCH   3  22
ATOM     22  C   LIG d   1      -4.315  59.481 117.874  0.00  0.00     0.382 C 
ATOM     23  O   LIG d   1      -4.533  60.715 117.925  0.00  0.00    -0.241 OA
ATOM     24  O   LIG d   1      -5.266  58.697 117.695  0.00  0.00    -0.241 OA
ENDBRANCH   3  22
TORSDOF 7
ENDMDL
MODEL 7
REMARK VINA RESULT:      -4.8     11.282     13.187
REMARK  7 active torsions:
REMARK  status: ('A' for Active; 'I' for Inactive)
REMARK    1  A    between atoms: C_2  and  C_3 
REMARK    2  A    between atoms: C_3  and  O_6 
REMARK    3  A    between atoms: C_3  and  C_4 
REMARK    4  A    between atoms: C_7  and  O_6 
REMARK    5  A    between atoms: C_9  and  C_10 
REMARK    6  A    between atoms: N_15  and  C_14 
REMARK    7  A    between atoms: N_20  and  C_19 
REMARK       I    between atoms: C_22  and  N_20 
ROOT
ATOM      1  C   LIG d   1      -2.398  90.136 118.541  0.00  0.00     0.161 C 
ATOM      2  C   LIG d   1      -3.768  90.038 118.243  0.00  0.00     0.016 C 
ATOM      3  C   LIG d   1      -4.519  91.095 117.680  0.00  0.00     0.038 C 
ATOM      4  C   LIG d   1      -3.914  92.279 117.234  0.00  0.00     0.028 C 
ATOM      5  C   LIG d   1      -2.625  92.618 117.976  0.00  0.00    -0.047 C 
ATOM      6  C   LIG d   1      -1.698  91.381 117.959  0.00  0.00     0.091 C 
ENDROOT
BRANCH   1   7
ATOM      7  O   LIG d   1      -1.720  88.936 118.119  0.00  0.00    -0.368 OA
BRANCH   7   8
ATOM      8  C   LIG d   1      -0.873  88.302 119.109  0.00  0.00     0.119 C 
BRANCH   8   9
ATOM      9  C   LIG d   1       0.299  87.640 118.360  0.00  0.00     0.028 C 
ATOM     10  C   LIG d   1       0.440  88.155 116.917  0.00  0.00     0.006 C 
ENDBRANCH   8   9
BRANCH   8  11
ATOM     11  C   LIG d   1      -1.603  87.155 119.814  0.00  0.00     0.028 C 
ATOM     12  C   LIG d   1      -0.800  85.844 119.808  0.00  0.00     0.006 C 
ENDBRANCH   8  11
ENDBRANCH   7   8
ENDBRANCH   1   7
BRANCH   6  13
ATOM     13  N   LIG d   1      -0.449  91.599 118.735  0.00  0.00    -0.311 N 
ATOM     14  C   LIG d   1       0.753  91.717 118.173  0.00  0.00     0.210 C 
ATOM     15  C   LIG d   1       1.910  91.916 119.157  0.00  0.00     0.109 C 
ATOM     16  O   LIG d   1       0.966  91.708 116.952  0.00  0.00    -0.276 OA
ATOM     17  H   LIG d   1      -0.535  91.650 119.731  0.00  0.00     0.149 HD
ENDBRANCH   6  13
BRANCH   5  18
ATOM     18  N   LIG d   1      -2.030  93.797 117.319  0.00  0.00     0.381 N 
ATOM     19  H   LIG d   1      -2.520  94.623 117.597  0.00  0.00    -0.090 HD
ATOM     20  H   LIG d   1      -2.121  93.695 116.324  0.00  0.00    -0.090 HD
ATOM     21  H   LIG d   1      -1.067  93.874 117.566  0.00  0.00    -0.090 HD
ENDBRANCH   5  18
BRANCH   3  22
ATOM     22  C   LIG d   1      -5.899  90.988 117.595  0.00  0.00     0.382 C 
ATOM     23  O   LIG d   1      -6.625  91.951 117.941  0.00  0.00    -0.241 OA
ATOM     24  O   LIG d   1      -6.428  89.925 117.219  0.00  0.00    -0.241 OA
ENDBRANCH   3  22
TORSDOF 7
ENDMDL
MODEL 8
REMARK VINA RESULT:      -4.8     12.807     15.627
REMARK  7 active torsions:
REMARK  status: ('A' for Active; 'I' for Inactive)
REMARK    1  A    between atoms: C_2  and  C_3 
REMARK    2  A    between atoms: C_3  and  O_6 
REMARK    3  A    between atoms: C_3  and  C_4 
REMARK    4  A    between atoms: C_7  and  O_6 
REMARK    5  A    between atoms: C_9  and  C_10 
REMARK    6  A    between atoms: N_15  and  C_14 
REMARK    7  A    between atoms: N_20  and  C_19 
REMARK       I    between atoms: C_22  and  N_20 
ROOT
ATOM      1  C   LIG d   1      -5.706  91.835 119.218  0.00  0.00     0.161 C 
ATOM      2  C   LIG d   1      -4.504  92.315 119.765  0.00  0.00     0.016 C 
ATOM      3  C   LIG d   1      -3.247  92.155 119.139  0.00  0.00     0.038 C 
ATOM      4  C   LIG d   1      -3.124  91.634 117.843  0.00  0.00     0.028 C 
ATOM      5  C   LIG d   1      -4.251  90.678 117.465  0.00  0.00    -0.047 C 
ATOM      6  C   LIG d   1      -5.607  91.363 117.752  0.00  0.00     0.091 C 
ENDROOT
BRANCH   1   7
ATOM      7  O   LIG d   1      -6.737  92.833 119.354  0.00  0.00    -0.368 OA
BRANCH   7   8
ATOM      8  C   LIG d   1      -6.431  94.143 118.814  0.00  0.00     0.119 C 
BRANCH   8   9
ATOM      9  C   LIG d   1      -6.240  95.101 120.006  0.00  0.00     0.028 C 
ATOM     10  C   LIG d   1      -4.978  95.968 119.864  0.00  0.00     0.006 C 
ENDBRANCH   8   9
BRANCH   8  11
ATOM     11  C   LIG d   1      -7.614  94.710 118.024  0.00  0.00     0.028 C 
ATOM     12  C   LIG d   1      -8.643  95.421 118.919  0.00  0.00     0.006 C 
ENDBRANCH   8  11
ENDBRANCH   7   8
ENDBRANCH   1   7
BRANCH   6  13
ATOM     13  N   LIG d   1      -6.762  90.465 117.490  0.00  0.00    -0.311 N 
ATOM     14  C   LIG d   1      -7.355  90.362 116.301  0.00  0.00     0.210 C 
ATOM     15  C   LIG d   1      -8.541  89.393 116.253  0.00  0.00     0.109 C 
ATOM     16  O   LIG d   1      -6.990  90.955 115.275  0.00  0.00    -0.276 OA
ATOM     17  H   LIG d   1      -7.103  89.923 118.260  0.00  0.00     0.149 HD
ENDBRANCH   6  13
BRANCH   5  18
ATOM     18  N   LIG d   1      -4.074  90.319 116.045  0.00  0.00     0.381 N 
ATOM     19  H   LIG d   1      -4.275  91.111 115.468  0.00  0.00    -0.090 HD
ATOM     20  H   LIG d   1      -4.721  89.587 115.812  0.00  0.00    -0.090 HD
ATOM     21  H   LIG d   1      -3.140  90.011 115.886  0.00  0.00    -0.090 HD
ENDBRANCH   5  18
BRANCH   3  22
ATOM     22  C   LIG d   1      -2.089  92.482 119.830  0.00  0.00     0.382 C 
ATOM     23  O   LIG d   1      -1.704  93.675 119.878  0.00  0.00    -0.241 OA
ATOM     24  O   LIG d   1      -1.402  91.594 120.367  0.00  0.00    -0.241 OA
ENDBRANCH   3  22
TORSDOF 7
ENDMDL
MODEL 9
REMARK VINA RESULT:      -4.7      3.971      6.513
REMARK  7 active torsions:
REMARK  status: ('A' for Active; 'I' for Inactive)
REMARK    1  A    between atoms: C_2  and  C_3 
REMARK    2  A    between atoms: C_3  and  O_6 
REMARK    3  A    between atoms: C_3  and  C_4 
REMARK    4  A    between atoms: C_7  and  O_6 
REMARK    5  A    between atoms: C_9  and  C_10 
REMARK    6  A    between atoms: N_15  and  C_14 
REMARK    7  A    between atoms: N_20  and  C_19 
REMARK       I    between atoms: C_22  and  N_20 
ROOT
ATOM      1  C   LIG d   1      -1.789  77.120 114.794  0.00  0.00     0.161 C 
ATOM      2  C   LIG d   1      -0.610  77.776 115.185  0.00  0.00     0.016 C 
ATOM      3  C   LIG d   1      -0.492  78.516 116.384  0.00  0.00     0.038 C 
ATOM      4  C   LIG d   1      -1.506  78.525 117.353  0.00  0.00     0.028 C 
ATOM      5  C   LIG d   1      -2.898  78.294 116.774  0.00  0.00    -0.047 C 
ATOM      6  C   LIG d   1      -2.870  77.026 115.891  0.00  0.00     0.091 C 
ENDROOT
BRANCH   1   7
ATOM      7  O   LIG d   1      -1.473  75.808 114.287  0.00  0.00    -0.368 OA
BRANCH   7   8
ATOM      8  C   LIG d   1      -0.351  75.137 114.912  0.00  0.00     0.119 C 
BRANCH   8   9
ATOM      9  C   LIG d   1       0.411  74.383 113.805  0.00  0.00     0.028 C 
ATOM     10  C   LIG d   1       0.119  72.874 113.814  0.00  0.00     0.006 C 
ENDBRANCH   8   9
BRANCH   8  11
ATOM     11  C   LIG d   1      -0.823  74.055 115.888  0.00  0.00     0.028 C 
ATOM     12  C   LIG d   1      -0.543  74.415 117.356  0.00  0.00     0.006 C 
ENDBRANCH   8  11
ENDBRANCH   7   8
ENDBRANCH   1   7
BRANCH   6  13
ATOM     13  N   LIG d   1      -4.172  76.774 115.218  0.00  0.00    -0.311 N 
ATOM     14  C   LIG d   1      -4.752  75.577 115.169  0.00  0.00     0.210 C 
ATOM     15  C   LIG d   1      -6.082  75.533 114.409  0.00  0.00     0.109 C 
ATOM     16  O   LIG d   1      -4.308  74.553 115.710  0.00  0.00    -0.276 OA
ATOM     17  H   LIG d   1      -4.617  77.557 114.780  0.00  0.00     0.149 HD
ENDBRANCH   6  13
BRANCH   5  18
ATOM     18  N   LIG d   1      -3.839  78.190 117.906  0.00  0.00     0.381 N 
ATOM     19  H   LIG d   1      -4.637  78.770 117.737  0.00  0.00    -0.090 HD
ATOM     20  H   LIG d   1      -3.383  78.515 118.739  0.00  0.00    -0.090 HD
ATOM     21  H   LIG d   1      -4.127  77.243 118.024  0.00  0.00    -0.090 HD
ENDBRANCH   5  18
BRANCH   3  22
ATOM     22  C   LIG d   1       0.636  79.291 116.605  0.00  0.00     0.382 C 
ATOM     23  O   LIG d   1       1.598  78.825 117.262  0.00  0.00    -0.241 OA
ATOM     24  O   LIG d   1       0.686  80.466 116.194  0.00  0.00    -0.241 OA
ENDBRANCH   3  22
TORSDOF 7
ENDMDL
