MODEL 1
REMARK VINA RESULT:      -6.5      0.000      0.000
REMARK  7 active torsions:
REMARK  status: ('A' for Active; 'I' for Inactive)
REMARK    1  A    between atoms: C_2  and  C_3 
REMARK    2  A    between atoms: C_3  and  O_6 
REMARK    3  A    between atoms: C_3  and  C_4 
REMARK    4  A    between atoms: C_7  and  O_6 
REMARK    5  A    between atoms: C_9  and  C_10 
REMARK    6  A    between atoms: N_15  and  C_14 
REMARK    7  A    between atoms: N_20  and  C_19 
REMARK       I    between atoms: C_22  and  N_20 
ROOT
ATOM      1  C   LIG d   1      -8.110  76.194 117.084  0.00  0.00     0.161 C 
ATOM      2  C   LIG d   1      -9.222  76.731 117.754  0.00  0.00     0.016 C 
ATOM      3  C   LIG d   1      -9.240  78.029 118.315  0.00  0.00     0.038 C 
ATOM      4  C   LIG d   1      -8.192  78.939 118.112  0.00  0.00     0.028 C 
ATOM      5  C   LIG d   1      -6.843  78.267 117.874  0.00  0.00    -0.047 C 
ATOM      6  C   LIG d   1      -6.999  77.212 116.755  0.00  0.00     0.091 C 
ENDROOT
BRANCH   1   7
ATOM      7  O   LIG d   1      -8.541  75.519 115.886  0.00  0.00    -0.368 OA
BRANCH   7   8
ATOM      8  C   LIG d   1      -8.525  74.071 115.929  0.00  0.00     0.119 C 
BRANCH   8   9
ATOM      9  C   LIG d   1      -9.783  73.616 116.693  0.00  0.00     0.028 C 
ATOM     10  C   LIG d   1      -9.665  72.173 117.213  0.00  0.00     0.006 C 
ENDBRANCH   8   9
BRANCH   8  11
ATOM     11  C   LIG d   1      -7.341  73.551 116.751  0.00  0.00     0.028 C 
ATOM     12  C   LIG d   1      -6.425  72.614 115.948  0.00  0.00     0.006 C 
ENDBRANCH   8  11
ENDBRANCH   7   8
ENDBRANCH   1   7
BRANCH   6  13
ATOM     13  N   LIG d   1      -5.745  76.449 116.518  0.00  0.00    -0.311 N 
ATOM     14  C   LIG d   1      -5.272  76.177 115.303  0.00  0.00     0.210 C 
ATOM     15  C   LIG d   1      -3.976  75.360 115.283  0.00  0.00     0.109 C 
ATOM     16  O   LIG d   1      -5.785  76.561 114.242  0.00  0.00    -0.276 OA
ATOM     17  H   LIG d   1      -5.248  76.126 117.325  0.00  0.00     0.149 HD
ENDBRANCH   6  13
BRANCH   5  18
ATOM     18  N   LIG d   1      -5.871  79.325 117.541  0.00  0.00     0.381 N 
ATOM     19  H   LIG d   1      -5.622  79.830 118.368  0.00  0.00    -0.090 HD
ATOM     20  H   LIG d   1      -6.298  79.968 116.896  0.00  0.00    -0.090 HD
ATOM     21  H   LIG d   1      -5.057  78.923 117.130  0.00  0.00    -0.090 HD
ENDBRANCH   5  18
BRANCH   3  22
ATOM     22  C   LIG d   1     -10.298  78.413 119.124  0.00  0.00     0.382 C 
ATOM     23  O   LIG d   1     -10.147  79.340 119.956  0.00  0.00    -0.241 OA
ATOM     24  O   LIG d   1     -11.389  77.815 119.063  0.00  0.00    -0.241 OA
ENDBRANCH   3  22
TORSDOF 7
ENDMDL
MODEL 2
REMARK VINA RESULT:      -6.5      1.284      2.024
REMARK  7 active torsions:
REMARK  status: ('A' for Active; 'I' for Inactive)
REMARK    1  A    between atoms: C_2  and  C_3 
REMARK    2  A    between atoms: C_3  and  O_6 
REMARK    3  A    between atoms: C_3  and  C_4 
REMARK    4  A    between atoms: C_7  and  O_6 
REMARK    5  A    between atoms: C_9  and  C_10 
REMARK    6  A    between atoms: N_15  and  C_14 
REMARK    7  A    between atoms: N_20  and  C_19 
REMARK       I    between atoms: C_22  and  N_20 
ROOT
ATOM      1  C   LIG d   1      -7.589  76.662 117.562  0.00  0.00     0.161 C 
ATOM      2  C   LIG d   1      -8.855  77.145 117.933  0.00  0.00     0.016 C 
ATOM      3  C   LIG d   1      -9.109  78.499 118.251  0.00  0.00     0.038 C 
ATOM      4  C   LIG d   1      -8.140  79.497 118.072  0.00  0.00     0.028 C 
ATOM      5  C   LIG d   1      -6.710  78.979 118.184  0.00  0.00    -0.047 C 
ATOM      6  C   LIG d   1      -6.545  77.755 117.254  0.00  0.00     0.091 C 
ENDROOT
BRANCH   1   7
ATOM      7  O   LIG d   1      -7.718  75.762 116.443  0.00  0.00    -0.368 OA
BRANCH   7   8
ATOM      8  C   LIG d   1      -7.814  74.353 116.766  0.00  0.00     0.119 C 
BRANCH   8   9
ATOM      9  C   LIG d   1      -6.847  73.598 115.833  0.00  0.00     0.028 C 
ATOM     10  C   LIG d   1      -6.039  74.547 114.933  0.00  0.00     0.006 C 
ENDBRANCH   8   9
BRANCH   8  11
ATOM     11  C   LIG d   1      -9.205  73.801 116.442  0.00  0.00     0.028 C 
ATOM     12  C   LIG d   1      -9.344  72.306 116.772  0.00  0.00     0.006 C 
ENDBRANCH   8  11
ENDBRANCH   7   8
ENDBRANCH   1   7
BRANCH   6  13
ATOM     13  N   LIG d   1      -5.199  77.135 117.365  0.00  0.00    -0.311 N 
ATOM     14  C   LIG d   1      -4.162  77.494 116.610  0.00  0.00     0.210 C 
ATOM     15  C   LIG d   1      -2.870  76.714 116.874  0.00  0.00     0.109 C 
ATOM     16  O   LIG d   1      -4.181  78.405 115.769  0.00  0.00    -0.276 OA
ATOM     17  H   LIG d   1      -5.086  76.408 118.045  0.00  0.00     0.149 HD
ENDBRANCH   6  13
BRANCH   5  18
ATOM     18  N   LIG d   1      -5.804  80.092 117.840  0.00  0.00     0.381 N 
ATOM     19  H   LIG d   1      -5.137  80.225 118.574  0.00  0.00    -0.090 HD
ATOM     20  H   LIG d   1      -6.345  80.934 117.749  0.00  0.00    -0.090 HD
ATOM     21  H   LIG d   1      -5.333  79.897 116.984  0.00  0.00    -0.090 HD
ENDBRANCH   5  18
BRANCH   3  22
ATOM     22  C   LIG d   1     -10.334  78.860 118.792  0.00  0.00     0.382 C 
ATOM     23  O   LIG d   1     -11.178  77.977 119.076  0.00  0.00    -0.241 OA
ATOM     24  O   LIG d   1     -10.622  80.060 118.958  0.00  0.00    -0.241 OA
ENDBRANCH   3  22
TORSDOF 7
ENDMDL
MODEL 3
REMARK VINA RESULT:      -6.2      1.937      4.992
REMARK  7 active torsions:
REMARK  status: ('A' for Active; 'I' for Inactive)
REMARK    1  A    between atoms: C_2  and  C_3 
REMARK    2  A    between atoms: C_3  and  O_6 
REMARK    3  A    between atoms: C_3  and  C_4 
REMARK    4  A    between atoms: C_7  and  O_6 
REMARK    5  A    between atoms: C_9  and  C_10 
REMARK    6  A    between atoms: N_15  and  C_14 
REMARK    7  A    between atoms: N_20  and  C_19 
REMARK       I    between atoms: C_22  and  N_20 
ROOT
ATOM      1  C   LIG d   1      -7.013  76.785 116.645  0.00  0.00     0.161 C 
ATOM      2  C   LIG d   1      -6.032  76.107 115.902  0.00  0.00     0.016 C 
ATOM      3  C   LIG d   1      -4.673  76.496 115.869  0.00  0.00     0.038 C 
ATOM      4  C   LIG d   1      -4.171  77.506 116.703  0.00  0.00     0.028 C 
ATOM      5  C   LIG d   1      -5.216  78.547 117.091  0.00  0.00    -0.047 C 
ATOM      6  C   LIG d   1      -6.463  77.822 117.647  0.00  0.00     0.091 C 
ENDROOT
BRANCH   1   7
ATOM      7  O   LIG d   1      -7.858  75.834 117.321  0.00  0.00    -0.368 OA
BRANCH   7   8
ATOM      8  C   LIG d   1      -8.601  74.925 116.472  0.00  0.00     0.119 C 
BRANCH   8   9
ATOM      9  C   LIG d   1     -10.094  75.079 116.823  0.00  0.00     0.028 C 
ATOM     10  C   LIG d   1     -10.336  76.152 117.897  0.00  0.00     0.006 C 
ENDBRANCH   8   9
BRANCH   8  11
ATOM     11  C   LIG d   1      -8.259  73.465 116.786  0.00  0.00     0.028 C 
ATOM     12  C   LIG d   1      -9.449  72.516 116.572  0.00  0.00     0.006 C 
ENDBRANCH   8  11
ENDBRANCH   7   8
ENDBRANCH   1   7
BRANCH   6  13
ATOM     13  N   LIG d   1      -7.567  78.762 117.973  0.00  0.00    -0.311 N 
ATOM     14  C   LIG d   1      -7.712  79.337 119.166  0.00  0.00     0.210 C 
ATOM     15  C   LIG d   1      -8.930  80.258 119.296  0.00  0.00     0.109 C 
ATOM     16  O   LIG d   1      -6.930  79.198 120.118  0.00  0.00    -0.276 OA
ATOM     17  H   LIG d   1      -8.230  78.956 117.248  0.00  0.00     0.149 HD
ENDBRANCH   6  13
BRANCH   5  18
ATOM     18  N   LIG d   1      -4.594  79.460 118.069  0.00  0.00     0.381 N 
ATOM     19  H   LIG d   1      -5.118  80.310 118.119  0.00  0.00    -0.090 HD
ATOM     20  H   LIG d   1      -3.663  79.681 117.761  0.00  0.00    -0.090 HD
ATOM     21  H   LIG d   1      -4.561  79.028 118.966  0.00  0.00    -0.090 HD
ENDBRANCH   5  18
BRANCH   3  22
ATOM     22  C   LIG d   1      -3.809  75.897 114.966  0.00  0.00     0.382 C 
ATOM     23  O   LIG d   1      -3.694  76.362 113.806  0.00  0.00    -0.241 OA
ATOM     24  O   LIG d   1      -3.176  74.872 115.281  0.00  0.00    -0.241 OA
ENDBRANCH   3  22
TORSDOF 7
ENDMDL
MODEL 4
REMARK VINA RESULT:      -5.8      2.116      2.859
REMARK  7 active torsions:
REMARK  status: ('A' for Active; 'I' for Inactive)
REMARK    1  A    between atoms: C_2  and  C_3 
REMARK    2  A    between atoms: C_3  and  O_6 
REMARK    3  A    between atoms: C_3  and  C_4 
REMARK    4  A    between atoms: C_7  and  O_6 
REMARK    5  A    between atoms: C_9  and  C_10 
REMARK    6  A    between atoms: N_15  and  C_14 
REMARK    7  A    between atoms: N_20  and  C_19 
REMARK       I    between atoms: C_22  and  N_20 
ROOT
ATOM      1  C   LIG d   1      -5.920  76.874 117.007  0.00  0.00     0.161 C 
ATOM      2  C   LIG d   1      -6.867  77.814 117.446  0.00  0.00     0.016 C 
ATOM      3  C   LIG d   1      -6.559  79.173 117.689  0.00  0.00     0.038 C 
ATOM      4  C   LIG d   1      -5.310  79.720 117.363  0.00  0.00     0.028 C 
ATOM      5  C   LIG d   1      -4.176  78.701 117.393  0.00  0.00    -0.047 C 
ATOM      6  C   LIG d   1      -4.579  77.476 116.540  0.00  0.00     0.091 C 
ENDROOT
BRANCH   1   7
ATOM      7  O   LIG d   1      -6.491  76.054 115.968  0.00  0.00    -0.368 OA
BRANCH   7   8
ATOM      8  C   LIG d   1      -7.114  74.820 116.399  0.00  0.00     0.119 C 
BRANCH   8   9
ATOM      9  C   LIG d   1      -6.396  73.662 115.680  0.00  0.00     0.028 C 
ATOM     10  C   LIG d   1      -6.958  72.286 116.075  0.00  0.00     0.006 C 
ENDBRANCH   8   9
BRANCH   8  11
ATOM     11  C   LIG d   1      -8.573  74.741 115.938  0.00  0.00     0.028 C 
ATOM     12  C   LIG d   1      -9.558  75.291 116.981  0.00  0.00     0.006 C 
ENDBRANCH   8  11
ENDBRANCH   7   8
ENDBRANCH   1   7
BRANCH   6  13
ATOM     13  N   LIG d   1      -3.560  76.395 116.584  0.00  0.00    -0.311 N 
ATOM     14  C   LIG d   1      -3.073  75.802 115.495  0.00  0.00     0.210 C 
ATOM     15  C   LIG d   1      -2.047  74.697 115.765  0.00  0.00     0.109 C 
ATOM     16  O   LIG d   1      -3.370  76.108 114.331  0.00  0.00    -0.276 OA
ATOM     17  H   LIG d   1      -3.240  76.106 117.488  0.00  0.00     0.149 HD
ENDBRANCH   6  13
BRANCH   5  18
ATOM     18  N   LIG d   1      -2.959  79.373 116.901  0.00  0.00     0.381 N 
ATOM     19  H   LIG d   1      -2.820  80.230 117.398  0.00  0.00    -0.090 HD
ATOM     20  H   LIG d   1      -3.078  79.590 115.927  0.00  0.00    -0.090 HD
ATOM     21  H   LIG d   1      -2.168  78.779 117.021  0.00  0.00    -0.090 HD
ENDBRANCH   5  18
BRANCH   3  22
ATOM     22  C   LIG d   1      -7.496  79.990 118.302  0.00  0.00     0.382 C 
ATOM     23  O   LIG d   1      -7.990  80.959 117.675  0.00  0.00    -0.241 OA
ATOM     24  O   LIG d   1      -7.822  79.798 119.489  0.00  0.00    -0.241 OA
ENDBRANCH   3  22
TORSDOF 7
ENDMDL
MODEL 5
REMARK VINA RESULT:      -5.7      1.882      3.312
REMARK  7 active torsions:
REMARK  status: ('A' for Active; 'I' for Inactive)
REMARK    1  A    between atoms: C_2  and  C_3 
REMARK    2  A    between atoms: C_3  and  O_6 
REMARK    3  A    between atoms: C_3  and  C_4 
REMARK    4  A    between atoms: C_7  and  O_6 
REMARK    5  A    between atoms: C_9  and  C_10 
REMARK    6  A    between atoms: N_15  and  C_14 
REMARK    7  A    between atoms: N_20  and  C_19 
REMARK       I    between atoms: C_22  and  N_20 
ROOT
ATOM      1  C   LIG d   1      -6.829  77.263 117.411  0.00  0.00     0.161 C 
ATOM      2  C   LIG d   1      -8.177  76.873 117.471  0.00  0.00     0.016 C 
ATOM      3  C   LIG d   1      -9.185  77.650 118.088  0.00  0.00     0.038 C 
ATOM      4  C   LIG d   1      -8.936  78.949 118.557  0.00  0.00     0.028 C 
ATOM      5  C   LIG d   1      -7.486  79.176 118.971  0.00  0.00    -0.047 C 
ATOM      6  C   LIG d   1      -6.559  78.726 117.819  0.00  0.00     0.091 C 
ENDROOT
BRANCH   1   7
ATOM      7  O   LIG d   1      -6.304  77.005 116.094  0.00  0.00    -0.368 OA
BRANCH   7   8
ATOM      8  C   LIG d   1      -5.449  75.842 115.964  0.00  0.00     0.119 C 
BRANCH   8   9
ATOM      9  C   LIG d   1      -4.155  76.295 115.261  0.00  0.00     0.028 C 
ATOM     10  C   LIG d   1      -2.981  75.336 115.519  0.00  0.00     0.006 C 
ENDBRANCH   8   9
BRANCH   8  11
ATOM     11  C   LIG d   1      -6.070  74.795 115.034  0.00  0.00     0.028 C 
ATOM     12  C   LIG d   1      -6.747  73.646 115.799  0.00  0.00     0.006 C 
ENDBRANCH   8  11
ENDBRANCH   7   8
ENDBRANCH   1   7
BRANCH   6  13
ATOM     13  N   LIG d   1      -5.120  78.836 118.174  0.00  0.00    -0.311 N 
ATOM     14  C   LIG d   1      -4.190  79.286 117.333  0.00  0.00     0.210 C 
ATOM     15  C   LIG d   1      -2.764  79.299 117.894  0.00  0.00     0.109 C 
ATOM     16  O   LIG d   1      -4.415  79.705 116.188  0.00  0.00    -0.276 OA
ATOM     17  H   LIG d   1      -4.854  78.547 119.095  0.00  0.00     0.149 HD
ENDBRANCH   6  13
BRANCH   5  18
ATOM     18  N   LIG d   1      -7.338  80.605 119.308  0.00  0.00     0.381 N 
ATOM     19  H   LIG d   1      -7.508  80.742 120.284  0.00  0.00    -0.090 HD
ATOM     20  H   LIG d   1      -8.019  81.133 118.792  0.00  0.00    -0.090 HD
ATOM     21  H   LIG d   1      -6.420  80.916 119.076  0.00  0.00    -0.090 HD
ENDBRANCH   5  18
BRANCH   3  22
ATOM     22  C   LIG d   1     -10.449  77.113 118.276  0.00  0.00     0.382 C 
ATOM     23  O   LIG d   1     -11.306  77.743 118.941  0.00  0.00    -0.241 OA
ATOM     24  O   LIG d   1     -10.729  75.985 117.826  0.00  0.00    -0.241 OA
ENDBRANCH   3  22
TORSDOF 7
ENDMDL
MODEL 6
REMARK VINA RESULT:      -5.6      2.085      4.375
REMARK  7 active torsions:
REMARK  status: ('A' for Active; 'I' for Inactive)
REMARK    1  A    between atoms: C_2  and  C_3 
REMARK    2  A    between atoms: C_3  and  O_6 
REMARK    3  A    between atoms: C_3  and  C_4 
REMARK    4  A    between atoms: C_7  and  O_6 
REMARK    5  A    between atoms: C_9  and  C_10 
REMARK    6  A    between atoms: N_15  and  C_14 
REMARK    7  A    between atoms: N_20  and  C_19 
REMARK       I    between atoms: C_22  and  N_20 
ROOT
ATOM      1  C   LIG d   1      -7.766  77.145 117.276  0.00  0.00     0.161 C 
ATOM      2  C   LIG d   1      -8.905  77.554 117.990  0.00  0.00     0.016 C 
ATOM      3  C   LIG d   1     -10.062  76.754 118.134  0.00  0.00     0.038 C 
ATOM      4  C   LIG d   1     -10.100  75.421 117.698  0.00  0.00     0.028 C 
ATOM      5  C   LIG d   1      -9.161  75.138 116.531  0.00  0.00    -0.047 C 
ATOM      6  C   LIG d   1      -7.747  75.651 116.889  0.00  0.00     0.091 C 
ENDROOT
BRANCH   1   7
ATOM      7  O   LIG d   1      -6.577  77.485 118.016  0.00  0.00    -0.368 OA
BRANCH   7   8
ATOM      8  C   LIG d   1      -5.627  78.344 117.338  0.00  0.00     0.119 C 
BRANCH   8   9
ATOM      9  C   LIG d   1      -4.263  77.628 117.354  0.00  0.00     0.028 C 
ATOM     10  C   LIG d   1      -3.599  77.599 115.967  0.00  0.00     0.006 C 
ENDBRANCH   8   9
BRANCH   8  11
ATOM     11  C   LIG d   1      -5.409  79.650 118.106  0.00  0.00     0.028 C 
ATOM     12  C   LIG d   1      -6.603  80.611 117.999  0.00  0.00     0.006 C 
ENDBRANCH   8  11
ENDBRANCH   7   8
ENDBRANCH   1   7
BRANCH   6  13
ATOM     13  N   LIG d   1      -6.785  75.490 115.768  0.00  0.00    -0.311 N 
ATOM     14  C   LIG d   1      -6.113  74.363 115.535  0.00  0.00     0.210 C 
ATOM     15  C   LIG d   1      -5.156  74.416 114.340  0.00  0.00     0.109 C 
ATOM     16  O   LIG d   1      -6.242  73.315 116.186  0.00  0.00    -0.276 OA
ATOM     17  H   LIG d   1      -6.642  76.281 115.171  0.00  0.00     0.149 HD
ENDBRANCH   6  13
BRANCH   5  18
ATOM     18  N   LIG d   1      -9.199  73.686 116.270  0.00  0.00     0.381 N 
ATOM     19  H   LIG d   1      -8.438  73.429 115.674  0.00  0.00    -0.090 HD
ATOM     20  H   LIG d   1     -10.058  73.464 115.798  0.00  0.00    -0.090 HD
ATOM     21  H   LIG d   1      -9.143  73.184 117.128  0.00  0.00    -0.090 HD
ENDBRANCH   5  18
BRANCH   3  22
ATOM     22  C   LIG d   1     -11.211  77.301 118.684  0.00  0.00     0.382 C 
ATOM     23  O   LIG d   1     -11.124  78.236 119.515  0.00  0.00    -0.241 OA
ATOM     24  O   LIG d   1     -12.331  76.840 118.394  0.00  0.00    -0.241 OA
ENDBRANCH   3  22
TORSDOF 7
ENDMDL
MODEL 7
REMARK VINA RESULT:      -5.5      2.315      5.305
REMARK  7 active torsions:
REMARK  status: ('A' for Active; 'I' for Inactive)
REMARK    1  A    between atoms: C_2  and  C_3 
REMARK    2  A    between atoms: C_3  and  O_6 
REMARK    3  A    between atoms: C_3  and  C_4 
REMARK    4  A    between atoms: C_7  and  O_6 
REMARK    5  A    between atoms: C_9  and  C_10 
REMARK    6  A    between atoms: N_15  and  C_14 
REMARK    7  A    between atoms: N_20  and  C_19 
REMARK       I    between atoms: C_22  and  N_20 
ROOT
ATOM      1  C   LIG d   1      -6.412  76.933 117.059  0.00  0.00     0.161 C 
ATOM      2  C   LIG d   1      -6.921  75.701 116.616  0.00  0.00     0.016 C 
ATOM      3  C   LIG d   1      -8.278  75.327 116.748  0.00  0.00     0.038 C 
ATOM      4  C   LIG d   1      -9.255  76.228 117.199  0.00  0.00     0.028 C 
ATOM      5  C   LIG d   1      -8.703  77.305 118.127  0.00  0.00    -0.047 C 
ATOM      6  C   LIG d   1      -7.483  77.972 117.452  0.00  0.00     0.091 C 
ENDROOT
BRANCH   1   7
ATOM      7  O   LIG d   1      -5.524  77.481 116.064  0.00  0.00    -0.368 OA
BRANCH   7   8
ATOM      8  C   LIG d   1      -4.122  77.545 116.427  0.00  0.00     0.119 C 
BRANCH   8   9
ATOM      9  C   LIG d   1      -3.723  79.032 116.473  0.00  0.00     0.028 C 
ATOM     10  C   LIG d   1      -2.236  79.231 116.812  0.00  0.00     0.006 C 
ENDBRANCH   8   9
BRANCH   8  11
ATOM     11  C   LIG d   1      -3.238  76.920 115.344  0.00  0.00     0.028 C 
ATOM     12  C   LIG d   1      -2.992  75.420 115.567  0.00  0.00     0.006 C 
ENDBRANCH   8  11
ENDBRANCH   7   8
ENDBRANCH   1   7
BRANCH   6  13
ATOM     13  N   LIG d   1      -6.832  78.981 118.328  0.00  0.00    -0.311 N 
ATOM     14  C   LIG d   1      -7.087  80.286 118.259  0.00  0.00     0.210 C 
ATOM     15  C   LIG d   1      -6.292  81.153 119.240  0.00  0.00     0.109 C 
ATOM     16  O   LIG d   1      -7.921  80.804 117.501  0.00  0.00    -0.276 OA
ATOM     17  H   LIG d   1      -6.164  78.643 118.994  0.00  0.00     0.149 HD
ENDBRANCH   6  13
BRANCH   5  18
ATOM     18  N   LIG d   1      -9.798  78.253 118.409  0.00  0.00     0.381 N 
ATOM     19  H   LIG d   1      -9.418  79.144 118.658  0.00  0.00    -0.090 HD
ATOM     20  H   LIG d   1     -10.332  77.910 119.188  0.00  0.00    -0.090 HD
ATOM     21  H   LIG d   1     -10.384  78.345 117.609  0.00  0.00    -0.090 HD
ENDBRANCH   5  18
BRANCH   3  22
ATOM     22  C   LIG d   1      -8.663  74.026 116.465  0.00  0.00     0.382 C 
ATOM     23  O   LIG d   1      -9.835  73.652 116.708  0.00  0.00    -0.241 OA
ATOM     24  O   LIG d   1      -7.840  73.208 116.010  0.00  0.00    -0.241 OA
ENDBRANCH   3  22
TORSDOF 7
ENDMDL
MODEL 8
REMARK VINA RESULT:      -5.5      2.295      5.429
REMARK  7 active torsions:
REMARK  status: ('A' for Active; 'I' for Inactive)
REMARK    1  A    between atoms: C_2  and  C_3 
REMARK    2  A    between atoms: C_3  and  O_6 
REMARK    3  A    between atoms: C_3  and  C_4 
REMARK    4  A    between atoms: C_7  and  O_6 
REMARK    5  A    between atoms: C_9  and  C_10 
REMARK    6  A    between atoms: N_15  and  C_14 
REMARK    7  A    between atoms: N_20  and  C_19 
REMARK       I    between atoms: C_22  and  N_20 
ROOT
ATOM      1  C   LIG d   1      -5.451  75.993 115.966  0.00  0.00     0.161 C 
ATOM      2  C   LIG d   1      -6.040  74.753 115.672  0.00  0.00     0.016 C 
ATOM      3  C   LIG d   1      -7.317  74.367 116.142  0.00  0.00     0.038 C 
ATOM      4  C   LIG d   1      -8.160  75.262 116.817  0.00  0.00     0.028 C 
ATOM      5  C   LIG d   1      -7.406  76.353 117.571  0.00  0.00    -0.047 C 
ATOM      6  C   LIG d   1      -6.401  77.026 116.608  0.00  0.00     0.091 C 
ENDROOT
BRANCH   1   7
ATOM      7  O   LIG d   1      -4.846  76.541 114.777  0.00  0.00    -0.368 OA
BRANCH   7   8
ATOM      8  C   LIG d   1      -3.398  76.534 114.738  0.00  0.00     0.119 C 
BRANCH   8   9
ATOM      9  C   LIG d   1      -2.902  75.911 116.057  0.00  0.00     0.028 C 
ATOM     10  C   LIG d   1      -1.969  74.710 115.824  0.00  0.00     0.006 C 
ENDBRANCH   8   9
BRANCH   8  11
ATOM     11  C   LIG d   1      -2.835  77.959 114.725  0.00  0.00     0.028 C 
ATOM     12  C   LIG d   1      -1.390  78.023 114.205  0.00  0.00     0.006 C 
ENDBRANCH   8  11
ENDBRANCH   7   8
ENDBRANCH   1   7
BRANCH   6  13
ATOM     13  N   LIG d   1      -5.563  78.048 117.286  0.00  0.00    -0.311 N 
ATOM     14  C   LIG d   1      -5.996  79.272 117.582  0.00  0.00     0.210 C 
ATOM     15  C   LIG d   1      -4.963  80.176 118.264  0.00  0.00     0.109 C 
ATOM     16  O   LIG d   1      -7.147  79.685 117.374  0.00  0.00    -0.276 OA
ATOM     17  H   LIG d   1      -4.625  77.787 117.520  0.00  0.00     0.149 HD
ENDBRANCH   6  13
BRANCH   5  18
ATOM     18  N   LIG d   1      -8.405  77.293 118.112  0.00  0.00     0.381 N 
ATOM     19  H   LIG d   1      -9.129  77.443 117.438  0.00  0.00    -0.090 HD
ATOM     20  H   LIG d   1      -7.958  78.174 118.296  0.00  0.00    -0.090 HD
ATOM     21  H   LIG d   1      -8.795  76.929 118.954  0.00  0.00    -0.090 HD
ENDBRANCH   5  18
BRANCH   3  22
ATOM     22  C   LIG d   1      -7.746  73.059 115.972  0.00  0.00     0.382 C 
ATOM     23  O   LIG d   1      -6.907  72.141 115.810  0.00  0.00    -0.241 OA
ATOM     24  O   LIG d   1      -8.962  72.793 115.934  0.00  0.00    -0.241 OA
ENDBRANCH   3  22
TORSDOF 7
ENDMDL
MODEL 9
REMARK VINA RESULT:      -5.4      2.288      4.893
REMARK  7 active torsions:
REMARK  status: ('A' for Active; 'I' for Inactive)
REMARK    1  A    between atoms: C_2  and  C_3 
REMARK    2  A    between atoms: C_3  and  O_6 
REMARK    3  A    between atoms: C_3  and  C_4 
REMARK    4  A    between atoms: C_7  and  O_6 
REMARK    5  A    between atoms: C_9  and  C_10 
REMARK    6  A    between atoms: N_15  and  C_14 
REMARK    7  A    between atoms: N_20  and  C_19 
REMARK       I    between atoms: C_22  and  N_20 
ROOT
ATOM      1  C   LIG d   1      -6.358  77.234 116.802  0.00  0.00     0.161 C 
ATOM      2  C   LIG d   1      -7.643  76.811 117.182  0.00  0.00     0.016 C 
ATOM      3  C   LIG d   1      -8.235  75.612 116.722  0.00  0.00     0.038 C 
ATOM      4  C   LIG d   1      -7.518  74.675 115.963  0.00  0.00     0.028 C 
ATOM      5  C   LIG d   1      -6.395  75.294 115.139  0.00  0.00    -0.047 C 
ATOM      6  C   LIG d   1      -5.519  76.171 116.064  0.00  0.00     0.091 C 
ENDROOT
BRANCH   1   7
ATOM      7  O   LIG d   1      -5.644  77.724 117.954  0.00  0.00    -0.368 OA
BRANCH   7   8
ATOM      8  C   LIG d   1      -6.251  78.839 118.653  0.00  0.00     0.119 C 
BRANCH   8   9
ATOM      9  C   LIG d   1      -5.851  80.126 117.907  0.00  0.00     0.028 C 
ATOM     10  C   LIG d   1      -6.943  81.207 117.974  0.00  0.00     0.006 C 
ENDBRANCH   8   9
BRANCH   8  11
ATOM     11  C   LIG d   1      -5.675  78.993 120.064  0.00  0.00     0.028 C 
ATOM     12  C   LIG d   1      -4.319  78.289 120.233  0.00  0.00     0.006 C 
ENDBRANCH   8  11
ENDBRANCH   7   8
ENDBRANCH   1   7
BRANCH   6  13
ATOM     13  N   LIG d   1      -4.445  76.881 115.321  0.00  0.00    -0.311 N 
ATOM     14  C   LIG d   1      -3.270  76.329 115.025  0.00  0.00     0.210 C 
ATOM     15  C   LIG d   1      -2.298  77.242 114.272  0.00  0.00     0.109 C 
ATOM     16  O   LIG d   1      -2.952  75.159 115.287  0.00  0.00    -0.276 OA
ATOM     17  H   LIG d   1      -4.631  77.825 115.043  0.00  0.00     0.149 HD
ENDBRANCH   6  13
BRANCH   5  18
ATOM     18  N   LIG d   1      -5.645  74.192 114.507  0.00  0.00     0.381 N 
ATOM     19  H   LIG d   1      -4.724  74.144 114.894  0.00  0.00    -0.090 HD
ATOM     20  H   LIG d   1      -5.565  74.376 113.523  0.00  0.00    -0.090 HD
ATOM     21  H   LIG d   1      -6.121  73.329 114.653  0.00  0.00    -0.090 HD
ENDBRANCH   5  18
BRANCH   3  22
ATOM     22  C   LIG d   1      -9.573  75.361 116.987  0.00  0.00     0.382 C 
ATOM     23  O   LIG d   1     -10.149  74.392 116.437  0.00  0.00    -0.241 OA
ATOM     24  O   LIG d   1     -10.221  76.117 117.734  0.00  0.00    -0.241 OA
ENDBRANCH   3  22
TORSDOF 7
ENDMDL
