MODEL 1
REMARK VINA RESULT:      -5.6      0.000      0.000
REMARK  7 active torsions:
REMARK  status: ('A' for Active; 'I' for Inactive)
REMARK    1  A    between atoms: C_2  and  C_3 
REMARK    2  A    between atoms: C_3  and  O_6 
REMARK    3  A    between atoms: C_3  and  C_4 
REMARK    4  A    between atoms: C_7  and  O_6 
REMARK    5  A    between atoms: C_9  and  C_10 
REMARK    6  A    between atoms: N_15  and  C_14 
REMARK    7  A    between atoms: N_20  and  C_19 
REMARK       I    between atoms: C_22  and  N_20 
ROOT
ATOM      1  C   LIG d   1      -7.711  75.827 116.901  0.00  0.00     0.161 C 
ATOM      2  C   LIG d   1      -6.760  75.179 116.096  0.00  0.00     0.016 C 
ATOM      3  C   LIG d   1      -5.413  75.596 115.994  0.00  0.00     0.038 C 
ATOM      4  C   LIG d   1      -4.886  76.606 116.812  0.00  0.00     0.028 C 
ATOM      5  C   LIG d   1      -5.928  77.619 117.271  0.00  0.00    -0.047 C 
ATOM      6  C   LIG d   1      -7.128  76.862 117.885  0.00  0.00     0.091 C 
ENDROOT
BRANCH   1   7
ATOM      7  O   LIG d   1      -8.500  74.851 117.609  0.00  0.00    -0.368 OA
BRANCH   7   8
ATOM      8  C   LIG d   1      -9.806  74.561 117.054  0.00  0.00     0.119 C 
BRANCH   8   9
ATOM      9  C   LIG d   1     -10.841  75.376 117.854  0.00  0.00     0.028 C 
ATOM     10  C   LIG d   1     -10.635  75.255 119.373  0.00  0.00     0.006 C 
ENDBRANCH   8   9
BRANCH   8  11
ATOM     11  C   LIG d   1     -10.190  73.094 117.269  0.00  0.00     0.028 C 
ATOM     12  C   LIG d   1      -9.017  72.130 117.035  0.00  0.00     0.006 C 
ENDBRANCH   8  11
ENDBRANCH   7   8
ENDBRANCH   1   7
BRANCH   6  13
ATOM     13  N   LIG d   1      -8.231  77.776 118.283  0.00  0.00    -0.311 N 
ATOM     14  C   LIG d   1      -8.389  78.238 119.523  0.00  0.00     0.210 C 
ATOM     15  C   LIG d   1      -9.603  79.150 119.723  0.00  0.00     0.109 C 
ATOM     16  O   LIG d   1      -7.621  78.004 120.468  0.00  0.00    -0.276 OA
ATOM     17  H   LIG d   1      -8.883  78.042 117.571  0.00  0.00     0.149 HD
ENDBRANCH   6  13
BRANCH   5  18
ATOM     18  N   LIG d   1      -5.272  78.533 118.226  0.00  0.00     0.381 N 
ATOM     19  H   LIG d   1      -4.295  78.324 118.277  0.00  0.00    -0.090 HD
ATOM     20  H   LIG d   1      -5.673  78.395 119.136  0.00  0.00    -0.090 HD
ATOM     21  H   LIG d   1      -5.402  79.478 117.937  0.00  0.00    -0.090 HD
ENDBRANCH   5  18
BRANCH   3  22
ATOM     22  C   LIG d   1      -4.588  75.026 115.037  0.00  0.00     0.382 C 
ATOM     23  O   LIG d   1      -5.081  74.559 113.982  0.00  0.00    -0.241 OA
ATOM     24  O   LIG d   1      -3.361  74.933 115.234  0.00  0.00    -0.241 OA
ENDBRANCH   3  22
TORSDOF 7
ENDMDL
MODEL 2
REMARK VINA RESULT:      -5.4      2.115      4.757
REMARK  7 active torsions:
REMARK  status: ('A' for Active; 'I' for Inactive)
REMARK    1  A    between atoms: C_2  and  C_3 
REMARK    2  A    between atoms: C_3  and  O_6 
REMARK    3  A    between atoms: C_3  and  C_4 
REMARK    4  A    between atoms: C_7  and  O_6 
REMARK    5  A    between atoms: C_9  and  C_10 
REMARK    6  A    between atoms: N_15  and  C_14 
REMARK    7  A    between atoms: N_20  and  C_19 
REMARK       I    between atoms: C_22  and  N_20 
ROOT
ATOM      1  C   LIG d   1      -7.841  75.591 118.057  0.00  0.00     0.161 C 
ATOM      2  C   LIG d   1      -7.935  74.309 117.492  0.00  0.00     0.016 C 
ATOM      3  C   LIG d   1      -9.132  73.558 117.459  0.00  0.00     0.038 C 
ATOM      4  C   LIG d   1     -10.361  74.106 117.857  0.00  0.00     0.028 C 
ATOM      5  C   LIG d   1     -10.223  75.211 118.899  0.00  0.00    -0.047 C 
ATOM      6  C   LIG d   1      -9.195  76.249 118.396  0.00  0.00     0.091 C 
ENDROOT
BRANCH   1   7
ATOM      7  O   LIG d   1      -7.068  76.450 117.195  0.00  0.00    -0.368 OA
BRANCH   7   8
ATOM      8  C   LIG d   1      -5.772  75.947 116.790  0.00  0.00     0.119 C 
BRANCH   8   9
ATOM      9  C   LIG d   1      -4.702  76.841 117.447  0.00  0.00     0.028 C 
ATOM     10  C   LIG d   1      -4.605  78.224 116.781  0.00  0.00     0.006 C 
ENDBRANCH   8   9
BRANCH   8  11
ATOM     11  C   LIG d   1      -5.560  76.102 115.281  0.00  0.00     0.028 C 
ATOM     12  C   LIG d   1      -5.326  74.759 114.571  0.00  0.00     0.006 C 
ENDBRANCH   8  11
ENDBRANCH   7   8
ENDBRANCH   1   7
BRANCH   6  13
ATOM     13  N   LIG d   1      -8.938  77.321 119.393  0.00  0.00    -0.311 N 
ATOM     14  C   LIG d   1      -9.604  78.474 119.418  0.00  0.00     0.210 C 
ATOM     15  C   LIG d   1      -9.167  79.449 120.517  0.00  0.00     0.109 C 
ATOM     16  O   LIG d   1     -10.536  78.769 118.656  0.00  0.00    -0.276 OA
ATOM     17  H   LIG d   1      -8.218  77.152 120.069  0.00  0.00     0.149 HD
ENDBRANCH   6  13
BRANCH   5  18
ATOM     18  N   LIG d   1     -11.564  75.785 119.120  0.00  0.00     0.381 N 
ATOM     19  H   LIG d   1     -12.138  75.127 119.609  0.00  0.00    -0.090 HD
ATOM     20  H   LIG d   1     -11.989  75.971 118.228  0.00  0.00    -0.090 HD
ATOM     21  H   LIG d   1     -11.492  76.628 119.645  0.00  0.00    -0.090 HD
ENDBRANCH   5  18
BRANCH   3  22
ATOM     22  C   LIG d   1      -9.101  72.231 117.061  0.00  0.00     0.382 C 
ATOM     23  O   LIG d   1      -8.013  71.701 116.730  0.00  0.00    -0.241 OA
ATOM     24  O   LIG d   1     -10.153  71.569 116.985  0.00  0.00    -0.241 OA
ENDBRANCH   3  22
TORSDOF 7
ENDMDL
MODEL 3
REMARK VINA RESULT:      -5.0      2.214      3.668
REMARK  7 active torsions:
REMARK  status: ('A' for Active; 'I' for Inactive)
REMARK    1  A    between atoms: C_2  and  C_3 
REMARK    2  A    between atoms: C_3  and  O_6 
REMARK    3  A    between atoms: C_3  and  C_4 
REMARK    4  A    between atoms: C_7  and  O_6 
REMARK    5  A    between atoms: C_9  and  C_10 
REMARK    6  A    between atoms: N_15  and  C_14 
REMARK    7  A    between atoms: N_20  and  C_19 
REMARK       I    between atoms: C_22  and  N_20 
ROOT
ATOM      1  C   LIG d   1      -8.095  75.716 118.252  0.00  0.00     0.161 C 
ATOM      2  C   LIG d   1      -8.361  74.354 118.033  0.00  0.00     0.016 C 
ATOM      3  C   LIG d   1      -7.591  73.541 117.170  0.00  0.00     0.038 C 
ATOM      4  C   LIG d   1      -6.404  74.000 116.580  0.00  0.00     0.028 C 
ATOM      5  C   LIG d   1      -6.377  75.511 116.372  0.00  0.00    -0.047 C 
ATOM      6  C   LIG d   1      -6.739  76.207 117.704  0.00  0.00     0.091 C 
ENDROOT
BRANCH   1   7
ATOM      7  O   LIG d   1      -8.205  76.015 119.658  0.00  0.00    -0.368 OA
BRANCH   7   8
ATOM      8  C   LIG d   1      -9.327  76.846 120.047  0.00  0.00     0.119 C 
BRANCH   8   9
ATOM      9  C   LIG d   1     -10.441  75.910 120.555  0.00  0.00     0.028 C 
ATOM     10  C   LIG d   1     -11.580  75.745 119.534  0.00  0.00     0.006 C 
ENDBRANCH   8   9
BRANCH   8  11
ATOM     11  C   LIG d   1      -9.927  77.573 118.840  0.00  0.00     0.028 C 
ATOM     12  C   LIG d   1     -10.026  79.092 119.049  0.00  0.00     0.006 C 
ENDBRANCH   8  11
ENDBRANCH   7   8
ENDBRANCH   1   7
BRANCH   6  13
ATOM     13  N   LIG d   1      -6.818  77.685 117.568  0.00  0.00    -0.311 N 
ATOM     14  C   LIG d   1      -6.234  78.532 118.414  0.00  0.00     0.210 C 
ATOM     15  C   LIG d   1      -6.456  80.015 118.102  0.00  0.00     0.109 C 
ATOM     16  O   LIG d   1      -5.525  78.195 119.375  0.00  0.00    -0.276 OA
ATOM     17  H   LIG d   1      -7.347  78.045 116.798  0.00  0.00     0.149 HD
ENDBRANCH   6  13
BRANCH   5  18
ATOM     18  N   LIG d   1      -5.034  75.869 115.880  0.00  0.00     0.381 N 
ATOM     19  H   LIG d   1      -4.417  75.087 115.977  0.00  0.00    -0.090 HD
ATOM     20  H   LIG d   1      -4.674  76.625 116.436  0.00  0.00    -0.090 HD
ATOM     21  H   LIG d   1      -5.083  76.144 114.924  0.00  0.00    -0.090 HD
ENDBRANCH   5  18
BRANCH   3  22
ATOM     22  C   LIG d   1      -8.029  72.263 116.859  0.00  0.00     0.382 C 
ATOM     23  O   LIG d   1      -7.235  71.433 116.353  0.00  0.00    -0.241 OA
ATOM     24  O   LIG d   1      -9.220  71.942 117.035  0.00  0.00    -0.241 OA
ENDBRANCH   3  22
TORSDOF 7
ENDMDL
MODEL 4
REMARK VINA RESULT:      -4.7      2.119      5.492
REMARK  7 active torsions:
REMARK  status: ('A' for Active; 'I' for Inactive)
REMARK    1  A    between atoms: C_2  and  C_3 
REMARK    2  A    between atoms: C_3  and  O_6 
REMARK    3  A    between atoms: C_3  and  C_4 
REMARK    4  A    between atoms: C_7  and  O_6 
REMARK    5  A    between atoms: C_9  and  C_10 
REMARK    6  A    between atoms: N_15  and  C_14 
REMARK    7  A    between atoms: N_20  and  C_19 
REMARK       I    between atoms: C_22  and  N_20 
ROOT
ATOM      1  C   LIG d   1      -7.489  77.022 117.624  0.00  0.00     0.161 C 
ATOM      2  C   LIG d   1      -8.639  76.277 117.937  0.00  0.00     0.016 C 
ATOM      3  C   LIG d   1      -8.766  74.894 117.672  0.00  0.00     0.038 C 
ATOM      4  C   LIG d   1      -7.687  74.125 117.210  0.00  0.00     0.028 C 
ATOM      5  C   LIG d   1      -6.670  74.930 116.407  0.00  0.00    -0.047 C 
ATOM      6  C   LIG d   1      -6.262  76.178 117.222  0.00  0.00     0.091 C 
ENDROOT
BRANCH   1   7
ATOM      7  O   LIG d   1      -7.159  77.895 118.722  0.00  0.00    -0.368 OA
BRANCH   7   8
ATOM      8  C   LIG d   1      -7.528  79.287 118.563  0.00  0.00     0.119 C 
BRANCH   8   9
ATOM      9  C   LIG d   1      -6.309  80.139 118.965  0.00  0.00     0.028 C 
ATOM     10  C   LIG d   1      -5.373  80.421 117.778  0.00  0.00     0.006 C 
ENDBRANCH   8   9
BRANCH   8  11
ATOM     11  C   LIG d   1      -8.640  79.684 119.539  0.00  0.00     0.028 C 
ATOM     12  C   LIG d   1     -10.036  79.653 118.897  0.00  0.00     0.006 C 
ENDBRANCH   8  11
ENDBRANCH   7   8
ENDBRANCH   1   7
BRANCH   6  13
ATOM     13  N   LIG d   1      -5.332  77.064 116.474  0.00  0.00    -0.311 N 
ATOM     14  C   LIG d   1      -4.008  77.016 116.606  0.00  0.00     0.210 C 
ATOM     15  C   LIG d   1      -3.236  78.031 115.757  0.00  0.00     0.109 C 
ATOM     16  O   LIG d   1      -3.397  76.207 117.321  0.00  0.00    -0.276 OA
ATOM     17  H   LIG d   1      -5.741  77.730 115.848  0.00  0.00     0.149 HD
ENDBRANCH   6  13
BRANCH   5  18
ATOM     18  N   LIG d   1      -5.534  74.038 116.107  0.00  0.00     0.381 N 
ATOM     19  H   LIG d   1      -5.702  73.132 116.498  0.00  0.00    -0.090 HD
ATOM     20  H   LIG d   1      -4.704  74.415 116.530  0.00  0.00    -0.090 HD
ATOM     21  H   LIG d   1      -5.409  73.965 115.121  0.00  0.00    -0.090 HD
ENDBRANCH   5  18
BRANCH   3  22
ATOM     22  C   LIG d   1      -9.996  74.274 117.831  0.00  0.00     0.382 C 
ATOM     23  O   LIG d   1     -10.244  73.207 117.220  0.00  0.00    -0.241 OA
ATOM     24  O   LIG d   1     -10.877  74.792 118.543  0.00  0.00    -0.241 OA
ENDBRANCH   3  22
TORSDOF 7
ENDMDL
MODEL 5
REMARK VINA RESULT:      -4.6     14.490     16.644
REMARK  7 active torsions:
REMARK  status: ('A' for Active; 'I' for Inactive)
REMARK    1  A    between atoms: C_2  and  C_3 
REMARK    2  A    between atoms: C_3  and  O_6 
REMARK    3  A    between atoms: C_3  and  C_4 
REMARK    4  A    between atoms: C_7  and  O_6 
REMARK    5  A    between atoms: C_9  and  C_10 
REMARK    6  A    between atoms: N_15  and  C_14 
REMARK    7  A    between atoms: N_20  and  C_19 
REMARK       I    between atoms: C_22  and  N_20 
ROOT
ATOM      1  C   LIG d   1       1.493  88.713 116.416  0.00  0.00     0.161 C 
ATOM      2  C   LIG d   1       0.120  88.679 116.711  0.00  0.00     0.016 C 
ATOM      3  C   LIG d   1      -0.578  89.763 117.292  0.00  0.00     0.038 C 
ATOM      4  C   LIG d   1       0.023  91.017 117.479  0.00  0.00     0.028 C 
ATOM      5  C   LIG d   1       1.535  90.942 117.663  0.00  0.00    -0.047 C 
ATOM      6  C   LIG d   1       2.141  90.110 116.510  0.00  0.00     0.091 C 
ENDROOT
BRANCH   1   7
ATOM      7  O   LIG d   1       1.727  88.139 115.115  0.00  0.00    -0.368 OA
BRANCH   7   8
ATOM      8  C   LIG d   1       2.124  86.746 115.095  0.00  0.00     0.119 C 
BRANCH   8   9
ATOM      9  C   LIG d   1       2.946  86.480 116.371  0.00  0.00     0.028 C 
ATOM     10  C   LIG d   1       2.325  85.381 117.250  0.00  0.00     0.006 C 
ENDBRANCH   8   9
BRANCH   8  11
ATOM     11  C   LIG d   1       3.078  86.455 113.932  0.00  0.00     0.028 C 
ATOM     12  C   LIG d   1       3.426  84.963 113.805  0.00  0.00     0.006 C 
ENDBRANCH   8  11
ENDBRANCH   7   8
ENDBRANCH   1   7
BRANCH   6  13
ATOM     13  N   LIG d   1       3.607  89.916 116.660  0.00  0.00    -0.311 N 
ATOM     14  C   LIG d   1       4.458  89.945 115.636  0.00  0.00     0.210 C 
ATOM     15  C   LIG d   1       5.924  89.703 116.007  0.00  0.00     0.109 C 
ATOM     16  O   LIG d   1       4.142  90.180 114.460  0.00  0.00    -0.276 OA
ATOM     17  H   LIG d   1       3.953  89.751 117.584  0.00  0.00     0.149 HD
ENDBRANCH   6  13
BRANCH   5  18
ATOM     18  N   LIG d   1       2.047  92.325 117.709  0.00  0.00     0.381 N 
ATOM     19  H   LIG d   1       1.926  92.700 118.629  0.00  0.00    -0.090 HD
ATOM     20  H   LIG d   1       1.520  92.888 117.066  0.00  0.00    -0.090 HD
ATOM     21  H   LIG d   1       3.012  92.339 117.461  0.00  0.00    -0.090 HD
ENDBRANCH   5  18
BRANCH   3  22
ATOM     22  C   LIG d   1      -1.882  89.586 117.729  0.00  0.00     0.382 C 
ATOM     23  O   LIG d   1      -2.140  88.714 118.594  0.00  0.00    -0.241 OA
ATOM     24  O   LIG d   1      -2.810  90.257 117.238  0.00  0.00    -0.241 OA
ENDBRANCH   3  22
TORSDOF 7
ENDMDL
MODEL 6
REMARK VINA RESULT:      -4.5     15.259     17.553
REMARK  7 active torsions:
REMARK  status: ('A' for Active; 'I' for Inactive)
REMARK    1  A    between atoms: C_2  and  C_3 
REMARK    2  A    between atoms: C_3  and  O_6 
REMARK    3  A    between atoms: C_3  and  C_4 
REMARK    4  A    between atoms: C_7  and  O_6 
REMARK    5  A    between atoms: C_9  and  C_10 
REMARK    6  A    between atoms: N_15  and  C_14 
REMARK    7  A    between atoms: N_20  and  C_19 
REMARK       I    between atoms: C_22  and  N_20 
ROOT
ATOM      1  C   LIG d   1       1.630  89.447 116.671  0.00  0.00     0.161 C 
ATOM      2  C   LIG d   1       0.243  89.237 116.752  0.00  0.00     0.016 C 
ATOM      3  C   LIG d   1      -0.622  90.041 117.529  0.00  0.00     0.038 C 
ATOM      4  C   LIG d   1      -0.177  91.212 118.161  0.00  0.00     0.028 C 
ATOM      5  C   LIG d   1       1.305  91.181 118.520  0.00  0.00    -0.047 C 
ATOM      6  C   LIG d   1       2.116  90.786 117.265  0.00  0.00     0.091 C 
ENDROOT
BRANCH   1   7
ATOM      7  O   LIG d   1       2.064  89.319 115.302  0.00  0.00    -0.368 OA
BRANCH   7   8
ATOM      8  C   LIG d   1       2.613  88.032 114.926  0.00  0.00     0.119 C 
BRANCH   8   9
ATOM      9  C   LIG d   1       3.108  87.346 116.214  0.00  0.00     0.028 C 
ATOM     10  C   LIG d   1       4.366  86.493 115.978  0.00  0.00     0.006 C 
ENDBRANCH   8   9
BRANCH   8  11
ATOM     11  C   LIG d   1       3.858  88.194 114.048  0.00  0.00     0.028 C 
ATOM     12  C   LIG d   1       4.479  89.596 114.147  0.00  0.00     0.006 C 
ENDBRANCH   8  11
ENDBRANCH   7   8
ENDBRANCH   1   7
BRANCH   6  13
ATOM     13  N   LIG d   1       3.569  90.650 117.549  0.00  0.00    -0.311 N 
ATOM     14  C   LIG d   1       4.437  91.652 117.422  0.00  0.00     0.210 C 
ATOM     15  C   LIG d   1       5.891  91.292 117.746  0.00  0.00     0.109 C 
ATOM     16  O   LIG d   1       4.137  92.812 117.103  0.00  0.00    -0.276 OA
ATOM     17  H   LIG d   1       3.894  89.750 117.843  0.00  0.00     0.149 HD
ENDBRANCH   6  13
BRANCH   5  18
ATOM     18  N   LIG d   1       1.664  92.512 119.045  0.00  0.00     0.381 N 
ATOM     19  H   LIG d   1       0.962  93.177 118.790  0.00  0.00    -0.090 HD
ATOM     20  H   LIG d   1       2.535  92.799 118.634  0.00  0.00    -0.090 HD
ATOM     21  H   LIG d   1       1.752  92.474 120.037  0.00  0.00    -0.090 HD
ENDBRANCH   5  18
BRANCH   3  22
ATOM     22  C   LIG d   1      -1.941  89.655 117.711  0.00  0.00     0.382 C 
ATOM     23  O   LIG d   1      -2.209  88.653 118.418  0.00  0.00    -0.241 OA
ATOM     24  O   LIG d   1      -2.864  90.268 117.142  0.00  0.00    -0.241 OA
ENDBRANCH   3  22
TORSDOF 7
ENDMDL
MODEL 7
REMARK VINA RESULT:      -4.4      2.404      5.404
REMARK  7 active torsions:
REMARK  status: ('A' for Active; 'I' for Inactive)
REMARK    1  A    between atoms: C_2  and  C_3 
REMARK    2  A    between atoms: C_3  and  O_6 
REMARK    3  A    between atoms: C_3  and  C_4 
REMARK    4  A    between atoms: C_7  and  O_6 
REMARK    5  A    between atoms: C_9  and  C_10 
REMARK    6  A    between atoms: N_15  and  C_14 
REMARK    7  A    between atoms: N_20  and  C_19 
REMARK       I    between atoms: C_22  and  N_20 
ROOT
ATOM      1  C   LIG d   1      -6.031  77.447 117.343  0.00  0.00     0.161 C 
ATOM      2  C   LIG d   1      -5.551  78.761 117.463  0.00  0.00     0.016 C 
ATOM      3  C   LIG d   1      -6.262  79.793 118.118  0.00  0.00     0.038 C 
ATOM      4  C   LIG d   1      -7.443  79.542 118.832  0.00  0.00     0.028 C 
ATOM      5  C   LIG d   1      -8.221  78.338 118.312  0.00  0.00    -0.047 C 
ATOM      6  C   LIG d   1      -7.266  77.127 118.212  0.00  0.00     0.091 C 
ENDROOT
BRANCH   1   7
ATOM      7  O   LIG d   1      -4.970  76.511 117.617  0.00  0.00    -0.368 OA
BRANCH   7   8
ATOM      8  C   LIG d   1      -4.208  76.057 116.471  0.00  0.00     0.119 C 
BRANCH   8   9
ATOM      9  C   LIG d   1      -4.844  74.740 115.986  0.00  0.00     0.028 C 
ATOM     10  C   LIG d   1      -5.640  74.917 114.683  0.00  0.00     0.006 C 
ENDBRANCH   8   9
BRANCH   8  11
ATOM     11  C   LIG d   1      -2.773  75.695 116.864  0.00  0.00     0.028 C 
ATOM     12  C   LIG d   1      -2.081  74.795 115.828  0.00  0.00     0.006 C 
ENDBRANCH   8  11
ENDBRANCH   7   8
ENDBRANCH   1   7
BRANCH   6  13
ATOM     13  N   LIG d   1      -7.927  75.929 117.632  0.00  0.00    -0.311 N 
ATOM     14  C   LIG d   1      -8.443  74.948 118.369  0.00  0.00     0.210 C 
ATOM     15  C   LIG d   1      -9.061  73.796 117.570  0.00  0.00     0.109 C 
ATOM     16  O   LIG d   1      -8.477  74.937 119.609  0.00  0.00    -0.276 OA
ATOM     17  H   LIG d   1      -7.971  75.872 116.633  0.00  0.00     0.149 HD
ENDBRANCH   6  13
BRANCH   5  18
ATOM     18  N   LIG d   1      -9.352  78.108 119.230  0.00  0.00     0.381 N 
ATOM     19  H   LIG d   1      -9.744  77.202 119.065  0.00  0.00    -0.090 HD
ATOM     20  H   LIG d   1     -10.062  78.796 119.051  0.00  0.00    -0.090 HD
ATOM     21  H   LIG d   1      -9.044  78.177 120.175  0.00  0.00    -0.090 HD
ENDBRANCH   5  18
BRANCH   3  22
ATOM     22  C   LIG d   1      -5.813  81.102 118.027  0.00  0.00     0.382 C 
ATOM     23  O   LIG d   1      -4.925  81.516 118.811  0.00  0.00    -0.241 OA
ATOM     24  O   LIG d   1      -6.316  81.886 117.200  0.00  0.00    -0.241 OA
ENDBRANCH   3  22
TORSDOF 7
ENDMDL
MODEL 8
REMARK VINA RESULT:      -4.4     14.940     16.935
REMARK  7 active torsions:
REMARK  status: ('A' for Active; 'I' for Inactive)
REMARK    1  A    between atoms: C_2  and  C_3 
REMARK    2  A    between atoms: C_3  and  O_6 
REMARK    3  A    between atoms: C_3  and  C_4 
REMARK    4  A    between atoms: C_7  and  O_6 
REMARK    5  A    between atoms: C_9  and  C_10 
REMARK    6  A    between atoms: N_15  and  C_14 
REMARK    7  A    between atoms: N_20  and  C_19 
REMARK       I    between atoms: C_22  and  N_20 
ROOT
ATOM      1  C   LIG d   1       1.536  89.974 116.120  0.00  0.00     0.161 C 
ATOM      2  C   LIG d   1       2.614  89.154 115.747  0.00  0.00     0.016 C 
ATOM      3  C   LIG d   1       3.948  89.389 116.154  0.00  0.00     0.038 C 
ATOM      4  C   LIG d   1       4.273  90.381 117.091  0.00  0.00     0.028 C 
ATOM      5  C   LIG d   1       3.292  91.548 117.103  0.00  0.00    -0.047 C 
ATOM      6  C   LIG d   1       1.855  90.995 117.233  0.00  0.00     0.091 C 
ENDROOT
BRANCH   1   7
ATOM      7  O   LIG d   1       0.410  89.158 116.497  0.00  0.00    -0.368 OA
BRANCH   7   8
ATOM      8  C   LIG d   1       0.349  88.758 117.889  0.00  0.00     0.119 C 
BRANCH   8   9
ATOM      9  C   LIG d   1       0.650  87.248 117.950  0.00  0.00     0.028 C 
ATOM     10  C   LIG d   1      -0.133  86.539 119.068  0.00  0.00     0.006 C 
ENDBRANCH   8   9
BRANCH   8  11
ATOM     11  C   LIG d   1      -1.067  88.913 118.451  0.00  0.00     0.028 C 
ATOM     12  C   LIG d   1      -1.959  89.813 117.582  0.00  0.00     0.006 C 
ENDBRANCH   8  11
ENDBRANCH   7   8
ENDBRANCH   1   7
BRANCH   6  13
ATOM     13  N   LIG d   1       0.827  92.066 117.167  0.00  0.00    -0.311 N 
ATOM     14  C   LIG d   1       0.322  92.664 118.245  0.00  0.00     0.210 C 
ATOM     15  C   LIG d   1      -0.741  93.728 117.955  0.00  0.00     0.109 C 
ATOM     16  O   LIG d   1       0.677  92.437 119.411  0.00  0.00    -0.276 OA
ATOM     17  H   LIG d   1       0.505  92.335 116.258  0.00  0.00     0.149 HD
ENDBRANCH   6  13
BRANCH   5  18
ATOM     18  N   LIG d   1       3.672  92.438 118.217  0.00  0.00     0.381 N 
ATOM     19  H   LIG d   1       4.614  92.249 118.495  0.00  0.00    -0.090 HD
ATOM     20  H   LIG d   1       3.069  92.254 119.000  0.00  0.00    -0.090 HD
ATOM     21  H   LIG d   1       3.585  93.390 117.938  0.00  0.00    -0.090 HD
ENDBRANCH   5  18
BRANCH   3  22
ATOM     22  C   LIG d   1       4.979  88.653 115.590  0.00  0.00     0.382 C 
ATOM     23  O   LIG d   1       5.531  89.052 114.536  0.00  0.00    -0.241 OA
ATOM     24  O   LIG d   1       5.333  87.572 116.097  0.00  0.00    -0.241 OA
ENDBRANCH   3  22
TORSDOF 7
ENDMDL
MODEL 9
REMARK VINA RESULT:      -4.3      2.457      6.238
REMARK  7 active torsions:
REMARK  status: ('A' for Active; 'I' for Inactive)
REMARK    1  A    between atoms: C_2  and  C_3 
REMARK    2  A    between atoms: C_3  and  O_6 
REMARK    3  A    between atoms: C_3  and  C_4 
REMARK    4  A    between atoms: C_7  and  O_6 
REMARK    5  A    between atoms: C_9  and  C_10 
REMARK    6  A    between atoms: N_15  and  C_14 
REMARK    7  A    between atoms: N_20  and  C_19 
REMARK       I    between atoms: C_22  and  N_20 
ROOT
ATOM      1  C   LIG d   1      -6.894  76.666 117.531  0.00  0.00     0.161 C 
ATOM      2  C   LIG d   1      -7.404  77.881 118.016  0.00  0.00     0.016 C 
ATOM      3  C   LIG d   1      -8.709  78.023 118.542  0.00  0.00     0.038 C 
ATOM      4  C   LIG d   1      -9.545  76.918 118.759  0.00  0.00     0.028 C 
ATOM      5  C   LIG d   1      -9.263  75.751 117.819  0.00  0.00    -0.047 C 
ATOM      6  C   LIG d   1      -7.752  75.426 117.862  0.00  0.00     0.091 C 
ENDROOT
BRANCH   1   7
ATOM      7  O   LIG d   1      -5.544  76.480 118.000  0.00  0.00    -0.368 OA
BRANCH   7   8
ATOM      8  C   LIG d   1      -4.497  77.036 117.166  0.00  0.00     0.119 C 
BRANCH   8   9
ATOM      9  C   LIG d   1      -3.426  75.944 116.978  0.00  0.00     0.028 C 
ATOM     10  C   LIG d   1      -3.895  74.817 116.044  0.00  0.00     0.006 C 
ENDBRANCH   8   9
BRANCH   8  11
ATOM     11  C   LIG d   1      -3.779  78.191 117.870  0.00  0.00     0.028 C 
ATOM     12  C   LIG d   1      -2.886  79.004 116.920  0.00  0.00     0.006 C 
ENDBRANCH   8  11
ENDBRANCH   7   8
ENDBRANCH   1   7
BRANCH   6  13
ATOM     13  N   LIG d   1      -7.376  74.351 116.907  0.00  0.00    -0.311 N 
ATOM     14  C   LIG d   1      -7.370  73.058 117.225  0.00  0.00     0.210 C 
ATOM     15  C   LIG d   1      -6.931  72.117 116.098  0.00  0.00     0.109 C 
ATOM     16  O   LIG d   1      -7.717  72.598 118.323  0.00  0.00    -0.276 OA
ATOM     17  H   LIG d   1      -7.110  74.633 115.984  0.00  0.00     0.149 HD
ENDBRANCH   6  13
BRANCH   5  18
ATOM     18  N   LIG d   1     -10.109  74.621 118.245  0.00  0.00     0.381 N 
ATOM     19  H   LIG d   1     -10.408  74.100 117.444  0.00  0.00    -0.090 HD
ATOM     20  H   LIG d   1     -10.924  74.982 118.708  0.00  0.00    -0.090 HD
ATOM     21  H   LIG d   1      -9.601  74.028 118.864  0.00  0.00    -0.090 HD
ENDBRANCH   5  18
BRANCH   3  22
ATOM     22  C   LIG d   1      -9.204  79.288 118.820  0.00  0.00     0.382 C 
ATOM     23  O   LIG d   1     -10.432  79.519 118.712  0.00  0.00    -0.241 OA
ATOM     24  O   LIG d   1      -8.432  80.213 119.136  0.00  0.00    -0.241 OA
ENDBRANCH   3  22
TORSDOF 7
ENDMDL
