MODEL 1
REMARK VINA RESULT:      -5.1      0.000      0.000
REMARK  7 active torsions:
REMARK  status: ('A' for Active; 'I' for Inactive)
REMARK    1  A    between atoms: C_2  and  C_3 
REMARK    2  A    between atoms: C_3  and  O_6 
REMARK    3  A    between atoms: C_3  and  C_4 
REMARK    4  A    between atoms: C_7  and  O_6 
REMARK    5  A    between atoms: C_9  and  C_10 
REMARK    6  A    between atoms: N_15  and  C_14 
REMARK    7  A    between atoms: N_20  and  C_19 
REMARK       I    between atoms: C_22  and  N_20 
ROOT
ATOM      1  C   LIG d   1      -6.569  92.149 118.537  0.00  0.00     0.161 C 
ATOM      2  C   LIG d   1      -7.202  93.397 118.410  0.00  0.00     0.016 C 
ATOM      3  C   LIG d   1      -6.526  94.630 118.552  0.00  0.00     0.038 C 
ATOM      4  C   LIG d   1      -5.131  94.700 118.684  0.00  0.00     0.028 C 
ATOM      5  C   LIG d   1      -4.520  93.458 119.322  0.00  0.00    -0.047 C 
ATOM      6  C   LIG d   1      -5.028  92.206 118.570  0.00  0.00     0.091 C 
ENDROOT
BRANCH   1   7
ATOM      7  O   LIG d   1      -7.015  91.265 117.490  0.00  0.00    -0.368 OA
BRANCH   7   8
ATOM      8  C   LIG d   1      -7.050  91.826 116.154  0.00  0.00     0.119 C 
BRANCH   8   9
ATOM      9  C   LIG d   1      -8.057  90.999 115.331  0.00  0.00     0.028 C 
ATOM     10  C   LIG d   1      -8.427  91.680 114.003  0.00  0.00     0.006 C 
ENDBRANCH   8   9
BRANCH   8  11
ATOM     11  C   LIG d   1      -5.705  91.653 115.443  0.00  0.00     0.028 C 
ATOM     12  C   LIG d   1      -5.289  90.180 115.305  0.00  0.00     0.006 C 
ENDBRANCH   8  11
ENDBRANCH   7   8
ENDBRANCH   1   7
BRANCH   6  13
ATOM     13  N   LIG d   1      -4.544  90.942 119.184  0.00  0.00    -0.311 N 
ATOM     14  C   LIG d   1      -3.440  90.310 118.787  0.00  0.00     0.210 C 
ATOM     15  C   LIG d   1      -3.133  89.012 119.540  0.00  0.00     0.109 C 
ATOM     16  O   LIG d   1      -2.670  90.718 117.905  0.00  0.00    -0.276 OA
ATOM     17  H   LIG d   1      -5.092  90.556 119.928  0.00  0.00     0.149 HD
ENDBRANCH   6  13
BRANCH   5  18
ATOM     18  N   LIG d   1      -3.053  93.607 119.272  0.00  0.00     0.381 N 
ATOM     19  H   LIG d   1      -2.719  93.362 118.361  0.00  0.00    -0.090 HD
ATOM     20  H   LIG d   1      -2.639  92.979 119.938  0.00  0.00    -0.090 HD
ATOM     21  H   LIG d   1      -2.798  94.546 119.486  0.00  0.00    -0.090 HD
ENDBRANCH   5  18
BRANCH   3  22
ATOM     22  C   LIG d   1      -7.253  95.810 118.604  0.00  0.00     0.382 C 
ATOM     23  O   LIG d   1      -7.624  96.270 119.711  0.00  0.00    -0.241 OA
ATOM     24  O   LIG d   1      -7.580  96.397 117.555  0.00  0.00    -0.241 OA
ENDBRANCH   3  22
TORSDOF 7
ENDMDL
MODEL 2
REMARK VINA RESULT:      -4.9     12.806     14.807
REMARK  7 active torsions:
REMARK  status: ('A' for Active; 'I' for Inactive)
REMARK    1  A    between atoms: C_2  and  C_3 
REMARK    2  A    between atoms: C_3  and  O_6 
REMARK    3  A    between atoms: C_3  and  C_4 
REMARK    4  A    between atoms: C_7  and  O_6 
REMARK    5  A    between atoms: C_9  and  C_10 
REMARK    6  A    between atoms: N_15  and  C_14 
REMARK    7  A    between atoms: N_20  and  C_19 
REMARK       I    between atoms: C_22  and  N_20 
ROOT
ATOM      1  C   LIG d   1      -6.258  77.908 117.306  0.00  0.00     0.161 C 
ATOM      2  C   LIG d   1      -7.622  77.661 117.536  0.00  0.00     0.016 C 
ATOM      3  C   LIG d   1      -8.512  78.631 118.052  0.00  0.00     0.038 C 
ATOM      4  C   LIG d   1      -8.129  79.969 118.231  0.00  0.00     0.028 C 
ATOM      5  C   LIG d   1      -6.636  80.142 118.489  0.00  0.00    -0.047 C 
ATOM      6  C   LIG d   1      -5.847  79.393 117.390  0.00  0.00     0.091 C 
ENDROOT
BRANCH   1   7
ATOM      7  O   LIG d   1      -5.869  77.352 116.034  0.00  0.00    -0.368 OA
BRANCH   7   8
ATOM      8  C   LIG d   1      -5.308  76.017 116.068  0.00  0.00     0.119 C 
BRANCH   8   9
ATOM      9  C   LIG d   1      -3.785  76.150 115.877  0.00  0.00     0.028 C 
ATOM     10  C   LIG d   1      -3.416  76.826 114.546  0.00  0.00     0.006 C 
ENDBRANCH   8   9
BRANCH   8  11
ATOM     11  C   LIG d   1      -5.793  75.179 114.881  0.00  0.00     0.028 C 
ATOM     12  C   LIG d   1      -5.748  73.668 115.161  0.00  0.00     0.006 C 
ENDBRANCH   8  11
ENDBRANCH   7   8
ENDBRANCH   1   7
BRANCH   6  13
ATOM     13  N   LIG d   1      -4.378  79.441 117.615  0.00  0.00    -0.311 N 
ATOM     14  C   LIG d   1      -3.506  79.815 116.681  0.00  0.00     0.210 C 
ATOM     15  C   LIG d   1      -2.037  79.773 117.114  0.00  0.00     0.109 C 
ATOM     16  O   LIG d   1      -3.811  80.208 115.545  0.00  0.00    -0.276 OA
ATOM     17  H   LIG d   1      -4.046  79.168 118.519  0.00  0.00     0.149 HD
ENDBRANCH   6  13
BRANCH   5  18
ATOM     18  N   LIG d   1      -6.353  81.589 118.519  0.00  0.00     0.381 N 
ATOM     19  H   LIG d   1      -6.984  82.044 119.148  0.00  0.00    -0.090 HD
ATOM     20  H   LIG d   1      -6.498  81.968 117.599  0.00  0.00    -0.090 HD
ATOM     21  H   LIG d   1      -5.413  81.747 118.807  0.00  0.00    -0.090 HD
ENDBRANCH   5  18
BRANCH   3  22
ATOM     22  C   LIG d   1      -9.792  78.256 118.432  0.00  0.00     0.382 C 
ATOM     23  O   LIG d   1     -10.266  77.162 118.043  0.00  0.00    -0.241 OA
ATOM     24  O   LIG d   1     -10.495  79.019 119.121  0.00  0.00    -0.241 OA
ENDBRANCH   3  22
TORSDOF 7
ENDMDL
MODEL 3
REMARK VINA RESULT:      -4.9      2.657      5.942
REMARK  7 active torsions:
REMARK  status: ('A' for Active; 'I' for Inactive)
REMARK    1  A    between atoms: C_2  and  C_3 
REMARK    2  A    between atoms: C_3  and  O_6 
REMARK    3  A    between atoms: C_3  and  C_4 
REMARK    4  A    between atoms: C_7  and  O_6 
REMARK    5  A    between atoms: C_9  and  C_10 
REMARK    6  A    between atoms: N_15  and  C_14 
REMARK    7  A    between atoms: N_20  and  C_19 
REMARK       I    between atoms: C_22  and  N_20 
ROOT
ATOM      1  C   LIG d   1      -6.221  93.752 119.517  0.00  0.00     0.161 C 
ATOM      2  C   LIG d   1      -6.168  92.557 118.781  0.00  0.00     0.016 C 
ATOM      3  C   LIG d   1      -6.670  92.431 117.465  0.00  0.00     0.038 C 
ATOM      4  C   LIG d   1      -7.126  93.539 116.736  0.00  0.00     0.028 C 
ATOM      5  C   LIG d   1      -7.664  94.663 117.616  0.00  0.00    -0.047 C 
ATOM      6  C   LIG d   1      -6.613  94.999 118.699  0.00  0.00     0.091 C 
ENDROOT
BRANCH   1   7
ATOM      7  O   LIG d   1      -4.963  93.968 120.188  0.00  0.00    -0.368 OA
BRANCH   7   8
ATOM      8  C   LIG d   1      -3.899  94.529 119.382  0.00  0.00     0.119 C 
BRANCH   8   9
ATOM      9  C   LIG d   1      -2.867  93.412 119.134  0.00  0.00     0.028 C 
ATOM     10  C   LIG d   1      -2.633  93.151 117.636  0.00  0.00     0.006 C 
ENDBRANCH   8   9
BRANCH   8  11
ATOM     11  C   LIG d   1      -3.140  95.621 120.142  0.00  0.00     0.028 C 
ATOM     12  C   LIG d   1      -3.189  96.984 119.435  0.00  0.00     0.006 C 
ENDBRANCH   8  11
ENDBRANCH   7   8
ENDBRANCH   1   7
BRANCH   6  13
ATOM     13  N   LIG d   1      -7.095  96.031 119.654  0.00  0.00    -0.311 N 
ATOM     14  C   LIG d   1      -7.032  97.339 119.413  0.00  0.00     0.210 C 
ATOM     15  C   LIG d   1      -7.564  98.231 120.540  0.00  0.00     0.109 C 
ATOM     16  O   LIG d   1      -6.615  97.846 118.360  0.00  0.00    -0.276 OA
ATOM     17  H   LIG d   1      -7.477  95.707 120.521  0.00  0.00     0.149 HD
ENDBRANCH   6  13
BRANCH   5  18
ATOM     18  N   LIG d   1      -7.976  95.806 116.737  0.00  0.00     0.381 N 
ATOM     19  H   LIG d   1      -8.754  95.581 116.151  0.00  0.00    -0.090 HD
ATOM     20  H   LIG d   1      -7.181  95.991 116.150  0.00  0.00    -0.090 HD
ATOM     21  H   LIG d   1      -8.186  96.611 117.286  0.00  0.00    -0.090 HD
ENDBRANCH   5  18
BRANCH   3  22
ATOM     22  C   LIG d   1      -6.756  91.177 116.879  0.00  0.00     0.382 C 
ATOM     23  O   LIG d   1      -7.838  90.542 116.914  0.00  0.00    -0.241 OA
ATOM     24  O   LIG d   1      -5.754  90.654 116.355  0.00  0.00    -0.241 OA
ENDBRANCH   3  22
TORSDOF 7
ENDMDL
MODEL 4
REMARK VINA RESULT:      -4.5     11.981     15.298
REMARK  7 active torsions:
REMARK  status: ('A' for Active; 'I' for Inactive)
REMARK    1  A    between atoms: C_2  and  C_3 
REMARK    2  A    between atoms: C_3  and  O_6 
REMARK    3  A    between atoms: C_3  and  C_4 
REMARK    4  A    between atoms: C_7  and  O_6 
REMARK    5  A    between atoms: C_9  and  C_10 
REMARK    6  A    between atoms: N_15  and  C_14 
REMARK    7  A    between atoms: N_20  and  C_19 
REMARK       I    between atoms: C_22  and  N_20 
ROOT
ATOM      1  C   LIG d   1      -4.719  78.328 116.860  0.00  0.00     0.161 C 
ATOM      2  C   LIG d   1      -4.666  77.079 116.220  0.00  0.00     0.016 C 
ATOM      3  C   LIG d   1      -5.777  76.212 116.111  0.00  0.00     0.038 C 
ATOM      4  C   LIG d   1      -7.065  76.604 116.506  0.00  0.00     0.028 C 
ATOM      5  C   LIG d   1      -7.066  77.653 117.613  0.00  0.00    -0.047 C 
ATOM      6  C   LIG d   1      -6.142  78.821 117.199  0.00  0.00     0.091 C 
ENDROOT
BRANCH   1   7
ATOM      7  O   LIG d   1      -4.023  79.312 116.070  0.00  0.00    -0.368 OA
BRANCH   7   8
ATOM      8  C   LIG d   1      -2.766  79.790 116.610  0.00  0.00     0.119 C 
BRANCH   8   9
ATOM      9  C   LIG d   1      -1.633  79.111 115.816  0.00  0.00     0.028 C 
ATOM     10  C   LIG d   1      -1.964  78.976 114.320  0.00  0.00     0.006 C 
ENDBRANCH   8   9
BRANCH   8  11
ATOM     11  C   LIG d   1      -2.574  79.336 118.060  0.00  0.00     0.028 C 
ATOM     12  C   LIG d   1      -2.572  80.507 119.055  0.00  0.00     0.006 C 
ENDBRANCH   8  11
ENDBRANCH   7   8
ENDBRANCH   1   7
BRANCH   6  13
ATOM     13  N   LIG d   1      -6.019  79.851 118.262  0.00  0.00    -0.311 N 
ATOM     14  C   LIG d   1      -6.344  81.131 118.084  0.00  0.00     0.210 C 
ATOM     15  C   LIG d   1      -6.122  82.030 119.305  0.00  0.00     0.109 C 
ATOM     16  O   LIG d   1      -6.824  81.600 117.042  0.00  0.00    -0.276 OA
ATOM     17  H   LIG d   1      -5.667  79.551 119.150  0.00  0.00     0.149 HD
ENDBRANCH   6  13
BRANCH   5  18
ATOM     18  N   LIG d   1      -8.464  78.070 117.830  0.00  0.00     0.381 N 
ATOM     19  H   LIG d   1      -8.928  78.170 116.950  0.00  0.00    -0.090 HD
ATOM     20  H   LIG d   1      -8.468  78.963 118.292  0.00  0.00    -0.090 HD
ATOM     21  H   LIG d   1      -8.938  77.396 118.390  0.00  0.00    -0.090 HD
ENDBRANCH   5  18
BRANCH   3  22
ATOM     22  C   LIG d   1      -5.598  74.921 115.638  0.00  0.00     0.382 C 
ATOM     23  O   LIG d   1      -5.442  73.973 116.446  0.00  0.00    -0.241 OA
ATOM     24  O   LIG d   1      -5.546  74.698 114.414  0.00  0.00    -0.241 OA
ENDBRANCH   3  22
TORSDOF 7
ENDMDL
MODEL 5
REMARK VINA RESULT:      -4.5     13.752     16.899
REMARK  7 active torsions:
REMARK  status: ('A' for Active; 'I' for Inactive)
REMARK    1  A    between atoms: C_2  and  C_3 
REMARK    2  A    between atoms: C_3  and  O_6 
REMARK    3  A    between atoms: C_3  and  C_4 
REMARK    4  A    between atoms: C_7  and  O_6 
REMARK    5  A    between atoms: C_9  and  C_10 
REMARK    6  A    between atoms: N_15  and  C_14 
REMARK    7  A    between atoms: N_20  and  C_19 
REMARK       I    between atoms: C_22  and  N_20 
ROOT
ATOM      1  C   LIG d   1      -2.903  76.942 116.812  0.00  0.00     0.161 C 
ATOM      2  C   LIG d   1      -3.979  76.756 115.928  0.00  0.00     0.016 C 
ATOM      3  C   LIG d   1      -4.573  75.497 115.679  0.00  0.00     0.038 C 
ATOM      4  C   LIG d   1      -4.227  74.355 116.416  0.00  0.00     0.028 C 
ATOM      5  C   LIG d   1      -2.802  74.392 116.957  0.00  0.00    -0.047 C 
ATOM      6  C   LIG d   1      -2.585  75.726 117.708  0.00  0.00     0.091 C 
ENDROOT
BRANCH   1   7
ATOM      7  O   LIG d   1      -3.130  78.113 117.619  0.00  0.00    -0.368 OA
BRANCH   7   8
ATOM      8  C   LIG d   1      -4.489  78.616 117.646  0.00  0.00     0.119 C 
BRANCH   8   9
ATOM      9  C   LIG d   1      -4.422  80.143 117.453  0.00  0.00     0.028 C 
ATOM     10  C   LIG d   1      -5.791  80.819 117.640  0.00  0.00     0.006 C 
ENDBRANCH   8   9
BRANCH   8  11
ATOM     11  C   LIG d   1      -5.134  78.408 119.019  0.00  0.00     0.028 C 
ATOM     12  C   LIG d   1      -6.088  77.204 119.054  0.00  0.00     0.006 C 
ENDBRANCH   8  11
ENDBRANCH   7   8
ENDBRANCH   1   7
BRANCH   6  13
ATOM     13  N   LIG d   1      -1.190  75.881 118.197  0.00  0.00    -0.311 N 
ATOM     14  C   LIG d   1      -0.784  75.466 119.396  0.00  0.00     0.210 C 
ATOM     15  C   LIG d   1       0.690  75.741 119.709  0.00  0.00     0.109 C 
ATOM     16  O   LIG d   1      -1.496  74.868 120.216  0.00  0.00    -0.276 OA
ATOM     17  H   LIG d   1      -0.538  76.328 117.582  0.00  0.00     0.149 HD
ENDBRANCH   6  13
BRANCH   5  18
ATOM     18  N   LIG d   1      -2.621  73.208 117.818  0.00  0.00     0.381 N 
ATOM     19  H   LIG d   1      -1.649  73.077 118.013  0.00  0.00    -0.090 HD
ATOM     20  H   LIG d   1      -2.957  72.397 117.329  0.00  0.00    -0.090 HD
ATOM     21  H   LIG d   1      -3.125  73.325 118.669  0.00  0.00    -0.090 HD
ENDBRANCH   5  18
BRANCH   3  22
ATOM     22  C   LIG d   1      -5.498  75.365 114.654  0.00  0.00     0.382 C 
ATOM     23  O   LIG d   1      -5.892  74.225 114.309  0.00  0.00    -0.241 OA
ATOM     24  O   LIG d   1      -5.910  76.368 114.041  0.00  0.00    -0.241 OA
ENDBRANCH   3  22
TORSDOF 7
ENDMDL
MODEL 6
REMARK VINA RESULT:      -4.4      7.354      9.377
REMARK  7 active torsions:
REMARK  status: ('A' for Active; 'I' for Inactive)
REMARK    1  A    between atoms: C_2  and  C_3 
REMARK    2  A    between atoms: C_3  and  O_6 
REMARK    3  A    between atoms: C_3  and  C_4 
REMARK    4  A    between atoms: C_7  and  O_6 
REMARK    5  A    between atoms: C_9  and  C_10 
REMARK    6  A    between atoms: N_15  and  C_14 
REMARK    7  A    between atoms: N_20  and  C_19 
REMARK       I    between atoms: C_22  and  N_20 
ROOT
ATOM      1  C   LIG d   1       2.071  89.404 117.139  0.00  0.00     0.161 C 
ATOM      2  C   LIG d   1       2.220  90.691 117.682  0.00  0.00     0.016 C 
ATOM      3  C   LIG d   1       3.326  91.529 117.407  0.00  0.00     0.038 C 
ATOM      4  C   LIG d   1       4.289  91.192 116.444  0.00  0.00     0.028 C 
ATOM      5  C   LIG d   1       4.449  89.688 116.247  0.00  0.00    -0.047 C 
ATOM      6  C   LIG d   1       3.056  89.064 116.001  0.00  0.00     0.091 C 
ENDROOT
BRANCH   1   7
ATOM      7  O   LIG d   1       0.712  89.213 116.699  0.00  0.00    -0.368 OA
BRANCH   7   8
ATOM      8  C   LIG d   1      -0.096  88.314 117.498  0.00  0.00     0.119 C 
BRANCH   8   9
ATOM      9  C   LIG d   1      -1.144  89.167 118.238  0.00  0.00     0.028 C 
ATOM     10  C   LIG d   1      -1.779  88.420 119.423  0.00  0.00     0.006 C 
ENDBRANCH   8   9
BRANCH   8  11
ATOM     11  C   LIG d   1       0.734  87.647 118.598  0.00  0.00     0.028 C 
ATOM     12  C   LIG d   1       0.934  86.141 118.364  0.00  0.00     0.006 C 
ENDBRANCH   8  11
ENDBRANCH   7   8
ENDBRANCH   1   7
BRANCH   6  13
ATOM     13  N   LIG d   1       3.112  87.584 115.882  0.00  0.00    -0.311 N 
ATOM     14  C   LIG d   1       2.654  86.916 114.824  0.00  0.00     0.210 C 
ATOM     15  C   LIG d   1       2.790  85.393 114.912  0.00  0.00     0.109 C 
ATOM     16  O   LIG d   1       2.179  87.443 113.807  0.00  0.00    -0.276 OA
ATOM     17  H   LIG d   1       3.511  87.079 116.648  0.00  0.00     0.149 HD
ENDBRANCH   6  13
BRANCH   5  18
ATOM     18  N   LIG d   1       5.381  89.483 115.123  0.00  0.00     0.381 N 
ATOM     19  H   LIG d   1       6.057  88.787 115.366  0.00  0.00    -0.090 HD
ATOM     20  H   LIG d   1       5.867  90.344 114.941  0.00  0.00    -0.090 HD
ATOM     21  H   LIG d   1       4.879  89.199 114.311  0.00  0.00    -0.090 HD
ENDBRANCH   5  18
BRANCH   3  22
ATOM     22  C   LIG d   1       3.496  92.701 118.128  0.00  0.00     0.382 C 
ATOM     23  O   LIG d   1       4.161  93.646 117.639  0.00  0.00    -0.241 OA
ATOM     24  O   LIG d   1       3.031  92.808 119.278  0.00  0.00    -0.241 OA
ENDBRANCH   3  22
TORSDOF 7
ENDMDL
MODEL 7
REMARK VINA RESULT:      -4.2      9.100     11.976
REMARK  7 active torsions:
REMARK  status: ('A' for Active; 'I' for Inactive)
REMARK    1  A    between atoms: C_2  and  C_3 
REMARK    2  A    between atoms: C_3  and  O_6 
REMARK    3  A    between atoms: C_3  and  C_4 
REMARK    4  A    between atoms: C_7  and  O_6 
REMARK    5  A    between atoms: C_9  and  C_10 
REMARK    6  A    between atoms: N_15  and  C_14 
REMARK    7  A    between atoms: N_20  and  C_19 
REMARK       I    between atoms: C_22  and  N_20 
ROOT
ATOM      1  C   LIG d   1       4.702  89.943 115.502  0.00  0.00     0.161 C 
ATOM      2  C   LIG d   1       3.860  88.965 114.948  0.00  0.00     0.016 C 
ATOM      3  C   LIG d   1       4.049  87.577 115.139  0.00  0.00     0.038 C 
ATOM      4  C   LIG d   1       5.011  87.075 116.028  0.00  0.00     0.028 C 
ATOM      5  C   LIG d   1       6.206  88.005 116.215  0.00  0.00    -0.047 C 
ATOM      6  C   LIG d   1       5.690  89.419 116.564  0.00  0.00     0.091 C 
ENDROOT
BRANCH   1   7
ATOM      7  O   LIG d   1       3.910  91.020 116.042  0.00  0.00    -0.368 OA
BRANCH   7   8
ATOM      8  C   LIG d   1       3.242  90.752 117.299  0.00  0.00     0.119 C 
BRANCH   8   9
ATOM      9  C   LIG d   1       1.726  90.882 117.054  0.00  0.00     0.028 C 
ATOM     10  C   LIG d   1       1.000  89.529 117.133  0.00  0.00     0.006 C 
ENDBRANCH   8   9
BRANCH   8  11
ATOM     11  C   LIG d   1       3.577  91.818 118.347  0.00  0.00     0.028 C 
ATOM     12  C   LIG d   1       4.204  93.080 117.733  0.00  0.00     0.006 C 
ENDBRANCH   8  11
ENDBRANCH   7   8
ENDBRANCH   1   7
BRANCH   6  13
ATOM     13  N   LIG d   1       6.791  90.411 116.682  0.00  0.00    -0.311 N 
ATOM     14  C   LIG d   1       7.313  90.793 117.847  0.00  0.00     0.210 C 
ATOM     15  C   LIG d   1       8.426  91.840 117.744  0.00  0.00     0.109 C 
ATOM     16  O   LIG d   1       6.981  90.340 118.952  0.00  0.00    -0.276 OA
ATOM     17  H   LIG d   1       7.142  90.806 115.831  0.00  0.00     0.149 HD
ENDBRANCH   6  13
BRANCH   5  18
ATOM     18  N   LIG d   1       7.061  87.425 117.267  0.00  0.00     0.381 N 
ATOM     19  H   LIG d   1       7.391  86.526 116.978  0.00  0.00    -0.090 HD
ATOM     20  H   LIG d   1       6.514  87.306 118.102  0.00  0.00    -0.090 HD
ATOM     21  H   LIG d   1       7.833  88.027 117.450  0.00  0.00    -0.090 HD
ENDBRANCH   5  18
BRANCH   3  22
ATOM     22  C   LIG d   1       3.295  86.673 114.405  0.00  0.00     0.382 C 
ATOM     23  O   LIG d   1       2.263  87.059 113.806  0.00  0.00    -0.241 OA
ATOM     24  O   LIG d   1       3.610  85.469 114.372  0.00  0.00    -0.241 OA
ENDBRANCH   3  22
TORSDOF 7
ENDMDL
MODEL 8
REMARK VINA RESULT:      -4.2     27.511     29.623
REMARK  7 active torsions:
REMARK  status: ('A' for Active; 'I' for Inactive)
REMARK    1  A    between atoms: C_2  and  C_3 
REMARK    2  A    between atoms: C_3  and  O_6 
REMARK    3  A    between atoms: C_3  and  C_4 
REMARK    4  A    between atoms: C_7  and  O_6 
REMARK    5  A    between atoms: C_9  and  C_10 
REMARK    6  A    between atoms: N_15  and  C_14 
REMARK    7  A    between atoms: N_20  and  C_19 
REMARK       I    between atoms: C_22  and  N_20 
ROOT
ATOM      1  C   LIG d   1     -15.948  65.047 118.130  0.00  0.00     0.161 C 
ATOM      2  C   LIG d   1     -15.730  66.078 117.201  0.00  0.00     0.016 C 
ATOM      3  C   LIG d   1     -15.879  65.912 115.805  0.00  0.00     0.038 C 
ATOM      4  C   LIG d   1     -16.406  64.737 115.250  0.00  0.00     0.028 C 
ATOM      5  C   LIG d   1     -16.162  63.500 116.108  0.00  0.00    -0.047 C 
ATOM      6  C   LIG d   1     -16.631  63.790 117.552  0.00  0.00     0.091 C 
ENDROOT
BRANCH   1   7
ATOM      7  O   LIG d   1     -16.697  65.552 119.254  0.00  0.00    -0.368 OA
BRANCH   7   8
ATOM      8  C   LIG d   1     -17.343  66.835 119.064  0.00  0.00     0.119 C 
BRANCH   8   9
ATOM      9  C   LIG d   1     -17.260  67.597 120.401  0.00  0.00     0.028 C 
ATOM     10  C   LIG d   1     -17.039  69.106 120.204  0.00  0.00     0.006 C 
ENDBRANCH   8   9
BRANCH   8  11
ATOM     11  C   LIG d   1     -18.840  66.669 118.785  0.00  0.00     0.028 C 
ATOM     12  C   LIG d   1     -19.301  67.435 117.535  0.00  0.00     0.006 C 
ENDBRANCH   8  11
ENDBRANCH   7   8
ENDBRANCH   1   7
BRANCH   6  13
ATOM     13  N   LIG d   1     -16.351  62.660 118.477  0.00  0.00    -0.311 N 
ATOM     14  C   LIG d   1     -15.145  62.117 118.626  0.00  0.00     0.210 C 
ATOM     15  C   LIG d   1     -15.079  60.949 119.615  0.00  0.00     0.109 C 
ATOM     16  O   LIG d   1     -14.116  62.511 118.056  0.00  0.00    -0.276 OA
ATOM     17  H   LIG d   1     -17.123  62.299 119.002  0.00  0.00     0.149 HD
ENDBRANCH   6  13
BRANCH   5  18
ATOM     18  N   LIG d   1     -16.882  62.374 115.482  0.00  0.00     0.381 N 
ATOM     19  H   LIG d   1     -16.650  62.323 114.510  0.00  0.00    -0.090 HD
ATOM     20  H   LIG d   1     -17.870  62.535 115.562  0.00  0.00    -0.090 HD
ATOM     21  H   LIG d   1     -16.639  61.520 115.934  0.00  0.00    -0.090 HD
ENDBRANCH   5  18
BRANCH   3  22
ATOM     22  C   LIG d   1     -15.460  66.916 114.945  0.00  0.00     0.382 C 
ATOM     23  O   LIG d   1     -14.923  66.621 113.850  0.00  0.00    -0.241 OA
ATOM     24  O   LIG d   1     -15.571  68.113 115.270  0.00  0.00    -0.241 OA
ENDBRANCH   3  22
TORSDOF 7
ENDMDL
MODEL 9
REMARK VINA RESULT:      -4.1      6.966     10.209
REMARK  7 active torsions:
REMARK  status: ('A' for Active; 'I' for Inactive)
REMARK    1  A    between atoms: C_2  and  C_3 
REMARK    2  A    between atoms: C_3  and  O_6 
REMARK    3  A    between atoms: C_3  and  C_4 
REMARK    4  A    between atoms: C_7  and  O_6 
REMARK    5  A    between atoms: C_9  and  C_10 
REMARK    6  A    between atoms: N_15  and  C_14 
REMARK    7  A    between atoms: N_20  and  C_19 
REMARK       I    between atoms: C_22  and  N_20 
ROOT
ATOM      1  C   LIG d   1       2.412  90.357 116.641  0.00  0.00     0.161 C 
ATOM      2  C   LIG d   1       2.234  89.111 116.017  0.00  0.00     0.016 C 
ATOM      3  C   LIG d   1       3.304  88.320 115.540  0.00  0.00     0.038 C 
ATOM      4  C   LIG d   1       4.643  88.654 115.792  0.00  0.00     0.028 C 
ATOM      5  C   LIG d   1       4.870  90.151 115.974  0.00  0.00    -0.047 C 
ATOM      6  C   LIG d   1       3.870  90.686 117.024  0.00  0.00     0.091 C 
ENDROOT
BRANCH   1   7
ATOM      7  O   LIG d   1       1.557  90.451 117.797  0.00  0.00    -0.368 OA
BRANCH   7   8
ATOM      8  C   LIG d   1       0.223  89.904 117.650  0.00  0.00     0.119 C 
BRANCH   8   9
ATOM      9  C   LIG d   1      -0.758  91.090 117.578  0.00  0.00     0.028 C 
ATOM     10  C   LIG d   1      -0.978  91.753 118.948  0.00  0.00     0.006 C 
ENDBRANCH   8   9
BRANCH   8  11
ATOM     11  C   LIG d   1      -0.193  89.108 118.891  0.00  0.00     0.028 C 
ATOM     12  C   LIG d   1       0.013  87.594 118.724  0.00  0.00     0.006 C 
ENDBRANCH   8  11
ENDBRANCH   7   8
ENDBRANCH   1   7
BRANCH   6  13
ATOM     13  N   LIG d   1       3.967  92.159 117.201  0.00  0.00    -0.311 N 
ATOM     14  C   LIG d   1       4.385  92.736 118.326  0.00  0.00     0.210 C 
ATOM     15  C   LIG d   1       4.391  94.268 118.303  0.00  0.00     0.109 C 
ATOM     16  O   LIG d   1       4.782  92.125 119.329  0.00  0.00    -0.276 OA
ATOM     17  H   LIG d   1       3.695  92.730 116.425  0.00  0.00     0.149 HD
ENDBRANCH   6  13
BRANCH   5  18
ATOM     18  N   LIG d   1       6.279  90.344 116.365  0.00  0.00     0.381 N 
ATOM     19  H   LIG d   1       6.392  90.135 117.337  0.00  0.00    -0.090 HD
ATOM     20  H   LIG d   1       6.528  91.306 116.218  0.00  0.00    -0.090 HD
ATOM     21  H   LIG d   1       6.868  89.753 115.821  0.00  0.00    -0.090 HD
ENDBRANCH   5  18
BRANCH   3  22
ATOM     22  C   LIG d   1       3.039  87.200 114.767  0.00  0.00     0.382 C 
ATOM     23  O   LIG d   1       3.629  86.119 115.006  0.00  0.00    -0.241 OA
ATOM     24  O   LIG d   1       2.250  87.268 113.805  0.00  0.00    -0.241 OA
ENDBRANCH   3  22
TORSDOF 7
ENDMDL
