MODEL 1
REMARK VINA RESULT:      -5.9      0.000      0.000
REMARK  7 active torsions:
REMARK  status: ('A' for Active; 'I' for Inactive)
REMARK    1  A    between atoms: C_2  and  C_3 
REMARK    2  A    between atoms: C_3  and  O_6 
REMARK    3  A    between atoms: C_3  and  C_4 
REMARK    4  A    between atoms: C_7  and  O_6 
REMARK    5  A    between atoms: C_9  and  C_10 
REMARK    6  A    between atoms: N_15  and  C_14 
REMARK    7  A    between atoms: N_20  and  C_19 
REMARK       I    between atoms: C_22  and  N_20 
ROOT
ATOM      1  C   LIG d   1      -7.285  75.947 116.462  0.00  0.00     0.161 C 
ATOM      2  C   LIG d   1      -6.293  75.363 115.657  0.00  0.00     0.016 C 
ATOM      3  C   LIG d   1      -5.065  75.996 115.352  0.00  0.00     0.038 C 
ATOM      4  C   LIG d   1      -4.681  77.201 115.959  0.00  0.00     0.028 C 
ATOM      5  C   LIG d   1      -5.862  78.068 116.383  0.00  0.00    -0.047 C 
ATOM      6  C   LIG d   1      -6.837  77.213 117.223  0.00  0.00     0.091 C 
ENDROOT
BRANCH   1   7
ATOM      7  O   LIG d   1      -7.807  74.968 117.381  0.00  0.00    -0.368 OA
BRANCH   7   8
ATOM      8  C   LIG d   1      -8.265  73.725 116.796  0.00  0.00     0.119 C 
BRANCH   8   9
ATOM      9  C   LIG d   1      -9.754  73.564 117.158  0.00  0.00     0.028 C 
ATOM     10  C   LIG d   1     -10.624  74.692 116.579  0.00  0.00     0.006 C 
ENDBRANCH   8   9
BRANCH   8  11
ATOM     11  C   LIG d   1      -7.562  72.519 117.427  0.00  0.00     0.028 C 
ATOM     12  C   LIG d   1      -6.895  71.606 116.386  0.00  0.00     0.006 C 
ENDBRANCH   8  11
ENDBRANCH   7   8
ENDBRANCH   1   7
BRANCH   6  13
ATOM     13  N   LIG d   1      -8.061  77.963 117.608  0.00  0.00    -0.311 N 
ATOM     14  C   LIG d   1      -8.413  78.193 118.871  0.00  0.00     0.210 C 
ATOM     15  C   LIG d   1      -9.723  78.968 119.047  0.00  0.00     0.109 C 
ATOM     16  O   LIG d   1      -7.748  77.858 119.863  0.00  0.00    -0.276 OA
ATOM     17  H   LIG d   1      -8.643  78.299 116.865  0.00  0.00     0.149 HD
ENDBRANCH   6  13
BRANCH   5  18
ATOM     18  N   LIG d   1      -5.322  79.224 117.123  0.00  0.00     0.381 N 
ATOM     19  H   LIG d   1      -4.962  78.923 118.006  0.00  0.00    -0.090 HD
ATOM     20  H   LIG d   1      -6.066  79.878 117.292  0.00  0.00    -0.090 HD
ATOM     21  H   LIG d   1      -4.599  79.661 116.593  0.00  0.00    -0.090 HD
ENDBRANCH   5  18
BRANCH   3  22
ATOM     22  C   LIG d   1      -4.225  75.441 114.399  0.00  0.00     0.382 C 
ATOM     23  O   LIG d   1      -4.518  74.343 113.867  0.00  0.00    -0.241 OA
ATOM     24  O   LIG d   1      -3.155  76.003 114.097  0.00  0.00    -0.241 OA
ENDBRANCH   3  22
TORSDOF 7
ENDMDL
MODEL 2
REMARK VINA RESULT:      -5.8      1.611      4.902
REMARK  7 active torsions:
REMARK  status: ('A' for Active; 'I' for Inactive)
REMARK    1  A    between atoms: C_2  and  C_3 
REMARK    2  A    between atoms: C_3  and  O_6 
REMARK    3  A    between atoms: C_3  and  C_4 
REMARK    4  A    between atoms: C_7  and  O_6 
REMARK    5  A    between atoms: C_9  and  C_10 
REMARK    6  A    between atoms: N_15  and  C_14 
REMARK    7  A    between atoms: N_20  and  C_19 
REMARK       I    between atoms: C_22  and  N_20 
ROOT
ATOM      1  C   LIG d   1      -7.249  76.345 117.549  0.00  0.00     0.161 C 
ATOM      2  C   LIG d   1      -8.389  77.069 117.938  0.00  0.00     0.016 C 
ATOM      3  C   LIG d   1      -8.432  78.481 117.990  0.00  0.00     0.038 C 
ATOM      4  C   LIG d   1      -7.380  79.274 117.509  0.00  0.00     0.028 C 
ATOM      5  C   LIG d   1      -6.021  78.585 117.580  0.00  0.00    -0.047 C 
ATOM      6  C   LIG d   1      -6.128  77.194 116.915  0.00  0.00     0.091 C 
ENDROOT
BRANCH   1   7
ATOM      7  O   LIG d   1      -7.630  75.274 116.662  0.00  0.00    -0.368 OA
BRANCH   7   8
ATOM      8  C   LIG d   1      -7.645  73.945 117.238  0.00  0.00     0.119 C 
BRANCH   8   9
ATOM      9  C   LIG d   1      -6.682  73.071 116.410  0.00  0.00     0.028 C 
ATOM     10  C   LIG d   1      -7.080  71.586 116.421  0.00  0.00     0.006 C 
ENDBRANCH   8   9
BRANCH   8  11
ATOM     11  C   LIG d   1      -9.020  73.287 117.086  0.00  0.00     0.028 C 
ATOM     12  C   LIG d   1     -10.094  74.262 116.578  0.00  0.00     0.006 C 
ENDBRANCH   8  11
ENDBRANCH   7   8
ENDBRANCH   1   7
BRANCH   6  13
ATOM     13  N   LIG d   1      -4.865  76.418 117.015  0.00  0.00    -0.311 N 
ATOM     14  C   LIG d   1      -4.196  75.966 115.956  0.00  0.00     0.210 C 
ATOM     15  C   LIG d   1      -2.927  75.172 116.284  0.00  0.00     0.109 C 
ATOM     16  O   LIG d   1      -4.515  76.175 114.776  0.00  0.00    -0.276 OA
ATOM     17  H   LIG d   1      -4.517  76.231 117.935  0.00  0.00     0.149 HD
ENDBRANCH   6  13
BRANCH   5  18
ATOM     18  N   LIG d   1      -5.039  79.467 116.921  0.00  0.00     0.381 N 
ATOM     19  H   LIG d   1      -4.190  78.965 116.757  0.00  0.00    -0.090 HD
ATOM     20  H   LIG d   1      -4.837  80.240 117.530  0.00  0.00    -0.090 HD
ATOM     21  H   LIG d   1      -5.407  79.802 116.058  0.00  0.00    -0.090 HD
ENDBRANCH   5  18
BRANCH   3  22
ATOM     22  C   LIG d   1      -9.524  79.114 118.566  0.00  0.00     0.382 C 
ATOM     23  O   LIG d   1     -10.091  78.603 119.562  0.00  0.00    -0.241 OA
ATOM     24  O   LIG d   1      -9.975  80.166 118.075  0.00  0.00    -0.241 OA
ENDBRANCH   3  22
TORSDOF 7
ENDMDL
MODEL 3
REMARK VINA RESULT:      -5.6      2.047      4.746
REMARK  7 active torsions:
REMARK  status: ('A' for Active; 'I' for Inactive)
REMARK    1  A    between atoms: C_2  and  C_3 
REMARK    2  A    between atoms: C_3  and  O_6 
REMARK    3  A    between atoms: C_3  and  C_4 
REMARK    4  A    between atoms: C_7  and  O_6 
REMARK    5  A    between atoms: C_9  and  C_10 
REMARK    6  A    between atoms: N_15  and  C_14 
REMARK    7  A    between atoms: N_20  and  C_19 
REMARK       I    between atoms: C_22  and  N_20 
ROOT
ATOM      1  C   LIG d   1      -6.281  75.893 117.384  0.00  0.00     0.161 C 
ATOM      2  C   LIG d   1      -7.235  74.926 117.026  0.00  0.00     0.016 C 
ATOM      3  C   LIG d   1      -8.622  75.192 116.948  0.00  0.00     0.038 C 
ATOM      4  C   LIG d   1      -9.136  76.491 117.078  0.00  0.00     0.028 C 
ATOM      5  C   LIG d   1      -8.267  77.403 117.937  0.00  0.00    -0.047 C 
ATOM      6  C   LIG d   1      -6.811  77.342 117.421  0.00  0.00     0.091 C 
ENDROOT
BRANCH   1   7
ATOM      7  O   LIG d   1      -5.139  75.799 116.511  0.00  0.00    -0.368 OA
BRANCH   7   8
ATOM      8  C   LIG d   1      -5.158  76.656 115.342  0.00  0.00     0.119 C 
BRANCH   8   9
ATOM      9  C   LIG d   1      -5.281  75.746 114.104  0.00  0.00     0.028 C 
ATOM     10  C   LIG d   1      -4.756  74.325 114.365  0.00  0.00     0.006 C 
ENDBRANCH   8   9
BRANCH   8  11
ATOM     11  C   LIG d   1      -3.828  77.395 115.171  0.00  0.00     0.028 C 
ATOM     12  C   LIG d   1      -2.887  77.214 116.373  0.00  0.00     0.006 C 
ENDBRANCH   8  11
ENDBRANCH   7   8
ENDBRANCH   1   7
BRANCH   6  13
ATOM     13  N   LIG d   1      -5.879  78.141 118.258  0.00  0.00    -0.311 N 
ATOM     14  C   LIG d   1      -5.531  79.395 117.975  0.00  0.00     0.210 C 
ATOM     15  C   LIG d   1      -4.542  80.029 118.958  0.00  0.00     0.109 C 
ATOM     16  O   LIG d   1      -5.972  80.053 117.021  0.00  0.00    -0.276 OA
ATOM     17  H   LIG d   1      -5.498  77.694 119.069  0.00  0.00     0.149 HD
ENDBRANCH   6  13
BRANCH   5  18
ATOM     18  N   LIG d   1      -8.846  78.759 117.874  0.00  0.00     0.381 N 
ATOM     19  H   LIG d   1      -8.115  79.435 117.785  0.00  0.00    -0.090 HD
ATOM     20  H   LIG d   1      -9.341  78.940 118.729  0.00  0.00    -0.090 HD
ATOM     21  H   LIG d   1      -9.469  78.828 117.100  0.00  0.00    -0.090 HD
ENDBRANCH   5  18
BRANCH   3  22
ATOM     22  C   LIG d   1      -9.514  74.145 116.777  0.00  0.00     0.382 C 
ATOM     23  O   LIG d   1     -10.739  74.380 116.646  0.00  0.00    -0.241 OA
ATOM     24  O   LIG d   1      -9.115  72.965 116.798  0.00  0.00    -0.241 OA
ENDBRANCH   3  22
TORSDOF 7
ENDMDL
MODEL 4
REMARK VINA RESULT:      -5.4      2.175      5.077
REMARK  7 active torsions:
REMARK  status: ('A' for Active; 'I' for Inactive)
REMARK    1  A    between atoms: C_2  and  C_3 
REMARK    2  A    between atoms: C_3  and  O_6 
REMARK    3  A    between atoms: C_3  and  C_4 
REMARK    4  A    between atoms: C_7  and  O_6 
REMARK    5  A    between atoms: C_9  and  C_10 
REMARK    6  A    between atoms: N_15  and  C_14 
REMARK    7  A    between atoms: N_20  and  C_19 
REMARK       I    between atoms: C_22  and  N_20 
ROOT
ATOM      1  C   LIG d   1      -5.593  76.761 116.119  0.00  0.00     0.161 C 
ATOM      2  C   LIG d   1      -6.944  76.400 116.250  0.00  0.00     0.016 C 
ATOM      3  C   LIG d   1      -7.905  77.205 116.903  0.00  0.00     0.038 C 
ATOM      4  C   LIG d   1      -7.610  78.505 117.341  0.00  0.00     0.028 C 
ATOM      5  C   LIG d   1      -6.137  78.709 117.681  0.00  0.00    -0.047 C 
ATOM      6  C   LIG d   1      -5.276  78.224 116.492  0.00  0.00     0.091 C 
ENDROOT
BRANCH   1   7
ATOM      7  O   LIG d   1      -5.138  76.475 114.782  0.00  0.00    -0.368 OA
BRANCH   7   8
ATOM      8  C   LIG d   1      -4.156  75.417 114.656  0.00  0.00     0.119 C 
BRANCH   8   9
ATOM      9  C   LIG d   1      -4.888  74.167 114.129  0.00  0.00     0.028 C 
ATOM     10  C   LIG d   1      -5.290  73.203 115.259  0.00  0.00     0.006 C 
ENDBRANCH   8   9
BRANCH   8  11
ATOM     11  C   LIG d   1      -3.594  75.012 116.021  0.00  0.00     0.028 C 
ATOM     12  C   LIG d   1      -2.059  75.068 116.074  0.00  0.00     0.006 C 
ENDBRANCH   8  11
ENDBRANCH   7   8
ENDBRANCH   1   7
BRANCH   6  13
ATOM     13  N   LIG d   1      -3.819  78.311 116.775  0.00  0.00    -0.311 N 
ATOM     14  C   LIG d   1      -2.926  78.757 115.894  0.00  0.00     0.210 C 
ATOM     15  C   LIG d   1      -1.474  78.744 116.382  0.00  0.00     0.109 C 
ATOM     16  O   LIG d   1      -3.202  79.192 114.766  0.00  0.00    -0.276 OA
ATOM     17  H   LIG d   1      -3.512  78.007 117.679  0.00  0.00     0.149 HD
ENDBRANCH   6  13
BRANCH   5  18
ATOM     18  N   LIG d   1      -5.945  80.139 117.989  0.00  0.00     0.381 N 
ATOM     19  H   LIG d   1      -6.734  80.485 118.498  0.00  0.00    -0.090 HD
ATOM     20  H   LIG d   1      -5.878  80.651 117.127  0.00  0.00    -0.090 HD
ATOM     21  H   LIG d   1      -5.114  80.264 118.524  0.00  0.00    -0.090 HD
ENDBRANCH   5  18
BRANCH   3  22
ATOM     22  C   LIG d   1      -9.169  76.696 117.160  0.00  0.00     0.382 C 
ATOM     23  O   LIG d   1      -9.495  75.571 116.709  0.00  0.00    -0.241 OA
ATOM     24  O   LIG d   1     -10.003  77.365 117.799  0.00  0.00    -0.241 OA
ENDBRANCH   3  22
TORSDOF 7
ENDMDL
MODEL 5
REMARK VINA RESULT:      -5.4      2.158      5.561
REMARK  7 active torsions:
REMARK  status: ('A' for Active; 'I' for Inactive)
REMARK    1  A    between atoms: C_2  and  C_3 
REMARK    2  A    between atoms: C_3  and  O_6 
REMARK    3  A    between atoms: C_3  and  C_4 
REMARK    4  A    between atoms: C_7  and  O_6 
REMARK    5  A    between atoms: C_9  and  C_10 
REMARK    6  A    between atoms: N_15  and  C_14 
REMARK    7  A    between atoms: N_20  and  C_19 
REMARK       I    between atoms: C_22  and  N_20 
ROOT
ATOM      1  C   LIG d   1      -7.036  76.920 116.805  0.00  0.00     0.161 C 
ATOM      2  C   LIG d   1      -8.043  75.981 117.085  0.00  0.00     0.016 C 
ATOM      3  C   LIG d   1      -7.904  74.595 116.844  0.00  0.00     0.038 C 
ATOM      4  C   LIG d   1      -6.683  74.031 116.445  0.00  0.00     0.028 C 
ATOM      5  C   LIG d   1      -5.794  74.997 115.669  0.00  0.00    -0.047 C 
ATOM      6  C   LIG d   1      -5.658  76.310 116.474  0.00  0.00     0.091 C 
ENDROOT
BRANCH   1   7
ATOM      7  O   LIG d   1      -6.922  77.853 117.898  0.00  0.00    -0.368 OA
BRANCH   7   8
ATOM      8  C   LIG d   1      -7.447  79.182 117.658  0.00  0.00     0.119 C 
BRANCH   8   9
ATOM      9  C   LIG d   1      -6.256  80.159 117.662  0.00  0.00     0.028 C 
ATOM     10  C   LIG d   1      -5.124  79.700 118.597  0.00  0.00     0.006 C 
ENDBRANCH   8   9
BRANCH   8  11
ATOM     11  C   LIG d   1      -8.351  79.639 118.808  0.00  0.00     0.028 C 
ATOM     12  C   LIG d   1      -9.671  78.856 118.876  0.00  0.00     0.006 C 
ENDBRANCH   8  11
ENDBRANCH   7   8
ENDBRANCH   1   7
BRANCH   6  13
ATOM     13  N   LIG d   1      -4.873  77.342 115.748  0.00  0.00    -0.311 N 
ATOM     14  C   LIG d   1      -3.572  77.547 115.946  0.00  0.00     0.210 C 
ATOM     15  C   LIG d   1      -2.960  78.674 115.107  0.00  0.00     0.109 C 
ATOM     16  O   LIG d   1      -2.859  76.882 116.713  0.00  0.00    -0.276 OA
ATOM     17  H   LIG d   1      -5.365  77.906 115.084  0.00  0.00     0.149 HD
ENDBRANCH   6  13
BRANCH   5  18
ATOM     18  N   LIG d   1      -4.502  74.325 115.437  0.00  0.00     0.381 N 
ATOM     19  H   LIG d   1      -4.061  74.710 114.625  0.00  0.00    -0.090 HD
ATOM     20  H   LIG d   1      -4.668  73.348 115.272  0.00  0.00    -0.090 HD
ATOM     21  H   LIG d   1      -3.910  74.440 116.230  0.00  0.00    -0.090 HD
ENDBRANCH   5  18
BRANCH   3  22
ATOM     22  C   LIG d   1      -9.006  73.762 116.964  0.00  0.00     0.382 C 
ATOM     23  O   LIG d   1     -10.139  74.166 116.607  0.00  0.00    -0.241 OA
ATOM     24  O   LIG d   1      -8.889  72.628 117.465  0.00  0.00    -0.241 OA
ENDBRANCH   3  22
TORSDOF 7
ENDMDL
MODEL 6
REMARK VINA RESULT:      -5.1      1.511      2.417
REMARK  7 active torsions:
REMARK  status: ('A' for Active; 'I' for Inactive)
REMARK    1  A    between atoms: C_2  and  C_3 
REMARK    2  A    between atoms: C_3  and  O_6 
REMARK    3  A    between atoms: C_3  and  C_4 
REMARK    4  A    between atoms: C_7  and  O_6 
REMARK    5  A    between atoms: C_9  and  C_10 
REMARK    6  A    between atoms: N_15  and  C_14 
REMARK    7  A    between atoms: N_20  and  C_19 
REMARK       I    between atoms: C_22  and  N_20 
ROOT
ATOM      1  C   LIG d   1      -5.727  76.646 115.252  0.00  0.00     0.161 C 
ATOM      2  C   LIG d   1      -4.492  76.273 114.697  0.00  0.00     0.016 C 
ATOM      3  C   LIG d   1      -3.246  76.672 115.233  0.00  0.00     0.038 C 
ATOM      4  C   LIG d   1      -3.148  77.350 116.457  0.00  0.00     0.028 C 
ATOM      5  C   LIG d   1      -4.382  78.182 116.789  0.00  0.00    -0.047 C 
ATOM      6  C   LIG d   1      -5.639  77.293 116.650  0.00  0.00     0.091 C 
ENDROOT
BRANCH   1   7
ATOM      7  O   LIG d   1      -6.613  75.509 115.281  0.00  0.00    -0.368 OA
BRANCH   7   8
ATOM      8  C   LIG d   1      -6.409  74.570 116.366  0.00  0.00     0.119 C 
BRANCH   8   9
ATOM      9  C   LIG d   1      -6.011  73.220 115.740  0.00  0.00     0.028 C 
ATOM     10  C   LIG d   1      -6.749  72.034 116.383  0.00  0.00     0.006 C 
ENDBRANCH   8   9
BRANCH   8  11
ATOM     11  C   LIG d   1      -7.714  74.298 117.120  0.00  0.00     0.028 C 
ATOM     12  C   LIG d   1      -8.910  75.067 116.537  0.00  0.00     0.006 C 
ENDBRANCH   8  11
ENDBRANCH   7   8
ENDBRANCH   1   7
BRANCH   6  13
ATOM     13  N   LIG d   1      -6.897  78.051 116.876  0.00  0.00    -0.311 N 
ATOM     14  C   LIG d   1      -7.537  78.080 118.044  0.00  0.00     0.210 C 
ATOM     15  C   LIG d   1      -8.827  78.906 118.054  0.00  0.00     0.109 C 
ATOM     16  O   LIG d   1      -7.141  77.527 119.080  0.00  0.00    -0.276 OA
ATOM     17  H   LIG d   1      -7.272  78.554 116.096  0.00  0.00     0.149 HD
ENDBRANCH   6  13
BRANCH   5  18
ATOM     18  N   LIG d   1      -4.203  78.723 118.149  0.00  0.00     0.381 N 
ATOM     19  H   LIG d   1      -4.534  79.666 118.186  0.00  0.00    -0.090 HD
ATOM     20  H   LIG d   1      -3.223  78.724 118.372  0.00  0.00    -0.090 HD
ATOM     21  H   LIG d   1      -4.700  78.163 118.807  0.00  0.00    -0.090 HD
ENDBRANCH   5  18
BRANCH   3  22
ATOM     22  C   LIG d   1      -2.081  76.426 114.522  0.00  0.00     0.382 C 
ATOM     23  O   LIG d   1      -1.580  75.276 114.517  0.00  0.00    -0.241 OA
ATOM     24  O   LIG d   1      -1.501  77.350 113.920  0.00  0.00    -0.241 OA
ENDBRANCH   3  22
TORSDOF 7
ENDMDL
MODEL 7
REMARK VINA RESULT:      -5.0      2.163      2.479
REMARK  7 active torsions:
REMARK  status: ('A' for Active; 'I' for Inactive)
REMARK    1  A    between atoms: C_2  and  C_3 
REMARK    2  A    between atoms: C_3  and  O_6 
REMARK    3  A    between atoms: C_3  and  C_4 
REMARK    4  A    between atoms: C_7  and  O_6 
REMARK    5  A    between atoms: C_9  and  C_10 
REMARK    6  A    between atoms: N_15  and  C_14 
REMARK    7  A    between atoms: N_20  and  C_19 
REMARK       I    between atoms: C_22  and  N_20 
ROOT
ATOM      1  C   LIG d   1      -5.446  76.388 117.153  0.00  0.00     0.161 C 
ATOM      2  C   LIG d   1      -4.447  75.617 116.535  0.00  0.00     0.016 C 
ATOM      3  C   LIG d   1      -3.064  75.850 116.712  0.00  0.00     0.038 C 
ATOM      4  C   LIG d   1      -2.582  76.781 117.645  0.00  0.00     0.028 C 
ATOM      5  C   LIG d   1      -3.553  77.925 117.916  0.00  0.00    -0.047 C 
ATOM      6  C   LIG d   1      -4.940  77.336 118.260  0.00  0.00     0.091 C 
ENDROOT
BRANCH   1   7
ATOM      7  O   LIG d   1      -6.481  75.526 117.666  0.00  0.00    -0.368 OA
BRANCH   7   8
ATOM      8  C   LIG d   1      -7.268  74.816 116.677  0.00  0.00     0.119 C 
BRANCH   8   9
ATOM      9  C   LIG d   1      -8.418  75.747 116.246  0.00  0.00     0.028 C 
ATOM     10  C   LIG d   1      -9.802  75.131 116.511  0.00  0.00     0.006 C 
ENDBRANCH   8   9
BRANCH   8  11
ATOM     11  C   LIG d   1      -7.948  73.586 117.285  0.00  0.00     0.028 C 
ATOM     12  C   LIG d   1      -7.312  72.265 116.824  0.00  0.00     0.006 C 
ENDBRANCH   8  11
ENDBRANCH   7   8
ENDBRANCH   1   7
BRANCH   6  13
ATOM     13  N   LIG d   1      -5.970  78.389 118.457  0.00  0.00    -0.311 N 
ATOM     14  C   LIG d   1      -6.267  79.305 117.536  0.00  0.00     0.210 C 
ATOM     15  C   LIG d   1      -7.346  80.311 117.950  0.00  0.00     0.109 C 
ATOM     16  O   LIG d   1      -5.763  79.360 116.405  0.00  0.00    -0.276 OA
ATOM     17  H   LIG d   1      -6.451  78.398 119.335  0.00  0.00     0.149 HD
ENDBRANCH   6  13
BRANCH   5  18
ATOM     18  N   LIG d   1      -2.986  78.743 119.004  0.00  0.00     0.381 N 
ATOM     19  H   LIG d   1      -2.603  79.588 118.629  0.00  0.00    -0.090 HD
ATOM     20  H   LIG d   1      -2.243  78.228 119.444  0.00  0.00    -0.090 HD
ATOM     21  H   LIG d   1      -3.692  78.958 119.673  0.00  0.00    -0.090 HD
ENDBRANCH   5  18
BRANCH   3  22
ATOM     22  C   LIG d   1      -2.147  75.175 115.922  0.00  0.00     0.382 C 
ATOM     23  O   LIG d   1      -2.165  75.321 114.676  0.00  0.00    -0.241 OA
ATOM     24  O   LIG d   1      -1.330  74.386 116.435  0.00  0.00    -0.241 OA
ENDBRANCH   3  22
TORSDOF 7
ENDMDL
MODEL 8
REMARK VINA RESULT:      -4.9      2.566      5.833
REMARK  7 active torsions:
REMARK  status: ('A' for Active; 'I' for Inactive)
REMARK    1  A    between atoms: C_2  and  C_3 
REMARK    2  A    between atoms: C_3  and  O_6 
REMARK    3  A    between atoms: C_3  and  C_4 
REMARK    4  A    between atoms: C_7  and  O_6 
REMARK    5  A    between atoms: C_9  and  C_10 
REMARK    6  A    between atoms: N_15  and  C_14 
REMARK    7  A    between atoms: N_20  and  C_19 
REMARK       I    between atoms: C_22  and  N_20 
ROOT
ATOM      1  C   LIG d   1      -6.204  76.864 117.284  0.00  0.00     0.161 C 
ATOM      2  C   LIG d   1      -6.710  78.136 117.602  0.00  0.00     0.016 C 
ATOM      3  C   LIG d   1      -8.092  78.434 117.650  0.00  0.00     0.038 C 
ATOM      4  C   LIG d   1      -9.070  77.436 117.529  0.00  0.00     0.028 C 
ATOM      5  C   LIG d   1      -8.613  76.236 116.707  0.00  0.00    -0.047 C 
ATOM      6  C   LIG d   1      -7.258  75.737 117.258  0.00  0.00     0.091 C 
ENDROOT
BRANCH   1   7
ATOM      7  O   LIG d   1      -5.131  76.526 118.184  0.00  0.00    -0.368 OA
BRANCH   7   8
ATOM      8  C   LIG d   1      -3.790  76.635 117.646  0.00  0.00     0.119 C 
BRANCH   8   9
ATOM      9  C   LIG d   1      -3.259  78.036 118.005  0.00  0.00     0.028 C 
ATOM     10  C   LIG d   1      -2.207  78.540 117.003  0.00  0.00     0.006 C 
ENDBRANCH   8   9
BRANCH   8  11
ATOM     11  C   LIG d   1      -3.798  76.584 116.116  0.00  0.00     0.028 C 
ATOM     12  C   LIG d   1      -3.257  75.257 115.560  0.00  0.00     0.006 C 
ENDBRANCH   8  11
ENDBRANCH   7   8
ENDBRANCH   1   7
BRANCH   6  13
ATOM     13  N   LIG d   1      -6.698  74.617 116.458  0.00  0.00    -0.311 N 
ATOM     14  C   LIG d   1      -6.925  73.333 116.734  0.00  0.00     0.210 C 
ATOM     15  C   LIG d   1      -6.236  72.338 115.795  0.00  0.00     0.109 C 
ATOM     16  O   LIG d   1      -7.657  72.925 117.648  0.00  0.00    -0.276 OA
ATOM     17  H   LIG d   1      -6.117  74.858 115.679  0.00  0.00     0.149 HD
ENDBRANCH   6  13
BRANCH   5  18
ATOM     18  N   LIG d   1      -9.677  75.216 116.778  0.00  0.00     0.381 N 
ATOM     19  H   LIG d   1     -10.029  75.029 115.860  0.00  0.00    -0.090 HD
ATOM     20  H   LIG d   1     -10.431  75.571 117.339  0.00  0.00    -0.090 HD
ATOM     21  H   LIG d   1      -9.319  74.378 117.181  0.00  0.00    -0.090 HD
ENDBRANCH   5  18
BRANCH   3  22
ATOM     22  C   LIG d   1      -8.506  79.751 117.780  0.00  0.00     0.382 C 
ATOM     23  O   LIG d   1      -7.773  80.682 117.369  0.00  0.00    -0.241 OA
ATOM     24  O   LIG d   1      -9.583  80.021 118.344  0.00  0.00    -0.241 OA
ENDBRANCH   3  22
TORSDOF 7
ENDMDL
MODEL 9
REMARK VINA RESULT:      -4.9      1.651      2.195
REMARK  7 active torsions:
REMARK  status: ('A' for Active; 'I' for Inactive)
REMARK    1  A    between atoms: C_2  and  C_3 
REMARK    2  A    between atoms: C_3  and  O_6 
REMARK    3  A    between atoms: C_3  and  C_4 
REMARK    4  A    between atoms: C_7  and  O_6 
REMARK    5  A    between atoms: C_9  and  C_10 
REMARK    6  A    between atoms: N_15  and  C_14 
REMARK    7  A    between atoms: N_20  and  C_19 
REMARK       I    between atoms: C_22  and  N_20 
ROOT
ATOM      1  C   LIG d   1      -6.202  76.990 117.004  0.00  0.00     0.161 C 
ATOM      2  C   LIG d   1      -5.162  77.122 116.069  0.00  0.00     0.016 C 
ATOM      3  C   LIG d   1      -4.174  78.131 116.141  0.00  0.00     0.038 C 
ATOM      4  C   LIG d   1      -4.071  78.991 117.244  0.00  0.00     0.028 C 
ATOM      5  C   LIG d   1      -5.399  79.220 117.959  0.00  0.00    -0.047 C 
ATOM      6  C   LIG d   1      -6.042  77.851 118.275  0.00  0.00     0.091 C 
ENDROOT
BRANCH   1   7
ATOM      7  O   LIG d   1      -6.370  75.603 117.356  0.00  0.00    -0.368 OA
BRANCH   7   8
ATOM      8  C   LIG d   1      -7.321  74.854 116.560  0.00  0.00     0.119 C 
BRANCH   8   9
ATOM      9  C   LIG d   1      -8.521  75.780 116.281  0.00  0.00     0.028 C 
ATOM     10  C   LIG d   1      -9.869  75.090 116.551  0.00  0.00     0.006 C 
ENDBRANCH   8   9
BRANCH   8  11
ATOM     11  C   LIG d   1      -7.896  73.671 117.344  0.00  0.00     0.028 C 
ATOM     12  C   LIG d   1      -7.317  72.320 116.894  0.00  0.00     0.006 C 
ENDBRANCH   8  11
ENDBRANCH   7   8
ENDBRANCH   1   7
BRANCH   6  13
ATOM     13  N   LIG d   1      -7.384  77.985 118.900  0.00  0.00    -0.311 N 
ATOM     14  C   LIG d   1      -8.331  78.797 118.434  0.00  0.00     0.210 C 
ATOM     15  C   LIG d   1      -9.634  78.799 119.239  0.00  0.00     0.109 C 
ATOM     16  O   LIG d   1      -8.227  79.493 117.413  0.00  0.00    -0.276 OA
ATOM     17  H   LIG d   1      -7.564  77.433 119.715  0.00  0.00     0.149 HD
ENDBRANCH   6  13
BRANCH   5  18
ATOM     18  N   LIG d   1      -5.122  80.022 119.166  0.00  0.00     0.381 N 
ATOM     19  H   LIG d   1      -5.419  80.966 119.021  0.00  0.00    -0.090 HD
ATOM     20  H   LIG d   1      -4.132  80.025 119.334  0.00  0.00    -0.090 HD
ATOM     21  H   LIG d   1      -5.598  79.633 119.950  0.00  0.00    -0.090 HD
ENDBRANCH   5  18
BRANCH   3  22
ATOM     22  C   LIG d   1      -3.299  78.313 115.080  0.00  0.00     0.382 C 
ATOM     23  O   LIG d   1      -3.133  79.457 114.594  0.00  0.00    -0.241 OA
ATOM     24  O   LIG d   1      -2.708  77.340 114.575  0.00  0.00    -0.241 OA
ENDBRANCH   3  22
TORSDOF 7
ENDMDL
