MODEL 1
REMARK VINA RESULT:      -6.2      0.000      0.000
REMARK  7 active torsions:
REMARK  status: ('A' for Active; 'I' for Inactive)
REMARK    1  A    between atoms: C_2  and  C_3 
REMARK    2  A    between atoms: C_3  and  O_6 
REMARK    3  A    between atoms: C_3  and  C_4 
REMARK    4  A    between atoms: C_7  and  O_6 
REMARK    5  A    between atoms: C_9  and  C_10 
REMARK    6  A    between atoms: N_15  and  C_14 
REMARK    7  A    between atoms: N_20  and  C_19 
REMARK       I    between atoms: C_22  and  N_20 
ROOT
ATOM      1  C   LIG d   1      -7.636  76.515 117.532  0.00  0.00     0.161 C 
ATOM      2  C   LIG d   1      -8.912  76.956 117.923  0.00  0.00     0.016 C 
ATOM      3  C   LIG d   1      -9.242  78.319 118.105  0.00  0.00     0.038 C 
ATOM      4  C   LIG d   1      -8.355  79.349 117.760  0.00  0.00     0.028 C 
ATOM      5  C   LIG d   1      -6.889  78.939 117.843  0.00  0.00    -0.047 C 
ATOM      6  C   LIG d   1      -6.688  77.631 117.045  0.00  0.00     0.091 C 
ENDROOT
BRANCH   1   7
ATOM      7  O   LIG d   1      -7.760  75.489 116.529  0.00  0.00    -0.368 OA
BRANCH   7   8
ATOM      8  C   LIG d   1      -7.678  74.122 117.002  0.00  0.00     0.119 C 
BRANCH   8   9
ATOM      9  C   LIG d   1      -6.699  73.371 116.079  0.00  0.00     0.028 C 
ATOM     10  C   LIG d   1      -6.079  74.287 115.011  0.00  0.00     0.006 C 
ENDBRANCH   8   9
BRANCH   8  11
ATOM     11  C   LIG d   1      -9.018  73.397 116.847  0.00  0.00     0.028 C 
ATOM     12  C   LIG d   1      -8.880  71.868 116.919  0.00  0.00     0.006 C 
ENDBRANCH   8  11
ENDBRANCH   7   8
ENDBRANCH   1   7
BRANCH   6  13
ATOM     13  N   LIG d   1      -5.298  77.114 117.144  0.00  0.00    -0.311 N 
ATOM     14  C   LIG d   1      -4.352  77.377 116.243  0.00  0.00     0.210 C 
ATOM     15  C   LIG d   1      -2.993  76.729 116.525  0.00  0.00     0.109 C 
ATOM     16  O   LIG d   1      -4.501  78.112 115.255  0.00  0.00    -0.276 OA
ATOM     17  H   LIG d   1      -5.082  76.534 117.931  0.00  0.00     0.149 HD
ENDBRANCH   6  13
BRANCH   5  18
ATOM     18  N   LIG d   1      -6.082  80.061 117.327  0.00  0.00     0.381 N 
ATOM     19  H   LIG d   1      -6.059  80.029 116.327  0.00  0.00    -0.090 HD
ATOM     20  H   LIG d   1      -5.141  79.969 117.667  0.00  0.00    -0.090 HD
ATOM     21  H   LIG d   1      -6.469  80.927 117.630  0.00  0.00    -0.090 HD
ENDBRANCH   5  18
BRANCH   3  22
ATOM     22  C   LIG d   1     -10.459  78.661 118.675  0.00  0.00     0.382 C 
ATOM     23  O   LIG d   1     -11.361  77.796 118.793  0.00  0.00    -0.241 OA
ATOM     24  O   LIG d   1     -10.682  79.833 119.032  0.00  0.00    -0.241 OA
ENDBRANCH   3  22
TORSDOF 7
ENDMDL
MODEL 2
REMARK VINA RESULT:      -5.9      2.053      2.600
REMARK  7 active torsions:
REMARK  status: ('A' for Active; 'I' for Inactive)
REMARK    1  A    between atoms: C_2  and  C_3 
REMARK    2  A    between atoms: C_3  and  O_6 
REMARK    3  A    between atoms: C_3  and  C_4 
REMARK    4  A    between atoms: C_7  and  O_6 
REMARK    5  A    between atoms: C_9  and  C_10 
REMARK    6  A    between atoms: N_15  and  C_14 
REMARK    7  A    between atoms: N_20  and  C_19 
REMARK       I    between atoms: C_22  and  N_20 
ROOT
ATOM      1  C   LIG d   1      -6.214  76.852 116.882  0.00  0.00     0.161 C 
ATOM      2  C   LIG d   1      -7.076  77.901 117.242  0.00  0.00     0.016 C 
ATOM      3  C   LIG d   1      -6.692  79.262 117.228  0.00  0.00     0.038 C 
ATOM      4  C   LIG d   1      -5.459  79.680 116.706  0.00  0.00     0.028 C 
ATOM      5  C   LIG d   1      -4.369  78.617 116.803  0.00  0.00    -0.047 C 
ATOM      6  C   LIG d   1      -4.902  77.296 116.203  0.00  0.00     0.091 C 
ENDROOT
BRANCH   1   7
ATOM      7  O   LIG d   1      -6.916  75.909 116.047  0.00  0.00    -0.368 OA
BRANCH   7   8
ATOM      8  C   LIG d   1      -7.074  74.574 116.588  0.00  0.00     0.119 C 
BRANCH   8   9
ATOM      9  C   LIG d   1      -6.506  73.584 115.553  0.00  0.00     0.028 C 
ATOM     10  C   LIG d   1      -6.950  72.136 115.820  0.00  0.00     0.006 C 
ENDBRANCH   8   9
BRANCH   8  11
ATOM     11  C   LIG d   1      -8.554  74.204 116.734  0.00  0.00     0.028 C 
ATOM     12  C   LIG d   1      -9.493  75.249 116.111  0.00  0.00     0.006 C 
ENDBRANCH   8  11
ENDBRANCH   7   8
ENDBRANCH   1   7
BRANCH   6  13
ATOM     13  N   LIG d   1      -3.928  76.181 116.334  0.00  0.00    -0.311 N 
ATOM     14  C   LIG d   1      -3.086  75.826 115.365  0.00  0.00     0.210 C 
ATOM     15  C   LIG d   1      -2.180  74.637 115.700  0.00  0.00     0.109 C 
ATOM     16  O   LIG d   1      -2.980  76.403 114.273  0.00  0.00    -0.276 OA
ATOM     17  H   LIG d   1      -3.924  75.678 117.200  0.00  0.00     0.149 HD
ENDBRANCH   6  13
BRANCH   5  18
ATOM     18  N   LIG d   1      -3.180  79.134 116.099  0.00  0.00     0.381 N 
ATOM     19  H   LIG d   1      -3.201  80.134 116.087  0.00  0.00    -0.090 HD
ATOM     20  H   LIG d   1      -3.196  78.806 115.149  0.00  0.00    -0.090 HD
ATOM     21  H   LIG d   1      -2.351  78.817 116.553  0.00  0.00    -0.090 HD
ENDBRANCH   5  18
BRANCH   3  22
ATOM     22  C   LIG d   1      -7.532  80.218 117.779  0.00  0.00     0.382 C 
ATOM     23  O   LIG d   1      -7.913  81.192 117.086  0.00  0.00    -0.241 OA
ATOM     24  O   LIG d   1      -7.877  80.143 118.973  0.00  0.00    -0.241 OA
ENDBRANCH   3  22
TORSDOF 7
ENDMDL
MODEL 3
REMARK VINA RESULT:      -5.7      1.910      5.237
REMARK  7 active torsions:
REMARK  status: ('A' for Active; 'I' for Inactive)
REMARK    1  A    between atoms: C_2  and  C_3 
REMARK    2  A    between atoms: C_3  and  O_6 
REMARK    3  A    between atoms: C_3  and  C_4 
REMARK    4  A    between atoms: C_7  and  O_6 
REMARK    5  A    between atoms: C_9  and  C_10 
REMARK    6  A    between atoms: N_15  and  C_14 
REMARK    7  A    between atoms: N_20  and  C_19 
REMARK       I    between atoms: C_22  and  N_20 
ROOT
ATOM      1  C   LIG d   1      -6.182  76.643 115.292  0.00  0.00     0.161 C 
ATOM      2  C   LIG d   1      -4.957  76.203 114.764  0.00  0.00     0.016 C 
ATOM      3  C   LIG d   1      -3.711  76.436 115.389  0.00  0.00     0.038 C 
ATOM      4  C   LIG d   1      -3.618  76.998 116.671  0.00  0.00     0.028 C 
ATOM      5  C   LIG d   1      -4.788  77.912 117.018  0.00  0.00    -0.047 C 
ATOM      6  C   LIG d   1      -6.111  77.161 116.744  0.00  0.00     0.091 C 
ENDROOT
BRANCH   1   7
ATOM      7  O   LIG d   1      -7.167  75.597 115.181  0.00  0.00    -0.368 OA
BRANCH   7   8
ATOM      8  C   LIG d   1      -7.159  74.600 116.231  0.00  0.00     0.119 C 
BRANCH   8   9
ATOM      9  C   LIG d   1      -6.700  73.269 115.603  0.00  0.00     0.028 C 
ATOM     10  C   LIG d   1      -7.516  72.068 116.112  0.00  0.00     0.006 C 
ENDBRANCH   8   9
BRANCH   8  11
ATOM     11  C   LIG d   1      -8.573  74.334 116.758  0.00  0.00     0.028 C 
ATOM     12  C   LIG d   1      -9.624  75.270 116.142  0.00  0.00     0.006 C 
ENDBRANCH   8  11
ENDBRANCH   7   8
ENDBRANCH   1   7
BRANCH   6  13
ATOM     13  N   LIG d   1      -7.306  78.013 116.977  0.00  0.00    -0.311 N 
ATOM     14  C   LIG d   1      -8.001  78.006 118.113  0.00  0.00     0.210 C 
ATOM     15  C   LIG d   1      -9.210  78.947 118.137  0.00  0.00     0.109 C 
ATOM     16  O   LIG d   1      -7.713  77.334 119.115  0.00  0.00    -0.276 OA
ATOM     17  H   LIG d   1      -7.592  78.612 116.228  0.00  0.00     0.149 HD
ENDBRANCH   6  13
BRANCH   5  18
ATOM     18  N   LIG d   1      -4.634  78.318 118.427  0.00  0.00     0.381 N 
ATOM     19  H   LIG d   1      -4.493  79.307 118.482  0.00  0.00    -0.090 HD
ATOM     20  H   LIG d   1      -3.825  77.863 118.810  0.00  0.00    -0.090 HD
ATOM     21  H   LIG d   1      -5.445  78.062 118.946  0.00  0.00    -0.090 HD
ENDBRANCH   5  18
BRANCH   3  22
ATOM     22  C   LIG d   1      -2.537  76.141 114.713  0.00  0.00     0.382 C 
ATOM     23  O   LIG d   1      -2.128  76.904 113.805  0.00  0.00    -0.241 OA
ATOM     24  O   LIG d   1      -1.905  75.098 114.969  0.00  0.00    -0.241 OA
ENDBRANCH   3  22
TORSDOF 7
ENDMDL
MODEL 4
REMARK VINA RESULT:      -5.6      2.204      4.256
REMARK  7 active torsions:
REMARK  status: ('A' for Active; 'I' for Inactive)
REMARK    1  A    between atoms: C_2  and  C_3 
REMARK    2  A    between atoms: C_3  and  O_6 
REMARK    3  A    between atoms: C_3  and  C_4 
REMARK    4  A    between atoms: C_7  and  O_6 
REMARK    5  A    between atoms: C_9  and  C_10 
REMARK    6  A    between atoms: N_15  and  C_14 
REMARK    7  A    between atoms: N_20  and  C_19 
REMARK       I    between atoms: C_22  and  N_20 
ROOT
ATOM      1  C   LIG d   1      -6.440  77.129 116.637  0.00  0.00     0.161 C 
ATOM      2  C   LIG d   1      -6.448  78.495 116.965  0.00  0.00     0.016 C 
ATOM      3  C   LIG d   1      -7.554  79.147 117.558  0.00  0.00     0.038 C 
ATOM      4  C   LIG d   1      -8.680  78.438 118.005  0.00  0.00     0.028 C 
ATOM      5  C   LIG d   1      -8.923  77.142 117.238  0.00  0.00    -0.047 C 
ATOM      6  C   LIG d   1      -7.616  76.318 117.218  0.00  0.00     0.091 C 
ENDROOT
BRANCH   1   7
ATOM      7  O   LIG d   1      -5.183  76.541 117.027  0.00  0.00    -0.368 OA
BRANCH   7   8
ATOM      8  C   LIG d   1      -4.186  76.417 115.984  0.00  0.00     0.119 C 
BRANCH   8   9
ATOM      9  C   LIG d   1      -4.406  75.057 115.293  0.00  0.00     0.028 C 
ATOM     10  C   LIG d   1      -5.232  75.182 114.002  0.00  0.00     0.006 C 
ENDBRANCH   8   9
BRANCH   8  11
ATOM     11  C   LIG d   1      -2.772  76.350 116.570  0.00  0.00     0.028 C 
ATOM     12  C   LIG d   1      -1.982  75.127 116.080  0.00  0.00     0.006 C 
ENDBRANCH   8  11
ENDBRANCH   7   8
ENDBRANCH   1   7
BRANCH   6  13
ATOM     13  N   LIG d   1      -7.744  75.073 116.416  0.00  0.00    -0.311 N 
ATOM     14  C   LIG d   1      -7.498  73.858 116.904  0.00  0.00     0.210 C 
ATOM     15  C   LIG d   1      -7.671  72.712 115.902  0.00  0.00     0.109 C 
ATOM     16  O   LIG d   1      -7.185  73.618 118.080  0.00  0.00    -0.276 OA
ATOM     17  H   LIG d   1      -8.023  75.173 115.460  0.00  0.00     0.149 HD
ENDBRANCH   6  13
BRANCH   5  18
ATOM     18  N   LIG d   1     -10.041  76.439 117.895  0.00  0.00     0.381 N 
ATOM     19  H   LIG d   1     -10.839  77.041 117.943  0.00  0.00    -0.090 HD
ATOM     20  H   LIG d   1      -9.769  76.202 118.833  0.00  0.00    -0.090 HD
ATOM     21  H   LIG d   1     -10.269  75.613 117.388  0.00  0.00    -0.090 HD
ENDBRANCH   5  18
BRANCH   3  22
ATOM     22  C   LIG d   1      -7.558  80.528 117.673  0.00  0.00     0.382 C 
ATOM     23  O   LIG d   1      -8.243  81.081 118.567  0.00  0.00    -0.241 OA
ATOM     24  O   LIG d   1      -6.919  81.231 116.866  0.00  0.00    -0.241 OA
ENDBRANCH   3  22
TORSDOF 7
ENDMDL
MODEL 5
REMARK VINA RESULT:      -5.4      2.590      5.534
REMARK  7 active torsions:
REMARK  status: ('A' for Active; 'I' for Inactive)
REMARK    1  A    between atoms: C_2  and  C_3 
REMARK    2  A    between atoms: C_3  and  O_6 
REMARK    3  A    between atoms: C_3  and  C_4 
REMARK    4  A    between atoms: C_7  and  O_6 
REMARK    5  A    between atoms: C_9  and  C_10 
REMARK    6  A    between atoms: N_15  and  C_14 
REMARK    7  A    between atoms: N_20  and  C_19 
REMARK       I    between atoms: C_22  and  N_20 
ROOT
ATOM      1  C   LIG d   1      -5.119  76.537 116.280  0.00  0.00     0.161 C 
ATOM      2  C   LIG d   1      -4.149  75.553 116.027  0.00  0.00     0.016 C 
ATOM      3  C   LIG d   1      -2.773  75.729 116.299  0.00  0.00     0.038 C 
ATOM      4  C   LIG d   1      -2.290  76.852 116.986  0.00  0.00     0.028 C 
ATOM      5  C   LIG d   1      -3.161  78.092 116.807  0.00  0.00    -0.047 C 
ATOM      6  C   LIG d   1      -4.627  77.726 117.132  0.00  0.00     0.091 C 
ENDROOT
BRANCH   1   7
ATOM      7  O   LIG d   1      -6.281  75.935 116.884  0.00  0.00    -0.368 OA
BRANCH   7   8
ATOM      8  C   LIG d   1      -6.989  74.964 116.074  0.00  0.00     0.119 C 
BRANCH   8   9
ATOM      9  C   LIG d   1      -8.438  75.464 115.913  0.00  0.00     0.028 C 
ATOM     10  C   LIG d   1      -9.245  75.353 117.217  0.00  0.00     0.006 C 
ENDBRANCH   8   9
BRANCH   8  11
ATOM     11  C   LIG d   1      -7.103  73.616 116.792  0.00  0.00     0.028 C 
ATOM     12  C   LIG d   1      -6.979  72.419 115.836  0.00  0.00     0.006 C 
ENDBRANCH   8  11
ENDBRANCH   7   8
ENDBRANCH   1   7
BRANCH   6  13
ATOM     13  N   LIG d   1      -5.559  78.861 116.901  0.00  0.00    -0.311 N 
ATOM     14  C   LIG d   1      -5.906  79.729 117.849  0.00  0.00     0.210 C 
ATOM     15  C   LIG d   1      -6.894  80.812 117.404  0.00  0.00     0.109 C 
ATOM     16  O   LIG d   1      -5.465  79.724 119.008  0.00  0.00    -0.276 OA
ATOM     17  H   LIG d   1      -5.940  78.958 115.980  0.00  0.00     0.149 HD
ENDBRANCH   6  13
BRANCH   5  18
ATOM     18  N   LIG d   1      -2.620  79.147 117.685  0.00  0.00     0.381 N 
ATOM     19  H   LIG d   1      -2.339  79.934 117.135  0.00  0.00    -0.090 HD
ATOM     20  H   LIG d   1      -1.811  78.789 118.162  0.00  0.00    -0.090 HD
ATOM     21  H   LIG d   1      -3.309  79.425 118.348  0.00  0.00    -0.090 HD
ENDBRANCH   5  18
BRANCH   3  22
ATOM     22  C   LIG d   1      -1.858  74.791 115.845  0.00  0.00     0.382 C 
ATOM     23  O   LIG d   1      -1.484  74.808 114.647  0.00  0.00    -0.241 OA
ATOM     24  O   LIG d   1      -1.434  73.901 116.607  0.00  0.00    -0.241 OA
ENDBRANCH   3  22
TORSDOF 7
ENDMDL
MODEL 6
REMARK VINA RESULT:      -5.2      2.150      5.072
REMARK  7 active torsions:
REMARK  status: ('A' for Active; 'I' for Inactive)
REMARK    1  A    between atoms: C_2  and  C_3 
REMARK    2  A    between atoms: C_3  and  O_6 
REMARK    3  A    between atoms: C_3  and  C_4 
REMARK    4  A    between atoms: C_7  and  O_6 
REMARK    5  A    between atoms: C_9  and  C_10 
REMARK    6  A    between atoms: N_15  and  C_14 
REMARK    7  A    between atoms: N_20  and  C_19 
REMARK       I    between atoms: C_22  and  N_20 
ROOT
ATOM      1  C   LIG d   1      -6.870  76.637 115.761  0.00  0.00     0.161 C 
ATOM      2  C   LIG d   1      -7.672  75.500 115.954  0.00  0.00     0.016 C 
ATOM      3  C   LIG d   1      -7.152  74.190 116.064  0.00  0.00     0.038 C 
ATOM      4  C   LIG d   1      -5.773  73.944 116.139  0.00  0.00     0.028 C 
ATOM      5  C   LIG d   1      -4.929  75.006 115.442  0.00  0.00    -0.047 C 
ATOM      6  C   LIG d   1      -5.357  76.401 115.952  0.00  0.00     0.091 C 
ENDROOT
BRANCH   1   7
ATOM      7  O   LIG d   1      -7.323  77.705 116.616  0.00  0.00    -0.368 OA
BRANCH   7   8
ATOM      8  C   LIG d   1      -6.838  77.678 117.981  0.00  0.00     0.119 C 
BRANCH   8   9
ATOM      9  C   LIG d   1      -8.068  77.652 118.909  0.00  0.00     0.028 C 
ATOM     10  C   LIG d   1      -9.371  77.993 118.166  0.00  0.00     0.006 C 
ENDBRANCH   8   9
BRANCH   8  11
ATOM     11  C   LIG d   1      -6.091  78.967 118.334  0.00  0.00     0.028 C 
ATOM     12  C   LIG d   1      -6.303  80.081 117.297  0.00  0.00     0.006 C 
ENDBRANCH   8  11
ENDBRANCH   7   8
ENDBRANCH   1   7
BRANCH   6  13
ATOM     13  N   LIG d   1      -4.640  77.503 115.259  0.00  0.00    -0.311 N 
ATOM     14  C   LIG d   1      -3.526  78.062 115.728  0.00  0.00     0.210 C 
ATOM     15  C   LIG d   1      -2.959  79.196 114.868  0.00  0.00     0.109 C 
ATOM     16  O   LIG d   1      -2.935  77.705 116.759  0.00  0.00    -0.276 OA
ATOM     17  H   LIG d   1      -5.033  77.834 114.399  0.00  0.00     0.149 HD
ENDBRANCH   6  13
BRANCH   5  18
ATOM     18  N   LIG d   1      -3.512  74.701 115.715  0.00  0.00     0.381 N 
ATOM     19  H   LIG d   1      -3.448  74.013 116.439  0.00  0.00    -0.090 HD
ATOM     20  H   LIG d   1      -3.055  75.537 116.033  0.00  0.00    -0.090 HD
ATOM     21  H   LIG d   1      -3.070  74.365 114.888  0.00  0.00    -0.090 HD
ENDBRANCH   5  18
BRANCH   3  22
ATOM     22  C   LIG d   1      -8.015  73.105 116.059  0.00  0.00     0.382 C 
ATOM     23  O   LIG d   1      -7.555  71.938 116.036  0.00  0.00    -0.241 OA
ATOM     24  O   LIG d   1      -9.248  73.279 116.033  0.00  0.00    -0.241 OA
ENDBRANCH   3  22
TORSDOF 7
ENDMDL
MODEL 7
REMARK VINA RESULT:      -5.1      1.969      4.893
REMARK  7 active torsions:
REMARK  status: ('A' for Active; 'I' for Inactive)
REMARK    1  A    between atoms: C_2  and  C_3 
REMARK    2  A    between atoms: C_3  and  O_6 
REMARK    3  A    between atoms: C_3  and  C_4 
REMARK    4  A    between atoms: C_7  and  O_6 
REMARK    5  A    between atoms: C_9  and  C_10 
REMARK    6  A    between atoms: N_15  and  C_14 
REMARK    7  A    between atoms: N_20  and  C_19 
REMARK       I    between atoms: C_22  and  N_20 
ROOT
ATOM      1  C   LIG d   1      -7.210  77.132 116.739  0.00  0.00     0.161 C 
ATOM      2  C   LIG d   1      -8.241  76.178 116.748  0.00  0.00     0.016 C 
ATOM      3  C   LIG d   1      -8.034  74.806 116.475  0.00  0.00     0.038 C 
ATOM      4  C   LIG d   1      -6.748  74.267 116.322  0.00  0.00     0.028 C 
ATOM      5  C   LIG d   1      -5.726  75.274 115.805  0.00  0.00    -0.047 C 
ATOM      6  C   LIG d   1      -5.784  76.544 116.684  0.00  0.00     0.091 C 
ENDROOT
BRANCH   1   7
ATOM      7  O   LIG d   1      -7.346  78.009 117.875  0.00  0.00    -0.368 OA
BRANCH   7   8
ATOM      8  C   LIG d   1      -8.019  79.269 117.631  0.00  0.00     0.119 C 
BRANCH   8   9
ATOM      9  C   LIG d   1      -6.935  80.356 117.502  0.00  0.00     0.028 C 
ATOM     10  C   LIG d   1      -7.528  81.775 117.477  0.00  0.00     0.006 C 
ENDBRANCH   8   9
BRANCH   8  11
ATOM     11  C   LIG d   1      -8.872  79.687 118.833  0.00  0.00     0.028 C 
ATOM     12  C   LIG d   1     -10.140  78.832 118.990  0.00  0.00     0.006 C 
ENDBRANCH   8  11
ENDBRANCH   7   8
ENDBRANCH   1   7
BRANCH   6  13
ATOM     13  N   LIG d   1      -4.875  77.614 116.195  0.00  0.00    -0.311 N 
ATOM     14  C   LIG d   1      -3.625  77.767 116.628  0.00  0.00     0.210 C 
ATOM     15  C   LIG d   1      -2.866  78.945 116.009  0.00  0.00     0.109 C 
ATOM     16  O   LIG d   1      -3.061  77.020 117.442  0.00  0.00    -0.276 OA
ATOM     17  H   LIG d   1      -5.241  78.246 115.511  0.00  0.00     0.149 HD
ENDBRANCH   6  13
BRANCH   5  18
ATOM     18  N   LIG d   1      -4.405  74.618 115.824  0.00  0.00     0.381 N 
ATOM     19  H   LIG d   1      -3.702  75.280 116.086  0.00  0.00    -0.090 HD
ATOM     20  H   LIG d   1      -4.195  74.283 114.900  0.00  0.00    -0.090 HD
ATOM     21  H   LIG d   1      -4.411  73.857 116.467  0.00  0.00    -0.090 HD
ENDBRANCH   5  18
BRANCH   3  22
ATOM     22  C   LIG d   1      -9.124  73.966 116.313  0.00  0.00     0.382 C 
ATOM     23  O   LIG d   1     -10.127  74.357 115.668  0.00  0.00    -0.241 OA
ATOM     24  O   LIG d   1      -9.136  72.838 116.841  0.00  0.00    -0.241 OA
ENDBRANCH   3  22
TORSDOF 7
ENDMDL
MODEL 8
REMARK VINA RESULT:      -4.8     15.045     17.566
REMARK  7 active torsions:
REMARK  status: ('A' for Active; 'I' for Inactive)
REMARK    1  A    between atoms: C_2  and  C_3 
REMARK    2  A    between atoms: C_3  and  O_6 
REMARK    3  A    between atoms: C_3  and  C_4 
REMARK    4  A    between atoms: C_7  and  O_6 
REMARK    5  A    between atoms: C_9  and  C_10 
REMARK    6  A    between atoms: N_15  and  C_14 
REMARK    7  A    between atoms: N_20  and  C_19 
REMARK       I    between atoms: C_22  and  N_20 
ROOT
ATOM      1  C   LIG d   1      -5.916  93.468 118.677  0.00  0.00     0.161 C 
ATOM      2  C   LIG d   1      -6.698  93.011 117.602  0.00  0.00     0.016 C 
ATOM      3  C   LIG d   1      -6.253  92.045 116.671  0.00  0.00     0.038 C 
ATOM      4  C   LIG d   1      -5.044  91.354 116.841  0.00  0.00     0.028 C 
ATOM      5  C   LIG d   1      -4.001  92.142 117.627  0.00  0.00    -0.047 C 
ATOM      6  C   LIG d   1      -4.638  92.645 118.942  0.00  0.00     0.091 C 
ENDROOT
BRANCH   1   7
ATOM      7  O   LIG d   1      -6.721  93.542 119.870  0.00  0.00    -0.368 OA
BRANCH   7   8
ATOM      8  C   LIG d   1      -7.107  94.872 120.297  0.00  0.00     0.119 C 
BRANCH   8   9
ATOM      9  C   LIG d   1      -8.574  95.085 119.877  0.00  0.00     0.028 C 
ATOM     10  C   LIG d   1      -8.705  95.988 118.639  0.00  0.00     0.006 C 
ENDBRANCH   8   9
BRANCH   8  11
ATOM     11  C   LIG d   1      -6.312  95.949 119.553  0.00  0.00     0.028 C 
ATOM     12  C   LIG d   1      -5.358  96.727 120.473  0.00  0.00     0.006 C 
ENDBRANCH   8  11
ENDBRANCH   7   8
ENDBRANCH   1   7
BRANCH   6  13
ATOM     13  N   LIG d   1      -3.711  93.497 119.732  0.00  0.00    -0.311 N 
ATOM     14  C   LIG d   1      -2.771  94.264 119.181  0.00  0.00     0.210 C 
ATOM     15  C   LIG d   1      -1.910  95.047 120.177  0.00  0.00     0.109 C 
ATOM     16  O   LIG d   1      -2.591  94.395 117.961  0.00  0.00    -0.276 OA
ATOM     17  H   LIG d   1      -3.809  93.475 120.728  0.00  0.00     0.149 HD
ENDBRANCH   6  13
BRANCH   5  18
ATOM     18  N   LIG d   1      -2.844  91.254 117.847  0.00  0.00     0.381 N 
ATOM     19  H   LIG d   1      -2.749  91.057 118.824  0.00  0.00    -0.090 HD
ATOM     20  H   LIG d   1      -2.011  91.722 117.538  0.00  0.00    -0.090 HD
ATOM     21  H   LIG d   1      -2.964  90.405 117.340  0.00  0.00    -0.090 HD
ENDBRANCH   5  18
BRANCH   3  22
ATOM     22  C   LIG d   1      -7.003  91.790 115.534  0.00  0.00     0.382 C 
ATOM     23  O   LIG d   1      -8.061  91.121 115.618  0.00  0.00    -0.241 OA
ATOM     24  O   LIG d   1      -6.612  92.182 114.418  0.00  0.00    -0.241 OA
ENDBRANCH   3  22
TORSDOF 7
ENDMDL
MODEL 9
REMARK VINA RESULT:      -4.4     14.359     17.486
REMARK  7 active torsions:
REMARK  status: ('A' for Active; 'I' for Inactive)
REMARK    1  A    between atoms: C_2  and  C_3 
REMARK    2  A    between atoms: C_3  and  O_6 
REMARK    3  A    between atoms: C_3  and  C_4 
REMARK    4  A    between atoms: C_7  and  O_6 
REMARK    5  A    between atoms: C_9  and  C_10 
REMARK    6  A    between atoms: N_15  and  C_14 
REMARK    7  A    between atoms: N_20  and  C_19 
REMARK       I    between atoms: C_22  and  N_20 
ROOT
ATOM      1  C   LIG d   1     -23.681  83.128 118.054  0.00  0.00     0.161 C 
ATOM      2  C   LIG d   1     -24.485  84.270 117.901  0.00  0.00     0.016 C 
ATOM      3  C   LIG d   1     -24.229  85.496 118.558  0.00  0.00     0.038 C 
ATOM      4  C   LIG d   1     -23.057  85.709 119.300  0.00  0.00     0.028 C 
ATOM      5  C   LIG d   1     -22.475  84.430 119.892  0.00  0.00    -0.047 C 
ATOM      6  C   LIG d   1     -22.337  83.375 118.771  0.00  0.00     0.091 C 
ENDROOT
BRANCH   1   7
ATOM      7  O   LIG d   1     -23.458  82.512 116.770  0.00  0.00    -0.368 OA
BRANCH   7   8
ATOM      8  C   LIG d   1     -24.095  83.151 115.637  0.00  0.00     0.119 C 
BRANCH   8   9
ATOM      9  C   LIG d   1     -24.897  82.070 114.887  0.00  0.00     0.028 C 
ATOM     10  C   LIG d   1     -24.833  80.701 115.585  0.00  0.00     0.006 C 
ENDBRANCH   8   9
BRANCH   8  11
ATOM     11  C   LIG d   1     -23.061  83.661 114.630  0.00  0.00     0.028 C 
ATOM     12  C   LIG d   1     -23.257  85.142 114.271  0.00  0.00     0.006 C 
ENDBRANCH   8  11
ENDBRANCH   7   8
ENDBRANCH   1   7
BRANCH   6  13
ATOM     13  N   LIG d   1     -21.853  82.066 119.282  0.00  0.00    -0.311 N 
ATOM     14  C   LIG d   1     -20.573  81.698 119.259  0.00  0.00     0.210 C 
ATOM     15  C   LIG d   1     -20.292  80.299 119.816  0.00  0.00     0.109 C 
ATOM     16  O   LIG d   1     -19.640  82.410 118.859  0.00  0.00    -0.276 OA
ATOM     17  H   LIG d   1     -22.540  81.438 119.653  0.00  0.00     0.149 HD
ENDBRANCH   6  13
BRANCH   5  18
ATOM     18  N   LIG d   1     -21.186  84.777 120.521  0.00  0.00     0.381 N 
ATOM     19  H   LIG d   1     -21.048  85.768 120.486  0.00  0.00    -0.090 HD
ATOM     20  H   LIG d   1     -20.444  84.336 120.007  0.00  0.00    -0.090 HD
ATOM     21  H   LIG d   1     -21.174  84.467 121.468  0.00  0.00    -0.090 HD
ENDBRANCH   5  18
BRANCH   3  22
ATOM     22  C   LIG d   1     -25.171  86.512 118.508  0.00  0.00     0.382 C 
ATOM     23  O   LIG d   1     -25.816  86.717 117.452  0.00  0.00    -0.241 OA
ATOM     24  O   LIG d   1     -25.352  87.254 119.492  0.00  0.00    -0.241 OA
ENDBRANCH   3  22
TORSDOF 7
ENDMDL
