MODEL 1
REMARK VINA RESULT:      -5.0      0.000      0.000
REMARK  7 active torsions:
REMARK  status: ('A' for Active; 'I' for Inactive)
REMARK    1  A    between atoms: C_2  and  C_3 
REMARK    2  A    between atoms: C_3  and  O_6 
REMARK    3  A    between atoms: C_3  and  C_4 
REMARK    4  A    between atoms: C_7  and  O_6 
REMARK    5  A    between atoms: C_9  and  C_10 
REMARK    6  A    between atoms: N_15  and  C_14 
REMARK    7  A    between atoms: N_20  and  C_19 
REMARK       I    between atoms: C_22  and  N_20 
ROOT
ATOM      1  C   LIG d   1      -7.548  77.145 117.712  0.00  0.00     0.161 C 
ATOM      2  C   LIG d   1      -8.759  76.446 117.574  0.00  0.00     0.016 C 
ATOM      3  C   LIG d   1      -9.977  76.880 118.146  0.00  0.00     0.038 C 
ATOM      4  C   LIG d   1     -10.099  78.129 118.772  0.00  0.00     0.028 C 
ATOM      5  C   LIG d   1      -8.792  78.635 119.374  0.00  0.00    -0.047 C 
ATOM      6  C   LIG d   1      -7.685  78.566 118.298  0.00  0.00     0.091 C 
ENDROOT
BRANCH   1   7
ATOM      7  O   LIG d   1      -6.862  77.189 116.445  0.00  0.00    -0.368 OA
BRANCH   7   8
ATOM      8  C   LIG d   1      -5.816  76.205 116.252  0.00  0.00     0.119 C 
BRANCH   8   9
ATOM      9  C   LIG d   1      -4.465  76.928 116.409  0.00  0.00     0.028 C 
ATOM     10  C   LIG d   1      -3.740  76.542 117.709  0.00  0.00     0.006 C 
ENDBRANCH   8   9
BRANCH   8  11
ATOM     11  C   LIG d   1      -5.821  75.660 114.820  0.00  0.00     0.028 C 
ATOM     12  C   LIG d   1      -4.989  74.378 114.668  0.00  0.00     0.006 C 
ENDBRANCH   8  11
ENDBRANCH   7   8
ENDBRANCH   1   7
BRANCH   6  13
ATOM     13  N   LIG d   1      -6.354  78.964 118.827  0.00  0.00    -0.311 N 
ATOM     14  C   LIG d   1      -5.606  79.923 118.284  0.00  0.00     0.210 C 
ATOM     15  C   LIG d   1      -4.259  80.161 118.974  0.00  0.00     0.109 C 
ATOM     16  O   LIG d   1      -5.944  80.621 117.316  0.00  0.00    -0.276 OA
ATOM     17  H   LIG d   1      -6.017  78.471 119.630  0.00  0.00     0.149 HD
ENDBRANCH   6  13
BRANCH   5  18
ATOM     18  N   LIG d   1      -9.031  80.003 119.871  0.00  0.00     0.381 N 
ATOM     19  H   LIG d   1      -8.157  80.452 120.060  0.00  0.00    -0.090 HD
ATOM     20  H   LIG d   1      -9.550  79.951 120.730  0.00  0.00    -0.090 HD
ATOM     21  H   LIG d   1      -9.543  80.527 119.196  0.00  0.00    -0.090 HD
ENDBRANCH   5  18
BRANCH   3  22
ATOM     22  C   LIG d   1     -11.081  76.041 118.129  0.00  0.00     0.382 C 
ATOM     23  O   LIG d   1     -11.031  74.951 117.509  0.00  0.00    -0.241 OA
ATOM     24  O   LIG d   1     -12.141  76.380 118.688  0.00  0.00    -0.241 OA
ENDBRANCH   3  22
TORSDOF 7
ENDMDL
MODEL 2
REMARK VINA RESULT:      -4.9     14.190     16.522
REMARK  7 active torsions:
REMARK  status: ('A' for Active; 'I' for Inactive)
REMARK    1  A    between atoms: C_2  and  C_3 
REMARK    2  A    between atoms: C_3  and  O_6 
REMARK    3  A    between atoms: C_3  and  C_4 
REMARK    4  A    between atoms: C_7  and  O_6 
REMARK    5  A    between atoms: C_9  and  C_10 
REMARK    6  A    between atoms: N_15  and  C_14 
REMARK    7  A    between atoms: N_20  and  C_19 
REMARK       I    between atoms: C_22  and  N_20 
ROOT
ATOM      1  C   LIG d   1      -5.018  93.223 118.597  0.00  0.00     0.161 C 
ATOM      2  C   LIG d   1      -6.079  92.762 117.801  0.00  0.00     0.016 C 
ATOM      3  C   LIG d   1      -5.916  91.829 116.751  0.00  0.00     0.038 C 
ATOM      4  C   LIG d   1      -4.696  91.176 116.523  0.00  0.00     0.028 C 
ATOM      5  C   LIG d   1      -3.483  91.982 116.975  0.00  0.00    -0.047 C 
ATOM      6  C   LIG d   1      -3.699  92.437 118.436  0.00  0.00     0.091 C 
ENDROOT
BRANCH   1   7
ATOM      7  O   LIG d   1      -5.420  93.247 119.981  0.00  0.00    -0.368 OA
BRANCH   7   8
ATOM      8  C   LIG d   1      -5.652  94.557 120.555  0.00  0.00     0.119 C 
BRANCH   8   9
ATOM      9  C   LIG d   1      -7.144  94.889 120.362  0.00  0.00     0.028 C 
ATOM     10  C   LIG d   1      -7.365  96.035 119.360  0.00  0.00     0.006 C 
ENDBRANCH   8   9
BRANCH   8  11
ATOM     11  C   LIG d   1      -4.892  95.643 119.788  0.00  0.00     0.028 C 
ATOM     12  C   LIG d   1      -3.667  96.167 120.555  0.00  0.00     0.006 C 
ENDBRANCH   8  11
ENDBRANCH   7   8
ENDBRANCH   1   7
BRANCH   6  13
ATOM     13  N   LIG d   1      -2.597  93.303 118.929  0.00  0.00    -0.311 N 
ATOM     14  C   LIG d   1      -1.546  92.839 119.602  0.00  0.00     0.210 C 
ATOM     15  C   LIG d   1      -0.534  93.904 120.036  0.00  0.00     0.109 C 
ATOM     16  O   LIG d   1      -1.339  91.642 119.854  0.00  0.00    -0.276 OA
ATOM     17  H   LIG d   1      -2.668  94.284 118.741  0.00  0.00     0.149 HD
ENDBRANCH   6  13
BRANCH   5  18
ATOM     18  N   LIG d   1      -2.292  91.128 116.805  0.00  0.00     0.381 N 
ATOM     19  H   LIG d   1      -1.627  91.586 116.215  0.00  0.00    -0.090 HD
ATOM     20  H   LIG d   1      -2.568  90.269 116.362  0.00  0.00    -0.090 HD
ATOM     21  H   LIG d   1      -1.882  90.935 117.693  0.00  0.00    -0.090 HD
ENDBRANCH   5  18
BRANCH   3  22
ATOM     22  C   LIG d   1      -6.972  91.572 115.890  0.00  0.00     0.382 C 
ATOM     23  O   LIG d   1      -7.546  90.457 115.917  0.00  0.00    -0.241 OA
ATOM     24  O   LIG d   1      -7.330  92.426 115.056  0.00  0.00    -0.241 OA
ENDBRANCH   3  22
TORSDOF 7
ENDMDL
MODEL 3
REMARK VINA RESULT:      -4.9     12.832     16.085
REMARK  7 active torsions:
REMARK  status: ('A' for Active; 'I' for Inactive)
REMARK    1  A    between atoms: C_2  and  C_3 
REMARK    2  A    between atoms: C_3  and  O_6 
REMARK    3  A    between atoms: C_3  and  C_4 
REMARK    4  A    between atoms: C_7  and  O_6 
REMARK    5  A    between atoms: C_9  and  C_10 
REMARK    6  A    between atoms: N_15  and  C_14 
REMARK    7  A    between atoms: N_20  and  C_19 
REMARK       I    between atoms: C_22  and  N_20 
ROOT
ATOM      1  C   LIG d   1      -0.966  91.290 116.999  0.00  0.00     0.161 C 
ATOM      2  C   LIG d   1       0.235  91.803 117.518  0.00  0.00     0.016 C 
ATOM      3  C   LIG d   1       0.317  93.025 118.224  0.00  0.00     0.038 C 
ATOM      4  C   LIG d   1      -0.828  93.747 118.594  0.00  0.00     0.028 C 
ATOM      5  C   LIG d   1      -2.011  93.526 117.658  0.00  0.00    -0.047 C 
ATOM      6  C   LIG d   1      -2.241  92.007 117.489  0.00  0.00     0.091 C 
ENDROOT
BRANCH   1   7
ATOM      7  O   LIG d   1      -1.050  89.877 117.271  0.00  0.00    -0.368 OA
BRANCH   7   8
ATOM      8  C   LIG d   1      -1.401  89.508 118.628  0.00  0.00     0.119 C 
BRANCH   8   9
ATOM      9  C   LIG d   1      -0.345  88.500 119.121  0.00  0.00     0.028 C 
ATOM     10  C   LIG d   1       0.444  87.863 117.965  0.00  0.00     0.006 C 
ENDBRANCH   8   9
BRANCH   8  11
ATOM     11  C   LIG d   1      -2.733  88.755 118.674  0.00  0.00     0.028 C 
ATOM     12  C   LIG d   1      -2.852  87.828 119.894  0.00  0.00     0.006 C 
ENDBRANCH   8  11
ENDBRANCH   7   8
ENDBRANCH   1   7
BRANCH   6  13
ATOM     13  N   LIG d   1      -3.328  91.702 116.522  0.00  0.00    -0.311 N 
ATOM     14  C   LIG d   1      -4.606  91.569 116.873  0.00  0.00     0.210 C 
ATOM     15  C   LIG d   1      -5.561  91.235 115.723  0.00  0.00     0.109 C 
ATOM     16  O   LIG d   1      -5.043  91.727 118.022  0.00  0.00    -0.276 OA
ATOM     17  H   LIG d   1      -3.066  91.589 115.562  0.00  0.00     0.149 HD
ENDBRANCH   6  13
BRANCH   5  18
ATOM     18  N   LIG d   1      -3.174  94.226 118.237  0.00  0.00     0.381 N 
ATOM     19  H   LIG d   1      -3.536  94.884 117.576  0.00  0.00    -0.090 HD
ATOM     20  H   LIG d   1      -2.876  94.730 119.053  0.00  0.00    -0.090 HD
ATOM     21  H   LIG d   1      -3.880  93.568 118.482  0.00  0.00    -0.090 HD
ENDBRANCH   5  18
BRANCH   3  22
ATOM     22  C   LIG d   1       1.559  93.557 118.534  0.00  0.00     0.382 C 
ATOM     23  O   LIG d   1       1.648  94.515 119.340  0.00  0.00    -0.241 OA
ATOM     24  O   LIG d   1       2.588  93.121 117.984  0.00  0.00    -0.241 OA
ENDBRANCH   3  22
TORSDOF 7
ENDMDL
MODEL 4
REMARK VINA RESULT:      -4.7      4.203      7.325
REMARK  7 active torsions:
REMARK  status: ('A' for Active; 'I' for Inactive)
REMARK    1  A    between atoms: C_2  and  C_3 
REMARK    2  A    between atoms: C_3  and  O_6 
REMARK    3  A    between atoms: C_3  and  C_4 
REMARK    4  A    between atoms: C_7  and  O_6 
REMARK    5  A    between atoms: C_9  and  C_10 
REMARK    6  A    between atoms: N_15  and  C_14 
REMARK    7  A    between atoms: N_20  and  C_19 
REMARK       I    between atoms: C_22  and  N_20 
ROOT
ATOM      1  C   LIG d   1      -3.032  76.558 116.513  0.00  0.00     0.161 C 
ATOM      2  C   LIG d   1      -3.140  77.798 115.861  0.00  0.00     0.016 C 
ATOM      3  C   LIG d   1      -2.316  78.182 114.778  0.00  0.00     0.038 C 
ATOM      4  C   LIG d   1      -1.424  77.285 114.171  0.00  0.00     0.028 C 
ATOM      5  C   LIG d   1      -0.925  76.196 115.114  0.00  0.00    -0.047 C 
ATOM      6  C   LIG d   1      -2.140  75.525 115.794  0.00  0.00     0.091 C 
ENDROOT
BRANCH   1   7
ATOM      7  O   LIG d   1      -4.346  76.012 116.744  0.00  0.00    -0.368 OA
BRANCH   7   8
ATOM      8  C   LIG d   1      -5.439  76.671 116.058  0.00  0.00     0.119 C 
BRANCH   8   9
ATOM      9  C   LIG d   1      -6.479  77.070 117.123  0.00  0.00     0.028 C 
ATOM     10  C   LIG d   1      -7.830  76.363 116.919  0.00  0.00     0.006 C 
ENDBRANCH   8   9
BRANCH   8  11
ATOM     11  C   LIG d   1      -6.170  75.707 115.119  0.00  0.00     0.028 C 
ATOM     12  C   LIG d   1      -5.348  74.449 114.799  0.00  0.00     0.006 C 
ENDBRANCH   8  11
ENDBRANCH   7   8
ENDBRANCH   1   7
BRANCH   6  13
ATOM     13  N   LIG d   1      -1.737  74.503 116.796  0.00  0.00    -0.311 N 
ATOM     14  C   LIG d   1      -0.911  74.757 117.809  0.00  0.00     0.210 C 
ATOM     15  C   LIG d   1      -0.611  73.558 118.714  0.00  0.00     0.109 C 
ATOM     16  O   LIG d   1      -0.424  75.869 118.064  0.00  0.00    -0.276 OA
ATOM     17  H   LIG d   1      -2.111  73.581 116.683  0.00  0.00     0.149 HD
ENDBRANCH   6  13
BRANCH   5  18
ATOM     18  N   LIG d   1      -0.115  75.254 114.319  0.00  0.00     0.381 N 
ATOM     19  H   LIG d   1      -0.708  74.565 113.902  0.00  0.00    -0.090 HD
ATOM     20  H   LIG d   1       0.532  74.786 114.929  0.00  0.00    -0.090 HD
ATOM     21  H   LIG d   1       0.383  75.747 113.610  0.00  0.00    -0.090 HD
ENDBRANCH   5  18
BRANCH   3  22
ATOM     22  C   LIG d   1      -2.352  79.489 114.317  0.00  0.00     0.382 C 
ATOM     23  O   LIG d   1      -1.300  80.040 113.913  0.00  0.00    -0.241 OA
ATOM     24  O   LIG d   1      -3.415  80.137 114.340  0.00  0.00    -0.241 OA
ENDBRANCH   3  22
TORSDOF 7
ENDMDL
MODEL 5
REMARK VINA RESULT:      -4.7      2.040      5.185
REMARK  7 active torsions:
REMARK  status: ('A' for Active; 'I' for Inactive)
REMARK    1  A    between atoms: C_2  and  C_3 
REMARK    2  A    between atoms: C_3  and  O_6 
REMARK    3  A    between atoms: C_3  and  C_4 
REMARK    4  A    between atoms: C_7  and  O_6 
REMARK    5  A    between atoms: C_9  and  C_10 
REMARK    6  A    between atoms: N_15  and  C_14 
REMARK    7  A    between atoms: N_20  and  C_19 
REMARK       I    between atoms: C_22  and  N_20 
ROOT
ATOM      1  C   LIG d   1      -6.556  77.285 116.869  0.00  0.00     0.161 C 
ATOM      2  C   LIG d   1      -5.948  76.186 116.240  0.00  0.00     0.016 C 
ATOM      3  C   LIG d   1      -4.574  76.141 115.910  0.00  0.00     0.038 C 
ATOM      4  C   LIG d   1      -3.678  77.137 116.327  0.00  0.00     0.028 C 
ATOM      5  C   LIG d   1      -4.335  78.499 116.520  0.00  0.00    -0.047 C 
ATOM      6  C   LIG d   1      -5.574  78.334 117.430  0.00  0.00     0.091 C 
ENDROOT
BRANCH   1   7
ATOM      7  O   LIG d   1      -7.444  76.824 117.906  0.00  0.00    -0.368 OA
BRANCH   7   8
ATOM      8  C   LIG d   1      -8.853  76.790 117.571  0.00  0.00     0.119 C 
BRANCH   8   9
ATOM      9  C   LIG d   1      -9.607  77.584 118.655  0.00  0.00     0.028 C 
ATOM     10  C   LIG d   1      -8.806  77.698 119.963  0.00  0.00     0.006 C 
ENDBRANCH   8   9
BRANCH   8  11
ATOM     11  C   LIG d   1      -9.410  75.365 117.651  0.00  0.00     0.028 C 
ATOM     12  C   LIG d   1     -10.946  75.322 117.603  0.00  0.00     0.006 C 
ENDBRANCH   8  11
ENDBRANCH   7   8
ENDBRANCH   1   7
BRANCH   6  13
ATOM     13  N   LIG d   1      -6.324  79.606 117.603  0.00  0.00    -0.311 N 
ATOM     14  C   LIG d   1      -6.130  80.438 118.624  0.00  0.00     0.210 C 
ATOM     15  C   LIG d   1      -7.023  81.683 118.622  0.00  0.00     0.109 C 
ATOM     16  O   LIG d   1      -5.282  80.280 119.514  0.00  0.00    -0.276 OA
ATOM     17  H   LIG d   1      -7.011  79.828 116.909  0.00  0.00     0.149 HD
ENDBRANCH   6  13
BRANCH   5  18
ATOM     18  N   LIG d   1      -3.320  79.408 117.086  0.00  0.00     0.381 N 
ATOM     19  H   LIG d   1      -2.681  78.889 117.655  0.00  0.00    -0.090 HD
ATOM     20  H   LIG d   1      -3.779  80.088 117.665  0.00  0.00    -0.090 HD
ATOM     21  H   LIG d   1      -2.825  79.865 116.352  0.00  0.00    -0.090 HD
ENDBRANCH   5  18
BRANCH   3  22
ATOM     22  C   LIG d   1      -4.090  75.108 115.121  0.00  0.00     0.382 C 
ATOM     23  O   LIG d   1      -4.884  74.274 114.624  0.00  0.00    -0.241 OA
ATOM     24  O   LIG d   1      -2.865  74.974 114.937  0.00  0.00    -0.241 OA
ENDBRANCH   3  22
TORSDOF 7
ENDMDL
MODEL 6
REMARK VINA RESULT:      -4.7     12.647     15.912
REMARK  7 active torsions:
REMARK  status: ('A' for Active; 'I' for Inactive)
REMARK    1  A    between atoms: C_2  and  C_3 
REMARK    2  A    between atoms: C_3  and  O_6 
REMARK    3  A    between atoms: C_3  and  C_4 
REMARK    4  A    between atoms: C_7  and  O_6 
REMARK    5  A    between atoms: C_9  and  C_10 
REMARK    6  A    between atoms: N_15  and  C_14 
REMARK    7  A    between atoms: N_20  and  C_19 
REMARK       I    between atoms: C_22  and  N_20 
ROOT
ATOM      1  C   LIG d   1      -0.352  90.390 117.752  0.00  0.00     0.161 C 
ATOM      2  C   LIG d   1       1.032  90.537 117.943  0.00  0.00     0.016 C 
ATOM      3  C   LIG d   1       1.729  91.741 117.691  0.00  0.00     0.038 C 
ATOM      4  C   LIG d   1       1.059  92.933 117.373  0.00  0.00     0.028 C 
ATOM      5  C   LIG d   1      -0.280  92.708 116.680  0.00  0.00    -0.047 C 
ATOM      6  C   LIG d   1      -1.116  91.710 117.513  0.00  0.00     0.091 C 
ENDROOT
BRANCH   1   7
ATOM      7  O   LIG d   1      -0.925  89.674 118.865  0.00  0.00    -0.368 OA
BRANCH   7   8
ATOM      8  C   LIG d   1      -1.640  88.457 118.539  0.00  0.00     0.119 C 
BRANCH   8   9
ATOM      9  C   LIG d   1      -3.060  88.583 119.123  0.00  0.00     0.028 C 
ATOM     10  C   LIG d   1      -3.272  87.682 120.351  0.00  0.00     0.006 C 
ENDBRANCH   8   9
BRANCH   8  11
ATOM     11  C   LIG d   1      -1.020  87.243 119.238  0.00  0.00     0.028 C 
ATOM     12  C   LIG d   1       0.200  86.683 118.490  0.00  0.00     0.006 C 
ENDBRANCH   8  11
ENDBRANCH   7   8
ENDBRANCH   1   7
BRANCH   6  13
ATOM     13  N   LIG d   1      -2.408  91.370 116.862  0.00  0.00    -0.311 N 
ATOM     14  C   LIG d   1      -3.561  91.961 117.170  0.00  0.00     0.210 C 
ATOM     15  C   LIG d   1      -4.778  91.447 116.393  0.00  0.00     0.109 C 
ATOM     16  O   LIG d   1      -3.687  92.884 117.988  0.00  0.00    -0.276 OA
ATOM     17  H   LIG d   1      -2.392  90.653 116.164  0.00  0.00     0.149 HD
ENDBRANCH   6  13
BRANCH   5  18
ATOM     18  N   LIG d   1      -0.931  94.024 116.532  0.00  0.00     0.381 N 
ATOM     19  H   LIG d   1      -0.744  94.587 117.337  0.00  0.00    -0.090 HD
ATOM     20  H   LIG d   1      -1.925  93.889 116.465  0.00  0.00    -0.090 HD
ATOM     21  H   LIG d   1      -0.595  94.481 115.713  0.00  0.00    -0.090 HD
ENDBRANCH   5  18
BRANCH   3  22
ATOM     22  C   LIG d   1       3.115  91.752 117.717  0.00  0.00     0.382 C 
ATOM     23  O   LIG d   1       3.734  90.939 118.445  0.00  0.00    -0.241 OA
ATOM     24  O   LIG d   1       3.753  92.592 117.055  0.00  0.00    -0.241 OA
ENDBRANCH   3  22
TORSDOF 7
ENDMDL
MODEL 7
REMARK VINA RESULT:      -4.5     13.342     16.256
REMARK  7 active torsions:
REMARK  status: ('A' for Active; 'I' for Inactive)
REMARK    1  A    between atoms: C_2  and  C_3 
REMARK    2  A    between atoms: C_3  and  O_6 
REMARK    3  A    between atoms: C_3  and  C_4 
REMARK    4  A    between atoms: C_7  and  O_6 
REMARK    5  A    between atoms: C_9  and  C_10 
REMARK    6  A    between atoms: N_15  and  C_14 
REMARK    7  A    between atoms: N_20  and  C_19 
REMARK       I    between atoms: C_22  and  N_20 
ROOT
ATOM      1  C   LIG d   1      -3.772  91.779 118.411  0.00  0.00     0.161 C 
ATOM      2  C   LIG d   1      -4.058  93.035 118.972  0.00  0.00     0.016 C 
ATOM      3  C   LIG d   1      -3.236  94.171 118.794  0.00  0.00     0.038 C 
ATOM      4  C   LIG d   1      -2.144  94.167 117.913  0.00  0.00     0.028 C 
ATOM      5  C   LIG d   1      -1.527  92.785 117.721  0.00  0.00    -0.047 C 
ATOM      6  C   LIG d   1      -2.646  91.783 117.356  0.00  0.00     0.091 C 
ENDROOT
BRANCH   1   7
ATOM      7  O   LIG d   1      -4.974  91.206 117.858  0.00  0.00    -0.368 OA
BRANCH   7   8
ATOM      8  C   LIG d   1      -5.617  91.966 116.806  0.00  0.00     0.119 C 
BRANCH   8   9
ATOM      9  C   LIG d   1      -7.088  92.174 117.217  0.00  0.00     0.028 C 
ATOM     10  C   LIG d   1      -7.383  93.627 117.625  0.00  0.00     0.006 C 
ENDBRANCH   8   9
BRANCH   8  11
ATOM     11  C   LIG d   1      -5.670  91.172 115.497  0.00  0.00     0.028 C 
ATOM     12  C   LIG d   1      -6.768  91.668 114.543  0.00  0.00     0.006 C 
ENDBRANCH   8  11
ENDBRANCH   7   8
ENDBRANCH   1   7
BRANCH   6  13
ATOM     13  N   LIG d   1      -2.141  90.390 117.233  0.00  0.00    -0.311 N 
ATOM     14  C   LIG d   1      -1.502  89.753 118.212  0.00  0.00     0.210 C 
ATOM     15  C   LIG d   1      -1.048  88.330 117.869  0.00  0.00     0.109 C 
ATOM     16  O   LIG d   1      -1.297  90.218 119.343  0.00  0.00    -0.276 OA
ATOM     17  H   LIG d   1      -2.293  89.926 116.358  0.00  0.00     0.149 HD
ENDBRANCH   6  13
BRANCH   5  18
ATOM     18  N   LIG d   1      -0.492  92.901 116.676  0.00  0.00     0.381 N 
ATOM     19  H   LIG d   1      -0.300  91.999 116.288  0.00  0.00    -0.090 HD
ATOM     20  H   LIG d   1       0.353  93.251 117.093  0.00  0.00    -0.090 HD
ATOM     21  H   LIG d   1      -0.799  93.521 115.960  0.00  0.00    -0.090 HD
ENDBRANCH   5  18
BRANCH   3  22
ATOM     22  C   LIG d   1      -3.480  95.318 119.534  0.00  0.00     0.382 C 
ATOM     23  O   LIG d   1      -4.454  95.360 120.324  0.00  0.00    -0.241 OA
ATOM     24  O   LIG d   1      -2.764  96.328 119.390  0.00  0.00    -0.241 OA
ENDBRANCH   3  22
TORSDOF 7
ENDMDL
MODEL 8
REMARK VINA RESULT:      -4.5      1.613      2.096
REMARK  7 active torsions:
REMARK  status: ('A' for Active; 'I' for Inactive)
REMARK    1  A    between atoms: C_2  and  C_3 
REMARK    2  A    between atoms: C_3  and  O_6 
REMARK    3  A    between atoms: C_3  and  C_4 
REMARK    4  A    between atoms: C_7  and  O_6 
REMARK    5  A    between atoms: C_9  and  C_10 
REMARK    6  A    between atoms: N_15  and  C_14 
REMARK    7  A    between atoms: N_20  and  C_19 
REMARK       I    between atoms: C_22  and  N_20 
ROOT
ATOM      1  C   LIG d   1      -7.072  77.745 117.780  0.00  0.00     0.161 C 
ATOM      2  C   LIG d   1      -7.866  76.643 117.423  0.00  0.00     0.016 C 
ATOM      3  C   LIG d   1      -9.220  76.502 117.806  0.00  0.00     0.038 C 
ATOM      4  C   LIG d   1      -9.919  77.533 118.450  0.00  0.00     0.028 C 
ATOM      5  C   LIG d   1      -9.022  78.452 119.272  0.00  0.00    -0.047 C 
ATOM      6  C   LIG d   1      -7.849  78.932 118.387  0.00  0.00     0.091 C 
ENDROOT
BRANCH   1   7
ATOM      7  O   LIG d   1      -6.301  78.181 116.643  0.00  0.00    -0.368 OA
BRANCH   7   8
ATOM      8  C   LIG d   1      -4.878  77.918 116.700  0.00  0.00     0.119 C 
BRANCH   8   9
ATOM      9  C   LIG d   1      -4.587  77.235 118.050  0.00  0.00     0.028 C 
ATOM     10  C   LIG d   1      -3.434  76.221 117.958  0.00  0.00     0.006 C 
ENDBRANCH   8   9
BRANCH   8  11
ATOM     11  C   LIG d   1      -4.071  79.220 116.722  0.00  0.00     0.028 C 
ATOM     12  C   LIG d   1      -2.984  79.266 115.636  0.00  0.00     0.006 C 
ENDBRANCH   8  11
ENDBRANCH   7   8
ENDBRANCH   1   7
BRANCH   6  13
ATOM     13  N   LIG d   1      -6.878  79.769 119.139  0.00  0.00    -0.311 N 
ATOM     14  C   LIG d   1      -6.553  81.011 118.785  0.00  0.00     0.210 C 
ATOM     15  C   LIG d   1      -5.516  81.689 119.686  0.00  0.00     0.109 C 
ATOM     16  O   LIG d   1      -7.049  81.627 117.830  0.00  0.00    -0.276 OA
ATOM     17  H   LIG d   1      -6.451  79.358 119.946  0.00  0.00     0.149 HD
ENDBRANCH   6  13
BRANCH   5  18
ATOM     18  N   LIG d   1      -9.858  79.559 119.774  0.00  0.00     0.381 N 
ATOM     19  H   LIG d   1      -9.555  80.422 119.371  0.00  0.00    -0.090 HD
ATOM     20  H   LIG d   1      -9.750  79.621 120.772  0.00  0.00    -0.090 HD
ATOM     21  H   LIG d   1     -10.814  79.395 119.546  0.00  0.00    -0.090 HD
ENDBRANCH   5  18
BRANCH   3  22
ATOM     22  C   LIG d   1      -9.876  75.301 117.580  0.00  0.00     0.382 C 
ATOM     23  O   LIG d   1     -11.130  75.259 117.602  0.00  0.00    -0.241 OA
ATOM     24  O   LIG d   1      -9.230  74.252 117.399  0.00  0.00    -0.241 OA
ENDBRANCH   3  22
TORSDOF 7
ENDMDL
MODEL 9
REMARK VINA RESULT:      -4.3     13.851     17.587
REMARK  7 active torsions:
REMARK  status: ('A' for Active; 'I' for Inactive)
REMARK    1  A    between atoms: C_2  and  C_3 
REMARK    2  A    between atoms: C_3  and  O_6 
REMARK    3  A    between atoms: C_3  and  C_4 
REMARK    4  A    between atoms: C_7  and  O_6 
REMARK    5  A    between atoms: C_9  and  C_10 
REMARK    6  A    between atoms: N_15  and  C_14 
REMARK    7  A    between atoms: N_20  and  C_19 
REMARK       I    between atoms: C_22  and  N_20 
ROOT
ATOM      1  C   LIG d   1      -2.980  93.281 119.621  0.00  0.00     0.161 C 
ATOM      2  C   LIG d   1      -2.685  94.645 119.467  0.00  0.00     0.016 C 
ATOM      3  C   LIG d   1      -1.875  95.154 118.425  0.00  0.00     0.038 C 
ATOM      4  C   LIG d   1      -1.427  94.343 117.372  0.00  0.00     0.028 C 
ATOM      5  C   LIG d   1      -1.279  92.875 117.758  0.00  0.00    -0.047 C 
ATOM      6  C   LIG d   1      -2.591  92.395 118.418  0.00  0.00     0.091 C 
ENDROOT
BRANCH   1   7
ATOM      7  O   LIG d   1      -4.377  93.115 119.934  0.00  0.00    -0.368 OA
BRANCH   7   8
ATOM      8  C   LIG d   1      -5.308  93.850 119.102  0.00  0.00     0.119 C 
BRANCH   8   9
ATOM      9  C   LIG d   1      -6.246  94.636 120.039  0.00  0.00     0.028 C 
ATOM     10  C   LIG d   1      -5.991  96.152 119.987  0.00  0.00     0.006 C 
ENDBRANCH   8   9
BRANCH   8  11
ATOM     11  C   LIG d   1      -6.221  92.903 118.316  0.00  0.00     0.028 C 
ATOM     12  C   LIG d   1      -7.530  93.572 117.870  0.00  0.00     0.006 C 
ENDBRANCH   8  11
ENDBRANCH   7   8
ENDBRANCH   1   7
BRANCH   6  13
ATOM     13  N   LIG d   1      -2.503  90.993 118.902  0.00  0.00    -0.311 N 
ATOM     14  C   LIG d   1      -3.301  90.017 118.472  0.00  0.00     0.210 C 
ATOM     15  C   LIG d   1      -3.053  88.649 119.115  0.00  0.00     0.109 C 
ATOM     16  O   LIG d   1      -4.168  90.147 117.596  0.00  0.00    -0.276 OA
ATOM     17  H   LIG d   1      -1.805  90.792 119.592  0.00  0.00     0.149 HD
ENDBRANCH   6  13
BRANCH   5  18
ATOM     18  N   LIG d   1      -0.939  92.125 116.534  0.00  0.00     0.381 N 
ATOM     19  H   LIG d   1      -1.168  91.159 116.655  0.00  0.00    -0.090 HD
ATOM     20  H   LIG d   1       0.050  92.197 116.373  0.00  0.00    -0.090 HD
ATOM     21  H   LIG d   1      -1.438  92.497 115.756  0.00  0.00    -0.090 HD
ENDBRANCH   5  18
BRANCH   3  22
ATOM     22  C   LIG d   1      -1.473  96.481 118.452  0.00  0.00     0.382 C 
ATOM     23  O   LIG d   1      -0.253  96.765 118.523  0.00  0.00    -0.241 OA
ATOM     24  O   LIG d   1      -2.317  97.397 118.452  0.00  0.00    -0.241 OA
ENDBRANCH   3  22
TORSDOF 7
ENDMDL
