MODEL 1
REMARK VINA RESULT:      -5.2      0.000      0.000
REMARK  7 active torsions:
REMARK  status: ('A' for Active; 'I' for Inactive)
REMARK    1  A    between atoms: C_2  and  C_3 
REMARK    2  A    between atoms: C_3  and  O_6 
REMARK    3  A    between atoms: C_3  and  C_4 
REMARK    4  A    between atoms: C_7  and  O_6 
REMARK    5  A    between atoms: C_9  and  C_10 
REMARK    6  A    between atoms: N_15  and  C_14 
REMARK    7  A    between atoms: N_20  and  C_19 
REMARK       I    between atoms: C_22  and  N_20 
ROOT
ATOM      1  C   LIG d   1      -6.120  92.711 118.145  0.00  0.00     0.161 C 
ATOM      2  C   LIG d   1      -4.955  93.456 118.392  0.00  0.00     0.016 C 
ATOM      3  C   LIG d   1      -3.672  93.066 117.943  0.00  0.00     0.038 C 
ATOM      4  C   LIG d   1      -3.488  91.974 117.081  0.00  0.00     0.028 C 
ATOM      5  C   LIG d   1      -4.567  90.905 117.219  0.00  0.00    -0.047 C 
ATOM      6  C   LIG d   1      -5.955  91.577 117.112  0.00  0.00     0.091 C 
ENDROOT
BRANCH   1   7
ATOM      7  O   LIG d   1      -7.190  93.594 117.753  0.00  0.00    -0.368 OA
BRANCH   7   8
ATOM      8  C   LIG d   1      -7.308  94.826 118.507  0.00  0.00     0.119 C 
BRANCH   8   9
ATOM      9  C   LIG d   1      -8.118  94.513 119.780  0.00  0.00     0.028 C 
ATOM     10  C   LIG d   1      -9.545  95.085 119.724  0.00  0.00     0.006 C 
ENDBRANCH   8   9
BRANCH   8  11
ATOM     11  C   LIG d   1      -8.135  95.867 117.746  0.00  0.00     0.028 C 
ATOM     12  C   LIG d   1      -7.404  97.210 117.592  0.00  0.00     0.006 C 
ENDBRANCH   8  11
ENDBRANCH   7   8
ENDBRANCH   1   7
BRANCH   6  13
ATOM     13  N   LIG d   1      -7.068  90.614 117.320  0.00  0.00    -0.311 N 
ATOM     14  C   LIG d   1      -7.593  89.877 116.342  0.00  0.00     0.210 C 
ATOM     15  C   LIG d   1      -8.746  88.963 116.769  0.00  0.00     0.109 C 
ATOM     16  O   LIG d   1      -7.191  89.869 115.169  0.00  0.00    -0.276 OA
ATOM     17  H   LIG d   1      -7.434  90.533 118.249  0.00  0.00     0.149 HD
ENDBRANCH   6  13
BRANCH   5  18
ATOM     18  N   LIG d   1      -4.331  89.895 116.170  0.00  0.00     0.381 N 
ATOM     19  H   LIG d   1      -3.446  89.452 116.320  0.00  0.00    -0.090 HD
ATOM     20  H   LIG d   1      -4.306  90.355 115.277  0.00  0.00    -0.090 HD
ATOM     21  H   LIG d   1      -5.058  89.215 116.182  0.00  0.00    -0.090 HD
ENDBRANCH   5  18
BRANCH   3  22
ATOM     22  C   LIG d   1      -2.551  93.748 118.390  0.00  0.00     0.382 C 
ATOM     23  O   LIG d   1      -2.573  94.332 119.500  0.00  0.00    -0.241 OA
ATOM     24  O   LIG d   1      -1.532  93.824 117.678  0.00  0.00    -0.241 OA
ENDBRANCH   3  22
TORSDOF 7
ENDMDL
MODEL 2
REMARK VINA RESULT:      -5.2     13.770     16.958
REMARK  7 active torsions:
REMARK  status: ('A' for Active; 'I' for Inactive)
REMARK    1  A    between atoms: C_2  and  C_3 
REMARK    2  A    between atoms: C_3  and  O_6 
REMARK    3  A    between atoms: C_3  and  C_4 
REMARK    4  A    between atoms: C_7  and  O_6 
REMARK    5  A    between atoms: C_9  and  C_10 
REMARK    6  A    between atoms: N_15  and  C_14 
REMARK    7  A    between atoms: N_20  and  C_19 
REMARK       I    between atoms: C_22  and  N_20 
ROOT
ATOM      1  C   LIG d   1      -4.443  76.393 117.896  0.00  0.00     0.161 C 
ATOM      2  C   LIG d   1      -5.628  77.132 117.737  0.00  0.00     0.016 C 
ATOM      3  C   LIG d   1      -5.651  78.492 117.353  0.00  0.00     0.038 C 
ATOM      4  C   LIG d   1      -4.490  79.169 116.951  0.00  0.00     0.028 C 
ATOM      5  C   LIG d   1      -3.217  78.612 117.578  0.00  0.00    -0.047 C 
ATOM      6  C   LIG d   1      -3.174  77.083 117.354  0.00  0.00     0.091 C 
ENDROOT
BRANCH   1   7
ATOM      7  O   LIG d   1      -4.597  75.089 117.301  0.00  0.00    -0.368 OA
BRANCH   7   8
ATOM      8  C   LIG d   1      -5.823  74.867 116.562  0.00  0.00     0.119 C 
BRANCH   8   9
ATOM      9  C   LIG d   1      -6.479  73.591 117.127  0.00  0.00     0.028 C 
ATOM     10  C   LIG d   1      -6.228  72.360 116.239  0.00  0.00     0.006 C 
ENDBRANCH   8   9
BRANCH   8  11
ATOM     11  C   LIG d   1      -5.538  74.558 115.089  0.00  0.00     0.028 C 
ATOM     12  C   LIG d   1      -5.433  75.824 114.224  0.00  0.00     0.006 C 
ENDBRANCH   8  11
ENDBRANCH   7   8
ENDBRANCH   1   7
BRANCH   6  13
ATOM     13  N   LIG d   1      -2.001  76.447 118.009  0.00  0.00    -0.311 N 
ATOM     14  C   LIG d   1      -0.845  76.224 117.387  0.00  0.00     0.210 C 
ATOM     15  C   LIG d   1       0.227  75.539 118.240  0.00  0.00     0.109 C 
ATOM     16  O   LIG d   1      -0.595  76.558 116.219  0.00  0.00    -0.276 OA
ATOM     17  H   LIG d   1      -2.107  76.173 118.967  0.00  0.00     0.149 HD
ENDBRANCH   6  13
BRANCH   5  18
ATOM     18  N   LIG d   1      -2.074  79.318 116.968  0.00  0.00     0.381 N 
ATOM     19  H   LIG d   1      -1.228  79.059 117.434  0.00  0.00    -0.090 HD
ATOM     20  H   LIG d   1      -2.206  80.308 117.081  0.00  0.00    -0.090 HD
ATOM     21  H   LIG d   1      -2.011  79.092 116.000  0.00  0.00    -0.090 HD
ENDBRANCH   5  18
BRANCH   3  22
ATOM     22  C   LIG d   1      -6.842  79.201 117.406  0.00  0.00     0.382 C 
ATOM     23  O   LIG d   1      -7.930  78.590 117.539  0.00  0.00    -0.241 OA
ATOM     24  O   LIG d   1      -6.846  80.440 117.278  0.00  0.00    -0.241 OA
ENDBRANCH   3  22
TORSDOF 7
ENDMDL
MODEL 3
REMARK VINA RESULT:      -5.1      2.359      4.620
REMARK  7 active torsions:
REMARK  status: ('A' for Active; 'I' for Inactive)
REMARK    1  A    between atoms: C_2  and  C_3 
REMARK    2  A    between atoms: C_3  and  O_6 
REMARK    3  A    between atoms: C_3  and  C_4 
REMARK    4  A    between atoms: C_7  and  O_6 
REMARK    5  A    between atoms: C_9  and  C_10 
REMARK    6  A    between atoms: N_15  and  C_14 
REMARK    7  A    between atoms: N_20  and  C_19 
REMARK       I    between atoms: C_22  and  N_20 
ROOT
ATOM      1  C   LIG d   1      -5.276  90.661 117.746  0.00  0.00     0.161 C 
ATOM      2  C   LIG d   1      -6.102  91.638 118.328  0.00  0.00     0.016 C 
ATOM      3  C   LIG d   1      -5.680  92.963 118.582  0.00  0.00     0.038 C 
ATOM      4  C   LIG d   1      -4.444  93.447 118.130  0.00  0.00     0.028 C 
ATOM      5  C   LIG d   1      -3.383  92.360 117.989  0.00  0.00    -0.047 C 
ATOM      6  C   LIG d   1      -3.961  91.201 117.146  0.00  0.00     0.091 C 
ENDROOT
BRANCH   1   7
ATOM      7  O   LIG d   1      -6.016  89.925 116.753  0.00  0.00    -0.368 OA
BRANCH   7   8
ATOM      8  C   LIG d   1      -7.110  90.631 116.119  0.00  0.00     0.119 C 
BRANCH   8   9
ATOM      9  C   LIG d   1      -8.183  89.588 115.751  0.00  0.00     0.028 C 
ATOM     10  C   LIG d   1      -8.830  88.949 116.991  0.00  0.00     0.006 C 
ENDBRANCH   8   9
BRANCH   8  11
ATOM     11  C   LIG d   1      -6.676  91.253 114.788  0.00  0.00     0.028 C 
ATOM     12  C   LIG d   1      -6.803  92.785 114.777  0.00  0.00     0.006 C 
ENDBRANCH   8  11
ENDBRANCH   7   8
ENDBRANCH   1   7
BRANCH   6  13
ATOM     13  N   LIG d   1      -3.018  90.059 117.030  0.00  0.00    -0.311 N 
ATOM     14  C   LIG d   1      -2.657  89.299 118.062  0.00  0.00     0.210 C 
ATOM     15  C   LIG d   1      -1.658  88.186 117.728  0.00  0.00     0.109 C 
ATOM     16  O   LIG d   1      -3.093  89.420 119.216  0.00  0.00    -0.276 OA
ATOM     17  H   LIG d   1      -2.639  89.870 116.122  0.00  0.00     0.149 HD
ENDBRANCH   6  13
BRANCH   5  18
ATOM     18  N   LIG d   1      -2.190  92.978 117.381  0.00  0.00     0.381 N 
ATOM     19  H   LIG d   1      -1.677  93.482 118.077  0.00  0.00    -0.090 HD
ATOM     20  H   LIG d   1      -2.485  93.629 116.674  0.00  0.00    -0.090 HD
ATOM     21  H   LIG d   1      -1.611  92.276 116.975  0.00  0.00    -0.090 HD
ENDBRANCH   5  18
BRANCH   3  22
ATOM     22  C   LIG d   1      -6.485  93.809 119.331  0.00  0.00     0.382 C 
ATOM     23  O   LIG d   1      -7.725  93.821 119.145  0.00  0.00    -0.241 OA
ATOM     24  O   LIG d   1      -5.981  94.591 120.158  0.00  0.00    -0.241 OA
ENDBRANCH   3  22
TORSDOF 7
ENDMDL
MODEL 4
REMARK VINA RESULT:      -5.1      2.417      4.758
REMARK  7 active torsions:
REMARK  status: ('A' for Active; 'I' for Inactive)
REMARK    1  A    between atoms: C_2  and  C_3 
REMARK    2  A    between atoms: C_3  and  O_6 
REMARK    3  A    between atoms: C_3  and  C_4 
REMARK    4  A    between atoms: C_7  and  O_6 
REMARK    5  A    between atoms: C_9  and  C_10 
REMARK    6  A    between atoms: N_15  and  C_14 
REMARK    7  A    between atoms: N_20  and  C_19 
REMARK       I    between atoms: C_22  and  N_20 
ROOT
ATOM      1  C   LIG d   1      -5.839  92.540 118.579  0.00  0.00     0.161 C 
ATOM      2  C   LIG d   1      -5.117  91.476 118.014  0.00  0.00     0.016 C 
ATOM      3  C   LIG d   1      -5.215  91.104 116.653  0.00  0.00     0.038 C 
ATOM      4  C   LIG d   1      -5.934  91.872 115.725  0.00  0.00     0.028 C 
ATOM      5  C   LIG d   1      -7.081  92.660 116.349  0.00  0.00    -0.047 C 
ATOM      6  C   LIG d   1      -6.542  93.459 117.558  0.00  0.00     0.091 C 
ENDROOT
BRANCH   1   7
ATOM      7  O   LIG d   1      -4.977  93.313 119.438  0.00  0.00    -0.368 OA
BRANCH   7   8
ATOM      8  C   LIG d   1      -4.228  94.376 118.799  0.00  0.00     0.119 C 
BRANCH   8   9
ATOM      9  C   LIG d   1      -2.731  94.063 118.984  0.00  0.00     0.028 C 
ATOM     10  C   LIG d   1      -2.073  93.556 117.690  0.00  0.00     0.006 C 
ENDBRANCH   8   9
BRANCH   8  11
ATOM     11  C   LIG d   1      -4.452  95.717 119.505  0.00  0.00     0.028 C 
ATOM     12  C   LIG d   1      -3.225  96.640 119.435  0.00  0.00     0.006 C 
ENDBRANCH   8  11
ENDBRANCH   7   8
ENDBRANCH   1   7
BRANCH   6  13
ATOM     13  N   LIG d   1      -7.616  94.192 118.277  0.00  0.00    -0.311 N 
ATOM     14  C   LIG d   1      -7.893  95.478 118.068  0.00  0.00     0.210 C 
ATOM     15  C   LIG d   1      -9.026  96.043 118.930  0.00  0.00     0.109 C 
ATOM     16  O   LIG d   1      -7.329  96.195 117.229  0.00  0.00    -0.276 OA
ATOM     17  H   LIG d   1      -8.144  93.677 118.954  0.00  0.00     0.149 HD
ENDBRANCH   6  13
BRANCH   5  18
ATOM     18  N   LIG d   1      -7.655  93.520 115.297  0.00  0.00     0.381 N 
ATOM     19  H   LIG d   1      -7.196  93.343 114.426  0.00  0.00    -0.090 HD
ATOM     20  H   LIG d   1      -7.502  94.482 115.544  0.00  0.00    -0.090 HD
ATOM     21  H   LIG d   1      -8.632  93.344 115.208  0.00  0.00    -0.090 HD
ENDBRANCH   5  18
BRANCH   3  22
ATOM     22  C   LIG d   1      -4.623  89.929 116.217  0.00  0.00     0.382 C 
ATOM     23  O   LIG d   1      -4.979  89.413 115.130  0.00  0.00    -0.241 OA
ATOM     24  O   LIG d   1      -3.768  89.354 116.918  0.00  0.00    -0.241 OA
ENDBRANCH   3  22
TORSDOF 7
ENDMDL
MODEL 5
REMARK VINA RESULT:      -5.0      2.522      5.571
REMARK  7 active torsions:
REMARK  status: ('A' for Active; 'I' for Inactive)
REMARK    1  A    between atoms: C_2  and  C_3 
REMARK    2  A    between atoms: C_3  and  O_6 
REMARK    3  A    between atoms: C_3  and  C_4 
REMARK    4  A    between atoms: C_7  and  O_6 
REMARK    5  A    between atoms: C_9  and  C_10 
REMARK    6  A    between atoms: N_15  and  C_14 
REMARK    7  A    between atoms: N_20  and  C_19 
REMARK       I    between atoms: C_22  and  N_20 
ROOT
ATOM      1  C   LIG d   1      -6.062  91.464 118.454  0.00  0.00     0.161 C 
ATOM      2  C   LIG d   1      -5.744  90.570 117.418  0.00  0.00     0.016 C 
ATOM      3  C   LIG d   1      -5.928  90.869 116.048  0.00  0.00     0.038 C 
ATOM      4  C   LIG d   1      -6.304  92.148 115.613  0.00  0.00     0.028 C 
ATOM      5  C   LIG d   1      -7.119  92.924 116.643  0.00  0.00    -0.047 C 
ATOM      6  C   LIG d   1      -6.368  92.904 117.994  0.00  0.00     0.091 C 
ENDROOT
BRANCH   1   7
ATOM      7  O   LIG d   1      -5.009  91.465 119.438  0.00  0.00    -0.368 OA
BRANCH   7   8
ATOM      8  C   LIG d   1      -3.688  91.117 118.958  0.00  0.00     0.119 C 
BRANCH   8   9
ATOM      9  C   LIG d   1      -3.108  90.062 119.921  0.00  0.00     0.028 C 
ATOM     10  C   LIG d   1      -2.652  88.788 119.190  0.00  0.00     0.006 C 
ENDBRANCH   8   9
BRANCH   8  11
ATOM     11  C   LIG d   1      -2.732  92.311 119.042  0.00  0.00     0.028 C 
ATOM     12  C   LIG d   1      -2.756  93.183 117.776  0.00  0.00     0.006 C 
ENDBRANCH   8  11
ENDBRANCH   7   8
ENDBRANCH   1   7
BRANCH   6  13
ATOM     13  N   LIG d   1      -7.137  93.569 119.079  0.00  0.00    -0.311 N 
ATOM     14  C   LIG d   1      -7.001  94.857 119.390  0.00  0.00     0.210 C 
ATOM     15  C   LIG d   1      -7.874  95.336 120.554  0.00  0.00     0.109 C 
ATOM     16  O   LIG d   1      -6.264  95.655 118.792  0.00  0.00    -0.276 OA
ATOM     17  H   LIG d   1      -7.781  93.002 119.595  0.00  0.00     0.149 HD
ENDBRANCH   6  13
BRANCH   5  18
ATOM     18  N   LIG d   1      -7.324  94.286 116.115  0.00  0.00     0.381 N 
ATOM     19  H   LIG d   1      -8.299  94.509 116.123  0.00  0.00    -0.090 HD
ATOM     20  H   LIG d   1      -7.001  94.318 115.164  0.00  0.00    -0.090 HD
ATOM     21  H   LIG d   1      -6.820  94.945 116.667  0.00  0.00    -0.090 HD
ENDBRANCH   5  18
BRANCH   3  22
ATOM     22  C   LIG d   1      -5.774  89.869 115.100  0.00  0.00     0.382 C 
ATOM     23  O   LIG d   1      -6.681  89.657 114.260  0.00  0.00    -0.241 OA
ATOM     24  O   LIG d   1      -4.758  89.148 115.102  0.00  0.00    -0.241 OA
ENDBRANCH   3  22
TORSDOF 7
ENDMDL
MODEL 6
REMARK VINA RESULT:      -5.0      1.732      4.830
REMARK  7 active torsions:
REMARK  status: ('A' for Active; 'I' for Inactive)
REMARK    1  A    between atoms: C_2  and  C_3 
REMARK    2  A    between atoms: C_3  and  O_6 
REMARK    3  A    between atoms: C_3  and  C_4 
REMARK    4  A    between atoms: C_7  and  O_6 
REMARK    5  A    between atoms: C_9  and  C_10 
REMARK    6  A    between atoms: N_15  and  C_14 
REMARK    7  A    between atoms: N_20  and  C_19 
REMARK       I    between atoms: C_22  and  N_20 
ROOT
ATOM      1  C   LIG d   1      -5.464  92.986 117.608  0.00  0.00     0.161 C 
ATOM      2  C   LIG d   1      -6.513  92.175 117.143  0.00  0.00     0.016 C 
ATOM      3  C   LIG d   1      -6.320  90.873 116.627  0.00  0.00     0.038 C 
ATOM      4  C   LIG d   1      -5.074  90.231 116.682  0.00  0.00     0.028 C 
ATOM      5  C   LIG d   1      -3.894  91.198 116.678  0.00  0.00    -0.047 C 
ATOM      6  C   LIG d   1      -4.113  92.261 117.778  0.00  0.00     0.091 C 
ENDROOT
BRANCH   1   7
ATOM      7  O   LIG d   1      -5.850  93.623 118.842  0.00  0.00    -0.368 OA
BRANCH   7   8
ATOM      8  C   LIG d   1      -6.118  95.045 118.768  0.00  0.00     0.119 C 
BRANCH   8   9
ATOM      9  C   LIG d   1      -5.249  95.736 119.837  0.00  0.00     0.028 C 
ATOM     10  C   LIG d   1      -4.079  96.524 119.222  0.00  0.00     0.006 C 
ENDBRANCH   8   9
BRANCH   8  11
ATOM     11  C   LIG d   1      -7.565  95.360 119.158  0.00  0.00     0.028 C 
ATOM     12  C   LIG d   1      -8.462  95.641 117.942  0.00  0.00     0.006 C 
ENDBRANCH   8  11
ENDBRANCH   7   8
ENDBRANCH   1   7
BRANCH   6  13
ATOM     13  N   LIG d   1      -3.046  93.295 117.787  0.00  0.00    -0.311 N 
ATOM     14  C   LIG d   1      -1.965  93.227 118.563  0.00  0.00     0.210 C 
ATOM     15  C   LIG d   1      -0.999  94.408 118.431  0.00  0.00     0.109 C 
ATOM     16  O   LIG d   1      -1.699  92.284 119.323  0.00  0.00    -0.276 OA
ATOM     17  H   LIG d   1      -3.166  94.080 117.177  0.00  0.00     0.149 HD
ENDBRANCH   6  13
BRANCH   5  18
ATOM     18  N   LIG d   1      -2.667  90.404 116.877  0.00  0.00     0.381 N 
ATOM     19  H   LIG d   1      -2.650  90.034 117.806  0.00  0.00    -0.090 HD
ATOM     20  H   LIG d   1      -1.869  91.004 116.761  0.00  0.00    -0.090 HD
ATOM     21  H   LIG d   1      -2.631  89.660 116.214  0.00  0.00    -0.090 HD
ENDBRANCH   5  18
BRANCH   3  22
ATOM     22  C   LIG d   1      -7.374  90.214 116.013  0.00  0.00     0.382 C 
ATOM     23  O   LIG d   1      -7.782  89.120 116.471  0.00  0.00    -0.241 OA
ATOM     24  O   LIG d   1      -7.892  90.678 114.979  0.00  0.00    -0.241 OA
ENDBRANCH   3  22
TORSDOF 7
ENDMDL
MODEL 7
REMARK VINA RESULT:      -5.0     14.479     17.446
REMARK  7 active torsions:
REMARK  status: ('A' for Active; 'I' for Inactive)
REMARK    1  A    between atoms: C_2  and  C_3 
REMARK    2  A    between atoms: C_3  and  O_6 
REMARK    3  A    between atoms: C_3  and  C_4 
REMARK    4  A    between atoms: C_7  and  O_6 
REMARK    5  A    between atoms: C_9  and  C_10 
REMARK    6  A    between atoms: N_15  and  C_14 
REMARK    7  A    between atoms: N_20  and  C_19 
REMARK       I    between atoms: C_22  and  N_20 
ROOT
ATOM      1  C   LIG d   1      -3.148  77.202 117.227  0.00  0.00     0.161 C 
ATOM      2  C   LIG d   1      -4.014  76.387 116.478  0.00  0.00     0.016 C 
ATOM      3  C   LIG d   1      -4.075  76.408 115.066  0.00  0.00     0.038 C 
ATOM      4  C   LIG d   1      -3.161  77.142 114.295  0.00  0.00     0.028 C 
ATOM      5  C   LIG d   1      -2.603  78.363 115.018  0.00  0.00    -0.047 C 
ATOM      6  C   LIG d   1      -2.067  77.927 116.400  0.00  0.00     0.091 C 
ENDROOT
BRANCH   1   7
ATOM      7  O   LIG d   1      -2.539  76.429 118.281  0.00  0.00    -0.368 OA
BRANCH   7   8
ATOM      8  C   LIG d   1      -1.292  75.771 117.949  0.00  0.00     0.119 C 
BRANCH   8   9
ATOM      9  C   LIG d   1      -1.635  74.357 117.441  0.00  0.00     0.028 C 
ATOM     10  C   LIG d   1      -1.175  74.125 115.992  0.00  0.00     0.006 C 
ENDBRANCH   8   9
BRANCH   8  11
ATOM     11  C   LIG d   1      -0.427  75.556 119.194  0.00  0.00     0.028 C 
ATOM     12  C   LIG d   1      -0.776  74.261 119.945  0.00  0.00     0.006 C 
ENDBRANCH   8  11
ENDBRANCH   7   8
ENDBRANCH   1   7
BRANCH   6  13
ATOM     13  N   LIG d   1      -1.579  79.076 117.207  0.00  0.00    -0.311 N 
ATOM     14  C   LIG d   1      -0.294  79.278 117.494  0.00  0.00     0.210 C 
ATOM     15  C   LIG d   1      -0.010  80.512 118.356  0.00  0.00     0.109 C 
ATOM     16  O   LIG d   1       0.640  78.570 117.090  0.00  0.00    -0.276 OA
ATOM     17  H   LIG d   1      -2.267  79.718 117.549  0.00  0.00     0.149 HD
ENDBRANCH   6  13
BRANCH   5  18
ATOM     18  N   LIG d   1      -1.564  78.955 114.154  0.00  0.00     0.381 N 
ATOM     19  H   LIG d   1      -0.784  79.243 114.712  0.00  0.00    -0.090 HD
ATOM     20  H   LIG d   1      -1.943  79.767 113.699  0.00  0.00    -0.090 HD
ATOM     21  H   LIG d   1      -1.267  78.292 113.473  0.00  0.00    -0.090 HD
ENDBRANCH   5  18
BRANCH   3  22
ATOM     22  C   LIG d   1      -5.085  75.719 114.411  0.00  0.00     0.382 C 
ATOM     23  O   LIG d   1      -6.123  76.323 114.049  0.00  0.00    -0.241 OA
ATOM     24  O   LIG d   1      -4.990  74.492 114.218  0.00  0.00    -0.241 OA
ENDBRANCH   3  22
TORSDOF 7
ENDMDL
MODEL 8
REMARK VINA RESULT:      -5.0      2.712      6.830
REMARK  7 active torsions:
REMARK  status: ('A' for Active; 'I' for Inactive)
REMARK    1  A    between atoms: C_2  and  C_3 
REMARK    2  A    between atoms: C_3  and  O_6 
REMARK    3  A    between atoms: C_3  and  C_4 
REMARK    4  A    between atoms: C_7  and  O_6 
REMARK    5  A    between atoms: C_9  and  C_10 
REMARK    6  A    between atoms: N_15  and  C_14 
REMARK    7  A    between atoms: N_20  and  C_19 
REMARK       I    between atoms: C_22  and  N_20 
ROOT
ATOM      1  C   LIG d   1      -3.960  91.060 117.651  0.00  0.00     0.161 C 
ATOM      2  C   LIG d   1      -4.881  90.301 116.911  0.00  0.00     0.016 C 
ATOM      3  C   LIG d   1      -6.110  90.814 116.435  0.00  0.00     0.038 C 
ATOM      4  C   LIG d   1      -6.434  92.175 116.540  0.00  0.00     0.028 C 
ATOM      5  C   LIG d   1      -5.764  92.869 117.721  0.00  0.00    -0.047 C 
ATOM      6  C   LIG d   1      -4.247  92.576 117.680  0.00  0.00     0.091 C 
ENDROOT
BRANCH   1   7
ATOM      7  O   LIG d   1      -2.624  90.812 117.171  0.00  0.00    -0.368 OA
BRANCH   7   8
ATOM      8  C   LIG d   1      -1.731  90.138 118.092  0.00  0.00     0.119 C 
BRANCH   8   9
ATOM      9  C   LIG d   1      -0.295  90.582 117.753  0.00  0.00     0.028 C 
ATOM     10  C   LIG d   1       0.436  91.179 118.967  0.00  0.00     0.006 C 
ENDBRANCH   8   9
BRANCH   8  11
ATOM     11  C   LIG d   1      -1.748  88.622 117.876  0.00  0.00     0.028 C 
ATOM     12  C   LIG d   1      -2.272  87.851 119.098  0.00  0.00     0.006 C 
ENDBRANCH   8  11
ENDBRANCH   7   8
ENDBRANCH   1   7
BRANCH   6  13
ATOM     13  N   LIG d   1      -3.527  93.148 118.847  0.00  0.00    -0.311 N 
ATOM     14  C   LIG d   1      -2.345  93.754 118.755  0.00  0.00     0.210 C 
ATOM     15  C   LIG d   1      -1.768  94.254 120.083  0.00  0.00     0.109 C 
ATOM     16  O   LIG d   1      -1.734  93.954 117.694  0.00  0.00    -0.276 OA
ATOM     17  H   LIG d   1      -3.966  93.058 119.743  0.00  0.00     0.149 HD
ENDBRANCH   6  13
BRANCH   5  18
ATOM     18  N   LIG d   1      -6.078  94.307 117.630  0.00  0.00     0.381 N 
ATOM     19  H   LIG d   1      -5.344  94.841 118.050  0.00  0.00    -0.090 HD
ATOM     20  H   LIG d   1      -6.928  94.487 118.136  0.00  0.00    -0.090 HD
ATOM     21  H   LIG d   1      -6.189  94.572 116.676  0.00  0.00    -0.090 HD
ENDBRANCH   5  18
BRANCH   3  22
ATOM     22  C   LIG d   1      -7.046  89.954 115.882  0.00  0.00     0.382 C 
ATOM     23  O   LIG d   1      -7.786  89.269 116.629  0.00  0.00    -0.241 OA
ATOM     24  O   LIG d   1      -7.131  89.823 114.647  0.00  0.00    -0.241 OA
ENDBRANCH   3  22
TORSDOF 7
ENDMDL
MODEL 9
REMARK VINA RESULT:      -5.0      2.207      4.875
REMARK  7 active torsions:
REMARK  status: ('A' for Active; 'I' for Inactive)
REMARK    1  A    between atoms: C_2  and  C_3 
REMARK    2  A    between atoms: C_3  and  O_6 
REMARK    3  A    between atoms: C_3  and  C_4 
REMARK    4  A    between atoms: C_7  and  O_6 
REMARK    5  A    between atoms: C_9  and  C_10 
REMARK    6  A    between atoms: N_15  and  C_14 
REMARK    7  A    between atoms: N_20  and  C_19 
REMARK       I    between atoms: C_22  and  N_20 
ROOT
ATOM      1  C   LIG d   1      -5.438  93.114 117.970  0.00  0.00     0.161 C 
ATOM      2  C   LIG d   1      -5.748  94.295 118.665  0.00  0.00     0.016 C 
ATOM      3  C   LIG d   1      -6.801  95.163 118.294  0.00  0.00     0.038 C 
ATOM      4  C   LIG d   1      -7.718  94.828 117.287  0.00  0.00     0.028 C 
ATOM      5  C   LIG d   1      -7.141  93.891 116.230  0.00  0.00    -0.047 C 
ATOM      6  C   LIG d   1      -6.497  92.676 116.936  0.00  0.00     0.091 C 
ENDROOT
BRANCH   1   7
ATOM      7  O   LIG d   1      -5.182  92.049 118.906  0.00  0.00    -0.368 OA
BRANCH   7   8
ATOM      8  C   LIG d   1      -3.791  91.697 119.106  0.00  0.00     0.119 C 
BRANCH   8   9
ATOM      9  C   LIG d   1      -3.023  92.104 117.834  0.00  0.00     0.028 C 
ATOM     10  C   LIG d   1      -1.896  93.109 118.125  0.00  0.00     0.006 C 
ENDBRANCH   8   9
BRANCH   8  11
ATOM     11  C   LIG d   1      -3.611  90.180 119.220  0.00  0.00     0.028 C 
ATOM     12  C   LIG d   1      -2.946  89.564 117.979  0.00  0.00     0.006 C 
ENDBRANCH   8  11
ENDBRANCH   7   8
ENDBRANCH   1   7
BRANCH   6  13
ATOM     13  N   LIG d   1      -5.835  91.751 115.979  0.00  0.00    -0.311 N 
ATOM     14  C   LIG d   1      -5.959  90.426 116.035  0.00  0.00     0.210 C 
ATOM     15  C   LIG d   1      -5.177  89.657 114.966  0.00  0.00     0.109 C 
ATOM     16  O   LIG d   1      -6.668  89.816 116.850  0.00  0.00    -0.276 OA
ATOM     17  H   LIG d   1      -5.265  92.163 115.266  0.00  0.00     0.149 HD
ENDBRANCH   6  13
BRANCH   5  18
ATOM     18  N   LIG d   1      -8.240  93.516 115.321  0.00  0.00     0.381 N 
ATOM     19  H   LIG d   1      -8.954  93.035 115.831  0.00  0.00    -0.090 HD
ATOM     20  H   LIG d   1      -7.882  92.894 114.617  0.00  0.00    -0.090 HD
ATOM     21  H   LIG d   1      -8.621  94.330 114.891  0.00  0.00    -0.090 HD
ENDBRANCH   5  18
BRANCH   3  22
ATOM     22  C   LIG d   1      -6.920  96.400 118.909  0.00  0.00     0.382 C 
ATOM     23  O   LIG d   1      -7.003  96.473 120.159  0.00  0.00    -0.241 OA
ATOM     24  O   LIG d   1      -6.991  97.440 118.228  0.00  0.00    -0.241 OA
ENDBRANCH   3  22
TORSDOF 7
ENDMDL
