MODEL 1
REMARK VINA RESULT:      -5.7      0.000      0.000
REMARK  7 active torsions:
REMARK  status: ('A' for Active; 'I' for Inactive)
REMARK    1  A    between atoms: C_2  and  C_3 
REMARK    2  A    between atoms: C_3  and  O_6 
REMARK    3  A    between atoms: C_3  and  C_4 
REMARK    4  A    between atoms: C_7  and  O_6 
REMARK    5  A    between atoms: C_9  and  C_10 
REMARK    6  A    between atoms: N_15  and  C_14 
REMARK    7  A    between atoms: N_20  and  C_19 
REMARK       I    between atoms: C_22  and  N_20 
ROOT
ATOM      1  C   LIG d   1       0.692  57.550 117.972  0.00  0.00     0.161 C 
ATOM      2  C   LIG d   1       0.659  58.498 116.936  0.00  0.00     0.016 C 
ATOM      3  C   LIG d   1      -0.490  58.757 116.154  0.00  0.00     0.038 C 
ATOM      4  C   LIG d   1      -1.736  58.188 116.457  0.00  0.00     0.028 C 
ATOM      5  C   LIG d   1      -1.631  56.847 117.175  0.00  0.00    -0.047 C 
ATOM      6  C   LIG d   1      -0.688  57.000 118.390  0.00  0.00     0.091 C 
ENDROOT
BRANCH   1   7
ATOM      7  O   LIG d   1       1.380  58.098 119.114  0.00  0.00    -0.368 OA
BRANCH   7   8
ATOM      8  C   LIG d   1       1.759  59.493 119.021  0.00  0.00     0.119 C 
BRANCH   8   9
ATOM      9  C   LIG d   1       3.266  59.585 119.331  0.00  0.00     0.028 C 
ATOM     10  C   LIG d   1       4.124  59.652 118.056  0.00  0.00     0.006 C 
ENDBRANCH   8   9
BRANCH   8  11
ATOM     11  C   LIG d   1       1.071  60.332 120.102  0.00  0.00     0.028 C 
ATOM     12  C   LIG d   1      -0.388  60.667 119.757  0.00  0.00     0.006 C 
ENDBRANCH   8  11
ENDBRANCH   7   8
ENDBRANCH   1   7
BRANCH   6  13
ATOM     13  N   LIG d   1      -0.463  55.714 119.099  0.00  0.00    -0.311 N 
ATOM     14  C   LIG d   1       0.145  54.667 118.544  0.00  0.00     0.210 C 
ATOM     15  C   LIG d   1       0.255  53.431 119.443  0.00  0.00     0.109 C 
ATOM     16  O   LIG d   1       0.632  54.655 117.403  0.00  0.00    -0.276 OA
ATOM     17  H   LIG d   1      -0.799  55.647 120.040  0.00  0.00     0.149 HD
ENDBRANCH   6  13
BRANCH   5  18
ATOM     18  N   LIG d   1      -2.997  56.435 117.552  0.00  0.00     0.381 N 
ATOM     19  H   LIG d   1      -3.265  55.628 117.026  0.00  0.00    -0.090 HD
ATOM     20  H   LIG d   1      -3.634  57.181 117.331  0.00  0.00    -0.090 HD
ATOM     21  H   LIG d   1      -3.035  56.234 118.527  0.00  0.00    -0.090 HD
ENDBRANCH   5  18
BRANCH   3  22
ATOM     22  C   LIG d   1      -0.390  59.563 115.030  0.00  0.00     0.382 C 
ATOM     23  O   LIG d   1       0.710  59.679 114.438  0.00  0.00    -0.241 OA
ATOM     24  O   LIG d   1      -1.374  60.211 114.628  0.00  0.00    -0.241 OA
ENDBRANCH   3  22
TORSDOF 7
ENDMDL
MODEL 2
REMARK VINA RESULT:      -5.6     16.196     17.972
REMARK  7 active torsions:
REMARK  status: ('A' for Active; 'I' for Inactive)
REMARK    1  A    between atoms: C_2  and  C_3 
REMARK    2  A    between atoms: C_3  and  O_6 
REMARK    3  A    between atoms: C_3  and  C_4 
REMARK    4  A    between atoms: C_7  and  O_6 
REMARK    5  A    between atoms: C_9  and  C_10 
REMARK    6  A    between atoms: N_15  and  C_14 
REMARK    7  A    between atoms: N_20  and  C_19 
REMARK       I    between atoms: C_22  and  N_20 
ROOT
ATOM      1  C   LIG d   1      -3.808  74.512 116.997  0.00  0.00     0.161 C 
ATOM      2  C   LIG d   1      -2.742  75.258 116.467  0.00  0.00     0.016 C 
ATOM      3  C   LIG d   1      -2.870  76.110 115.346  0.00  0.00     0.038 C 
ATOM      4  C   LIG d   1      -4.117  76.392 114.768  0.00  0.00     0.028 C 
ATOM      5  C   LIG d   1      -5.137  75.273 114.952  0.00  0.00    -0.047 C 
ATOM      6  C   LIG d   1      -5.199  74.892 116.449  0.00  0.00     0.091 C 
ENDROOT
BRANCH   1   7
ATOM      7  O   LIG d   1      -3.796  74.597 118.436  0.00  0.00    -0.368 OA
BRANCH   7   8
ATOM      8  C   LIG d   1      -2.519  74.913 119.045  0.00  0.00     0.119 C 
BRANCH   8   9
ATOM      9  C   LIG d   1      -1.999  73.629 119.720  0.00  0.00     0.028 C 
ATOM     10  C   LIG d   1      -0.553  73.298 119.314  0.00  0.00     0.006 C 
ENDBRANCH   8   9
BRANCH   8  11
ATOM     11  C   LIG d   1      -2.679  75.931 120.178  0.00  0.00     0.028 C 
ATOM     12  C   LIG d   1      -4.051  76.623 120.169  0.00  0.00     0.006 C 
ENDBRANCH   8  11
ENDBRANCH   7   8
ENDBRANCH   1   7
BRANCH   6  13
ATOM     13  N   LIG d   1      -6.111  73.747 116.705  0.00  0.00    -0.311 N 
ATOM     14  C   LIG d   1      -7.382  73.891 117.078  0.00  0.00     0.210 C 
ATOM     15  C   LIG d   1      -8.141  72.581 117.309  0.00  0.00     0.109 C 
ATOM     16  O   LIG d   1      -7.961  74.980 117.209  0.00  0.00    -0.276 OA
ATOM     17  H   LIG d   1      -5.732  72.827 116.593  0.00  0.00     0.149 HD
ENDBRANCH   6  13
BRANCH   5  18
ATOM     18  N   LIG d   1      -6.427  75.755 114.425  0.00  0.00     0.381 N 
ATOM     19  H   LIG d   1      -6.415  75.732 113.425  0.00  0.00    -0.090 HD
ATOM     20  H   LIG d   1      -6.562  76.708 114.716  0.00  0.00    -0.090 HD
ATOM     21  H   LIG d   1      -7.170  75.187 114.768  0.00  0.00    -0.090 HD
ENDBRANCH   5  18
BRANCH   3  22
ATOM     22  C   LIG d   1      -1.737  76.659 114.767  0.00  0.00     0.382 C 
ATOM     23  O   LIG d   1      -1.581  77.904 114.751  0.00  0.00    -0.241 OA
ATOM     24  O   LIG d   1      -0.889  75.928 114.221  0.00  0.00    -0.241 OA
ENDBRANCH   3  22
TORSDOF 7
ENDMDL
MODEL 3
REMARK VINA RESULT:      -5.6     18.463     20.995
REMARK  7 active torsions:
REMARK  status: ('A' for Active; 'I' for Inactive)
REMARK    1  A    between atoms: C_2  and  C_3 
REMARK    2  A    between atoms: C_3  and  O_6 
REMARK    3  A    between atoms: C_3  and  C_4 
REMARK    4  A    between atoms: C_7  and  O_6 
REMARK    5  A    between atoms: C_9  and  C_10 
REMARK    6  A    between atoms: N_15  and  C_14 
REMARK    7  A    between atoms: N_20  and  C_19 
REMARK       I    between atoms: C_22  and  N_20 
ROOT
ATOM      1  C   LIG d   1      -6.408  76.672 118.278  0.00  0.00     0.161 C 
ATOM      2  C   LIG d   1      -7.772  76.554 118.592  0.00  0.00     0.016 C 
ATOM      3  C   LIG d   1      -8.687  77.628 118.502  0.00  0.00     0.038 C 
ATOM      4  C   LIG d   1      -8.327  78.864 117.944  0.00  0.00     0.028 C 
ATOM      5  C   LIG d   1      -6.842  79.183 118.085  0.00  0.00    -0.047 C 
ATOM      6  C   LIG d   1      -6.020  77.983 117.562  0.00  0.00     0.091 C 
ENDROOT
BRANCH   1   7
ATOM      7  O   LIG d   1      -5.985  75.533 117.502  0.00  0.00    -0.368 OA
BRANCH   7   8
ATOM      8  C   LIG d   1      -6.934  75.040 116.525  0.00  0.00     0.119 C 
BRANCH   8   9
ATOM      9  C   LIG d   1      -6.932  73.501 116.614  0.00  0.00     0.028 C 
ATOM     10  C   LIG d   1      -8.142  72.957 117.391  0.00  0.00     0.006 C 
ENDBRANCH   8   9
BRANCH   8  11
ATOM     11  C   LIG d   1      -6.483  75.364 115.098  0.00  0.00     0.028 C 
ATOM     12  C   LIG d   1      -4.976  75.149 114.885  0.00  0.00     0.006 C 
ENDBRANCH   8  11
ENDBRANCH   7   8
ENDBRANCH   1   7
BRANCH   6  13
ATOM     13  N   LIG d   1      -4.557  78.177 117.741  0.00  0.00    -0.311 N 
ATOM     14  C   LIG d   1      -3.716  78.381 116.729  0.00  0.00     0.210 C 
ATOM     15  C   LIG d   1      -2.246  78.537 117.132  0.00  0.00     0.109 C 
ATOM     16  O   LIG d   1      -4.051  78.480 115.539  0.00  0.00    -0.276 OA
ATOM     17  H   LIG d   1      -4.204  78.142 118.677  0.00  0.00     0.149 HD
ENDBRANCH   6  13
BRANCH   5  18
ATOM     18  N   LIG d   1      -6.582  80.430 117.342  0.00  0.00     0.381 N 
ATOM     19  H   LIG d   1      -5.841  80.284 116.685  0.00  0.00    -0.090 HD
ATOM     20  H   LIG d   1      -6.292  81.140 117.991  0.00  0.00    -0.090 HD
ATOM     21  H   LIG d   1      -7.406  80.721 116.865  0.00  0.00    -0.090 HD
ENDBRANCH   5  18
BRANCH   3  22
ATOM     22  C   LIG d   1      -9.969  77.484 119.011  0.00  0.00     0.382 C 
ATOM     23  O   LIG d   1     -10.154  77.479 120.252  0.00  0.00    -0.241 OA
ATOM     24  O   LIG d   1     -10.937  77.314 118.246  0.00  0.00    -0.241 OA
ENDBRANCH   3  22
TORSDOF 7
ENDMDL
MODEL 4
REMARK VINA RESULT:      -5.3     19.099     21.307
REMARK  7 active torsions:
REMARK  status: ('A' for Active; 'I' for Inactive)
REMARK    1  A    between atoms: C_2  and  C_3 
REMARK    2  A    between atoms: C_3  and  O_6 
REMARK    3  A    between atoms: C_3  and  C_4 
REMARK    4  A    between atoms: C_7  and  O_6 
REMARK    5  A    between atoms: C_9  and  C_10 
REMARK    6  A    between atoms: N_15  and  C_14 
REMARK    7  A    between atoms: N_20  and  C_19 
REMARK       I    between atoms: C_22  and  N_20 
ROOT
ATOM      1  C   LIG d   1      -6.720  77.839 117.230  0.00  0.00     0.161 C 
ATOM      2  C   LIG d   1      -6.766  79.242 117.277  0.00  0.00     0.016 C 
ATOM      3  C   LIG d   1      -7.887  79.970 117.738  0.00  0.00     0.038 C 
ATOM      4  C   LIG d   1      -8.990  79.336 118.329  0.00  0.00     0.028 C 
ATOM      5  C   LIG d   1      -9.201  77.907 117.841  0.00  0.00    -0.047 C 
ATOM      6  C   LIG d   1      -7.871  77.130 117.974  0.00  0.00     0.091 C 
ENDROOT
BRANCH   1   7
ATOM      7  O   LIG d   1      -5.446  77.375 117.719  0.00  0.00    -0.368 OA
BRANCH   7   8
ATOM      8  C   LIG d   1      -4.582  76.743 116.743  0.00  0.00     0.119 C 
BRANCH   8   9
ATOM      9  C   LIG d   1      -3.476  77.753 116.381  0.00  0.00     0.028 C 
ATOM     10  C   LIG d   1      -3.014  78.578 117.594  0.00  0.00     0.006 C 
ENDBRANCH   8   9
BRANCH   8  11
ATOM     11  C   LIG d   1      -5.326  76.469 115.433  0.00  0.00     0.028 C 
ATOM     12  C   LIG d   1      -5.332  74.981 115.051  0.00  0.00     0.006 C 
ENDBRANCH   8  11
ENDBRANCH   7   8
ENDBRANCH   1   7
BRANCH   6  13
ATOM     13  N   LIG d   1      -7.967  75.746 117.440  0.00  0.00    -0.311 N 
ATOM     14  C   LIG d   1      -8.214  74.682 118.201  0.00  0.00     0.210 C 
ATOM     15  C   LIG d   1      -8.251  73.346 117.453  0.00  0.00     0.109 C 
ATOM     16  O   LIG d   1      -8.437  74.721 119.421  0.00  0.00    -0.276 OA
ATOM     17  H   LIG d   1      -7.829  75.627 116.456  0.00  0.00     0.149 HD
ENDBRANCH   6  13
BRANCH   5  18
ATOM     18  N   LIG d   1     -10.295  77.320 118.637  0.00  0.00     0.381 N 
ATOM     19  H   LIG d   1     -11.173  77.689 118.330  0.00  0.00    -0.090 HD
ATOM     20  H   LIG d   1     -10.167  77.573 119.601  0.00  0.00    -0.090 HD
ATOM     21  H   LIG d   1     -10.293  76.329 118.542  0.00  0.00    -0.090 HD
ENDBRANCH   5  18
BRANCH   3  22
ATOM     22  C   LIG d   1      -7.929  81.346 117.573  0.00  0.00     0.382 C 
ATOM     23  O   LIG d   1      -7.394  81.873 116.568  0.00  0.00    -0.241 OA
ATOM     24  O   LIG d   1      -8.455  82.070 118.439  0.00  0.00    -0.241 OA
ENDBRANCH   3  22
TORSDOF 7
ENDMDL
MODEL 5
REMARK VINA RESULT:      -5.3     18.329     20.721
REMARK  7 active torsions:
REMARK  status: ('A' for Active; 'I' for Inactive)
REMARK    1  A    between atoms: C_2  and  C_3 
REMARK    2  A    between atoms: C_3  and  O_6 
REMARK    3  A    between atoms: C_3  and  C_4 
REMARK    4  A    between atoms: C_7  and  O_6 
REMARK    5  A    between atoms: C_9  and  C_10 
REMARK    6  A    between atoms: N_15  and  C_14 
REMARK    7  A    between atoms: N_20  and  C_19 
REMARK       I    between atoms: C_22  and  N_20 
ROOT
ATOM      1  C   LIG d   1      -6.666  77.099 117.733  0.00  0.00     0.161 C 
ATOM      2  C   LIG d   1      -7.616  78.111 117.522  0.00  0.00     0.016 C 
ATOM      3  C   LIG d   1      -7.341  79.486 117.700  0.00  0.00     0.038 C 
ATOM      4  C   LIG d   1      -6.044  79.955 117.958  0.00  0.00     0.028 C 
ATOM      5  C   LIG d   1      -5.163  78.938 118.674  0.00  0.00    -0.047 C 
ATOM      6  C   LIG d   1      -5.216  77.598 117.906  0.00  0.00     0.091 C 
ENDROOT
BRANCH   1   7
ATOM      7  O   LIG d   1      -6.738  76.131 116.667  0.00  0.00    -0.368 OA
BRANCH   7   8
ATOM      8  C   LIG d   1      -6.755  74.739 117.070  0.00  0.00     0.119 C 
BRANCH   8   9
ATOM      9  C   LIG d   1      -6.085  73.924 115.947  0.00  0.00     0.028 C 
ATOM     10  C   LIG d   1      -5.481  74.819 114.852  0.00  0.00     0.006 C 
ENDBRANCH   8   9
BRANCH   8  11
ATOM     11  C   LIG d   1      -8.186  74.203 117.162  0.00  0.00     0.028 C 
ATOM     12  C   LIG d   1      -8.240  72.694 117.449  0.00  0.00     0.006 C 
ENDBRANCH   8  11
ENDBRANCH   7   8
ENDBRANCH   1   7
BRANCH   6  13
ATOM     13  N   LIG d   1      -4.448  76.523 118.586  0.00  0.00    -0.311 N 
ATOM     14  C   LIG d   1      -3.418  75.890 118.026  0.00  0.00     0.210 C 
ATOM     15  C   LIG d   1      -2.780  74.801 118.893  0.00  0.00     0.109 C 
ATOM     16  O   LIG d   1      -2.953  76.150 116.906  0.00  0.00    -0.276 OA
ATOM     17  H   LIG d   1      -4.738  76.271 119.511  0.00  0.00     0.149 HD
ENDBRANCH   6  13
BRANCH   5  18
ATOM     18  N   LIG d   1      -3.803  79.504 118.756  0.00  0.00     0.381 N 
ATOM     19  H   LIG d   1      -3.488  79.762 117.842  0.00  0.00    -0.090 HD
ATOM     20  H   LIG d   1      -3.180  78.804 119.118  0.00  0.00    -0.090 HD
ATOM     21  H   LIG d   1      -3.801  80.302 119.352  0.00  0.00    -0.090 HD
ENDBRANCH   5  18
BRANCH   3  22
ATOM     22  C   LIG d   1      -8.378  80.406 117.661  0.00  0.00     0.382 C 
ATOM     23  O   LIG d   1      -9.367  80.268 118.421  0.00  0.00    -0.241 OA
ATOM     24  O   LIG d   1      -8.358  81.346 116.845  0.00  0.00    -0.241 OA
ENDBRANCH   3  22
TORSDOF 7
ENDMDL
MODEL 6
REMARK VINA RESULT:      -4.9     29.265     31.350
REMARK  7 active torsions:
REMARK  status: ('A' for Active; 'I' for Inactive)
REMARK    1  A    between atoms: C_2  and  C_3 
REMARK    2  A    between atoms: C_3  and  O_6 
REMARK    3  A    between atoms: C_3  and  C_4 
REMARK    4  A    between atoms: C_7  and  O_6 
REMARK    5  A    between atoms: C_9  and  C_10 
REMARK    6  A    between atoms: N_15  and  C_14 
REMARK    7  A    between atoms: N_20  and  C_19 
REMARK       I    between atoms: C_22  and  N_20 
ROOT
ATOM      1  C   LIG d   1       2.162  89.028 116.673  0.00  0.00     0.161 C 
ATOM      2  C   LIG d   1       2.664  90.277 117.074  0.00  0.00     0.016 C 
ATOM      3  C   LIG d   1       3.874  90.822 116.587  0.00  0.00     0.038 C 
ATOM      4  C   LIG d   1       4.592  90.218 115.543  0.00  0.00     0.028 C 
ATOM      5  C   LIG d   1       4.390  88.709 115.463  0.00  0.00    -0.047 C 
ATOM      6  C   LIG d   1       2.874  88.406 115.453  0.00  0.00     0.091 C 
ENDROOT
BRANCH   1   7
ATOM      7  O   LIG d   1       0.745  89.127 116.428  0.00  0.00    -0.368 OA
BRANCH   7   8
ATOM      8  C   LIG d   1      -0.120  88.740 117.525  0.00  0.00     0.119 C 
BRANCH   8   9
ATOM      9  C   LIG d   1      -0.746  87.379 117.162  0.00  0.00     0.028 C 
ATOM     10  C   LIG d   1      -0.143  86.221 117.975  0.00  0.00     0.006 C 
ENDBRANCH   8   9
BRANCH   8  11
ATOM     11  C   LIG d   1      -1.301  89.704 117.670  0.00  0.00     0.028 C 
ATOM     12  C   LIG d   1      -2.662  88.993 117.600  0.00  0.00     0.006 C 
ENDBRANCH   8  11
ENDBRANCH   7   8
ENDBRANCH   1   7
BRANCH   6  13
ATOM     13  N   LIG d   1       2.587  86.948 115.461  0.00  0.00    -0.311 N 
ATOM     14  C   LIG d   1       1.685  86.374 114.666  0.00  0.00     0.210 C 
ATOM     15  C   LIG d   1       1.532  84.860 114.849  0.00  0.00     0.109 C 
ATOM     16  O   LIG d   1       1.021  86.969 113.805  0.00  0.00    -0.276 OA
ATOM     17  H   LIG d   1       3.104  86.385 116.108  0.00  0.00     0.149 HD
ENDBRANCH   6  13
BRANCH   5  18
ATOM     18  N   LIG d   1       5.083  88.230 114.252  0.00  0.00     0.381 N 
ATOM     19  H   LIG d   1       4.508  88.389 113.448  0.00  0.00    -0.090 HD
ATOM     20  H   LIG d   1       5.240  87.242 114.337  0.00  0.00    -0.090 HD
ATOM     21  H   LIG d   1       5.952  88.705 114.147  0.00  0.00    -0.090 HD
ENDBRANCH   5  18
BRANCH   3  22
ATOM     22  C   LIG d   1       4.399  91.964 117.172  0.00  0.00     0.382 C 
ATOM     23  O   LIG d   1       5.496  91.911 117.778  0.00  0.00    -0.241 OA
ATOM     24  O   LIG d   1       3.767  93.037 117.140  0.00  0.00    -0.241 OA
ENDBRANCH   3  22
TORSDOF 7
ENDMDL
MODEL 7
REMARK VINA RESULT:      -4.8      1.482      2.143
REMARK  7 active torsions:
REMARK  status: ('A' for Active; 'I' for Inactive)
REMARK    1  A    between atoms: C_2  and  C_3 
REMARK    2  A    between atoms: C_3  and  O_6 
REMARK    3  A    between atoms: C_3  and  C_4 
REMARK    4  A    between atoms: C_7  and  O_6 
REMARK    5  A    between atoms: C_9  and  C_10 
REMARK    6  A    between atoms: N_15  and  C_14 
REMARK    7  A    between atoms: N_20  and  C_19 
REMARK       I    between atoms: C_22  and  N_20 
ROOT
ATOM      1  C   LIG d   1       1.555  58.380 118.176  0.00  0.00     0.161 C 
ATOM      2  C   LIG d   1       1.188  59.125 117.043  0.00  0.00     0.016 C 
ATOM      3  C   LIG d   1      -0.045  58.962 116.371  0.00  0.00     0.038 C 
ATOM      4  C   LIG d   1      -1.064  58.142 116.878  0.00  0.00     0.028 C 
ATOM      5  C   LIG d   1      -0.546  56.993 117.737  0.00  0.00    -0.047 C 
ATOM      6  C   LIG d   1       0.411  57.561 118.810  0.00  0.00     0.091 C 
ENDROOT
BRANCH   1   7
ATOM      7  O   LIG d   1       2.154  59.248 119.159  0.00  0.00    -0.368 OA
BRANCH   7   8
ATOM      8  C   LIG d   1       3.539  58.979 119.488  0.00  0.00     0.119 C 
BRANCH   8   9
ATOM      9  C   LIG d   1       4.311  60.307 119.359  0.00  0.00     0.028 C 
ATOM     10  C   LIG d   1       5.720  60.112 118.775  0.00  0.00     0.006 C 
ENDBRANCH   8   9
BRANCH   8  11
ATOM     11  C   LIG d   1       4.181  58.036 118.466  0.00  0.00     0.028 C 
ATOM     12  C   LIG d   1       4.872  56.830 119.120  0.00  0.00     0.006 C 
ENDBRANCH   8  11
ENDBRANCH   7   8
ENDBRANCH   1   7
BRANCH   6  13
ATOM     13  N   LIG d   1       1.029  56.494 119.640  0.00  0.00    -0.311 N 
ATOM     14  C   LIG d   1       1.546  55.377 119.132  0.00  0.00     0.210 C 
ATOM     15  C   LIG d   1       2.115  54.399 120.165  0.00  0.00     0.109 C 
ATOM     16  O   LIG d   1       1.618  55.117 117.921  0.00  0.00    -0.276 OA
ATOM     17  H   LIG d   1       1.042  56.637 120.631  0.00  0.00     0.149 HD
ENDBRANCH   6  13
BRANCH   5  18
ATOM     18  N   LIG d   1      -1.716  56.304 118.312  0.00  0.00     0.381 N 
ATOM     19  H   LIG d   1      -1.575  56.158 119.292  0.00  0.00    -0.090 HD
ATOM     20  H   LIG d   1      -1.814  55.407 117.871  0.00  0.00    -0.090 HD
ATOM     21  H   LIG d   1      -2.538  56.847 118.165  0.00  0.00    -0.090 HD
ENDBRANCH   5  18
BRANCH   3  22
ATOM     22  C   LIG d   1      -0.252  59.593 115.153  0.00  0.00     0.382 C 
ATOM     23  O   LIG d   1       0.692  59.701 114.334  0.00  0.00    -0.241 OA
ATOM     24  O   LIG d   1      -1.360  60.094 114.882  0.00  0.00    -0.241 OA
ENDBRANCH   3  22
TORSDOF 7
ENDMDL
MODEL 8
REMARK VINA RESULT:      -4.8     18.606     20.580
REMARK  7 active torsions:
REMARK  status: ('A' for Active; 'I' for Inactive)
REMARK    1  A    between atoms: C_2  and  C_3 
REMARK    2  A    between atoms: C_3  and  O_6 
REMARK    3  A    between atoms: C_3  and  C_4 
REMARK    4  A    between atoms: C_7  and  O_6 
REMARK    5  A    between atoms: C_9  and  C_10 
REMARK    6  A    between atoms: N_15  and  C_14 
REMARK    7  A    between atoms: N_20  and  C_19 
REMARK       I    between atoms: C_22  and  N_20 
ROOT
ATOM      1  C   LIG d   1      -4.992  77.294 117.711  0.00  0.00     0.161 C 
ATOM      2  C   LIG d   1      -3.915  78.077 117.263  0.00  0.00     0.016 C 
ATOM      3  C   LIG d   1      -3.296  77.902 116.004  0.00  0.00     0.038 C 
ATOM      4  C   LIG d   1      -3.814  77.026 115.039  0.00  0.00     0.028 C 
ATOM      5  C   LIG d   1      -4.590  75.857 115.636  0.00  0.00    -0.047 C 
ATOM      6  C   LIG d   1      -5.641  76.408 116.627  0.00  0.00     0.091 C 
ENDROOT
BRANCH   1   7
ATOM      7  O   LIG d   1      -5.984  78.136 118.330  0.00  0.00    -0.368 OA
BRANCH   7   8
ATOM      8  C   LIG d   1      -6.897  78.813 117.431  0.00  0.00     0.119 C 
BRANCH   8   9
ATOM      9  C   LIG d   1      -6.662  80.328 117.587  0.00  0.00     0.028 C 
ATOM     10  C   LIG d   1      -6.148  80.701 118.988  0.00  0.00     0.006 C 
ENDBRANCH   8   9
BRANCH   8  11
ATOM     11  C   LIG d   1      -8.355  78.584 117.841  0.00  0.00     0.028 C 
ATOM     12  C   LIG d   1      -8.488  77.767 119.135  0.00  0.00     0.006 C 
ENDBRANCH   8  11
ENDBRANCH   7   8
ENDBRANCH   1   7
BRANCH   6  13
ATOM     13  N   LIG d   1      -6.388  75.326 117.320  0.00  0.00    -0.311 N 
ATOM     14  C   LIG d   1      -7.624  74.959 116.986  0.00  0.00     0.210 C 
ATOM     15  C   LIG d   1      -8.219  73.835 117.842  0.00  0.00     0.109 C 
ATOM     16  O   LIG d   1      -8.273  75.434 116.042  0.00  0.00    -0.276 OA
ATOM     17  H   LIG d   1      -5.925  74.865 118.078  0.00  0.00     0.149 HD
ENDBRANCH   6  13
BRANCH   5  18
ATOM     18  N   LIG d   1      -5.189  75.102 114.519  0.00  0.00     0.381 N 
ATOM     19  H   LIG d   1      -4.858  75.467 113.648  0.00  0.00    -0.090 HD
ATOM     20  H   LIG d   1      -6.187  75.215 114.549  0.00  0.00    -0.090 HD
ATOM     21  H   LIG d   1      -4.954  74.137 114.595  0.00  0.00    -0.090 HD
ENDBRANCH   5  18
BRANCH   3  22
ATOM     22  C   LIG d   1      -2.122  78.581 115.715  0.00  0.00     0.382 C 
ATOM     23  O   LIG d   1      -1.369  78.955 116.646  0.00  0.00    -0.241 OA
ATOM     24  O   LIG d   1      -1.828  78.863 114.538  0.00  0.00    -0.241 OA
ENDBRANCH   3  22
TORSDOF 7
ENDMDL
MODEL 9
REMARK VINA RESULT:      -4.7      2.292      4.774
REMARK  7 active torsions:
REMARK  status: ('A' for Active; 'I' for Inactive)
REMARK    1  A    between atoms: C_2  and  C_3 
REMARK    2  A    between atoms: C_3  and  O_6 
REMARK    3  A    between atoms: C_3  and  C_4 
REMARK    4  A    between atoms: C_7  and  O_6 
REMARK    5  A    between atoms: C_9  and  C_10 
REMARK    6  A    between atoms: N_15  and  C_14 
REMARK    7  A    between atoms: N_20  and  C_19 
REMARK       I    between atoms: C_22  and  N_20 
ROOT
ATOM      1  C   LIG d   1       1.635  57.820 118.564  0.00  0.00     0.161 C 
ATOM      2  C   LIG d   1       2.473  58.888 118.201  0.00  0.00     0.016 C 
ATOM      3  C   LIG d   1       3.871  58.884 118.406  0.00  0.00     0.038 C 
ATOM      4  C   LIG d   1       4.552  57.742 118.854  0.00  0.00     0.028 C 
ATOM      5  C   LIG d   1       3.689  56.818 119.707  0.00  0.00    -0.047 C 
ATOM      6  C   LIG d   1       2.373  56.522 118.951  0.00  0.00     0.091 C 
ENDROOT
BRANCH   1   7
ATOM      7  O   LIG d   1       0.687  57.562 117.509  0.00  0.00    -0.368 OA
BRANCH   7   8
ATOM      8  C   LIG d   1      -0.624  58.159 117.670  0.00  0.00     0.119 C 
BRANCH   8   9
ATOM      9  C   LIG d   1      -1.621  57.016 117.943  0.00  0.00     0.028 C 
ATOM     10  C   LIG d   1      -3.083  57.458 117.760  0.00  0.00     0.006 C 
ENDBRANCH   8   9
BRANCH   8  11
ATOM     11  C   LIG d   1      -1.102  58.812 116.370  0.00  0.00     0.028 C 
ATOM     12  C   LIG d   1       0.049  59.409 115.545  0.00  0.00     0.006 C 
ENDBRANCH   8  11
ENDBRANCH   7   8
ENDBRANCH   1   7
BRANCH   6  13
ATOM     13  N   LIG d   1       1.435  55.693 119.752  0.00  0.00    -0.311 N 
ATOM     14  C   LIG d   1       0.818  54.614 119.272  0.00  0.00     0.210 C 
ATOM     15  C   LIG d   1      -0.124  53.915 120.258  0.00  0.00     0.109 C 
ATOM     16  O   LIG d   1       0.985  54.151 118.134  0.00  0.00    -0.276 OA
ATOM     17  H   LIG d   1       1.265  55.979 120.696  0.00  0.00     0.149 HD
ENDBRANCH   6  13
BRANCH   5  18
ATOM     18  N   LIG d   1       4.479  55.605 119.989  0.00  0.00     0.381 N 
ATOM     19  H   LIG d   1       3.866  54.845 120.207  0.00  0.00    -0.090 HD
ATOM     20  H   LIG d   1       5.065  55.777 120.787  0.00  0.00    -0.090 HD
ATOM     21  H   LIG d   1       5.041  55.372 119.200  0.00  0.00    -0.090 HD
ENDBRANCH   5  18
BRANCH   3  22
ATOM     22  C   LIG d   1       4.599  60.046 118.200  0.00  0.00     0.382 C 
ATOM     23  O   LIG d   1       4.459  60.694 117.135  0.00  0.00    -0.241 OA
ATOM     24  O   LIG d   1       5.428  60.431 119.047  0.00  0.00    -0.241 OA
ENDBRANCH   3  22
TORSDOF 7
ENDMDL
