MODEL 1
REMARK VINA RESULT:      -5.6      0.000      0.000
REMARK  7 active torsions:
REMARK  status: ('A' for Active; 'I' for Inactive)
REMARK    1  A    between atoms: C_2  and  C_3 
REMARK    2  A    between atoms: C_3  and  O_6 
REMARK    3  A    between atoms: C_3  and  C_4 
REMARK    4  A    between atoms: C_7  and  O_6 
REMARK    5  A    between atoms: C_9  and  C_10 
REMARK    6  A    between atoms: N_15  and  C_14 
REMARK    7  A    between atoms: N_20  and  C_19 
REMARK       I    between atoms: C_22  and  N_20 
ROOT
ATOM      1  C   LIG d   1      -7.151  76.759 117.284  0.00  0.00     0.161 C 
ATOM      2  C   LIG d   1      -8.455  77.204 117.557  0.00  0.00     0.016 C 
ATOM      3  C   LIG d   1      -8.774  78.550 117.847  0.00  0.00     0.038 C 
ATOM      4  C   LIG d   1      -7.824  79.577 117.735  0.00  0.00     0.028 C 
ATOM      5  C   LIG d   1      -6.392  79.104 117.956  0.00  0.00    -0.047 C 
ATOM      6  C   LIG d   1      -6.120  77.883 117.049  0.00  0.00     0.091 C 
ENDROOT
BRANCH   1   7
ATOM      7  O   LIG d   1      -7.168  75.852 116.164  0.00  0.00    -0.368 OA
BRANCH   7   8
ATOM      8  C   LIG d   1      -6.474  74.594 116.352  0.00  0.00     0.119 C 
BRANCH   8   9
ATOM      9  C   LIG d   1      -5.520  74.408 115.156  0.00  0.00     0.028 C 
ATOM     10  C   LIG d   1      -5.638  75.546 114.129  0.00  0.00     0.006 C 
ENDBRANCH   8   9
BRANCH   8  11
ATOM     11  C   LIG d   1      -7.442  73.409 116.287  0.00  0.00     0.028 C 
ATOM     12  C   LIG d   1      -6.746  72.091 115.910  0.00  0.00     0.006 C 
ENDBRANCH   8  11
ENDBRANCH   7   8
ENDBRANCH   1   7
BRANCH   6  13
ATOM     13  N   LIG d   1      -4.768  77.306 117.264  0.00  0.00    -0.311 N 
ATOM     14  C   LIG d   1      -3.708  77.627 116.525  0.00  0.00     0.210 C 
ATOM     15  C   LIG d   1      -2.412  76.901 116.903  0.00  0.00     0.109 C 
ATOM     16  O   LIG d   1      -3.709  78.468 115.613  0.00  0.00    -0.276 OA
ATOM     17  H   LIG d   1      -4.670  76.638 118.004  0.00  0.00     0.149 HD
ENDBRANCH   6  13
BRANCH   5  18
ATOM     18  N   LIG d   1      -5.498  80.244 117.675  0.00  0.00     0.381 N 
ATOM     19  H   LIG d   1      -4.946  80.449 118.484  0.00  0.00    -0.090 HD
ATOM     20  H   LIG d   1      -6.057  81.051 117.461  0.00  0.00    -0.090 HD
ATOM     21  H   LIG d   1      -4.904  80.029 116.905  0.00  0.00    -0.090 HD
ENDBRANCH   5  18
BRANCH   3  22
ATOM     22  C   LIG d   1     -10.046  78.875 118.293  0.00  0.00     0.382 C 
ATOM     23  O   LIG d   1     -10.438  80.066 118.257  0.00  0.00    -0.241 OA
ATOM     24  O   LIG d   1     -10.790  77.999 118.772  0.00  0.00    -0.241 OA
ENDBRANCH   3  22
TORSDOF 7
ENDMDL
MODEL 2
REMARK VINA RESULT:      -5.3      1.404      2.171
REMARK  7 active torsions:
REMARK  status: ('A' for Active; 'I' for Inactive)
REMARK    1  A    between atoms: C_2  and  C_3 
REMARK    2  A    between atoms: C_3  and  O_6 
REMARK    3  A    between atoms: C_3  and  C_4 
REMARK    4  A    between atoms: C_7  and  O_6 
REMARK    5  A    between atoms: C_9  and  C_10 
REMARK    6  A    between atoms: N_15  and  C_14 
REMARK    7  A    between atoms: N_20  and  C_19 
REMARK       I    between atoms: C_22  and  N_20 
ROOT
ATOM      1  C   LIG d   1      -6.884  77.000 117.266  0.00  0.00     0.161 C 
ATOM      2  C   LIG d   1      -8.175  77.552 117.301  0.00  0.00     0.016 C 
ATOM      3  C   LIG d   1      -8.576  78.537 118.233  0.00  0.00     0.038 C 
ATOM      4  C   LIG d   1      -7.661  79.151 119.101  0.00  0.00     0.028 C 
ATOM      5  C   LIG d   1      -6.465  78.270 119.444  0.00  0.00    -0.047 C 
ATOM      6  C   LIG d   1      -5.842  77.738 118.133  0.00  0.00     0.091 C 
ENDROOT
BRANCH   1   7
ATOM      7  O   LIG d   1      -6.428  76.912 115.902  0.00  0.00    -0.368 OA
BRANCH   7   8
ATOM      8  C   LIG d   1      -6.512  75.603 115.285  0.00  0.00     0.119 C 
BRANCH   8   9
ATOM      9  C   LIG d   1      -6.538  74.559 116.418  0.00  0.00     0.028 C 
ATOM     10  C   LIG d   1      -6.681  73.122 115.889  0.00  0.00     0.006 C 
ENDBRANCH   8   9
BRANCH   8  11
ATOM     11  C   LIG d   1      -5.253  75.288 114.472  0.00  0.00     0.028 C 
ATOM     12  C   LIG d   1      -4.070  76.203 114.826  0.00  0.00     0.006 C 
ENDBRANCH   8  11
ENDBRANCH   7   8
ENDBRANCH   1   7
BRANCH   6  13
ATOM     13  N   LIG d   1      -4.717  76.799 118.380  0.00  0.00    -0.311 N 
ATOM     14  C   LIG d   1      -3.439  77.175 118.401  0.00  0.00     0.210 C 
ATOM     15  C   LIG d   1      -2.437  76.045 118.653  0.00  0.00     0.109 C 
ATOM     16  O   LIG d   1      -3.043  78.343 118.266  0.00  0.00    -0.276 OA
ATOM     17  H   LIG d   1      -4.950  75.837 118.530  0.00  0.00     0.149 HD
ENDBRANCH   6  13
BRANCH   5  18
ATOM     18  N   LIG d   1      -5.527  79.082 120.242  0.00  0.00     0.381 N 
ATOM     19  H   LIG d   1      -5.476  80.007 119.866  0.00  0.00    -0.090 HD
ATOM     20  H   LIG d   1      -4.613  78.668 120.189  0.00  0.00    -0.090 HD
ATOM     21  H   LIG d   1      -5.829  79.117 121.191  0.00  0.00    -0.090 HD
ENDBRANCH   5  18
BRANCH   3  22
ATOM     22  C   LIG d   1      -9.914  78.889 118.329  0.00  0.00     0.382 C 
ATOM     23  O   LIG d   1     -10.767  78.027 118.649  0.00  0.00    -0.241 OA
ATOM     24  O   LIG d   1     -10.283  80.047 118.057  0.00  0.00    -0.241 OA
ENDBRANCH   3  22
TORSDOF 7
ENDMDL
MODEL 3
REMARK VINA RESULT:      -5.3     14.290     17.149
REMARK  7 active torsions:
REMARK  status: ('A' for Active; 'I' for Inactive)
REMARK    1  A    between atoms: C_2  and  C_3 
REMARK    2  A    between atoms: C_3  and  O_6 
REMARK    3  A    between atoms: C_3  and  C_4 
REMARK    4  A    between atoms: C_7  and  O_6 
REMARK    5  A    between atoms: C_9  and  C_10 
REMARK    6  A    between atoms: N_15  and  C_14 
REMARK    7  A    between atoms: N_20  and  C_19 
REMARK       I    between atoms: C_22  and  N_20 
ROOT
ATOM      1  C   LIG d   1      -6.045  93.471 118.529  0.00  0.00     0.161 C 
ATOM      2  C   LIG d   1      -6.726  92.419 117.896  0.00  0.00     0.016 C 
ATOM      3  C   LIG d   1      -6.072  91.334 117.269  0.00  0.00     0.038 C 
ATOM      4  C   LIG d   1      -4.684  91.149 117.365  0.00  0.00     0.028 C 
ATOM      5  C   LIG d   1      -3.912  92.450 117.560  0.00  0.00    -0.047 C 
ATOM      6  C   LIG d   1      -4.535  93.230 118.740  0.00  0.00     0.091 C 
ENDROOT
BRANCH   1   7
ATOM      7  O   LIG d   1      -6.683  93.782 119.783  0.00  0.00    -0.368 OA
BRANCH   7   8
ATOM      8  C   LIG d   1      -7.139  95.147 119.946  0.00  0.00     0.119 C 
BRANCH   8   9
ATOM      9  C   LIG d   1      -8.555  95.093 120.551  0.00  0.00     0.028 C 
ATOM     10  C   LIG d   1      -9.619  94.681 119.520  0.00  0.00     0.006 C 
ENDBRANCH   8   9
BRANCH   8  11
ATOM     11  C   LIG d   1      -7.303  95.845 118.592  0.00  0.00     0.028 C 
ATOM     12  C   LIG d   1      -6.642  97.232 118.552  0.00  0.00     0.006 C 
ENDBRANCH   8  11
ENDBRANCH   7   8
ENDBRANCH   1   7
BRANCH   6  13
ATOM     13  N   LIG d   1      -3.893  94.555 118.946  0.00  0.00    -0.311 N 
ATOM     14  C   LIG d   1      -2.892  94.759 119.800  0.00  0.00     0.210 C 
ATOM     15  C   LIG d   1      -2.388  96.204 119.872  0.00  0.00     0.109 C 
ATOM     16  O   LIG d   1      -2.351  93.875 120.481  0.00  0.00    -0.276 OA
ATOM     17  H   LIG d   1      -4.249  95.322 118.410  0.00  0.00     0.149 HD
ENDBRANCH   6  13
BRANCH   5  18
ATOM     18  N   LIG d   1      -2.497  92.099 117.782  0.00  0.00     0.381 N 
ATOM     19  H   LIG d   1      -2.188  91.469 117.069  0.00  0.00    -0.090 HD
ATOM     20  H   LIG d   1      -2.412  91.636 118.670  0.00  0.00    -0.090 HD
ATOM     21  H   LIG d   1      -1.936  92.923 117.774  0.00  0.00    -0.090 HD
ENDBRANCH   5  18
BRANCH   3  22
ATOM     22  C   LIG d   1      -6.803  90.440 116.502  0.00  0.00     0.382 C 
ATOM     23  O   LIG d   1      -7.992  90.179 116.807  0.00  0.00    -0.241 OA
ATOM     24  O   LIG d   1      -6.276  89.857 115.536  0.00  0.00    -0.241 OA
ENDBRANCH   3  22
TORSDOF 7
ENDMDL
MODEL 4
REMARK VINA RESULT:      -5.0     13.272     15.676
REMARK  7 active torsions:
REMARK  status: ('A' for Active; 'I' for Inactive)
REMARK    1  A    between atoms: C_2  and  C_3 
REMARK    2  A    between atoms: C_3  and  O_6 
REMARK    3  A    between atoms: C_3  and  C_4 
REMARK    4  A    between atoms: C_7  and  O_6 
REMARK    5  A    between atoms: C_9  and  C_10 
REMARK    6  A    between atoms: N_15  and  C_14 
REMARK    7  A    between atoms: N_20  and  C_19 
REMARK       I    between atoms: C_22  and  N_20 
ROOT
ATOM      1  C   LIG d   1      -4.966  91.814 118.196  0.00  0.00     0.161 C 
ATOM      2  C   LIG d   1      -4.250  92.827 118.855  0.00  0.00     0.016 C 
ATOM      3  C   LIG d   1      -4.830  94.050 119.265  0.00  0.00     0.038 C 
ATOM      4  C   LIG d   1      -6.210  94.282 119.177  0.00  0.00     0.028 C 
ATOM      5  C   LIG d   1      -6.887  93.493 118.061  0.00  0.00    -0.047 C 
ATOM      6  C   LIG d   1      -6.497  92.003 118.191  0.00  0.00     0.091 C 
ENDROOT
BRANCH   1   7
ATOM      7  O   LIG d   1      -4.621  90.530 118.754  0.00  0.00    -0.368 OA
BRANCH   7   8
ATOM      8  C   LIG d   1      -3.268  90.395 119.252  0.00  0.00     0.119 C 
BRANCH   8   9
ATOM      9  C   LIG d   1      -2.480  89.552 118.230  0.00  0.00     0.028 C 
ATOM     10  C   LIG d   1      -1.192  90.249 117.763  0.00  0.00     0.006 C 
ENDBRANCH   8   9
BRANCH   8  11
ATOM     11  C   LIG d   1      -3.231  89.590 120.555  0.00  0.00     0.028 C 
ATOM     12  C   LIG d   1      -2.946  88.097 120.325  0.00  0.00     0.006 C 
ENDBRANCH   8  11
ENDBRANCH   7   8
ENDBRANCH   1   7
BRANCH   6  13
ATOM     13  N   LIG d   1      -7.049  91.174 117.088  0.00  0.00    -0.311 N 
ATOM     14  C   LIG d   1      -6.810  91.415 115.800  0.00  0.00     0.210 C 
ATOM     15  C   LIG d   1      -7.493  90.450 114.825  0.00  0.00     0.109 C 
ATOM     16  O   LIG d   1      -6.072  92.316 115.374  0.00  0.00    -0.276 OA
ATOM     17  H   LIG d   1      -7.634  90.403 117.346  0.00  0.00     0.149 HD
ENDBRANCH   6  13
BRANCH   5  18
ATOM     18  N   LIG d   1      -8.340  93.722 118.171  0.00  0.00     0.381 N 
ATOM     19  H   LIG d   1      -8.561  94.066 119.085  0.00  0.00    -0.090 HD
ATOM     20  H   LIG d   1      -8.818  92.848 118.039  0.00  0.00    -0.090 HD
ATOM     21  H   LIG d   1      -8.635  94.378 117.482  0.00  0.00    -0.090 HD
ENDBRANCH   5  18
BRANCH   3  22
ATOM     22  C   LIG d   1      -4.019  95.073 119.733  0.00  0.00     0.382 C 
ATOM     23  O   LIG d   1      -4.508  95.990 120.435  0.00  0.00    -0.241 OA
ATOM     24  O   LIG d   1      -2.812  95.113 119.425  0.00  0.00    -0.241 OA
ENDBRANCH   3  22
TORSDOF 7
ENDMDL
MODEL 5
REMARK VINA RESULT:      -5.0      3.099      5.051
REMARK  7 active torsions:
REMARK  status: ('A' for Active; 'I' for Inactive)
REMARK    1  A    between atoms: C_2  and  C_3 
REMARK    2  A    between atoms: C_3  and  O_6 
REMARK    3  A    between atoms: C_3  and  C_4 
REMARK    4  A    between atoms: C_7  and  O_6 
REMARK    5  A    between atoms: C_9  and  C_10 
REMARK    6  A    between atoms: N_15  and  C_14 
REMARK    7  A    between atoms: N_20  and  C_19 
REMARK       I    between atoms: C_22  and  N_20 
ROOT
ATOM      1  C   LIG d   1      -4.270  75.191 116.447  0.00  0.00     0.161 C 
ATOM      2  C   LIG d   1      -5.014  74.042 116.129  0.00  0.00     0.016 C 
ATOM      3  C   LIG d   1      -6.425  73.985 116.198  0.00  0.00     0.038 C 
ATOM      4  C   LIG d   1      -7.202  75.126 116.446  0.00  0.00     0.028 C 
ATOM      5  C   LIG d   1      -6.476  76.186 117.267  0.00  0.00    -0.047 C 
ATOM      6  C   LIG d   1      -5.106  76.477 116.613  0.00  0.00     0.091 C 
ENDROOT
BRANCH   1   7
ATOM      7  O   LIG d   1      -3.234  75.390 115.465  0.00  0.00    -0.368 OA
BRANCH   7   8
ATOM      8  C   LIG d   1      -1.935  74.836 115.788  0.00  0.00     0.119 C 
BRANCH   8   9
ATOM      9  C   LIG d   1      -1.752  74.945 117.314  0.00  0.00     0.028 C 
ATOM     10  C   LIG d   1      -1.073  73.702 117.914  0.00  0.00     0.006 C 
ENDBRANCH   8   9
BRANCH   8  11
ATOM     11  C   LIG d   1      -0.805  75.675 115.183  0.00  0.00     0.028 C 
ATOM     12  C   LIG d   1      -0.455  76.905 116.035  0.00  0.00     0.006 C 
ENDBRANCH   8  11
ENDBRANCH   7   8
ENDBRANCH   1   7
BRANCH   6  13
ATOM     13  N   LIG d   1      -4.295  77.442 117.400  0.00  0.00    -0.311 N 
ATOM     14  C   LIG d   1      -3.718  78.519 116.869  0.00  0.00     0.210 C 
ATOM     15  C   LIG d   1      -2.910  79.371 117.853  0.00  0.00     0.109 C 
ATOM     16  O   LIG d   1      -3.824  78.866 115.683  0.00  0.00    -0.276 OA
ATOM     17  H   LIG d   1      -4.183  77.254 118.377  0.00  0.00     0.149 HD
ENDBRANCH   6  13
BRANCH   5  18
ATOM     18  N   LIG d   1      -7.349  77.373 117.334  0.00  0.00     0.381 N 
ATOM     19  H   LIG d   1      -8.037  77.248 118.049  0.00  0.00    -0.090 HD
ATOM     20  H   LIG d   1      -7.823  77.478 116.454  0.00  0.00    -0.090 HD
ATOM     21  H   LIG d   1      -6.805  78.186 117.525  0.00  0.00    -0.090 HD
ENDBRANCH   5  18
BRANCH   3  22
ATOM     22  C   LIG d   1      -7.071  72.766 116.056  0.00  0.00     0.382 C 
ATOM     23  O   LIG d   1      -6.481  71.804 115.507  0.00  0.00    -0.241 OA
ATOM     24  O   LIG d   1      -8.251  72.629 116.430  0.00  0.00    -0.241 OA
ENDBRANCH   3  22
TORSDOF 7
ENDMDL
MODEL 6
REMARK VINA RESULT:      -4.5      2.061      5.186
REMARK  7 active torsions:
REMARK  status: ('A' for Active; 'I' for Inactive)
REMARK    1  A    between atoms: C_2  and  C_3 
REMARK    2  A    between atoms: C_3  and  O_6 
REMARK    3  A    between atoms: C_3  and  C_4 
REMARK    4  A    between atoms: C_7  and  O_6 
REMARK    5  A    between atoms: C_9  and  C_10 
REMARK    6  A    between atoms: N_15  and  C_14 
REMARK    7  A    between atoms: N_20  and  C_19 
REMARK       I    between atoms: C_22  and  N_20 
ROOT
ATOM      1  C   LIG d   1      -5.166  77.859 116.989  0.00  0.00     0.161 C 
ATOM      2  C   LIG d   1      -5.243  76.581 116.410  0.00  0.00     0.016 C 
ATOM      3  C   LIG d   1      -6.454  75.865 116.264  0.00  0.00     0.038 C 
ATOM      4  C   LIG d   1      -7.698  76.446 116.551  0.00  0.00     0.028 C 
ATOM      5  C   LIG d   1      -7.625  77.543 117.608  0.00  0.00    -0.047 C 
ATOM      6  C   LIG d   1      -6.527  78.554 117.206  0.00  0.00     0.091 C 
ENDROOT
BRANCH   1   7
ATOM      7  O   LIG d   1      -4.295  78.698 116.205  0.00  0.00    -0.368 OA
BRANCH   7   8
ATOM      8  C   LIG d   1      -3.007  79.005 116.793  0.00  0.00     0.119 C 
BRANCH   8   9
ATOM      9  C   LIG d   1      -1.957  78.117 116.098  0.00  0.00     0.028 C 
ATOM     10  C   LIG d   1      -1.123  78.893 115.065  0.00  0.00     0.006 C 
ENDBRANCH   8   9
BRANCH   8  11
ATOM     11  C   LIG d   1      -2.960  78.606 118.271  0.00  0.00     0.028 C 
ATOM     12  C   LIG d   1      -1.783  77.675 118.601  0.00  0.00     0.006 C 
ENDBRANCH   8  11
ENDBRANCH   7   8
ENDBRANCH   1   7
BRANCH   6  13
ATOM     13  N   LIG d   1      -6.332  79.615 118.228  0.00  0.00    -0.311 N 
ATOM     14  C   LIG d   1      -6.857  80.835 118.128  0.00  0.00     0.210 C 
ATOM     15  C   LIG d   1      -6.516  81.782 119.283  0.00  0.00     0.109 C 
ATOM     16  O   LIG d   1      -7.600  81.212 117.210  0.00  0.00    -0.276 OA
ATOM     17  H   LIG d   1      -5.768  79.385 119.023  0.00  0.00     0.149 HD
ENDBRANCH   6  13
BRANCH   5  18
ATOM     18  N   LIG d   1      -8.964  78.154 117.709  0.00  0.00     0.381 N 
ATOM     19  H   LIG d   1      -9.529  77.862 116.937  0.00  0.00    -0.090 HD
ATOM     20  H   LIG d   1      -8.869  79.154 117.670  0.00  0.00    -0.090 HD
ATOM     21  H   LIG d   1      -9.397  77.887 118.566  0.00  0.00    -0.090 HD
ENDBRANCH   5  18
BRANCH   3  22
ATOM     22  C   LIG d   1      -6.423  74.538 115.864  0.00  0.00     0.382 C 
ATOM     23  O   LIG d   1      -7.160  73.695 116.429  0.00  0.00    -0.241 OA
ATOM     24  O   LIG d   1      -5.635  74.165 114.974  0.00  0.00    -0.241 OA
ENDBRANCH   3  22
TORSDOF 7
ENDMDL
MODEL 7
REMARK VINA RESULT:      -4.4      2.105      3.808
REMARK  7 active torsions:
REMARK  status: ('A' for Active; 'I' for Inactive)
REMARK    1  A    between atoms: C_2  and  C_3 
REMARK    2  A    between atoms: C_3  and  O_6 
REMARK    3  A    between atoms: C_3  and  C_4 
REMARK    4  A    between atoms: C_7  and  O_6 
REMARK    5  A    between atoms: C_9  and  C_10 
REMARK    6  A    between atoms: N_15  and  C_14 
REMARK    7  A    between atoms: N_20  and  C_19 
REMARK       I    between atoms: C_22  and  N_20 
ROOT
ATOM      1  C   LIG d   1      -5.797  78.126 117.612  0.00  0.00     0.161 C 
ATOM      2  C   LIG d   1      -6.170  79.468 117.791  0.00  0.00     0.016 C 
ATOM      3  C   LIG d   1      -7.514  79.900 117.859  0.00  0.00     0.038 C 
ATOM      4  C   LIG d   1      -8.583  78.992 117.903  0.00  0.00     0.028 C 
ATOM      5  C   LIG d   1      -8.279  77.665 117.217  0.00  0.00    -0.047 C 
ATOM      6  C   LIG d   1      -6.947  77.109 117.769  0.00  0.00     0.091 C 
ENDROOT
BRANCH   1   7
ATOM      7  O   LIG d   1      -4.712  77.797 118.501  0.00  0.00    -0.368 OA
BRANCH   7   8
ATOM      8  C   LIG d   1      -3.396  77.717 117.899  0.00  0.00     0.119 C 
BRANCH   8   9
ATOM      9  C   LIG d   1      -3.572  77.888 116.378  0.00  0.00     0.028 C 
ATOM     10  C   LIG d   1      -2.722  79.040 115.815  0.00  0.00     0.006 C 
ENDBRANCH   8   9
BRANCH   8  11
ATOM     11  C   LIG d   1      -2.783  76.326 118.083  0.00  0.00     0.028 C 
ATOM     12  C   LIG d   1      -2.825  75.482 116.799  0.00  0.00     0.006 C 
ENDBRANCH   8  11
ENDBRANCH   7   8
ENDBRANCH   1   7
BRANCH   6  13
ATOM     13  N   LIG d   1      -6.532  75.853 117.091  0.00  0.00    -0.311 N 
ATOM     14  C   LIG d   1      -6.432  75.733 115.768  0.00  0.00     0.210 C 
ATOM     15  C   LIG d   1      -6.008  74.346 115.275  0.00  0.00     0.109 C 
ATOM     16  O   LIG d   1      -6.624  76.652 114.958  0.00  0.00    -0.276 OA
ATOM     17  H   LIG d   1      -6.328  75.065 117.674  0.00  0.00     0.149 HD
ENDBRANCH   6  13
BRANCH   5  18
ATOM     18  N   LIG d   1      -9.424  76.767 117.458  0.00  0.00     0.381 N 
ATOM     19  H   LIG d   1      -9.348  76.356 118.367  0.00  0.00    -0.090 HD
ATOM     20  H   LIG d   1      -9.407  76.029 116.776  0.00  0.00    -0.090 HD
ATOM     21  H   LIG d   1     -10.278  77.275 117.386  0.00  0.00    -0.090 HD
ENDBRANCH   5  18
BRANCH   3  22
ATOM     22  C   LIG d   1      -7.802  81.256 117.843  0.00  0.00     0.382 C 
ATOM     23  O   LIG d   1      -7.607  81.927 116.801  0.00  0.00    -0.241 OA
ATOM     24  O   LIG d   1      -8.213  81.827 118.872  0.00  0.00    -0.241 OA
ENDBRANCH   3  22
TORSDOF 7
ENDMDL
MODEL 8
REMARK VINA RESULT:      -4.4     21.524     24.099
REMARK  7 active torsions:
REMARK  status: ('A' for Active; 'I' for Inactive)
REMARK    1  A    between atoms: C_2  and  C_3 
REMARK    2  A    between atoms: C_3  and  O_6 
REMARK    3  A    between atoms: C_3  and  C_4 
REMARK    4  A    between atoms: C_7  and  O_6 
REMARK    5  A    between atoms: C_9  and  C_10 
REMARK    6  A    between atoms: N_15  and  C_14 
REMARK    7  A    between atoms: N_20  and  C_19 
REMARK       I    between atoms: C_22  and  N_20 
ROOT
ATOM      1  C   LIG d   1     -20.611  96.479 118.925  0.00  0.00     0.161 C 
ATOM      2  C   LIG d   1     -20.070  95.239 119.304  0.00  0.00     0.016 C 
ATOM      3  C   LIG d   1     -20.781  94.020 119.216  0.00  0.00     0.038 C 
ATOM      4  C   LIG d   1     -22.037  93.938 118.596  0.00  0.00     0.028 C 
ATOM      5  C   LIG d   1     -22.829  95.239 118.658  0.00  0.00    -0.047 C 
ATOM      6  C   LIG d   1     -21.939  96.393 118.144  0.00  0.00     0.091 C 
ENDROOT
BRANCH   1   7
ATOM      7  O   LIG d   1     -19.636  97.229 118.175  0.00  0.00    -0.368 OA
BRANCH   7   8
ATOM      8  C   LIG d   1     -18.650  96.450 117.454  0.00  0.00     0.119 C 
BRANCH   8   9
ATOM      9  C   LIG d   1     -17.278  97.115 117.680  0.00  0.00     0.028 C 
ATOM     10  C   LIG d   1     -16.505  96.483 118.849  0.00  0.00     0.006 C 
ENDBRANCH   8   9
BRANCH   8  11
ATOM     11  C   LIG d   1     -18.886  96.513 115.942  0.00  0.00     0.028 C 
ATOM     12  C   LIG d   1     -19.669  97.764 115.513  0.00  0.00     0.006 C 
ENDBRANCH   8  11
ENDBRANCH   7   8
ENDBRANCH   1   7
BRANCH   6  13
ATOM     13  N   LIG d   1     -22.609  97.716 118.249  0.00  0.00    -0.311 N 
ATOM     14  C   LIG d   1     -23.207  98.319 117.223  0.00  0.00     0.210 C 
ATOM     15  C   LIG d   1     -23.819  99.686 117.544  0.00  0.00     0.109 C 
ATOM     16  O   LIG d   1     -23.318  97.836 116.086  0.00  0.00    -0.276 OA
ATOM     17  H   LIG d   1     -22.594  98.165 119.144  0.00  0.00     0.149 HD
ENDBRANCH   6  13
BRANCH   5  18
ATOM     18  N   LIG d   1     -24.054  95.053 117.858  0.00  0.00     0.381 N 
ATOM     19  H   LIG d   1     -24.625  95.873 117.916  0.00  0.00    -0.090 HD
ATOM     20  H   LIG d   1     -24.574  94.280 118.234  0.00  0.00    -0.090 HD
ATOM     21  H   LIG d   1     -23.817  94.872 116.907  0.00  0.00    -0.090 HD
ENDBRANCH   5  18
BRANCH   3  22
ATOM     22  C   LIG d   1     -20.252  92.873 119.787  0.00  0.00     0.382 C 
ATOM     23  O   LIG d   1     -19.078  92.877 120.230  0.00  0.00    -0.241 OA
ATOM     24  O   LIG d   1     -20.917  91.821 119.825  0.00  0.00    -0.241 OA
ENDBRANCH   3  22
TORSDOF 7
ENDMDL
MODEL 9
REMARK VINA RESULT:      -4.3     14.835     17.214
REMARK  7 active torsions:
REMARK  status: ('A' for Active; 'I' for Inactive)
REMARK    1  A    between atoms: C_2  and  C_3 
REMARK    2  A    between atoms: C_3  and  O_6 
REMARK    3  A    between atoms: C_3  and  C_4 
REMARK    4  A    between atoms: C_7  and  O_6 
REMARK    5  A    between atoms: C_9  and  C_10 
REMARK    6  A    between atoms: N_15  and  C_14 
REMARK    7  A    between atoms: N_20  and  C_19 
REMARK       I    between atoms: C_22  and  N_20 
ROOT
ATOM      1  C   LIG d   1      10.296  78.820 116.729  0.00  0.00     0.161 C 
ATOM      2  C   LIG d   1      10.270  77.684 115.903  0.00  0.00     0.016 C 
ATOM      3  C   LIG d   1       9.092  76.954 115.621  0.00  0.00     0.038 C 
ATOM      4  C   LIG d   1       7.827  77.402 116.028  0.00  0.00     0.028 C 
ATOM      5  C   LIG d   1       7.864  78.264 117.285  0.00  0.00    -0.047 C 
ATOM      6  C   LIG d   1       8.907  79.388 117.091  0.00  0.00     0.091 C 
ENDROOT
BRANCH   1   7
ATOM      7  O   LIG d   1      11.114  79.843 116.127  0.00  0.00    -0.368 OA
BRANCH   7   8
ATOM      8  C   LIG d   1      10.447  80.724 115.190  0.00  0.00     0.119 C 
BRANCH   8   9
ATOM      9  C   LIG d   1      11.157  80.575 113.830  0.00  0.00     0.028 C 
ATOM     10  C   LIG d   1      12.539  79.912 113.958  0.00  0.00     0.006 C 
ENDBRANCH   8   9
BRANCH   8  11
ATOM     11  C   LIG d   1      10.627  82.193 115.582  0.00  0.00     0.028 C 
ATOM     12  C   LIG d   1      11.685  82.392 116.679  0.00  0.00     0.006 C 
ENDBRANCH   8  11
ENDBRANCH   7   8
ENDBRANCH   1   7
BRANCH   6  13
ATOM     13  N   LIG d   1       9.068  80.228 118.306  0.00  0.00    -0.311 N 
ATOM     14  C   LIG d   1       8.421  81.377 118.495  0.00  0.00     0.210 C 
ATOM     15  C   LIG d   1       8.747  82.095 119.808  0.00  0.00     0.109 C 
ATOM     16  O   LIG d   1       7.583  81.853 117.713  0.00  0.00    -0.276 OA
ATOM     17  H   LIG d   1       9.705  79.901 119.006  0.00  0.00     0.149 HD
ENDBRANCH   6  13
BRANCH   5  18
ATOM     18  N   LIG d   1       6.500  78.775 117.516  0.00  0.00     0.381 N 
ATOM     19  H   LIG d   1       6.543  79.648 118.002  0.00  0.00    -0.090 HD
ATOM     20  H   LIG d   1       6.000  78.119 118.089  0.00  0.00    -0.090 HD
ATOM     21  H   LIG d   1       6.029  78.894 116.646  0.00  0.00    -0.090 HD
ENDBRANCH   5  18
BRANCH   3  22
ATOM     22  C   LIG d   1       9.180  75.739 114.959  0.00  0.00     0.382 C 
ATOM     23  O   LIG d   1      10.214  75.037 115.069  0.00  0.00    -0.241 OA
ATOM     24  O   LIG d   1       8.255  75.356 114.217  0.00  0.00    -0.241 OA
ENDBRANCH   3  22
TORSDOF 7
ENDMDL
