MODEL 1
REMARK VINA RESULT:      -5.8      0.000      0.000
REMARK  7 active torsions:
REMARK  status: ('A' for Active; 'I' for Inactive)
REMARK    1  A    between atoms: C_2  and  C_3 
REMARK    2  A    between atoms: C_3  and  O_6 
REMARK    3  A    between atoms: C_3  and  C_4 
REMARK    4  A    between atoms: C_7  and  O_6 
REMARK    5  A    between atoms: C_9  and  C_10 
REMARK    6  A    between atoms: N_15  and  C_14 
REMARK    7  A    between atoms: N_20  and  C_19 
REMARK       I    between atoms: C_22  and  N_20 
ROOT
ATOM      1  C   LIG d   1      -6.781  76.561 115.518  0.00  0.00     0.161 C 
ATOM      2  C   LIG d   1      -5.978  75.497 115.076  0.00  0.00     0.016 C 
ATOM      3  C   LIG d   1      -4.685  75.235 115.583  0.00  0.00     0.038 C 
ATOM      4  C   LIG d   1      -4.164  75.933 116.682  0.00  0.00     0.028 C 
ATOM      5  C   LIG d   1      -4.731  77.341 116.830  0.00  0.00    -0.047 C 
ATOM      6  C   LIG d   1      -6.275  77.266 116.794  0.00  0.00     0.091 C 
ENDROOT
BRANCH   1   7
ATOM      7  O   LIG d   1      -8.137  76.107 115.701  0.00  0.00    -0.368 OA
BRANCH   7   8
ATOM      8  C   LIG d   1      -8.456  75.564 117.006  0.00  0.00     0.119 C 
BRANCH   8   9
ATOM      9  C   LIG d   1      -8.286  74.035 116.925  0.00  0.00     0.028 C 
ATOM     10  C   LIG d   1      -9.624  73.287 117.053  0.00  0.00     0.006 C 
ENDBRANCH   8   9
BRANCH   8  11
ATOM     11  C   LIG d   1      -9.930  75.790 117.357  0.00  0.00     0.028 C 
ATOM     12  C   LIG d   1     -10.132  76.921 118.378  0.00  0.00     0.006 C 
ENDBRANCH   8  11
ENDBRANCH   7   8
ENDBRANCH   1   7
BRANCH   6  13
ATOM     13  N   LIG d   1      -6.909  78.609 116.848  0.00  0.00    -0.311 N 
ATOM     14  C   LIG d   1      -7.302  79.190 117.980  0.00  0.00     0.210 C 
ATOM     15  C   LIG d   1      -7.951  80.567 117.809  0.00  0.00     0.109 C 
ATOM     16  O   LIG d   1      -7.147  78.708 119.112  0.00  0.00    -0.276 OA
ATOM     17  H   LIG d   1      -7.044  79.085 115.977  0.00  0.00     0.149 HD
ENDBRANCH   6  13
BRANCH   5  18
ATOM     18  N   LIG d   1      -4.208  77.903 118.089  0.00  0.00     0.381 N 
ATOM     19  H   LIG d   1      -4.964  78.251 118.644  0.00  0.00    -0.090 HD
ATOM     20  H   LIG d   1      -3.595  78.669 117.874  0.00  0.00    -0.090 HD
ATOM     21  H   LIG d   1      -3.711  77.202 118.595  0.00  0.00    -0.090 HD
ENDBRANCH   5  18
BRANCH   3  22
ATOM     22  C   LIG d   1      -3.882  74.289 114.963  0.00  0.00     0.382 C 
ATOM     23  O   LIG d   1      -2.634  74.354 115.078  0.00  0.00    -0.241 OA
ATOM     24  O   LIG d   1      -4.387  73.399 114.253  0.00  0.00    -0.241 OA
ENDBRANCH   3  22
TORSDOF 7
ENDMDL
MODEL 2
REMARK VINA RESULT:      -5.7      1.820      5.142
REMARK  7 active torsions:
REMARK  status: ('A' for Active; 'I' for Inactive)
REMARK    1  A    between atoms: C_2  and  C_3 
REMARK    2  A    between atoms: C_3  and  O_6 
REMARK    3  A    between atoms: C_3  and  C_4 
REMARK    4  A    between atoms: C_7  and  O_6 
REMARK    5  A    between atoms: C_9  and  C_10 
REMARK    6  A    between atoms: N_15  and  C_14 
REMARK    7  A    between atoms: N_20  and  C_19 
REMARK       I    between atoms: C_22  and  N_20 
ROOT
ATOM      1  C   LIG d   1      -7.510  76.816 117.444  0.00  0.00     0.161 C 
ATOM      2  C   LIG d   1      -8.523  77.624 117.988  0.00  0.00     0.016 C 
ATOM      3  C   LIG d   1      -8.440  79.034 118.058  0.00  0.00     0.038 C 
ATOM      4  C   LIG d   1      -7.397  79.747 117.448  0.00  0.00     0.028 C 
ATOM      5  C   LIG d   1      -6.104  78.947 117.331  0.00  0.00    -0.047 C 
ATOM      6  C   LIG d   1      -6.415  77.583 116.673  0.00  0.00     0.091 C 
ENDROOT
BRANCH   1   7
ATOM      7  O   LIG d   1      -8.094  75.799 116.606  0.00  0.00    -0.368 OA
BRANCH   7   8
ATOM      8  C   LIG d   1      -8.276  74.498 117.216  0.00  0.00     0.119 C 
BRANCH   8   9
ATOM      9  C   LIG d   1      -7.203  73.559 116.633  0.00  0.00     0.028 C 
ATOM     10  C   LIG d   1      -6.016  73.357 117.589  0.00  0.00     0.006 C 
ENDBRANCH   8   9
BRANCH   8  11
ATOM     11  C   LIG d   1      -9.618  73.878 116.817  0.00  0.00     0.028 C 
ATOM     12  C   LIG d   1      -9.689  72.370 117.109  0.00  0.00     0.006 C 
ENDBRANCH   8  11
ENDBRANCH   7   8
ENDBRANCH   1   7
BRANCH   6  13
ATOM     13  N   LIG d   1      -5.219  76.704 116.598  0.00  0.00    -0.311 N 
ATOM     14  C   LIG d   1      -4.675  76.304 115.450  0.00  0.00     0.210 C 
ATOM     15  C   LIG d   1      -3.458  75.385 115.597  0.00  0.00     0.109 C 
ATOM     16  O   LIG d   1      -5.065  76.649 114.324  0.00  0.00    -0.276 OA
ATOM     17  H   LIG d   1      -4.820  76.402 117.464  0.00  0.00     0.149 HD
ENDBRANCH   6  13
BRANCH   5  18
ATOM     18  N   LIG d   1      -5.147  79.758 116.555  0.00  0.00     0.381 N 
ATOM     19  H   LIG d   1      -4.242  79.712 116.979  0.00  0.00    -0.090 HD
ATOM     20  H   LIG d   1      -5.451  80.716 116.563  0.00  0.00    -0.090 HD
ATOM     21  H   LIG d   1      -5.100  79.425 115.617  0.00  0.00    -0.090 HD
ENDBRANCH   5  18
BRANCH   3  22
ATOM     22  C   LIG d   1      -9.388  79.743 118.780  0.00  0.00     0.382 C 
ATOM     23  O   LIG d   1     -10.363  80.267 118.189  0.00  0.00    -0.241 OA
ATOM     24  O   LIG d   1      -9.257  79.903 120.008  0.00  0.00    -0.241 OA
ENDBRANCH   3  22
TORSDOF 7
ENDMDL
MODEL 3
REMARK VINA RESULT:      -5.7      2.331      3.555
REMARK  7 active torsions:
REMARK  status: ('A' for Active; 'I' for Inactive)
REMARK    1  A    between atoms: C_2  and  C_3 
REMARK    2  A    between atoms: C_3  and  O_6 
REMARK    3  A    between atoms: C_3  and  C_4 
REMARK    4  A    between atoms: C_7  and  O_6 
REMARK    5  A    between atoms: C_9  and  C_10 
REMARK    6  A    between atoms: N_15  and  C_14 
REMARK    7  A    between atoms: N_20  and  C_19 
REMARK       I    between atoms: C_22  and  N_20 
ROOT
ATOM      1  C   LIG d   1      -6.238  75.490 116.130  0.00  0.00     0.161 C 
ATOM      2  C   LIG d   1      -6.602  74.133 116.132  0.00  0.00     0.016 C 
ATOM      3  C   LIG d   1      -5.690  73.082 115.882  0.00  0.00     0.038 C 
ATOM      4  C   LIG d   1      -4.311  73.310 115.761  0.00  0.00     0.028 C 
ATOM      5  C   LIG d   1      -3.971  74.705 115.251  0.00  0.00    -0.047 C 
ATOM      6  C   LIG d   1      -4.717  75.751 116.110  0.00  0.00     0.091 C 
ENDROOT
BRANCH   1   7
ATOM      7  O   LIG d   1      -6.847  76.161 117.250  0.00  0.00    -0.368 OA
BRANCH   7   8
ATOM      8  C   LIG d   1      -7.891  77.114 116.932  0.00  0.00     0.119 C 
BRANCH   8   9
ATOM      9  C   LIG d   1      -7.428  78.494 117.440  0.00  0.00     0.028 C 
ATOM     10  C   LIG d   1      -6.383  78.385 118.563  0.00  0.00     0.006 C 
ENDBRANCH   8   9
BRANCH   8  11
ATOM     11  C   LIG d   1      -9.178  76.809 117.702  0.00  0.00     0.028 C 
ATOM     12  C   LIG d   1      -9.874  75.528 117.217  0.00  0.00     0.006 C 
ENDBRANCH   8  11
ENDBRANCH   7   8
ENDBRANCH   1   7
BRANCH   6  13
ATOM     13  N   LIG d   1      -4.506  77.139 115.625  0.00  0.00    -0.311 N 
ATOM     14  C   LIG d   1      -3.565  77.950 116.108  0.00  0.00     0.210 C 
ATOM     15  C   LIG d   1      -3.531  79.347 115.481  0.00  0.00     0.109 C 
ATOM     16  O   LIG d   1      -2.736  77.633 116.974  0.00  0.00    -0.276 OA
ATOM     17  H   LIG d   1      -5.115  77.468 114.901  0.00  0.00     0.149 HD
ENDBRANCH   6  13
BRANCH   5  18
ATOM     18  N   LIG d   1      -2.504  74.854 115.304  0.00  0.00     0.381 N 
ATOM     19  H   LIG d   1      -2.268  75.766 115.640  0.00  0.00    -0.090 HD
ATOM     20  H   LIG d   1      -2.133  74.754 114.376  0.00  0.00    -0.090 HD
ATOM     21  H   LIG d   1      -2.113  74.160 115.903  0.00  0.00    -0.090 HD
ENDBRANCH   5  18
BRANCH   3  22
ATOM     22  C   LIG d   1      -6.162  71.789 115.711  0.00  0.00     0.382 C 
ATOM     23  O   LIG d   1      -5.476  70.951 115.078  0.00  0.00    -0.241 OA
ATOM     24  O   LIG d   1      -7.284  71.464 116.143  0.00  0.00    -0.241 OA
ENDBRANCH   3  22
TORSDOF 7
ENDMDL
MODEL 4
REMARK VINA RESULT:      -5.4      2.101      4.979
REMARK  7 active torsions:
REMARK  status: ('A' for Active; 'I' for Inactive)
REMARK    1  A    between atoms: C_2  and  C_3 
REMARK    2  A    between atoms: C_3  and  O_6 
REMARK    3  A    between atoms: C_3  and  C_4 
REMARK    4  A    between atoms: C_7  and  O_6 
REMARK    5  A    between atoms: C_9  and  C_10 
REMARK    6  A    between atoms: N_15  and  C_14 
REMARK    7  A    between atoms: N_20  and  C_19 
REMARK       I    between atoms: C_22  and  N_20 
ROOT
ATOM      1  C   LIG d   1      -5.511  76.735 117.051  0.00  0.00     0.161 C 
ATOM      2  C   LIG d   1      -6.339  77.848 117.270  0.00  0.00     0.016 C 
ATOM      3  C   LIG d   1      -5.926  79.181 117.047  0.00  0.00     0.038 C 
ATOM      4  C   LIG d   1      -4.698  79.485 116.442  0.00  0.00     0.028 C 
ATOM      5  C   LIG d   1      -3.630  78.422 116.671  0.00  0.00    -0.047 C 
ATOM      6  C   LIG d   1      -4.206  77.040 116.286  0.00  0.00     0.091 C 
ENDROOT
BRANCH   1   7
ATOM      7  O   LIG d   1      -6.253  75.697 116.380  0.00  0.00    -0.368 OA
BRANCH   7   8
ATOM      8  C   LIG d   1      -7.178  74.943 117.202  0.00  0.00     0.119 C 
BRANCH   8   9
ATOM      9  C   LIG d   1      -6.954  73.449 116.899  0.00  0.00     0.028 C 
ATOM     10  C   LIG d   1      -5.747  73.212 115.975  0.00  0.00     0.006 C 
ENDBRANCH   8   9
BRANCH   8  11
ATOM     11  C   LIG d   1      -8.631  75.223 116.807  0.00  0.00     0.028 C 
ATOM     12  C   LIG d   1      -9.567  74.038 117.095  0.00  0.00     0.006 C 
ENDBRANCH   8  11
ENDBRANCH   7   8
ENDBRANCH   1   7
BRANCH   6  13
ATOM     13  N   LIG d   1      -3.254  75.932 116.559  0.00  0.00    -0.311 N 
ATOM     14  C   LIG d   1      -2.403  75.457 115.652  0.00  0.00     0.210 C 
ATOM     15  C   LIG d   1      -1.523  74.299 116.136  0.00  0.00     0.109 C 
ATOM     16  O   LIG d   1      -2.269  75.905 114.504  0.00  0.00    -0.276 OA
ATOM     17  H   LIG d   1      -3.273  75.531 117.476  0.00  0.00     0.149 HD
ENDBRANCH   6  13
BRANCH   5  18
ATOM     18  N   LIG d   1      -2.447  78.798 115.874  0.00  0.00     0.381 N 
ATOM     19  H   LIG d   1      -2.019  79.612 116.266  0.00  0.00    -0.090 HD
ATOM     20  H   LIG d   1      -2.742  79.016 114.938  0.00  0.00    -0.090 HD
ATOM     21  H   LIG d   1      -1.794  78.046 115.857  0.00  0.00    -0.090 HD
ENDBRANCH   5  18
BRANCH   3  22
ATOM     22  C   LIG d   1      -6.730  80.229 117.468  0.00  0.00     0.382 C 
ATOM     23  O   LIG d   1      -7.946  80.251 117.158  0.00  0.00    -0.241 OA
ATOM     24  O   LIG d   1      -6.246  81.176 118.117  0.00  0.00    -0.241 OA
ENDBRANCH   3  22
TORSDOF 7
ENDMDL
MODEL 5
REMARK VINA RESULT:      -5.4      2.120      5.216
REMARK  7 active torsions:
REMARK  status: ('A' for Active; 'I' for Inactive)
REMARK    1  A    between atoms: C_2  and  C_3 
REMARK    2  A    between atoms: C_3  and  O_6 
REMARK    3  A    between atoms: C_3  and  C_4 
REMARK    4  A    between atoms: C_7  and  O_6 
REMARK    5  A    between atoms: C_9  and  C_10 
REMARK    6  A    between atoms: N_15  and  C_14 
REMARK    7  A    between atoms: N_20  and  C_19 
REMARK       I    between atoms: C_22  and  N_20 
ROOT
ATOM      1  C   LIG d   1      -6.503  76.508 117.117  0.00  0.00     0.161 C 
ATOM      2  C   LIG d   1      -7.849  76.546 117.520  0.00  0.00     0.016 C 
ATOM      3  C   LIG d   1      -8.551  77.746 117.775  0.00  0.00     0.038 C 
ATOM      4  C   LIG d   1      -7.995  79.004 117.497  0.00  0.00     0.028 C 
ATOM      5  C   LIG d   1      -6.472  79.023 117.570  0.00  0.00    -0.047 C 
ATOM      6  C   LIG d   1      -5.914  77.872 116.701  0.00  0.00     0.091 C 
ENDROOT
BRANCH   1   7
ATOM      7  O   LIG d   1      -6.338  75.546 116.056  0.00  0.00    -0.368 OA
BRANCH   7   8
ATOM      8  C   LIG d   1      -5.566  74.364 116.382  0.00  0.00     0.119 C 
BRANCH   8   9
ATOM      9  C   LIG d   1      -4.713  74.014 115.147  0.00  0.00     0.028 C 
ATOM     10  C   LIG d   1      -3.213  74.256 115.383  0.00  0.00     0.006 C 
ENDBRANCH   8   9
BRANCH   8  11
ATOM     11  C   LIG d   1      -6.474  73.151 116.605  0.00  0.00     0.028 C 
ATOM     12  C   LIG d   1      -6.044  71.926 115.782  0.00  0.00     0.006 C 
ENDBRANCH   8  11
ENDBRANCH   7   8
ENDBRANCH   1   7
BRANCH   6  13
ATOM     13  N   LIG d   1      -4.434  77.767 116.783  0.00  0.00    -0.311 N 
ATOM     14  C   LIG d   1      -3.625  77.990 115.749  0.00  0.00     0.210 C 
ATOM     15  C   LIG d   1      -2.133  77.807 116.045  0.00  0.00     0.109 C 
ATOM     16  O   LIG d   1      -3.998  78.354 114.624  0.00  0.00    -0.276 OA
ATOM     17  H   LIG d   1      -4.044  77.507 117.668  0.00  0.00     0.149 HD
ENDBRANCH   6  13
BRANCH   5  18
ATOM     18  N   LIG d   1      -6.021  80.355 117.124  0.00  0.00     0.381 N 
ATOM     19  H   LIG d   1      -6.547  80.640 116.322  0.00  0.00    -0.090 HD
ATOM     20  H   LIG d   1      -5.053  80.299 116.863  0.00  0.00    -0.090 HD
ATOM     21  H   LIG d   1      -6.137  81.017 117.859  0.00  0.00    -0.090 HD
ENDBRANCH   5  18
BRANCH   3  22
ATOM     22  C   LIG d   1      -9.811  77.695 118.352  0.00  0.00     0.382 C 
ATOM     23  O   LIG d   1     -10.334  76.587 118.619  0.00  0.00    -0.241 OA
ATOM     24  O   LIG d   1     -10.449  78.743 118.569  0.00  0.00    -0.241 OA
ENDBRANCH   3  22
TORSDOF 7
ENDMDL
MODEL 6
REMARK VINA RESULT:      -5.3      2.371      5.429
REMARK  7 active torsions:
REMARK  status: ('A' for Active; 'I' for Inactive)
REMARK    1  A    between atoms: C_2  and  C_3 
REMARK    2  A    between atoms: C_3  and  O_6 
REMARK    3  A    between atoms: C_3  and  C_4 
REMARK    4  A    between atoms: C_7  and  O_6 
REMARK    5  A    between atoms: C_9  and  C_10 
REMARK    6  A    between atoms: N_15  and  C_14 
REMARK    7  A    between atoms: N_20  and  C_19 
REMARK       I    between atoms: C_22  and  N_20 
ROOT
ATOM      1  C   LIG d   1      -6.017  76.597 116.395  0.00  0.00     0.161 C 
ATOM      2  C   LIG d   1      -7.345  76.336 116.771  0.00  0.00     0.016 C 
ATOM      3  C   LIG d   1      -7.871  75.031 116.915  0.00  0.00     0.038 C 
ATOM      4  C   LIG d   1      -7.056  73.891 116.840  0.00  0.00     0.028 C 
ATOM      5  C   LIG d   1      -5.822  74.086 115.966  0.00  0.00    -0.047 C 
ATOM      6  C   LIG d   1      -5.085  75.368 116.417  0.00  0.00     0.091 C 
ENDROOT
BRANCH   1   7
ATOM      7  O   LIG d   1      -5.476  77.651 117.215  0.00  0.00    -0.368 OA
BRANCH   7   8
ATOM      8  C   LIG d   1      -5.487  78.979 116.636  0.00  0.00     0.119 C 
BRANCH   8   9
ATOM      9  C   LIG d   1      -4.074  79.257 116.088  0.00  0.00     0.028 C 
ATOM     10  C   LIG d   1      -3.018  79.343 117.204  0.00  0.00     0.006 C 
ENDBRANCH   8   9
BRANCH   8  11
ATOM     11  C   LIG d   1      -5.727  80.051 117.703  0.00  0.00     0.028 C 
ATOM     12  C   LIG d   1      -6.941  80.941 117.392  0.00  0.00     0.006 C 
ENDBRANCH   8  11
ENDBRANCH   7   8
ENDBRANCH   1   7
BRANCH   6  13
ATOM     13  N   LIG d   1      -3.911  75.678 115.559  0.00  0.00    -0.311 N 
ATOM     14  C   LIG d   1      -2.684  75.874 116.039  0.00  0.00     0.210 C 
ATOM     15  C   LIG d   1      -1.623  76.202 114.984  0.00  0.00     0.109 C 
ATOM     16  O   LIG d   1      -2.368  75.775 117.234  0.00  0.00    -0.276 OA
ATOM     17  H   LIG d   1      -4.072  75.746 114.573  0.00  0.00     0.149 HD
ENDBRANCH   6  13
BRANCH   5  18
ATOM     18  N   LIG d   1      -4.994  72.871 116.087  0.00  0.00     0.381 N 
ATOM     19  H   LIG d   1      -4.953  72.583 117.044  0.00  0.00    -0.090 HD
ATOM     20  H   LIG d   1      -4.061  73.081 115.781  0.00  0.00    -0.090 HD
ATOM     21  H   LIG d   1      -5.378  72.140 115.529  0.00  0.00    -0.090 HD
ENDBRANCH   5  18
BRANCH   3  22
ATOM     22  C   LIG d   1      -9.234  74.855 117.099  0.00  0.00     0.382 C 
ATOM     23  O   LIG d   1      -9.975  75.851 117.280  0.00  0.00    -0.241 OA
ATOM     24  O   LIG d   1      -9.725  73.711 117.129  0.00  0.00    -0.241 OA
ENDBRANCH   3  22
TORSDOF 7
ENDMDL
MODEL 7
REMARK VINA RESULT:      -5.2      1.723      2.839
REMARK  7 active torsions:
REMARK  status: ('A' for Active; 'I' for Inactive)
REMARK    1  A    between atoms: C_2  and  C_3 
REMARK    2  A    between atoms: C_3  and  O_6 
REMARK    3  A    between atoms: C_3  and  C_4 
REMARK    4  A    between atoms: C_7  and  O_6 
REMARK    5  A    between atoms: C_9  and  C_10 
REMARK    6  A    between atoms: N_15  and  C_14 
REMARK    7  A    between atoms: N_20  and  C_19 
REMARK       I    between atoms: C_22  and  N_20 
ROOT
ATOM      1  C   LIG d   1      -6.879  78.119 116.953  0.00  0.00     0.161 C 
ATOM      2  C   LIG d   1      -6.573  76.975 116.196  0.00  0.00     0.016 C 
ATOM      3  C   LIG d   1      -5.276  76.685 115.714  0.00  0.00     0.038 C 
ATOM      4  C   LIG d   1      -4.159  77.447 116.088  0.00  0.00     0.028 C 
ATOM      5  C   LIG d   1      -4.499  78.892 116.434  0.00  0.00    -0.047 C 
ATOM      6  C   LIG d   1      -5.652  78.903 117.464  0.00  0.00     0.091 C 
ENDROOT
BRANCH   1   7
ATOM      7  O   LIG d   1      -7.739  77.761 118.053  0.00  0.00    -0.368 OA
BRANCH   7   8
ATOM      8  C   LIG d   1      -9.160  77.942 117.836  0.00  0.00     0.119 C 
BRANCH   8   9
ATOM      9  C   LIG d   1      -9.646  79.014 118.830  0.00  0.00     0.028 C 
ATOM     10  C   LIG d   1      -9.774  80.403 118.181  0.00  0.00     0.006 C 
ENDBRANCH   8   9
BRANCH   8  11
ATOM     11  C   LIG d   1      -9.944  76.675 118.190  0.00  0.00     0.028 C 
ATOM     12  C   LIG d   1      -9.839  75.588 117.109  0.00  0.00     0.006 C 
ENDBRANCH   8  11
ENDBRANCH   7   8
ENDBRANCH   1   7
BRANCH   6  13
ATOM     13  N   LIG d   1      -6.105  80.280 117.794  0.00  0.00    -0.311 N 
ATOM     14  C   LIG d   1      -6.103  80.775 119.031  0.00  0.00     0.210 C 
ATOM     15  C   LIG d   1      -6.629  82.209 119.153  0.00  0.00     0.109 C 
ATOM     16  O   LIG d   1      -5.687  80.174 120.033  0.00  0.00    -0.276 OA
ATOM     17  H   LIG d   1      -6.429  80.847 117.036  0.00  0.00     0.149 HD
ENDBRANCH   6  13
BRANCH   5  18
ATOM     18  N   LIG d   1      -3.269  79.532 116.937  0.00  0.00     0.381 N 
ATOM     19  H   LIG d   1      -3.083  80.366 116.416  0.00  0.00    -0.090 HD
ATOM     20  H   LIG d   1      -2.498  78.901 116.808  0.00  0.00    -0.090 HD
ATOM     21  H   LIG d   1      -3.369  79.751 117.904  0.00  0.00    -0.090 HD
ENDBRANCH   5  18
BRANCH   3  22
ATOM     22  C   LIG d   1      -5.093  75.645 114.816  0.00  0.00     0.382 C 
ATOM     23  O   LIG d   1      -4.368  75.809 113.805  0.00  0.00    -0.241 OA
ATOM     24  O   LIG d   1      -5.679  74.558 114.981  0.00  0.00    -0.241 OA
ENDBRANCH   3  22
TORSDOF 7
ENDMDL
MODEL 8
REMARK VINA RESULT:      -4.9      2.201      4.251
REMARK  7 active torsions:
REMARK  status: ('A' for Active; 'I' for Inactive)
REMARK    1  A    between atoms: C_2  and  C_3 
REMARK    2  A    between atoms: C_3  and  O_6 
REMARK    3  A    between atoms: C_3  and  C_4 
REMARK    4  A    between atoms: C_7  and  O_6 
REMARK    5  A    between atoms: C_9  and  C_10 
REMARK    6  A    between atoms: N_15  and  C_14 
REMARK    7  A    between atoms: N_20  and  C_19 
REMARK       I    between atoms: C_22  and  N_20 
ROOT
ATOM      1  C   LIG d   1      -5.122  76.067 116.744  0.00  0.00     0.161 C 
ATOM      2  C   LIG d   1      -3.773  75.895 116.393  0.00  0.00     0.016 C 
ATOM      3  C   LIG d   1      -3.249  74.683 115.887  0.00  0.00     0.038 C 
ATOM      4  C   LIG d   1      -4.076  73.599 115.554  0.00  0.00     0.028 C 
ATOM      5  C   LIG d   1      -5.368  73.553 116.363  0.00  0.00    -0.047 C 
ATOM      6  C   LIG d   1      -6.060  74.932 116.283  0.00  0.00     0.091 C 
ENDROOT
BRANCH   1   7
ATOM      7  O   LIG d   1      -5.595  77.338 116.255  0.00  0.00    -0.368 OA
BRANCH   7   8
ATOM      8  C   LIG d   1      -5.649  78.414 117.224  0.00  0.00     0.119 C 
BRANCH   8   9
ATOM      9  C   LIG d   1      -7.073  79.002 117.183  0.00  0.00     0.028 C 
ATOM     10  C   LIG d   1      -7.820  78.824 118.516  0.00  0.00     0.006 C 
ENDBRANCH   8   9
BRANCH   8  11
ATOM     11  C   LIG d   1      -4.722  79.567 116.828  0.00  0.00     0.028 C 
ATOM     12  C   LIG d   1      -3.358  79.502 117.533  0.00  0.00     0.006 C 
ENDBRANCH   8  11
ENDBRANCH   7   8
ENDBRANCH   1   7
BRANCH   6  13
ATOM     13  N   LIG d   1      -7.289  74.999 117.116  0.00  0.00    -0.311 N 
ATOM     14  C   LIG d   1      -8.408  75.606 116.725  0.00  0.00     0.210 C 
ATOM     15  C   LIG d   1      -9.551  75.575 117.745  0.00  0.00     0.109 C 
ATOM     16  O   LIG d   1      -8.574  76.139 115.617  0.00  0.00    -0.276 OA
ATOM     17  H   LIG d   1      -7.253  74.565 118.018  0.00  0.00     0.149 HD
ENDBRANCH   6  13
BRANCH   5  18
ATOM     18  N   LIG d   1      -6.194  72.458 115.820  0.00  0.00     0.381 N 
ATOM     19  H   LIG d   1      -5.823  72.158 114.941  0.00  0.00    -0.090 HD
ATOM     20  H   LIG d   1      -7.127  72.800 115.669  0.00  0.00    -0.090 HD
ATOM     21  H   LIG d   1      -6.212  71.694 116.460  0.00  0.00    -0.090 HD
ENDBRANCH   5  18
BRANCH   3  22
ATOM     22  C   LIG d   1      -1.878  74.532 115.747  0.00  0.00     0.382 C 
ATOM     23  O   LIG d   1      -1.296  74.992 114.736  0.00  0.00    -0.241 OA
ATOM     24  O   LIG d   1      -1.221  73.902 116.599  0.00  0.00    -0.241 OA
ENDBRANCH   3  22
TORSDOF 7
ENDMDL
MODEL 9
REMARK VINA RESULT:      -4.9      2.472      4.852
REMARK  7 active torsions:
REMARK  status: ('A' for Active; 'I' for Inactive)
REMARK    1  A    between atoms: C_2  and  C_3 
REMARK    2  A    between atoms: C_3  and  O_6 
REMARK    3  A    between atoms: C_3  and  C_4 
REMARK    4  A    between atoms: C_7  and  O_6 
REMARK    5  A    between atoms: C_9  and  C_10 
REMARK    6  A    between atoms: N_15  and  C_14 
REMARK    7  A    between atoms: N_20  and  C_19 
REMARK       I    between atoms: C_22  and  N_20 
ROOT
ATOM      1  C   LIG d   1      -6.775  76.704 117.691  0.00  0.00     0.161 C 
ATOM      2  C   LIG d   1      -8.044  76.116 117.559  0.00  0.00     0.016 C 
ATOM      3  C   LIG d   1      -8.243  74.781 117.139  0.00  0.00     0.038 C 
ATOM      4  C   LIG d   1      -7.173  73.891 116.967  0.00  0.00     0.028 C 
ATOM      5  C   LIG d   1      -5.864  74.581 116.600  0.00  0.00    -0.047 C 
ATOM      6  C   LIG d   1      -5.593  75.716 117.615  0.00  0.00     0.091 C 
ENDROOT
BRANCH   1   7
ATOM      7  O   LIG d   1      -6.714  77.465 118.914  0.00  0.00    -0.368 OA
BRANCH   7   8
ATOM      8  C   LIG d   1      -6.764  78.906 118.771  0.00  0.00     0.119 C 
BRANCH   8   9
ATOM      9  C   LIG d   1      -8.155  79.371 119.243  0.00  0.00     0.028 C 
ATOM     10  C   LIG d   1      -8.998  79.955 118.097  0.00  0.00     0.006 C 
ENDBRANCH   8   9
BRANCH   8  11
ATOM     11  C   LIG d   1      -6.674  79.324 117.301  0.00  0.00     0.028 C 
ATOM     12  C   LIG d   1      -5.330  79.983 116.950  0.00  0.00     0.006 C 
ENDBRANCH   8  11
ENDBRANCH   7   8
ENDBRANCH   1   7
BRANCH   6  13
ATOM     13  N   LIG d   1      -4.374  76.497 117.280  0.00  0.00    -0.311 N 
ATOM     14  C   LIG d   1      -3.487  76.896 118.189  0.00  0.00     0.210 C 
ATOM     15  C   LIG d   1      -2.312  77.708 117.633  0.00  0.00     0.109 C 
ATOM     16  O   LIG d   1      -3.544  76.628 119.398  0.00  0.00    -0.276 OA
ATOM     17  H   LIG d   1      -4.233  76.732 116.317  0.00  0.00     0.149 HD
ENDBRANCH   6  13
BRANCH   5  18
ATOM     18  N   LIG d   1      -4.806  73.553 116.587  0.00  0.00     0.381 N 
ATOM     19  H   LIG d   1      -5.015  72.861 115.896  0.00  0.00    -0.090 HD
ATOM     20  H   LIG d   1      -4.778  73.104 117.485  0.00  0.00    -0.090 HD
ATOM     21  H   LIG d   1      -3.924  73.973 116.390  0.00  0.00    -0.090 HD
ENDBRANCH   5  18
BRANCH   3  22
ATOM     22  C   LIG d   1      -9.524  74.335 116.848  0.00  0.00     0.382 C 
ATOM     23  O   LIG d   1      -9.818  73.126 117.007  0.00  0.00    -0.241 OA
ATOM     24  O   LIG d   1     -10.376  75.118 116.388  0.00  0.00    -0.241 OA
ENDBRANCH   3  22
TORSDOF 7
ENDMDL
