MODEL 1
REMARK VINA RESULT:      -6.0      0.000      0.000
REMARK  7 active torsions:
REMARK  status: ('A' for Active; 'I' for Inactive)
REMARK    1  A    between atoms: C_2  and  C_3 
REMARK    2  A    between atoms: C_3  and  O_6 
REMARK    3  A    between atoms: C_3  and  C_4 
REMARK    4  A    between atoms: C_7  and  O_6 
REMARK    5  A    between atoms: C_9  and  C_10 
REMARK    6  A    between atoms: N_15  and  C_14 
REMARK    7  A    between atoms: N_20  and  C_19 
REMARK       I    between atoms: C_22  and  N_20 
ROOT
ATOM      1  C   LIG d   1      -7.767  75.305 116.889  0.00  0.00     0.161 C 
ATOM      2  C   LIG d   1      -6.690  75.107 116.009  0.00  0.00     0.016 C 
ATOM      3  C   LIG d   1      -5.752  76.114 115.687  0.00  0.00     0.038 C 
ATOM      4  C   LIG d   1      -5.740  77.353 116.345  0.00  0.00     0.028 C 
ATOM      5  C   LIG d   1      -7.109  77.774 116.869  0.00  0.00    -0.047 C 
ATOM      6  C   LIG d   1      -7.705  76.616 117.701  0.00  0.00     0.091 C 
ENDROOT
BRANCH   1   7
ATOM      7  O   LIG d   1      -7.891  74.173 117.772  0.00  0.00    -0.368 OA
BRANCH   7   8
ATOM      8  C   LIG d   1      -9.173  73.497 117.766  0.00  0.00     0.119 C 
BRANCH   8   9
ATOM      9  C   LIG d   1      -9.368  72.863 119.157  0.00  0.00     0.028 C 
ATOM     10  C   LIG d   1      -9.530  73.918 120.265  0.00  0.00     0.006 C 
ENDBRANCH   8   9
BRANCH   8  11
ATOM     11  C   LIG d   1      -9.179  72.324 116.782  0.00  0.00     0.028 C 
ATOM     12  C   LIG d   1      -9.669  71.014 117.419  0.00  0.00     0.006 C 
ENDBRANCH   8  11
ENDBRANCH   7   8
ENDBRANCH   1   7
BRANCH   6  13
ATOM     13  N   LIG d   1      -9.080  76.912 118.181  0.00  0.00    -0.311 N 
ATOM     14  C   LIG d   1      -9.343  77.416 119.386  0.00  0.00     0.210 C 
ATOM     15  C   LIG d   1     -10.830  77.627 119.688  0.00  0.00     0.109 C 
ATOM     16  O   LIG d   1      -8.484  77.738 120.221  0.00  0.00    -0.276 OA
ATOM     17  H   LIG d   1      -9.836  76.710 117.556  0.00  0.00     0.149 HD
ENDBRANCH   6  13
BRANCH   5  18
ATOM     18  N   LIG d   1      -6.926  79.012 117.651  0.00  0.00     0.381 N 
ATOM     19  H   LIG d   1      -5.965  79.108 117.912  0.00  0.00    -0.090 HD
ATOM     20  H   LIG d   1      -7.476  78.952 118.489  0.00  0.00    -0.090 HD
ATOM     21  H   LIG d   1      -7.212  79.800 117.113  0.00  0.00    -0.090 HD
ENDBRANCH   5  18
BRANCH   3  22
ATOM     22  C   LIG d   1      -4.837  75.901 114.668  0.00  0.00     0.382 C 
ATOM     23  O   LIG d   1      -3.960  76.764 114.422  0.00  0.00    -0.241 OA
ATOM     24  O   LIG d   1      -4.904  74.877 113.962  0.00  0.00    -0.241 OA
ENDBRANCH   3  22
TORSDOF 7
ENDMDL
MODEL 2
REMARK VINA RESULT:      -5.7      2.301      5.335
REMARK  7 active torsions:
REMARK  status: ('A' for Active; 'I' for Inactive)
REMARK    1  A    between atoms: C_2  and  C_3 
REMARK    2  A    between atoms: C_3  and  O_6 
REMARK    3  A    between atoms: C_3  and  C_4 
REMARK    4  A    between atoms: C_7  and  O_6 
REMARK    5  A    between atoms: C_9  and  C_10 
REMARK    6  A    between atoms: N_15  and  C_14 
REMARK    7  A    between atoms: N_20  and  C_19 
REMARK       I    between atoms: C_22  and  N_20 
ROOT
ATOM      1  C   LIG d   1      -8.297  75.445 116.925  0.00  0.00     0.161 C 
ATOM      2  C   LIG d   1      -8.216  76.847 116.981  0.00  0.00     0.016 C 
ATOM      3  C   LIG d   1      -8.753  77.616 118.039  0.00  0.00     0.038 C 
ATOM      4  C   LIG d   1      -9.277  77.020 119.196  0.00  0.00     0.028 C 
ATOM      5  C   LIG d   1      -9.835  75.621 118.958  0.00  0.00    -0.047 C 
ATOM      6  C   LIG d   1      -8.767  74.772 118.232  0.00  0.00     0.091 C 
ENDROOT
BRANCH   1   7
ATOM      7  O   LIG d   1      -7.030  74.899 116.508  0.00  0.00    -0.368 OA
BRANCH   7   8
ATOM      8  C   LIG d   1      -5.994  75.862 116.193  0.00  0.00     0.119 C 
BRANCH   8   9
ATOM      9  C   LIG d   1      -5.514  75.572 114.757  0.00  0.00     0.028 C 
ATOM     10  C   LIG d   1      -4.068  76.037 114.516  0.00  0.00     0.006 C 
ENDBRANCH   8   9
BRANCH   8  11
ATOM     11  C   LIG d   1      -4.761  75.664 117.080  0.00  0.00     0.028 C 
ATOM     12  C   LIG d   1      -4.593  76.779 118.124  0.00  0.00     0.006 C 
ENDBRANCH   8  11
ENDBRANCH   7   8
ENDBRANCH   1   7
BRANCH   6  13
ATOM     13  N   LIG d   1      -9.261  73.414 117.885  0.00  0.00    -0.311 N 
ATOM     14  C   LIG d   1      -9.201  72.377 118.719  0.00  0.00     0.210 C 
ATOM     15  C   LIG d   1      -9.748  71.062 118.155  0.00  0.00     0.109 C 
ATOM     16  O   LIG d   1      -8.775  72.429 119.882  0.00  0.00    -0.276 OA
ATOM     17  H   LIG d   1      -9.651  73.290 116.971  0.00  0.00     0.149 HD
ENDBRANCH   6  13
BRANCH   5  18
ATOM     18  N   LIG d   1     -10.221  75.066 120.269  0.00  0.00     0.381 N 
ATOM     19  H   LIG d   1      -9.561  74.370 120.550  0.00  0.00    -0.090 HD
ATOM     20  H   LIG d   1     -11.123  74.630 120.184  0.00  0.00    -0.090 HD
ATOM     21  H   LIG d   1     -10.259  75.793 120.949  0.00  0.00    -0.090 HD
ENDBRANCH   5  18
BRANCH   3  22
ATOM     22  C   LIG d   1      -8.804  78.997 117.928  0.00  0.00     0.382 C 
ATOM     23  O   LIG d   1      -9.912  79.585 117.928  0.00  0.00    -0.241 OA
ATOM     24  O   LIG d   1      -7.758  79.658 117.783  0.00  0.00    -0.241 OA
ENDBRANCH   3  22
TORSDOF 7
ENDMDL
MODEL 3
REMARK VINA RESULT:      -5.7      2.214      5.148
REMARK  7 active torsions:
REMARK  status: ('A' for Active; 'I' for Inactive)
REMARK    1  A    between atoms: C_2  and  C_3 
REMARK    2  A    between atoms: C_3  and  O_6 
REMARK    3  A    between atoms: C_3  and  C_4 
REMARK    4  A    between atoms: C_7  and  O_6 
REMARK    5  A    between atoms: C_9  and  C_10 
REMARK    6  A    between atoms: N_15  and  C_14 
REMARK    7  A    between atoms: N_20  and  C_19 
REMARK       I    between atoms: C_22  and  N_20 
ROOT
ATOM      1  C   LIG d   1      -7.040  76.676 117.023  0.00  0.00     0.161 C 
ATOM      2  C   LIG d   1      -6.886  78.066 117.163  0.00  0.00     0.016 C 
ATOM      3  C   LIG d   1      -7.888  78.910 117.694  0.00  0.00     0.038 C 
ATOM      4  C   LIG d   1      -9.062  78.398 118.266  0.00  0.00     0.028 C 
ATOM      5  C   LIG d   1      -9.478  77.049 117.690  0.00  0.00    -0.047 C 
ATOM      6  C   LIG d   1      -8.270  76.086 117.744  0.00  0.00     0.091 C 
ENDROOT
BRANCH   1   7
ATOM      7  O   LIG d   1      -5.838  76.006 117.453  0.00  0.00    -0.368 OA
BRANCH   7   8
ATOM      8  C   LIG d   1      -4.799  75.858 116.454  0.00  0.00     0.119 C 
BRANCH   8   9
ATOM      9  C   LIG d   1      -5.365  74.974 115.325  0.00  0.00     0.028 C 
ATOM     10  C   LIG d   1      -5.206  75.620 113.939  0.00  0.00     0.006 C 
ENDBRANCH   8   9
BRANCH   8  11
ATOM     11  C   LIG d   1      -3.598  75.088 117.009  0.00  0.00     0.028 C 
ATOM     12  C   LIG d   1      -2.331  75.263 116.157  0.00  0.00     0.006 C 
ENDBRANCH   8  11
ENDBRANCH   7   8
ENDBRANCH   1   7
BRANCH   6  13
ATOM     13  N   LIG d   1      -8.567  74.769 117.122  0.00  0.00    -0.311 N 
ATOM     14  C   LIG d   1      -9.047  73.729 117.802  0.00  0.00     0.210 C 
ATOM     15  C   LIG d   1      -9.263  72.459 116.973  0.00  0.00     0.109 C 
ATOM     16  O   LIG d   1      -9.345  73.748 119.006  0.00  0.00    -0.276 OA
ATOM     17  H   LIG d   1      -8.384  74.676 116.142  0.00  0.00     0.149 HD
ENDBRANCH   6  13
BRANCH   5  18
ATOM     18  N   LIG d   1     -10.635  76.569 118.470  0.00  0.00     0.381 N 
ATOM     19  H   LIG d   1     -11.415  76.421 117.861  0.00  0.00    -0.090 HD
ATOM     20  H   LIG d   1     -10.888  77.272 119.141  0.00  0.00    -0.090 HD
ATOM     21  H   LIG d   1     -10.403  75.721 118.937  0.00  0.00    -0.090 HD
ENDBRANCH   5  18
BRANCH   3  22
ATOM     22  C   LIG d   1      -7.737  80.286 117.621  0.00  0.00     0.382 C 
ATOM     23  O   LIG d   1      -8.460  81.035 118.321  0.00  0.00    -0.241 OA
ATOM     24  O   LIG d   1      -6.917  80.791 116.830  0.00  0.00    -0.241 OA
ENDBRANCH   3  22
TORSDOF 7
ENDMDL
MODEL 4
REMARK VINA RESULT:      -5.7      2.279      4.887
REMARK  7 active torsions:
REMARK  status: ('A' for Active; 'I' for Inactive)
REMARK    1  A    between atoms: C_2  and  C_3 
REMARK    2  A    between atoms: C_3  and  O_6 
REMARK    3  A    between atoms: C_3  and  C_4 
REMARK    4  A    between atoms: C_7  and  O_6 
REMARK    5  A    between atoms: C_9  and  C_10 
REMARK    6  A    between atoms: N_15  and  C_14 
REMARK    7  A    between atoms: N_20  and  C_19 
REMARK       I    between atoms: C_22  and  N_20 
ROOT
ATOM      1  C   LIG d   1      -8.768  77.451 118.004  0.00  0.00     0.161 C 
ATOM      2  C   LIG d   1      -9.634  78.513 118.310  0.00  0.00     0.016 C 
ATOM      3  C   LIG d   1      -9.274  79.874 118.180  0.00  0.00     0.038 C 
ATOM      4  C   LIG d   1      -8.065  80.267 117.586  0.00  0.00     0.028 C 
ATOM      5  C   LIG d   1      -6.955  79.231 117.729  0.00  0.00    -0.047 C 
ATOM      6  C   LIG d   1      -7.485  77.860 117.251  0.00  0.00     0.091 C 
ENDROOT
BRANCH   1   7
ATOM      7  O   LIG d   1      -9.479  76.436 117.268  0.00  0.00    -0.368 OA
BRANCH   7   8
ATOM      8  C   LIG d   1      -9.616  75.152 117.924  0.00  0.00     0.119 C 
BRANCH   8   9
ATOM      9  C   LIG d   1      -9.104  75.312 119.368  0.00  0.00     0.028 C 
ATOM     10  C   LIG d   1      -9.740  74.297 120.333  0.00  0.00     0.006 C 
ENDBRANCH   8   9
BRANCH   8  11
ATOM     11  C   LIG d   1      -8.705  74.100 117.284  0.00  0.00     0.028 C 
ATOM     12  C   LIG d   1      -9.454  72.811 116.911  0.00  0.00     0.006 C 
ENDBRANCH   8  11
ENDBRANCH   7   8
ENDBRANCH   1   7
BRANCH   6  13
ATOM     13  N   LIG d   1      -6.489  76.772 117.435  0.00  0.00    -0.311 N 
ATOM     14  C   LIG d   1      -5.655  76.371 116.477  0.00  0.00     0.210 C 
ATOM     15  C   LIG d   1      -4.723  75.221 116.871  0.00  0.00     0.109 C 
ATOM     16  O   LIG d   1      -5.576  76.881 115.350  0.00  0.00    -0.276 OA
ATOM     17  H   LIG d   1      -6.463  76.324 118.331  0.00  0.00     0.149 HD
ENDBRANCH   6  13
BRANCH   5  18
ATOM     18  N   LIG d   1      -5.797  79.707 116.949  0.00  0.00     0.381 N 
ATOM     19  H   LIG d   1      -5.887  80.689 116.776  0.00  0.00    -0.090 HD
ATOM     20  H   LIG d   1      -5.783  79.231 116.065  0.00  0.00    -0.090 HD
ATOM     21  H   LIG d   1      -4.953  79.526 117.446  0.00  0.00    -0.090 HD
ENDBRANCH   5  18
BRANCH   3  22
ATOM     22  C   LIG d   1     -10.111  80.859 118.682  0.00  0.00     0.382 C 
ATOM     23  O   LIG d   1     -10.292  80.956 119.920  0.00  0.00    -0.241 OA
ATOM     24  O   LIG d   1     -10.723  81.622 117.911  0.00  0.00    -0.241 OA
ENDBRANCH   3  22
TORSDOF 7
ENDMDL
MODEL 5
REMARK VINA RESULT:      -5.6      2.015      4.948
REMARK  7 active torsions:
REMARK  status: ('A' for Active; 'I' for Inactive)
REMARK    1  A    between atoms: C_2  and  C_3 
REMARK    2  A    between atoms: C_3  and  O_6 
REMARK    3  A    between atoms: C_3  and  C_4 
REMARK    4  A    between atoms: C_7  and  O_6 
REMARK    5  A    between atoms: C_9  and  C_10 
REMARK    6  A    between atoms: N_15  and  C_14 
REMARK    7  A    between atoms: N_20  and  C_19 
REMARK       I    between atoms: C_22  and  N_20 
ROOT
ATOM      1  C   LIG d   1      -6.803  75.833 117.227  0.00  0.00     0.161 C 
ATOM      2  C   LIG d   1      -7.186  74.537 116.845  0.00  0.00     0.016 C 
ATOM      3  C   LIG d   1      -8.427  73.958 117.194  0.00  0.00     0.038 C 
ATOM      4  C   LIG d   1      -9.439  74.697 117.825  0.00  0.00     0.028 C 
ATOM      5  C   LIG d   1      -8.909  75.847 118.674  0.00  0.00    -0.047 C 
ATOM      6  C   LIG d   1      -7.937  76.694 117.821  0.00  0.00     0.091 C 
ENDROOT
BRANCH   1   7
ATOM      7  O   LIG d   1      -6.191  76.511 116.112  0.00  0.00    -0.368 OA
BRANCH   7   8
ATOM      8  C   LIG d   1      -4.762  76.729 116.204  0.00  0.00     0.119 C 
BRANCH   8   9
ATOM      9  C   LIG d   1      -4.096  75.923 115.072  0.00  0.00     0.028 C 
ATOM     10  C   LIG d   1      -5.094  75.524 113.971  0.00  0.00     0.006 C 
ENDBRANCH   8   9
BRANCH   8  11
ATOM     11  C   LIG d   1      -4.193  76.149 117.503  0.00  0.00     0.028 C 
ATOM     12  C   LIG d   1      -3.219  74.985 117.259  0.00  0.00     0.006 C 
ENDBRANCH   8  11
ENDBRANCH   7   8
ENDBRANCH   1   7
BRANCH   6  13
ATOM     13  N   LIG d   1      -7.308  77.792 118.600  0.00  0.00    -0.311 N 
ATOM     14  C   LIG d   1      -7.200  79.041 118.151  0.00  0.00     0.210 C 
ATOM     15  C   LIG d   1      -6.500  80.013 119.106  0.00  0.00     0.109 C 
ATOM     16  O   LIG d   1      -7.646  79.444 117.066  0.00  0.00    -0.276 OA
ATOM     17  H   LIG d   1      -6.947  77.561 119.505  0.00  0.00     0.149 HD
ENDBRANCH   6  13
BRANCH   5  18
ATOM     18  N   LIG d   1     -10.071  76.614 119.161  0.00  0.00     0.381 N 
ATOM     19  H   LIG d   1     -10.914  76.111 118.968  0.00  0.00    -0.090 HD
ATOM     20  H   LIG d   1     -10.109  77.491 118.672  0.00  0.00    -0.090 HD
ATOM     21  H   LIG d   1      -9.988  76.775 120.140  0.00  0.00    -0.090 HD
ENDBRANCH   5  18
BRANCH   3  22
ATOM     22  C   LIG d   1      -8.651  72.612 116.946  0.00  0.00     0.382 C 
ATOM     23  O   LIG d   1      -7.722  71.892 116.507  0.00  0.00    -0.241 OA
ATOM     24  O   LIG d   1      -9.783  72.119 117.114  0.00  0.00    -0.241 OA
ENDBRANCH   3  22
TORSDOF 7
ENDMDL
MODEL 6
REMARK VINA RESULT:      -5.1      2.672      5.103
REMARK  7 active torsions:
REMARK  status: ('A' for Active; 'I' for Inactive)
REMARK    1  A    between atoms: C_2  and  C_3 
REMARK    2  A    between atoms: C_3  and  O_6 
REMARK    3  A    between atoms: C_3  and  C_4 
REMARK    4  A    between atoms: C_7  and  O_6 
REMARK    5  A    between atoms: C_9  and  C_10 
REMARK    6  A    between atoms: N_15  and  C_14 
REMARK    7  A    between atoms: N_20  and  C_19 
REMARK       I    between atoms: C_22  and  N_20 
ROOT
ATOM      1  C   LIG d   1      -7.166  78.387 118.667  0.00  0.00     0.161 C 
ATOM      2  C   LIG d   1      -6.032  78.521 117.848  0.00  0.00     0.016 C 
ATOM      3  C   LIG d   1      -5.740  77.648 116.775  0.00  0.00     0.038 C 
ATOM      4  C   LIG d   1      -6.646  76.665 116.351  0.00  0.00     0.028 C 
ATOM      5  C   LIG d   1      -7.566  76.170 117.462  0.00  0.00    -0.047 C 
ATOM      6  C   LIG d   1      -8.222  77.388 118.150  0.00  0.00     0.091 C 
ENDROOT
BRANCH   1   7
ATOM      7  O   LIG d   1      -7.764  79.679 118.889  0.00  0.00    -0.368 OA
BRANCH   7   8
ATOM      8  C   LIG d   1      -8.418  80.284 117.746  0.00  0.00     0.119 C 
BRANCH   8   9
ATOM      9  C   LIG d   1      -7.773  81.665 117.521  0.00  0.00     0.028 C 
ATOM     10  C   LIG d   1      -7.213  82.270 118.819  0.00  0.00     0.006 C 
ENDBRANCH   8   9
BRANCH   8  11
ATOM     11  C   LIG d   1      -9.895  80.568 118.034  0.00  0.00     0.028 C 
ATOM     12  C   LIG d   1     -10.488  81.639 117.106  0.00  0.00     0.006 C 
ENDBRANCH   8  11
ENDBRANCH   7   8
ENDBRANCH   1   7
BRANCH   6  13
ATOM     13  N   LIG d   1      -9.073  76.997 119.304  0.00  0.00    -0.311 N 
ATOM     14  C   LIG d   1     -10.386  76.793 119.211  0.00  0.00     0.210 C 
ATOM     15  C   LIG d   1     -11.077  76.416 120.526  0.00  0.00     0.109 C 
ATOM     16  O   LIG d   1     -11.039  76.858 118.159  0.00  0.00    -0.276 OA
ATOM     17  H   LIG d   1      -8.619  76.892 120.191  0.00  0.00     0.149 HD
ENDBRANCH   6  13
BRANCH   5  18
ATOM     18  N   LIG d   1      -8.547  75.252 116.852  0.00  0.00     0.381 N 
ATOM     19  H   LIG d   1      -8.071  74.555 116.316  0.00  0.00    -0.090 HD
ATOM     20  H   LIG d   1      -9.141  75.776 116.233  0.00  0.00    -0.090 HD
ATOM     21  H   LIG d   1      -9.096  74.819 117.562  0.00  0.00    -0.090 HD
ENDBRANCH   5  18
BRANCH   3  22
ATOM     22  C   LIG d   1      -4.510  77.729 116.139  0.00  0.00     0.382 C 
ATOM     23  O   LIG d   1      -4.326  77.129 115.052  0.00  0.00    -0.241 OA
ATOM     24  O   LIG d   1      -3.570  78.357 116.660  0.00  0.00    -0.241 OA
ENDBRANCH   3  22
TORSDOF 7
ENDMDL
MODEL 7
REMARK VINA RESULT:      -5.0      2.114      5.129
REMARK  7 active torsions:
REMARK  status: ('A' for Active; 'I' for Inactive)
REMARK    1  A    between atoms: C_2  and  C_3 
REMARK    2  A    between atoms: C_3  and  O_6 
REMARK    3  A    between atoms: C_3  and  C_4 
REMARK    4  A    between atoms: C_7  and  O_6 
REMARK    5  A    between atoms: C_9  and  C_10 
REMARK    6  A    between atoms: N_15  and  C_14 
REMARK    7  A    between atoms: N_20  and  C_19 
REMARK       I    between atoms: C_22  and  N_20 
ROOT
ATOM      1  C   LIG d   1      -7.203  76.358 117.392  0.00  0.00     0.161 C 
ATOM      2  C   LIG d   1      -7.362  75.017 117.004  0.00  0.00     0.016 C 
ATOM      3  C   LIG d   1      -8.582  74.312 117.124  0.00  0.00     0.038 C 
ATOM      4  C   LIG d   1      -9.773  74.950 117.502  0.00  0.00     0.028 C 
ATOM      5  C   LIG d   1      -9.551  76.174 118.383  0.00  0.00    -0.047 C 
ATOM      6  C   LIG d   1      -8.519  77.102 117.702  0.00  0.00     0.091 C 
ENDROOT
BRANCH   1   7
ATOM      7  O   LIG d   1      -6.449  77.070 116.390  0.00  0.00    -0.368 OA
BRANCH   7   8
ATOM      8  C   LIG d   1      -5.091  77.426 116.748  0.00  0.00     0.119 C 
BRANCH   8   9
ATOM      9  C   LIG d   1      -5.045  78.955 116.927  0.00  0.00     0.028 C 
ATOM     10  C   LIG d   1      -4.775  79.368 118.383  0.00  0.00     0.006 C 
ENDBRANCH   8   9
BRANCH   8  11
ATOM     11  C   LIG d   1      -4.116  77.121 115.607  0.00  0.00     0.028 C 
ATOM     12  C   LIG d   1      -2.987  78.158 115.495  0.00  0.00     0.006 C 
ENDBRANCH   8  11
ENDBRANCH   7   8
ENDBRANCH   1   7
BRANCH   6  13
ATOM     13  N   LIG d   1      -8.181  78.284 118.537  0.00  0.00    -0.311 N 
ATOM     14  C   LIG d   1      -8.857  79.430 118.493  0.00  0.00     0.210 C 
ATOM     15  C   LIG d   1      -8.330  80.528 119.422  0.00  0.00     0.109 C 
ATOM     16  O   LIG d   1      -9.863  79.632 117.796  0.00  0.00    -0.276 OA
ATOM     17  H   LIG d   1      -7.398  78.197 119.155  0.00  0.00     0.149 HD
ENDBRANCH   6  13
BRANCH   5  18
ATOM     18  N   LIG d   1     -10.862  76.819 118.587  0.00  0.00     0.381 N 
ATOM     19  H   LIG d   1     -10.731  77.753 118.922  0.00  0.00    -0.090 HD
ATOM     20  H   LIG d   1     -11.373  76.304 119.282  0.00  0.00    -0.090 HD
ATOM     21  H   LIG d   1     -11.372  76.834 117.732  0.00  0.00    -0.090 HD
ENDBRANCH   5  18
BRANCH   3  22
ATOM     22  C   LIG d   1      -8.609  72.943 116.902  0.00  0.00     0.382 C 
ATOM     23  O   LIG d   1      -9.660  72.294 117.119  0.00  0.00    -0.241 OA
ATOM     24  O   LIG d   1      -7.583  72.343 116.530  0.00  0.00    -0.241 OA
ENDBRANCH   3  22
TORSDOF 7
ENDMDL
MODEL 8
REMARK VINA RESULT:      -4.8      2.532      5.289
REMARK  7 active torsions:
REMARK  status: ('A' for Active; 'I' for Inactive)
REMARK    1  A    between atoms: C_2  and  C_3 
REMARK    2  A    between atoms: C_3  and  O_6 
REMARK    3  A    between atoms: C_3  and  C_4 
REMARK    4  A    between atoms: C_7  and  O_6 
REMARK    5  A    between atoms: C_9  and  C_10 
REMARK    6  A    between atoms: N_15  and  C_14 
REMARK    7  A    between atoms: N_20  and  C_19 
REMARK       I    between atoms: C_22  and  N_20 
ROOT
ATOM      1  C   LIG d   1      -7.387  77.798 118.007  0.00  0.00     0.161 C 
ATOM      2  C   LIG d   1      -7.444  79.136 117.582  0.00  0.00     0.016 C 
ATOM      3  C   LIG d   1      -8.568  79.970 117.786  0.00  0.00     0.038 C 
ATOM      4  C   LIG d   1      -9.659  79.565 118.569  0.00  0.00     0.028 C 
ATOM      5  C   LIG d   1      -9.862  78.054 118.590  0.00  0.00    -0.047 C 
ATOM      6  C   LIG d   1      -8.524  77.374 118.960  0.00  0.00     0.091 C 
ENDROOT
BRANCH   1   7
ATOM      7  O   LIG d   1      -6.104  77.531 118.607  0.00  0.00    -0.368 OA
BRANCH   7   8
ATOM      8  C   LIG d   1      -5.197  76.710 117.833  0.00  0.00     0.119 C 
BRANCH   8   9
ATOM      9  C   LIG d   1      -3.917  77.534 117.592  0.00  0.00     0.028 C 
ATOM     10  C   LIG d   1      -3.995  78.375 116.307  0.00  0.00     0.006 C 
ENDBRANCH   8   9
BRANCH   8  11
ATOM     11  C   LIG d   1      -5.760  76.419 116.439  0.00  0.00     0.028 C 
ATOM     12  C   LIG d   1      -5.737  74.923 116.087  0.00  0.00     0.006 C 
ENDBRANCH   8  11
ENDBRANCH   7   8
ENDBRANCH   1   7
BRANCH   6  13
ATOM     13  N   LIG d   1      -8.612  75.890 118.921  0.00  0.00    -0.311 N 
ATOM     14  C   LIG d   1      -8.994  75.207 117.844  0.00  0.00     0.210 C 
ATOM     15  C   LIG d   1      -9.036  73.686 118.024  0.00  0.00     0.109 C 
ATOM     16  O   LIG d   1      -9.272  75.713 116.746  0.00  0.00    -0.276 OA
ATOM     17  H   LIG d   1      -8.375  75.397 119.760  0.00  0.00     0.149 HD
ENDBRANCH   6  13
BRANCH   5  18
ATOM     18  N   LIG d   1     -10.943  77.763 119.550  0.00  0.00     0.381 N 
ATOM     19  H   LIG d   1     -11.352  76.874 119.340  0.00  0.00    -0.090 HD
ATOM     20  H   LIG d   1     -11.655  78.466 119.460  0.00  0.00    -0.090 HD
ATOM     21  H   LIG d   1     -10.583  77.760 120.479  0.00  0.00    -0.090 HD
ENDBRANCH   5  18
BRANCH   3  22
ATOM     22  C   LIG d   1      -8.623  81.211 117.170  0.00  0.00     0.382 C 
ATOM     23  O   LIG d   1      -9.661  81.910 117.260  0.00  0.00    -0.241 OA
ATOM     24  O   LIG d   1      -7.665  81.621 116.488  0.00  0.00    -0.241 OA
ENDBRANCH   3  22
TORSDOF 7
ENDMDL
MODEL 9
REMARK VINA RESULT:      -4.8     13.682     16.020
REMARK  7 active torsions:
REMARK  status: ('A' for Active; 'I' for Inactive)
REMARK    1  A    between atoms: C_2  and  C_3 
REMARK    2  A    between atoms: C_3  and  O_6 
REMARK    3  A    between atoms: C_3  and  C_4 
REMARK    4  A    between atoms: C_7  and  O_6 
REMARK    5  A    between atoms: C_9  and  C_10 
REMARK    6  A    between atoms: N_15  and  C_14 
REMARK    7  A    between atoms: N_20  and  C_19 
REMARK       I    between atoms: C_22  and  N_20 
ROOT
ATOM      1  C   LIG d   1       1.275  87.443 116.658  0.00  0.00     0.161 C 
ATOM      2  C   LIG d   1      -0.092  87.410 116.980  0.00  0.00     0.016 C 
ATOM      3  C   LIG d   1      -0.764  88.469 117.633  0.00  0.00     0.038 C 
ATOM      4  C   LIG d   1      -0.143  89.703 117.877  0.00  0.00     0.028 C 
ATOM      5  C   LIG d   1       1.372  89.600 118.025  0.00  0.00    -0.047 C 
ATOM      6  C   LIG d   1       1.943  88.825 116.816  0.00  0.00     0.091 C 
ENDROOT
BRANCH   1   7
ATOM      7  O   LIG d   1       1.475  86.939 115.323  0.00  0.00    -0.368 OA
BRANCH   7   8
ATOM      8  C   LIG d   1       1.912  85.561 115.220  0.00  0.00     0.119 C 
BRANCH   8   9
ATOM      9  C   LIG d   1       3.423  85.577 114.914  0.00  0.00     0.028 C 
ATOM     10  C   LIG d   1       4.271  85.136 116.119  0.00  0.00     0.006 C 
ENDBRANCH   8   9
BRANCH   8  11
ATOM     11  C   LIG d   1       1.263  84.858 114.025  0.00  0.00     0.028 C 
ATOM     12  C   LIG d   1       1.803  83.436 113.805  0.00  0.00     0.006 C 
ENDBRANCH   8  11
ENDBRANCH   7   8
ENDBRANCH   1   7
BRANCH   6  13
ATOM     13  N   LIG d   1       3.409  88.606 116.924  0.00  0.00    -0.311 N 
ATOM     14  C   LIG d   1       4.281  89.007 116.000  0.00  0.00     0.210 C 
ATOM     15  C   LIG d   1       5.743  88.663 116.299  0.00  0.00     0.109 C 
ATOM     16  O   LIG d   1       3.985  89.644 114.978  0.00  0.00    -0.276 OA
ATOM     17  H   LIG d   1       3.739  88.124 117.738  0.00  0.00     0.149 HD
ENDBRANCH   6  13
BRANCH   5  18
ATOM     18  N   LIG d   1       1.903  90.971 118.137  0.00  0.00     0.381 N 
ATOM     19  H   LIG d   1       1.155  91.611 118.314  0.00  0.00    -0.090 HD
ATOM     20  H   LIG d   1       2.334  91.225 117.265  0.00  0.00    -0.090 HD
ATOM     21  H   LIG d   1       2.572  91.019 118.873  0.00  0.00    -0.090 HD
ENDBRANCH   5  18
BRANCH   3  22
ATOM     22  C   LIG d   1      -2.061  88.284 118.087  0.00  0.00     0.382 C 
ATOM     23  O   LIG d   1      -2.282  87.520 119.058  0.00  0.00    -0.241 OA
ATOM     24  O   LIG d   1      -3.017  88.836 117.510  0.00  0.00    -0.241 OA
ENDBRANCH   3  22
TORSDOF 7
ENDMDL
