MODEL 1
REMARK VINA RESULT:      -5.4      0.000      0.000
REMARK  7 active torsions:
REMARK  status: ('A' for Active; 'I' for Inactive)
REMARK    1  A    between atoms: C_2  and  C_3 
REMARK    2  A    between atoms: C_3  and  O_6 
REMARK    3  A    between atoms: C_3  and  C_4 
REMARK    4  A    between atoms: C_7  and  O_6 
REMARK    5  A    between atoms: C_9  and  C_10 
REMARK    6  A    between atoms: N_15  and  C_14 
REMARK    7  A    between atoms: N_20  and  C_19 
REMARK       I    between atoms: C_22  and  N_20 
ROOT
ATOM      1  C   LIG d   1      -4.554  92.010 117.295  0.00  0.00     0.161 C 
ATOM      2  C   LIG d   1      -4.163  92.783 118.401  0.00  0.00     0.016 C 
ATOM      3  C   LIG d   1      -5.068  93.541 119.179  0.00  0.00     0.038 C 
ATOM      4  C   LIG d   1      -6.456  93.456 118.994  0.00  0.00     0.028 C 
ATOM      5  C   LIG d   1      -6.856  93.084 117.571  0.00  0.00    -0.047 C 
ATOM      6  C   LIG d   1      -6.077  91.818 117.146  0.00  0.00     0.091 C 
ENDROOT
BRANCH   1   7
ATOM      7  O   LIG d   1      -3.889  90.732 117.332  0.00  0.00    -0.368 OA
BRANCH   7   8
ATOM      8  C   LIG d   1      -2.953  90.532 118.420  0.00  0.00     0.119 C 
BRANCH   8   9
ATOM      9  C   LIG d   1      -1.599  90.135 117.799  0.00  0.00     0.028 C 
ATOM     10  C   LIG d   1      -0.499  91.174 118.077  0.00  0.00     0.006 C 
ENDBRANCH   8   9
BRANCH   8  11
ATOM     11  C   LIG d   1      -3.361  89.344 119.295  0.00  0.00     0.028 C 
ATOM     12  C   LIG d   1      -2.218  88.338 119.506  0.00  0.00     0.006 C 
ENDBRANCH   8  11
ENDBRANCH   7   8
ENDBRANCH   1   7
BRANCH   6  13
ATOM     13  N   LIG d   1      -6.346  91.434 115.735  0.00  0.00    -0.311 N 
ATOM     14  C   LIG d   1      -7.348  90.634 115.372  0.00  0.00     0.210 C 
ATOM     15  C   LIG d   1      -7.435  90.350 113.869  0.00  0.00     0.109 C 
ATOM     16  O   LIG d   1      -8.192  90.160 116.147  0.00  0.00    -0.276 OA
ATOM     17  H   LIG d   1      -5.729  91.799 115.037  0.00  0.00     0.149 HD
ENDBRANCH   6  13
BRANCH   5  18
ATOM     18  N   LIG d   1      -8.319  92.896 117.553  0.00  0.00     0.381 N 
ATOM     19  H   LIG d   1      -8.758  93.602 118.111  0.00  0.00    -0.090 HD
ATOM     20  H   LIG d   1      -8.536  91.999 117.951  0.00  0.00    -0.090 HD
ATOM     21  H   LIG d   1      -8.658  92.943 116.618  0.00  0.00    -0.090 HD
ENDBRANCH   5  18
BRANCH   3  22
ATOM     22  C   LIG d   1      -4.583  94.425 120.130  0.00  0.00     0.382 C 
ATOM     23  O   LIG d   1      -5.314  95.352 120.555  0.00  0.00    -0.241 OA
ATOM     24  O   LIG d   1      -3.409  94.335 120.537  0.00  0.00    -0.241 OA
ENDBRANCH   3  22
TORSDOF 7
ENDMDL
MODEL 2
REMARK VINA RESULT:      -5.2     12.401     14.899
REMARK  7 active torsions:
REMARK  status: ('A' for Active; 'I' for Inactive)
REMARK    1  A    between atoms: C_2  and  C_3 
REMARK    2  A    between atoms: C_3  and  O_6 
REMARK    3  A    between atoms: C_3  and  C_4 
REMARK    4  A    between atoms: C_7  and  O_6 
REMARK    5  A    between atoms: C_9  and  C_10 
REMARK    6  A    between atoms: N_15  and  C_14 
REMARK    7  A    between atoms: N_20  and  C_19 
REMARK       I    between atoms: C_22  and  N_20 
ROOT
ATOM      1  C   LIG d   1      -5.749  77.316 117.251  0.00  0.00     0.161 C 
ATOM      2  C   LIG d   1      -6.854  78.118 117.582  0.00  0.00     0.016 C 
ATOM      3  C   LIG d   1      -6.745  79.477 117.956  0.00  0.00     0.038 C 
ATOM      4  C   LIG d   1      -5.529  80.172 117.878  0.00  0.00     0.028 C 
ATOM      5  C   LIG d   1      -4.306  79.275 118.034  0.00  0.00    -0.047 C 
ATOM      6  C   LIG d   1      -4.427  78.087 117.052  0.00  0.00     0.091 C 
ENDROOT
BRANCH   1   7
ATOM      7  O   LIG d   1      -6.050  76.528 116.082  0.00  0.00    -0.368 OA
BRANCH   7   8
ATOM      8  C   LIG d   1      -5.563  75.164 116.091  0.00  0.00     0.119 C 
BRANCH   8   9
ATOM      9  C   LIG d   1      -4.831  74.925 114.756  0.00  0.00     0.028 C 
ATOM     10  C   LIG d   1      -4.816  76.176 113.863  0.00  0.00     0.006 C 
ENDBRANCH   8   9
BRANCH   8  11
ATOM     11  C   LIG d   1      -6.720  74.160 116.104  0.00  0.00     0.028 C 
ATOM     12  C   LIG d   1      -6.280  72.738 115.720  0.00  0.00     0.006 C 
ENDBRANCH   8  11
ENDBRANCH   7   8
ENDBRANCH   1   7
BRANCH   6  13
ATOM     13  N   LIG d   1      -3.313  77.115 117.198  0.00  0.00    -0.311 N 
ATOM     14  C   LIG d   1      -2.235  77.111 116.416  0.00  0.00     0.210 C 
ATOM     15  C   LIG d   1      -1.215  76.011 116.725  0.00  0.00     0.109 C 
ATOM     16  O   LIG d   1      -2.012  77.935 115.516  0.00  0.00    -0.276 OA
ATOM     17  H   LIG d   1      -3.397  76.431 117.924  0.00  0.00     0.149 HD
ENDBRANCH   6  13
BRANCH   5  18
ATOM     18  N   LIG d   1      -3.111  80.104 117.794  0.00  0.00     0.381 N 
ATOM     19  H   LIG d   1      -2.294  79.527 117.786  0.00  0.00    -0.090 HD
ATOM     20  H   LIG d   1      -3.020  80.768 118.543  0.00  0.00    -0.090 HD
ATOM     21  H   LIG d   1      -3.197  80.583 116.925  0.00  0.00    -0.090 HD
ENDBRANCH   5  18
BRANCH   3  22
ATOM     22  C   LIG d   1      -7.854  80.144 118.454  0.00  0.00     0.382 C 
ATOM     23  O   LIG d   1      -7.704  81.150 119.187  0.00  0.00    -0.241 OA
ATOM     24  O   LIG d   1      -9.003  79.725 118.214  0.00  0.00    -0.241 OA
ENDBRANCH   3  22
TORSDOF 7
ENDMDL
MODEL 3
REMARK VINA RESULT:      -5.1      2.640      6.589
REMARK  7 active torsions:
REMARK  status: ('A' for Active; 'I' for Inactive)
REMARK    1  A    between atoms: C_2  and  C_3 
REMARK    2  A    between atoms: C_3  and  O_6 
REMARK    3  A    between atoms: C_3  and  C_4 
REMARK    4  A    between atoms: C_7  and  O_6 
REMARK    5  A    between atoms: C_9  and  C_10 
REMARK    6  A    between atoms: N_15  and  C_14 
REMARK    7  A    between atoms: N_20  and  C_19 
REMARK       I    between atoms: C_22  and  N_20 
ROOT
ATOM      1  C   LIG d   1      -6.485  93.407 118.024  0.00  0.00     0.161 C 
ATOM      2  C   LIG d   1      -7.363  92.679 117.205  0.00  0.00     0.016 C 
ATOM      3  C   LIG d   1      -6.976  91.530 116.478  0.00  0.00     0.038 C 
ATOM      4  C   LIG d   1      -5.715  90.938 116.642  0.00  0.00     0.028 C 
ATOM      5  C   LIG d   1      -4.635  91.926 117.071  0.00  0.00    -0.047 C 
ATOM      6  C   LIG d   1      -5.135  92.713 118.303  0.00  0.00     0.091 C 
ENDROOT
BRANCH   1   7
ATOM      7  O   LIG d   1      -7.140  93.745 119.263  0.00  0.00    -0.368 OA
BRANCH   7   8
ATOM      8  C   LIG d   1      -7.202  95.155 119.588  0.00  0.00     0.119 C 
BRANCH   8   9
ATOM      9  C   LIG d   1      -8.385  95.356 120.555  0.00  0.00     0.028 C 
ATOM     10  C   LIG d   1      -9.744  95.106 119.880  0.00  0.00     0.006 C 
ENDBRANCH   8   9
BRANCH   8  11
ATOM     11  C   LIG d   1      -7.539  95.997 118.354  0.00  0.00     0.028 C 
ATOM     12  C   LIG d   1      -7.013  97.437 118.452  0.00  0.00     0.006 C 
ENDBRANCH   8  11
ENDBRANCH   7   8
ENDBRANCH   1   7
BRANCH   6  13
ATOM     13  N   LIG d   1      -4.172  93.760 118.736  0.00  0.00    -0.311 N 
ATOM     14  C   LIG d   1      -3.253  93.565 119.680  0.00  0.00     0.210 C 
ATOM     15  C   LIG d   1      -2.375  94.781 119.988  0.00  0.00     0.109 C 
ATOM     16  O   LIG d   1      -3.060  92.490 120.268  0.00  0.00    -0.276 OA
ATOM     17  H   LIG d   1      -4.238  94.653 118.288  0.00  0.00     0.149 HD
ENDBRANCH   6  13
BRANCH   5  18
ATOM     18  N   LIG d   1      -3.406  91.154 117.338  0.00  0.00     0.381 N 
ATOM     19  H   LIG d   1      -2.813  91.665 117.960  0.00  0.00    -0.090 HD
ATOM     20  H   LIG d   1      -2.913  91.018 116.473  0.00  0.00    -0.090 HD
ATOM     21  H   LIG d   1      -3.638  90.271 117.738  0.00  0.00    -0.090 HD
ENDBRANCH   5  18
BRANCH   3  22
ATOM     22  C   LIG d   1      -7.844  90.982 115.545  0.00  0.00     0.382 C 
ATOM     23  O   LIG d   1      -8.186  89.779 115.637  0.00  0.00    -0.241 OA
ATOM     24  O   LIG d   1      -8.254  91.665 114.587  0.00  0.00    -0.241 OA
ENDBRANCH   3  22
TORSDOF 7
ENDMDL
MODEL 4
REMARK VINA RESULT:      -4.9      2.594      6.147
REMARK  7 active torsions:
REMARK  status: ('A' for Active; 'I' for Inactive)
REMARK    1  A    between atoms: C_2  and  C_3 
REMARK    2  A    between atoms: C_3  and  O_6 
REMARK    3  A    between atoms: C_3  and  C_4 
REMARK    4  A    between atoms: C_7  and  O_6 
REMARK    5  A    between atoms: C_9  and  C_10 
REMARK    6  A    between atoms: N_15  and  C_14 
REMARK    7  A    between atoms: N_20  and  C_19 
REMARK       I    between atoms: C_22  and  N_20 
ROOT
ATOM      1  C   LIG d   1      -5.962  93.106 118.418  0.00  0.00     0.161 C 
ATOM      2  C   LIG d   1      -6.793  92.819 117.322  0.00  0.00     0.016 C 
ATOM      3  C   LIG d   1      -6.471  91.863 116.331  0.00  0.00     0.038 C 
ATOM      4  C   LIG d   1      -5.359  91.015 116.452  0.00  0.00     0.028 C 
ATOM      5  C   LIG d   1      -4.227  91.616 117.279  0.00  0.00    -0.047 C 
ATOM      6  C   LIG d   1      -4.799  92.114 118.626  0.00  0.00     0.091 C 
ENDROOT
BRANCH   1   7
ATOM      7  O   LIG d   1      -6.755  93.208 119.617  0.00  0.00    -0.368 OA
BRANCH   7   8
ATOM      8  C   LIG d   1      -6.953  94.546 120.138  0.00  0.00     0.119 C 
BRANCH   8   9
ATOM      9  C   LIG d   1      -8.346  95.020 119.679  0.00  0.00     0.028 C 
ATOM     10  C   LIG d   1      -8.269  96.043 118.533  0.00  0.00     0.006 C 
ENDBRANCH   8   9
BRANCH   8  11
ATOM     11  C   LIG d   1      -5.963  95.537 119.520  0.00  0.00     0.028 C 
ATOM     12  C   LIG d   1      -4.998  96.138 120.554  0.00  0.00     0.006 C 
ENDBRANCH   8  11
ENDBRANCH   7   8
ENDBRANCH   1   7
BRANCH   6  13
ATOM     13  N   LIG d   1      -3.774  92.791 119.462  0.00  0.00    -0.311 N 
ATOM     14  C   LIG d   1      -2.785  93.527 118.956  0.00  0.00     0.210 C 
ATOM     15  C   LIG d   1      -1.826  94.120 119.992  0.00  0.00     0.109 C 
ATOM     16  O   LIG d   1      -2.631  93.771 117.750  0.00  0.00    -0.276 OA
ATOM     17  H   LIG d   1      -3.843  92.672 120.453  0.00  0.00     0.149 HD
ENDBRANCH   6  13
BRANCH   5  18
ATOM     18  N   LIG d   1      -3.193  90.576 117.439  0.00  0.00     0.381 N 
ATOM     19  H   LIG d   1      -2.887  90.547 118.391  0.00  0.00    -0.090 HD
ATOM     20  H   LIG d   1      -2.404  90.811 116.862  0.00  0.00    -0.090 HD
ATOM     21  H   LIG d   1      -3.557  89.688 117.172  0.00  0.00    -0.090 HD
ENDBRANCH   5  18
BRANCH   3  22
ATOM     22  C   LIG d   1      -7.244  91.774 115.184  0.00  0.00     0.382 C 
ATOM     23  O   LIG d   1      -8.350  91.183 115.217  0.00  0.00    -0.241 OA
ATOM     24  O   LIG d   1      -6.830  92.240 114.105  0.00  0.00    -0.241 OA
ENDBRANCH   3  22
TORSDOF 7
ENDMDL
MODEL 5
REMARK VINA RESULT:      -4.6     12.863     15.683
REMARK  7 active torsions:
REMARK  status: ('A' for Active; 'I' for Inactive)
REMARK    1  A    between atoms: C_2  and  C_3 
REMARK    2  A    between atoms: C_3  and  O_6 
REMARK    3  A    between atoms: C_3  and  C_4 
REMARK    4  A    between atoms: C_7  and  O_6 
REMARK    5  A    between atoms: C_9  and  C_10 
REMARK    6  A    between atoms: N_15  and  C_14 
REMARK    7  A    between atoms: N_20  and  C_19 
REMARK       I    between atoms: C_22  and  N_20 
ROOT
ATOM      1  C   LIG d   1      -2.783  77.071 117.092  0.00  0.00     0.161 C 
ATOM      2  C   LIG d   1      -1.631  77.796 117.437  0.00  0.00     0.016 C 
ATOM      3  C   LIG d   1      -0.334  77.459 116.984  0.00  0.00     0.038 C 
ATOM      4  C   LIG d   1      -0.121  76.456 116.027  0.00  0.00     0.028 C 
ATOM      5  C   LIG d   1      -1.193  75.371 116.037  0.00  0.00    -0.047 C 
ATOM      6  C   LIG d   1      -2.584  76.041 115.960  0.00  0.00     0.091 C 
ENDROOT
BRANCH   1   7
ATOM      7  O   LIG d   1      -3.851  77.980 116.760  0.00  0.00    -0.368 OA
BRANCH   7   8
ATOM      8  C   LIG d   1      -4.478  78.661 117.875  0.00  0.00     0.119 C 
BRANCH   8   9
ATOM      9  C   LIG d   1      -5.774  77.900 118.214  0.00  0.00     0.028 C 
ATOM     10  C   LIG d   1      -6.536  77.450 116.956  0.00  0.00     0.006 C 
ENDBRANCH   8   9
BRANCH   8  11
ATOM     11  C   LIG d   1      -4.927  80.072 117.484  0.00  0.00     0.028 C 
ATOM     12  C   LIG d   1      -5.670  80.796 118.617  0.00  0.00     0.006 C 
ENDBRANCH   8  11
ENDBRANCH   7   8
ENDBRANCH   1   7
BRANCH   6  13
ATOM     13  N   LIG d   1      -3.693  75.055 116.049  0.00  0.00    -0.311 N 
ATOM     14  C   LIG d   1      -4.604  74.888 115.092  0.00  0.00     0.210 C 
ATOM     15  C   LIG d   1      -5.673  73.833 115.394  0.00  0.00     0.109 C 
ATOM     16  O   LIG d   1      -4.610  75.491 114.009  0.00  0.00    -0.276 OA
ATOM     17  H   LIG d   1      -3.745  74.501 116.882  0.00  0.00     0.149 HD
ENDBRANCH   6  13
BRANCH   5  18
ATOM     18  N   LIG d   1      -0.923  74.468 114.903  0.00  0.00     0.381 N 
ATOM     19  H   LIG d   1      -1.706  73.861 114.759  0.00  0.00    -0.090 HD
ATOM     20  H   LIG d   1      -0.122  73.902 115.122  0.00  0.00    -0.090 HD
ATOM     21  H   LIG d   1      -0.748  74.998 114.078  0.00  0.00    -0.090 HD
ENDBRANCH   5  18
BRANCH   3  22
ATOM     22  C   LIG d   1       0.770  78.103 117.521  0.00  0.00     0.382 C 
ATOM     23  O   LIG d   1       0.674  79.291 117.914  0.00  0.00    -0.241 OA
ATOM     24  O   LIG d   1       1.873  77.526 117.577  0.00  0.00    -0.241 OA
ENDBRANCH   3  22
TORSDOF 7
ENDMDL
MODEL 6
REMARK VINA RESULT:      -4.5      2.168      5.184
REMARK  7 active torsions:
REMARK  status: ('A' for Active; 'I' for Inactive)
REMARK    1  A    between atoms: C_2  and  C_3 
REMARK    2  A    between atoms: C_3  and  O_6 
REMARK    3  A    between atoms: C_3  and  C_4 
REMARK    4  A    between atoms: C_7  and  O_6 
REMARK    5  A    between atoms: C_9  and  C_10 
REMARK    6  A    between atoms: N_15  and  C_14 
REMARK    7  A    between atoms: N_20  and  C_19 
REMARK       I    between atoms: C_22  and  N_20 
ROOT
ATOM      1  C   LIG d   1      -5.250  93.162 119.939  0.00  0.00     0.161 C 
ATOM      2  C   LIG d   1      -4.230  92.299 119.503  0.00  0.00     0.016 C 
ATOM      3  C   LIG d   1      -4.247  91.646 118.250  0.00  0.00     0.038 C 
ATOM      4  C   LIG d   1      -5.217  91.930 117.278  0.00  0.00     0.028 C 
ATOM      5  C   LIG d   1      -6.540  92.410 117.866  0.00  0.00    -0.047 C 
ATOM      6  C   LIG d   1      -6.261  93.571 118.848  0.00  0.00     0.091 C 
ENDROOT
BRANCH   1   7
ATOM      7  O   LIG d   1      -4.672  94.332 120.551  0.00  0.00    -0.368 OA
BRANCH   7   8
ATOM      8  C   LIG d   1      -4.391  95.442 119.663  0.00  0.00     0.119 C 
BRANCH   8   9
ATOM      9  C   LIG d   1      -2.867  95.673 119.680  0.00  0.00     0.028 C 
ATOM     10  C   LIG d   1      -2.184  95.178 118.394  0.00  0.00     0.006 C 
ENDBRANCH   8   9
BRANCH   8  11
ATOM     11  C   LIG d   1      -5.004  96.744 120.187  0.00  0.00     0.028 C 
ATOM     12  C   LIG d   1      -5.254  97.774 119.075  0.00  0.00     0.006 C 
ENDBRANCH   8  11
ENDBRANCH   7   8
ENDBRANCH   1   7
BRANCH   6  13
ATOM     13  N   LIG d   1      -7.493  94.044 119.531  0.00  0.00    -0.311 N 
ATOM     14  C   LIG d   1      -8.217  95.077 119.105  0.00  0.00     0.210 C 
ATOM     15  C   LIG d   1      -9.439  95.410 119.968  0.00  0.00     0.109 C 
ATOM     16  O   LIG d   1      -7.982  95.729 118.077  0.00  0.00    -0.276 OA
ATOM     17  H   LIG d   1      -7.774  93.552 120.357  0.00  0.00     0.149 HD
ENDBRANCH   6  13
BRANCH   5  18
ATOM     18  N   LIG d   1      -7.412  92.801 116.742  0.00  0.00     0.381 N 
ATOM     19  H   LIG d   1      -6.936  92.647 115.875  0.00  0.00    -0.090 HD
ATOM     20  H   LIG d   1      -7.620  93.782 116.817  0.00  0.00    -0.090 HD
ATOM     21  H   LIG d   1      -8.256  92.273 116.764  0.00  0.00    -0.090 HD
ENDBRANCH   5  18
BRANCH   3  22
ATOM     22  C   LIG d   1      -3.306  90.665 117.973  0.00  0.00     0.382 C 
ATOM     23  O   LIG d   1      -3.626  89.454 118.036  0.00  0.00    -0.241 OA
ATOM     24  O   LIG d   1      -2.130  90.976 117.705  0.00  0.00    -0.241 OA
ENDBRANCH   3  22
TORSDOF 7
ENDMDL
MODEL 7
REMARK VINA RESULT:      -4.5      3.284      5.073
REMARK  7 active torsions:
REMARK  status: ('A' for Active; 'I' for Inactive)
REMARK    1  A    between atoms: C_2  and  C_3 
REMARK    2  A    between atoms: C_3  and  O_6 
REMARK    3  A    between atoms: C_3  and  C_4 
REMARK    4  A    between atoms: C_7  and  O_6 
REMARK    5  A    between atoms: C_9  and  C_10 
REMARK    6  A    between atoms: N_15  and  C_14 
REMARK    7  A    between atoms: N_20  and  C_19 
REMARK       I    between atoms: C_22  and  N_20 
ROOT
ATOM      1  C   LIG d   1      -0.818  91.510 118.159  0.00  0.00     0.161 C 
ATOM      2  C   LIG d   1       0.503  91.907 118.423  0.00  0.00     0.016 C 
ATOM      3  C   LIG d   1       0.906  93.259 118.516  0.00  0.00     0.038 C 
ATOM      4  C   LIG d   1      -0.022  94.311 118.499  0.00  0.00     0.028 C 
ATOM      5  C   LIG d   1      -1.297  93.983 117.730  0.00  0.00    -0.047 C 
ATOM      6  C   LIG d   1      -1.864  92.641 118.248  0.00  0.00     0.091 C 
ENDROOT
BRANCH   1   7
ATOM      7  O   LIG d   1      -1.184  90.419 119.028  0.00  0.00    -0.368 OA
BRANCH   7   8
ATOM      8  C   LIG d   1      -1.638  89.208 118.374  0.00  0.00     0.119 C 
BRANCH   8   9
ATOM      9  C   LIG d   1      -2.990  88.822 119.004  0.00  0.00     0.028 C 
ATOM     10  C   LIG d   1      -2.829  87.868 120.200  0.00  0.00     0.006 C 
ENDBRANCH   8   9
BRANCH   8  11
ATOM     11  C   LIG d   1      -0.702  88.032 118.669  0.00  0.00     0.028 C 
ATOM     12  C   LIG d   1       0.326  87.794 117.552  0.00  0.00     0.006 C 
ENDBRANCH   8  11
ENDBRANCH   7   8
ENDBRANCH   1   7
BRANCH   6  13
ATOM     13  N   LIG d   1      -3.065  92.203 117.491  0.00  0.00    -0.311 N 
ATOM     14  C   LIG d   1      -4.312  92.411 117.912  0.00  0.00     0.210 C 
ATOM     15  C   LIG d   1      -5.405  91.861 116.990  0.00  0.00     0.109 C 
ATOM     16  O   LIG d   1      -4.617  93.026 118.944  0.00  0.00    -0.276 OA
ATOM     17  H   LIG d   1      -2.910  91.723 116.626  0.00  0.00     0.149 HD
ENDBRANCH   6  13
BRANCH   5  18
ATOM     18  N   LIG d   1      -2.229  95.112 117.910  0.00  0.00     0.381 N 
ATOM     19  H   LIG d   1      -2.625  95.368 117.028  0.00  0.00    -0.090 HD
ATOM     20  H   LIG d   1      -1.720  95.900 118.268  0.00  0.00    -0.090 HD
ATOM     21  H   LIG d   1      -2.953  94.858 118.546  0.00  0.00    -0.090 HD
ENDBRANCH   5  18
BRANCH   3  22
ATOM     22  C   LIG d   1       2.255  93.571 118.586  0.00  0.00     0.382 C 
ATOM     23  O   LIG d   1       2.722  94.101 119.623  0.00  0.00    -0.241 OA
ATOM     24  O   LIG d   1       3.002  93.371 117.610  0.00  0.00    -0.241 OA
ENDBRANCH   3  22
TORSDOF 7
ENDMDL
MODEL 8
REMARK VINA RESULT:      -4.4     13.309     16.297
REMARK  7 active torsions:
REMARK  status: ('A' for Active; 'I' for Inactive)
REMARK    1  A    between atoms: C_2  and  C_3 
REMARK    2  A    between atoms: C_3  and  O_6 
REMARK    3  A    between atoms: C_3  and  C_4 
REMARK    4  A    between atoms: C_7  and  O_6 
REMARK    5  A    between atoms: C_9  and  C_10 
REMARK    6  A    between atoms: N_15  and  C_14 
REMARK    7  A    between atoms: N_20  and  C_19 
REMARK       I    between atoms: C_22  and  N_20 
ROOT
ATOM      1  C   LIG d   1      -1.199  77.692 116.054  0.00  0.00     0.161 C 
ATOM      2  C   LIG d   1      -2.455  77.473 115.465  0.00  0.00     0.016 C 
ATOM      3  C   LIG d   1      -2.944  76.189 115.131  0.00  0.00     0.038 C 
ATOM      4  C   LIG d   1      -2.269  75.018 115.505  0.00  0.00     0.028 C 
ATOM      5  C   LIG d   1      -0.763  75.207 115.649  0.00  0.00    -0.047 C 
ATOM      6  C   LIG d   1      -0.496  76.420 116.570  0.00  0.00     0.091 C 
ENDROOT
BRANCH   1   7
ATOM      7  O   LIG d   1      -1.319  78.663 117.113  0.00  0.00    -0.368 OA
BRANCH   7   8
ATOM      8  C   LIG d   1      -1.714  78.148 118.408  0.00  0.00     0.119 C 
BRANCH   8   9
ATOM      9  C   LIG d   1      -3.169  78.588 118.657  0.00  0.00     0.028 C 
ATOM     10  C   LIG d   1      -3.465  79.986 118.088  0.00  0.00     0.006 C 
ENDBRANCH   8   9
BRANCH   8  11
ATOM     11  C   LIG d   1      -0.898  78.788 119.535  0.00  0.00     0.028 C 
ATOM     12  C   LIG d   1       0.169  79.765 119.017  0.00  0.00     0.006 C 
ENDBRANCH   8  11
ENDBRANCH   7   8
ENDBRANCH   1   7
BRANCH   6  13
ATOM     13  N   LIG d   1       0.953  76.726 116.698  0.00  0.00    -0.311 N 
ATOM     14  C   LIG d   1       1.641  76.562 117.826  0.00  0.00     0.210 C 
ATOM     15  C   LIG d   1       3.119  76.957 117.747  0.00  0.00     0.109 C 
ATOM     16  O   LIG d   1       1.175  76.095 118.877  0.00  0.00    -0.276 OA
ATOM     17  H   LIG d   1       1.417  77.081 115.885  0.00  0.00     0.149 HD
ENDBRANCH   6  13
BRANCH   5  18
ATOM     18  N   LIG d   1      -0.203  73.948 116.174  0.00  0.00     0.381 N 
ATOM     19  H   LIG d   1      -0.936  73.278 116.301  0.00  0.00    -0.090 HD
ATOM     20  H   LIG d   1       0.218  74.127 117.069  0.00  0.00    -0.090 HD
ATOM     21  H   LIG d   1       0.479  73.588 115.544  0.00  0.00    -0.090 HD
ENDBRANCH   5  18
BRANCH   3  22
ATOM     22  C   LIG d   1      -4.104  76.070 114.380  0.00  0.00     0.382 C 
ATOM     23  O   LIG d   1      -4.644  74.947 114.234  0.00  0.00    -0.241 OA
ATOM     24  O   LIG d   1      -4.592  77.063 113.809  0.00  0.00    -0.241 OA
ENDBRANCH   3  22
TORSDOF 7
ENDMDL
MODEL 9
REMARK VINA RESULT:      -4.4     11.992     14.249
REMARK  7 active torsions:
REMARK  status: ('A' for Active; 'I' for Inactive)
REMARK    1  A    between atoms: C_2  and  C_3 
REMARK    2  A    between atoms: C_3  and  O_6 
REMARK    3  A    between atoms: C_3  and  C_4 
REMARK    4  A    between atoms: C_7  and  O_6 
REMARK    5  A    between atoms: C_9  and  C_10 
REMARK    6  A    between atoms: N_15  and  C_14 
REMARK    7  A    between atoms: N_20  and  C_19 
REMARK       I    between atoms: C_22  and  N_20 
ROOT
ATOM      1  C   LIG d   1      -3.651  78.475 116.914  0.00  0.00     0.161 C 
ATOM      2  C   LIG d   1      -2.654  79.452 117.077  0.00  0.00     0.016 C 
ATOM      3  C   LIG d   1      -1.415  79.420 116.396  0.00  0.00     0.038 C 
ATOM      4  C   LIG d   1      -1.148  78.483 115.387  0.00  0.00     0.028 C 
ATOM      5  C   LIG d   1      -1.922  77.180 115.549  0.00  0.00    -0.047 C 
ATOM      6  C   LIG d   1      -3.422  77.507 115.735  0.00  0.00     0.091 C 
ENDROOT
BRANCH   1   7
ATOM      7  O   LIG d   1      -4.941  79.107 116.800  0.00  0.00    -0.368 OA
BRANCH   7   8
ATOM      8  C   LIG d   1      -5.639  79.360 118.045  0.00  0.00     0.119 C 
BRANCH   8   9
ATOM      9  C   LIG d   1      -7.110  78.948 117.842  0.00  0.00     0.028 C 
ATOM     10  C   LIG d   1      -8.093  80.039 118.300  0.00  0.00     0.006 C 
ENDBRANCH   8   9
BRANCH   8  11
ATOM     11  C   LIG d   1      -5.678  80.857 118.367  0.00  0.00     0.028 C 
ATOM     12  C   LIG d   1      -4.740  81.242 119.522  0.00  0.00     0.006 C 
ENDBRANCH   8  11
ENDBRANCH   7   8
ENDBRANCH   1   7
BRANCH   6  13
ATOM     13  N   LIG d   1      -4.240  76.292 115.984  0.00  0.00    -0.311 N 
ATOM     14  C   LIG d   1      -4.833  75.596 115.016  0.00  0.00     0.210 C 
ATOM     15  C   LIG d   1      -5.647  74.388 115.493  0.00  0.00     0.109 C 
ATOM     16  O   LIG d   1      -4.737  75.845 113.805  0.00  0.00    -0.276 OA
ATOM     17  H   LIG d   1      -4.345  76.000 116.936  0.00  0.00     0.149 HD
ENDBRANCH   6  13
BRANCH   5  18
ATOM     18  N   LIG d   1      -1.655  76.351 114.358  0.00  0.00     0.381 N 
ATOM     19  H   LIG d   1      -0.762  76.589 113.973  0.00  0.00    -0.090 HD
ATOM     20  H   LIG d   1      -2.357  76.541 113.665  0.00  0.00    -0.090 HD
ATOM     21  H   LIG d   1      -1.672  75.386 114.604  0.00  0.00    -0.090 HD
ENDBRANCH   5  18
BRANCH   3  22
ATOM     22  C   LIG d   1      -0.412  80.308 116.753  0.00  0.00     0.382 C 
ATOM     23  O   LIG d   1      -0.282  80.659 117.950  0.00  0.00    -0.241 OA
ATOM     24  O   LIG d   1       0.335  80.798 115.885  0.00  0.00    -0.241 OA
ENDBRANCH   3  22
TORSDOF 7
ENDMDL
