MODEL 1
REMARK VINA RESULT:      -5.8      0.000      0.000
REMARK  7 active torsions:
REMARK  status: ('A' for Active; 'I' for Inactive)
REMARK    1  A    between atoms: C_2  and  C_3 
REMARK    2  A    between atoms: C_3  and  O_6 
REMARK    3  A    between atoms: C_3  and  C_4 
REMARK    4  A    between atoms: C_7  and  O_6 
REMARK    5  A    between atoms: C_9  and  C_10 
REMARK    6  A    between atoms: N_15  and  C_14 
REMARK    7  A    between atoms: N_20  and  C_19 
REMARK       I    between atoms: C_22  and  N_20 
ROOT
ATOM      1  C   LIG d   1      -7.868  76.231 117.708  0.00  0.00     0.161 C 
ATOM      2  C   LIG d   1      -8.934  77.002 118.202  0.00  0.00     0.016 C 
ATOM      3  C   LIG d   1      -8.874  78.406 118.354  0.00  0.00     0.038 C 
ATOM      4  C   LIG d   1      -7.791  79.158 117.875  0.00  0.00     0.028 C 
ATOM      5  C   LIG d   1      -6.483  78.375 117.831  0.00  0.00    -0.047 C 
ATOM      6  C   LIG d   1      -6.719  77.046 117.078  0.00  0.00     0.091 C 
ENDROOT
BRANCH   1   7
ATOM      7  O   LIG d   1      -8.365  75.256 116.770  0.00  0.00    -0.368 OA
BRANCH   7   8
ATOM      8  C   LIG d   1      -8.292  73.872 117.192  0.00  0.00     0.119 C 
BRANCH   8   9
ATOM      9  C   LIG d   1      -7.437  73.116 116.156  0.00  0.00     0.028 C 
ATOM     10  C   LIG d   1      -7.977  71.706 115.866  0.00  0.00     0.006 C 
ENDBRANCH   8   9
BRANCH   8  11
ATOM     11  C   LIG d   1      -9.669  73.203 117.146  0.00  0.00     0.028 C 
ATOM     12  C   LIG d   1     -10.819  74.214 117.019  0.00  0.00     0.006 C 
ENDBRANCH   8  11
ENDBRANCH   7   8
ENDBRANCH   1   7
BRANCH   6  13
ATOM     13  N   LIG d   1      -5.511  76.181 117.061  0.00  0.00    -0.311 N 
ATOM     14  C   LIG d   1      -4.891  75.808 115.943  0.00  0.00     0.210 C 
ATOM     15  C   LIG d   1      -3.676  74.899 116.150  0.00  0.00     0.109 C 
ATOM     16  O   LIG d   1      -5.213  76.171 114.802  0.00  0.00    -0.276 OA
ATOM     17  H   LIG d   1      -5.163  75.866 117.946  0.00  0.00     0.149 HD
ENDBRANCH   6  13
BRANCH   5  18
ATOM     18  N   LIG d   1      -5.471  79.233 117.186  0.00  0.00     0.381 N 
ATOM     19  H   LIG d   1      -5.595  79.214 116.193  0.00  0.00    -0.090 HD
ATOM     20  H   LIG d   1      -4.557  78.873 117.396  0.00  0.00    -0.090 HD
ATOM     21  H   LIG d   1      -5.553  80.167 117.521  0.00  0.00    -0.090 HD
ENDBRANCH   5  18
BRANCH   3  22
ATOM     22  C   LIG d   1      -9.890  79.069 119.025  0.00  0.00     0.382 C 
ATOM     23  O   LIG d   1     -10.042  80.304 118.870  0.00  0.00    -0.241 OA
ATOM     24  O   LIG d   1     -10.628  78.455 119.819  0.00  0.00    -0.241 OA
ENDBRANCH   3  22
TORSDOF 7
ENDMDL
MODEL 2
REMARK VINA RESULT:      -5.7      1.836      4.990
REMARK  7 active torsions:
REMARK  status: ('A' for Active; 'I' for Inactive)
REMARK    1  A    between atoms: C_2  and  C_3 
REMARK    2  A    between atoms: C_3  and  O_6 
REMARK    3  A    between atoms: C_3  and  C_4 
REMARK    4  A    between atoms: C_7  and  O_6 
REMARK    5  A    between atoms: C_9  and  C_10 
REMARK    6  A    between atoms: N_15  and  C_14 
REMARK    7  A    between atoms: N_20  and  C_19 
REMARK       I    between atoms: C_22  and  N_20 
ROOT
ATOM      1  C   LIG d   1      -6.647  75.585 116.253  0.00  0.00     0.161 C 
ATOM      2  C   LIG d   1      -5.429  74.958 115.940  0.00  0.00     0.016 C 
ATOM      3  C   LIG d   1      -4.281  75.034 116.761  0.00  0.00     0.038 C 
ATOM      4  C   LIG d   1      -4.317  75.622 118.034  0.00  0.00     0.028 C 
ATOM      5  C   LIG d   1      -5.383  76.704 118.172  0.00  0.00    -0.047 C 
ATOM      6  C   LIG d   1      -6.738  76.137 117.691  0.00  0.00     0.091 C 
ENDROOT
BRANCH   1   7
ATOM      7  O   LIG d   1      -7.741  74.685 115.991  0.00  0.00    -0.368 OA
BRANCH   7   8
ATOM      8  C   LIG d   1      -7.809  73.504 116.827  0.00  0.00     0.119 C 
BRANCH   8   9
ATOM      9  C   LIG d   1      -7.799  72.276 115.894  0.00  0.00     0.028 C 
ATOM     10  C   LIG d   1      -8.700  71.141 116.409  0.00  0.00     0.006 C 
ENDBRANCH   8   9
BRANCH   8  11
ATOM     11  C   LIG d   1      -9.140  73.429 117.580  0.00  0.00     0.028 C 
ATOM     12  C   LIG d   1     -10.175  74.441 117.063  0.00  0.00     0.006 C 
ENDBRANCH   8  11
ENDBRANCH   7   8
ENDBRANCH   1   7
BRANCH   6  13
ATOM     13  N   LIG d   1      -7.819  77.157 117.713  0.00  0.00    -0.311 N 
ATOM     14  C   LIG d   1      -8.640  77.333 118.747  0.00  0.00     0.210 C 
ATOM     15  C   LIG d   1      -9.697  78.426 118.555  0.00  0.00     0.109 C 
ATOM     16  O   LIG d   1      -8.573  76.710 119.817  0.00  0.00    -0.276 OA
ATOM     17  H   LIG d   1      -7.924  77.728 116.897  0.00  0.00     0.149 HD
ENDBRANCH   6  13
BRANCH   5  18
ATOM     18  N   LIG d   1      -5.403  77.133 119.583  0.00  0.00     0.381 N 
ATOM     19  H   LIG d   1      -4.562  77.630 119.798  0.00  0.00    -0.090 HD
ATOM     20  H   LIG d   1      -5.446  76.318 120.170  0.00  0.00    -0.090 HD
ATOM     21  H   LIG d   1      -6.194  77.715 119.751  0.00  0.00    -0.090 HD
ENDBRANCH   5  18
BRANCH   3  22
ATOM     22  C   LIG d   1      -3.068  74.553 116.292  0.00  0.00     0.382 C 
ATOM     23  O   LIG d   1      -2.707  74.802 115.117  0.00  0.00    -0.241 OA
ATOM     24  O   LIG d   1      -2.350  73.837 117.015  0.00  0.00    -0.241 OA
ENDBRANCH   3  22
TORSDOF 7
ENDMDL
MODEL 3
REMARK VINA RESULT:      -5.2      2.204      5.253
REMARK  7 active torsions:
REMARK  status: ('A' for Active; 'I' for Inactive)
REMARK    1  A    between atoms: C_2  and  C_3 
REMARK    2  A    between atoms: C_3  and  O_6 
REMARK    3  A    between atoms: C_3  and  C_4 
REMARK    4  A    between atoms: C_7  and  O_6 
REMARK    5  A    between atoms: C_9  and  C_10 
REMARK    6  A    between atoms: N_15  and  C_14 
REMARK    7  A    between atoms: N_20  and  C_19 
REMARK       I    between atoms: C_22  and  N_20 
ROOT
ATOM      1  C   LIG d   1      -7.675  75.517 117.644  0.00  0.00     0.161 C 
ATOM      2  C   LIG d   1      -8.260  74.253 117.462  0.00  0.00     0.016 C 
ATOM      3  C   LIG d   1      -7.843  73.339 116.467  0.00  0.00     0.038 C 
ATOM      4  C   LIG d   1      -6.705  73.568 115.679  0.00  0.00     0.028 C 
ATOM      5  C   LIG d   1      -6.391  75.047 115.485  0.00  0.00    -0.047 C 
ATOM      6  C   LIG d   1      -6.360  75.739 116.867  0.00  0.00     0.091 C 
ENDROOT
BRANCH   1   7
ATOM      7  O   LIG d   1      -7.475  75.765 119.049  0.00  0.00    -0.368 OA
BRANCH   7   8
ATOM      8  C   LIG d   1      -8.225  76.867 119.616  0.00  0.00     0.119 C 
BRANCH   8   9
ATOM      9  C   LIG d   1      -9.034  77.512 118.473  0.00  0.00     0.028 C 
ATOM     10  C   LIG d   1      -8.815  79.031 118.383  0.00  0.00     0.006 C 
ENDBRANCH   8   9
BRANCH   8  11
ATOM     11  C   LIG d   1      -7.295  77.971 120.126  0.00  0.00     0.028 C 
ATOM     12  C   LIG d   1      -5.883  77.457 120.451  0.00  0.00     0.006 C 
ENDBRANCH   8  11
ENDBRANCH   7   8
ENDBRANCH   1   7
BRANCH   6  13
ATOM     13  N   LIG d   1      -6.142  77.205 116.762  0.00  0.00    -0.311 N 
ATOM     14  C   LIG d   1      -4.952  77.783 116.920  0.00  0.00     0.210 C 
ATOM     15  C   LIG d   1      -4.952  79.309 116.790  0.00  0.00     0.109 C 
ATOM     16  O   LIG d   1      -3.892  77.173 117.123  0.00  0.00    -0.276 OA
ATOM     17  H   LIG d   1      -6.944  77.773 116.568  0.00  0.00     0.149 HD
ENDBRANCH   6  13
BRANCH   5  18
ATOM     18  N   LIG d   1      -5.107  75.139 114.764  0.00  0.00     0.381 N 
ATOM     19  H   LIG d   1      -5.096  75.962 114.196  0.00  0.00    -0.090 HD
ATOM     20  H   LIG d   1      -5.014  74.339 114.163  0.00  0.00    -0.090 HD
ATOM     21  H   LIG d   1      -4.352  75.165 115.414  0.00  0.00    -0.090 HD
ENDBRANCH   5  18
BRANCH   3  22
ATOM     22  C   LIG d   1      -8.593  72.197 116.225  0.00  0.00     0.382 C 
ATOM     23  O   LIG d   1      -8.053  71.192 115.703  0.00  0.00    -0.241 OA
ATOM     24  O   LIG d   1      -9.811  72.175 116.483  0.00  0.00    -0.241 OA
ENDBRANCH   3  22
TORSDOF 7
ENDMDL
MODEL 4
REMARK VINA RESULT:      -5.0      1.740      2.523
REMARK  7 active torsions:
REMARK  status: ('A' for Active; 'I' for Inactive)
REMARK    1  A    between atoms: C_2  and  C_3 
REMARK    2  A    between atoms: C_3  and  O_6 
REMARK    3  A    between atoms: C_3  and  C_4 
REMARK    4  A    between atoms: C_7  and  O_6 
REMARK    5  A    between atoms: C_9  and  C_10 
REMARK    6  A    between atoms: N_15  and  C_14 
REMARK    7  A    between atoms: N_20  and  C_19 
REMARK       I    between atoms: C_22  and  N_20 
ROOT
ATOM      1  C   LIG d   1      -6.188  76.543 118.054  0.00  0.00     0.161 C 
ATOM      2  C   LIG d   1      -7.529  76.672 118.453  0.00  0.00     0.016 C 
ATOM      3  C   LIG d   1      -8.228  77.901 118.444  0.00  0.00     0.038 C 
ATOM      4  C   LIG d   1      -7.676  79.065 117.889  0.00  0.00     0.028 C 
ATOM      5  C   LIG d   1      -6.152  79.095 117.939  0.00  0.00    -0.047 C 
ATOM      6  C   LIG d   1      -5.604  77.780 117.340  0.00  0.00     0.091 C 
ENDROOT
BRANCH   1   7
ATOM      7  O   LIG d   1      -6.035  75.370 117.230  0.00  0.00    -0.368 OA
BRANCH   7   8
ATOM      8  C   LIG d   1      -7.078  75.137 116.252  0.00  0.00     0.119 C 
BRANCH   8   9
ATOM      9  C   LIG d   1      -7.392  73.629 116.260  0.00  0.00     0.028 C 
ATOM     10  C   LIG d   1      -8.658  73.297 117.067  0.00  0.00     0.006 C 
ENDBRANCH   8   9
BRANCH   8  11
ATOM     11  C   LIG d   1      -6.590  75.443 114.832  0.00  0.00     0.028 C 
ATOM     12  C   LIG d   1      -5.078  75.225 114.663  0.00  0.00     0.006 C 
ENDBRANCH   8  11
ENDBRANCH   7   8
ENDBRANCH   1   7
BRANCH   6  13
ATOM     13  N   LIG d   1      -4.123  77.692 117.427  0.00  0.00    -0.311 N 
ATOM     14  C   LIG d   1      -3.308  78.045 116.435  0.00  0.00     0.210 C 
ATOM     15  C   LIG d   1      -1.816  77.856 116.725  0.00  0.00     0.109 C 
ATOM     16  O   LIG d   1      -3.677  78.528 115.354  0.00  0.00    -0.276 OA
ATOM     17  H   LIG d   1      -3.736  77.340 118.281  0.00  0.00     0.149 HD
ENDBRANCH   6  13
BRANCH   5  18
ATOM     18  N   LIG d   1      -5.706  80.295 117.206  0.00  0.00     0.381 N 
ATOM     19  H   LIG d   1      -5.821  81.106 117.781  0.00  0.00    -0.090 HD
ATOM     20  H   LIG d   1      -6.278  80.406 116.387  0.00  0.00    -0.090 HD
ATOM     21  H   LIG d   1      -4.751  80.198 116.942  0.00  0.00    -0.090 HD
ENDBRANCH   5  18
BRANCH   3  22
ATOM     22  C   LIG d   1      -9.482  77.982 119.033  0.00  0.00     0.382 C 
ATOM     23  O   LIG d   1      -9.585  78.035 120.282  0.00  0.00    -0.241 OA
ATOM     24  O   LIG d   1     -10.511  77.959 118.332  0.00  0.00    -0.241 OA
ENDBRANCH   3  22
TORSDOF 7
ENDMDL
MODEL 5
REMARK VINA RESULT:      -5.0      1.935      2.749
REMARK  7 active torsions:
REMARK  status: ('A' for Active; 'I' for Inactive)
REMARK    1  A    between atoms: C_2  and  C_3 
REMARK    2  A    between atoms: C_3  and  O_6 
REMARK    3  A    between atoms: C_3  and  C_4 
REMARK    4  A    between atoms: C_7  and  O_6 
REMARK    5  A    between atoms: C_9  and  C_10 
REMARK    6  A    between atoms: N_15  and  C_14 
REMARK    7  A    between atoms: N_20  and  C_19 
REMARK       I    between atoms: C_22  and  N_20 
ROOT
ATOM      1  C   LIG d   1      -6.568  77.644 117.622  0.00  0.00     0.161 C 
ATOM      2  C   LIG d   1      -7.914  77.803 117.993  0.00  0.00     0.016 C 
ATOM      3  C   LIG d   1      -8.523  79.064 118.190  0.00  0.00     0.038 C 
ATOM      4  C   LIG d   1      -7.863  80.263 117.881  0.00  0.00     0.028 C 
ATOM      5  C   LIG d   1      -6.345  80.164 117.987  0.00  0.00    -0.047 C 
ATOM      6  C   LIG d   1      -5.864  78.941 117.173  0.00  0.00     0.091 C 
ENDROOT
BRANCH   1   7
ATOM      7  O   LIG d   1      -6.459  76.634 116.600  0.00  0.00    -0.368 OA
BRANCH   7   8
ATOM      8  C   LIG d   1      -6.228  75.281 117.063  0.00  0.00     0.119 C 
BRANCH   8   9
ATOM      9  C   LIG d   1      -4.845  74.844 116.545  0.00  0.00     0.028 C 
ATOM     10  C   LIG d   1      -3.724  75.114 117.563  0.00  0.00     0.006 C 
ENDBRANCH   8   9
BRANCH   8  11
ATOM     11  C   LIG d   1      -7.224  74.301 116.436  0.00  0.00     0.028 C 
ATOM     12  C   LIG d   1      -8.501  74.131 117.274  0.00  0.00     0.006 C 
ENDBRANCH   8  11
ENDBRANCH   7   8
ENDBRANCH   1   7
BRANCH   6  13
ATOM     13  N   LIG d   1      -4.399  78.722 117.292  0.00  0.00    -0.311 N 
ATOM     14  C   LIG d   1      -3.515  79.174 116.404  0.00  0.00     0.210 C 
ATOM     15  C   LIG d   1      -2.055  78.820 116.707  0.00  0.00     0.109 C 
ATOM     16  O   LIG d   1      -3.798  79.861 115.411  0.00  0.00    -0.276 OA
ATOM     17  H   LIG d   1      -4.079  78.200 118.085  0.00  0.00     0.149 HD
ENDBRANCH   6  13
BRANCH   5  18
ATOM     18  N   LIG d   1      -5.780  81.438 117.506  0.00  0.00     0.381 N 
ATOM     19  H   LIG d   1      -4.787  81.358 117.422  0.00  0.00    -0.090 HD
ATOM     20  H   LIG d   1      -5.983  82.158 118.178  0.00  0.00    -0.090 HD
ATOM     21  H   LIG d   1      -6.178  81.676 116.624  0.00  0.00    -0.090 HD
ENDBRANCH   5  18
BRANCH   3  22
ATOM     22  C   LIG d   1      -9.794  79.135 118.740  0.00  0.00     0.382 C 
ATOM     23  O   LIG d   1     -10.584  78.168 118.618  0.00  0.00    -0.241 OA
ATOM     24  O   LIG d   1     -10.176  80.170 119.318  0.00  0.00    -0.241 OA
ENDBRANCH   3  22
TORSDOF 7
ENDMDL
MODEL 6
REMARK VINA RESULT:      -5.0      2.574      5.402
REMARK  7 active torsions:
REMARK  status: ('A' for Active; 'I' for Inactive)
REMARK    1  A    between atoms: C_2  and  C_3 
REMARK    2  A    between atoms: C_3  and  O_6 
REMARK    3  A    between atoms: C_3  and  C_4 
REMARK    4  A    between atoms: C_7  and  O_6 
REMARK    5  A    between atoms: C_9  and  C_10 
REMARK    6  A    between atoms: N_15  and  C_14 
REMARK    7  A    between atoms: N_20  and  C_19 
REMARK       I    between atoms: C_22  and  N_20 
ROOT
ATOM      1  C   LIG d   1      -5.782  74.848 116.740  0.00  0.00     0.161 C 
ATOM      2  C   LIG d   1      -6.540  73.730 116.353  0.00  0.00     0.016 C 
ATOM      3  C   LIG d   1      -7.926  73.607 116.600  0.00  0.00     0.038 C 
ATOM      4  C   LIG d   1      -8.684  74.666 117.122  0.00  0.00     0.028 C 
ATOM      5  C   LIG d   1      -7.872  75.621 117.990  0.00  0.00    -0.047 C 
ATOM      6  C   LIG d   1      -6.612  76.061 117.210  0.00  0.00     0.091 C 
ENDROOT
BRANCH   1   7
ATOM      7  O   LIG d   1      -4.896  75.232 115.670  0.00  0.00    -0.368 OA
BRANCH   7   8
ATOM      8  C   LIG d   1      -3.491  74.940 115.870  0.00  0.00     0.119 C 
BRANCH   8   9
ATOM      9  C   LIG d   1      -3.330  74.403 117.305  0.00  0.00     0.028 C 
ATOM     10  C   LIG d   1      -2.453  75.316 118.179  0.00  0.00     0.006 C 
ENDBRANCH   8   9
BRANCH   8  11
ATOM     11  C   LIG d   1      -2.644  76.215 115.817  0.00  0.00     0.028 C 
ATOM     12  C   LIG d   1      -3.122  77.204 114.742  0.00  0.00     0.006 C 
ENDBRANCH   8  11
ENDBRANCH   7   8
ENDBRANCH   1   7
BRANCH   6  13
ATOM     13  N   LIG d   1      -5.719  76.930 118.020  0.00  0.00    -0.311 N 
ATOM     14  C   LIG d   1      -5.336  78.147 117.636  0.00  0.00     0.210 C 
ATOM     15  C   LIG d   1      -4.398  78.867 118.610  0.00  0.00     0.109 C 
ATOM     16  O   LIG d   1      -5.711  78.712 116.598  0.00  0.00    -0.276 OA
ATOM     17  H   LIG d   1      -5.393  76.563 118.892  0.00  0.00     0.149 HD
ENDBRANCH   6  13
BRANCH   5  18
ATOM     18  N   LIG d   1      -8.750  76.749 118.354  0.00  0.00     0.381 N 
ATOM     19  H   LIG d   1      -8.388  77.598 117.969  0.00  0.00    -0.090 HD
ATOM     20  H   LIG d   1      -8.767  76.839 119.354  0.00  0.00    -0.090 HD
ATOM     21  H   LIG d   1      -9.672  76.587 118.011  0.00  0.00    -0.090 HD
ENDBRANCH   5  18
BRANCH   3  22
ATOM     22  C   LIG d   1      -8.562  72.397 116.362  0.00  0.00     0.382 C 
ATOM     23  O   LIG d   1      -9.744  72.225 116.744  0.00  0.00    -0.241 OA
ATOM     24  O   LIG d   1      -7.952  71.462 115.810  0.00  0.00    -0.241 OA
ENDBRANCH   3  22
TORSDOF 7
ENDMDL
MODEL 7
REMARK VINA RESULT:      -5.0      2.272      5.674
REMARK  7 active torsions:
REMARK  status: ('A' for Active; 'I' for Inactive)
REMARK    1  A    between atoms: C_2  and  C_3 
REMARK    2  A    between atoms: C_3  and  O_6 
REMARK    3  A    between atoms: C_3  and  C_4 
REMARK    4  A    between atoms: C_7  and  O_6 
REMARK    5  A    between atoms: C_9  and  C_10 
REMARK    6  A    between atoms: N_15  and  C_14 
REMARK    7  A    between atoms: N_20  and  C_19 
REMARK       I    between atoms: C_22  and  N_20 
ROOT
ATOM      1  C   LIG d   1      -5.196  75.802 116.557  0.00  0.00     0.161 C 
ATOM      2  C   LIG d   1      -4.145  74.932 116.220  0.00  0.00     0.016 C 
ATOM      3  C   LIG d   1      -2.780  75.272 116.358  0.00  0.00     0.038 C 
ATOM      4  C   LIG d   1      -2.370  76.456 116.988  0.00  0.00     0.028 C 
ATOM      5  C   LIG d   1      -3.393  77.583 116.884  0.00  0.00    -0.047 C 
ATOM      6  C   LIG d   1      -4.769  77.055 117.349  0.00  0.00     0.091 C 
ENDROOT
BRANCH   1   7
ATOM      7  O   LIG d   1      -6.217  75.080 117.273  0.00  0.00    -0.368 OA
BRANCH   7   8
ATOM      8  C   LIG d   1      -7.391  74.708 116.508  0.00  0.00     0.119 C 
BRANCH   8   9
ATOM      9  C   LIG d   1      -8.613  74.859 117.434  0.00  0.00     0.028 C 
ATOM     10  C   LIG d   1      -9.009  76.330 117.648  0.00  0.00     0.006 C 
ENDBRANCH   8   9
BRANCH   8  11
ATOM     11  C   LIG d   1      -7.356  73.227 116.119  0.00  0.00     0.028 C 
ATOM     12  C   LIG d   1      -8.593  72.455 116.606  0.00  0.00     0.006 C 
ENDBRANCH   8  11
ENDBRANCH   7   8
ENDBRANCH   1   7
BRANCH   6  13
ATOM     13  N   LIG d   1      -5.845  78.069 117.200  0.00  0.00    -0.311 N 
ATOM     14  C   LIG d   1      -6.231  78.879 118.185  0.00  0.00     0.210 C 
ATOM     15  C   LIG d   1      -7.371  79.837 117.825  0.00  0.00     0.109 C 
ATOM     16  O   LIG d   1      -5.716  78.917 119.312  0.00  0.00    -0.276 OA
ATOM     17  H   LIG d   1      -6.296  78.128 116.308  0.00  0.00     0.149 HD
ENDBRANCH   6  13
BRANCH   5  18
ATOM     18  N   LIG d   1      -2.900  78.709 117.699  0.00  0.00     0.381 N 
ATOM     19  H   LIG d   1      -2.225  78.379 118.359  0.00  0.00    -0.090 HD
ATOM     20  H   LIG d   1      -3.671  79.105 118.207  0.00  0.00    -0.090 HD
ATOM     21  H   LIG d   1      -2.490  79.401 117.111  0.00  0.00    -0.090 HD
ENDBRANCH   5  18
BRANCH   3  22
ATOM     22  C   LIG d   1      -1.807  74.439 115.826  0.00  0.00     0.382 C 
ATOM     23  O   LIG d   1      -1.325  73.514 116.522  0.00  0.00    -0.241 OA
ATOM     24  O   LIG d   1      -1.375  74.628 114.673  0.00  0.00    -0.241 OA
ENDBRANCH   3  22
TORSDOF 7
ENDMDL
MODEL 8
REMARK VINA RESULT:      -4.9      2.140      4.479
REMARK  7 active torsions:
REMARK  status: ('A' for Active; 'I' for Inactive)
REMARK    1  A    between atoms: C_2  and  C_3 
REMARK    2  A    between atoms: C_3  and  O_6 
REMARK    3  A    between atoms: C_3  and  C_4 
REMARK    4  A    between atoms: C_7  and  O_6 
REMARK    5  A    between atoms: C_9  and  C_10 
REMARK    6  A    between atoms: N_15  and  C_14 
REMARK    7  A    between atoms: N_20  and  C_19 
REMARK       I    between atoms: C_22  and  N_20 
ROOT
ATOM      1  C   LIG d   1      -6.725  76.765 117.162  0.00  0.00     0.161 C 
ATOM      2  C   LIG d   1      -7.637  75.716 116.961  0.00  0.00     0.016 C 
ATOM      3  C   LIG d   1      -8.986  75.766 117.384  0.00  0.00     0.038 C 
ATOM      4  C   LIG d   1      -9.556  76.937 117.905  0.00  0.00     0.028 C 
ATOM      5  C   LIG d   1      -8.546  77.851 118.589  0.00  0.00    -0.047 C 
ATOM      6  C   LIG d   1      -7.358  78.093 117.629  0.00  0.00     0.091 C 
ENDROOT
BRANCH   1   7
ATOM      7  O   LIG d   1      -5.949  76.974 115.966  0.00  0.00    -0.368 OA
BRANCH   7   8
ATOM      8  C   LIG d   1      -4.565  76.550 116.022  0.00  0.00     0.119 C 
BRANCH   8   9
ATOM      9  C   LIG d   1      -4.420  75.320 115.105  0.00  0.00     0.028 C 
ATOM     10  C   LIG d   1      -5.566  75.210 114.085  0.00  0.00     0.006 C 
ENDBRANCH   8   9
BRANCH   8  11
ATOM     11  C   LIG d   1      -4.188  76.059 117.423  0.00  0.00     0.028 C 
ATOM     12  C   LIG d   1      -3.501  74.684 117.408  0.00  0.00     0.006 C 
ENDBRANCH   8  11
ENDBRANCH   7   8
ENDBRANCH   1   7
BRANCH   6  13
ATOM     13  N   LIG d   1      -6.283  78.909 118.252  0.00  0.00    -0.311 N 
ATOM     14  C   LIG d   1      -5.995  80.153 117.873  0.00  0.00     0.210 C 
ATOM     15  C   LIG d   1      -4.838  80.809 118.633  0.00  0.00     0.109 C 
ATOM     16  O   LIG d   1      -6.610  80.788 117.003  0.00  0.00    -0.276 OA
ATOM     17  H   LIG d   1      -5.755  78.483 118.988  0.00  0.00     0.149 HD
ENDBRANCH   6  13
BRANCH   5  18
ATOM     18  N   LIG d   1      -9.249  79.093 118.962  0.00  0.00     0.381 N 
ATOM     19  H   LIG d   1      -9.499  79.062 119.931  0.00  0.00    -0.090 HD
ATOM     20  H   LIG d   1     -10.092  79.164 118.421  0.00  0.00    -0.090 HD
ATOM     21  H   LIG d   1      -8.665  79.881 118.788  0.00  0.00    -0.090 HD
ENDBRANCH   5  18
BRANCH   3  22
ATOM     22  C   LIG d   1      -9.768  74.623 117.323  0.00  0.00     0.382 C 
ATOM     23  O   LIG d   1     -11.018  74.720 117.285  0.00  0.00    -0.241 OA
ATOM     24  O   LIG d   1      -9.240  73.495 117.350  0.00  0.00    -0.241 OA
ENDBRANCH   3  22
TORSDOF 7
ENDMDL
MODEL 9
REMARK VINA RESULT:      -4.8     18.517     20.575
REMARK  7 active torsions:
REMARK  status: ('A' for Active; 'I' for Inactive)
REMARK    1  A    between atoms: C_2  and  C_3 
REMARK    2  A    between atoms: C_3  and  O_6 
REMARK    3  A    between atoms: C_3  and  C_4 
REMARK    4  A    between atoms: C_7  and  O_6 
REMARK    5  A    between atoms: C_9  and  C_10 
REMARK    6  A    between atoms: N_15  and  C_14 
REMARK    7  A    between atoms: N_20  and  C_19 
REMARK       I    between atoms: C_22  and  N_20 
ROOT
ATOM      1  C   LIG d   1       0.121  58.292 118.422  0.00  0.00     0.161 C 
ATOM      2  C   LIG d   1       0.105  59.050 117.239  0.00  0.00     0.016 C 
ATOM      3  C   LIG d   1      -1.023  59.147 116.392  0.00  0.00     0.038 C 
ATOM      4  C   LIG d   1      -2.268  58.611 116.752  0.00  0.00     0.028 C 
ATOM      5  C   LIG d   1      -2.164  57.414 117.691  0.00  0.00    -0.047 C 
ATOM      6  C   LIG d   1      -1.262  57.792 118.888  0.00  0.00     0.091 C 
ENDROOT
BRANCH   1   7
ATOM      7  O   LIG d   1       0.763  59.042 119.473  0.00  0.00    -0.368 OA
BRANCH   7   8
ATOM      8  C   LIG d   1       2.110  58.633 119.816  0.00  0.00     0.119 C 
BRANCH   8   9
ATOM      9  C   LIG d   1       3.028  59.855 119.619  0.00  0.00     0.028 C 
ATOM     10  C   LIG d   1       3.639  59.909 118.209  0.00  0.00     0.006 C 
ENDBRANCH   8   9
BRANCH   8  11
ATOM     11  C   LIG d   1       2.634  57.571 118.845  0.00  0.00     0.028 C 
ATOM     12  C   LIG d   1       3.140  56.308 119.560  0.00  0.00     0.006 C 
ENDBRANCH   8  11
ENDBRANCH   7   8
ENDBRANCH   1   7
BRANCH   6  13
ATOM     13  N   LIG d   1      -1.039  56.650 119.813  0.00  0.00    -0.311 N 
ATOM     14  C   LIG d   1      -0.480  55.500 119.437  0.00  0.00     0.210 C 
ATOM     15  C   LIG d   1      -0.362  54.447 120.543  0.00  0.00     0.109 C 
ATOM     16  O   LIG d   1      -0.042  55.265 118.301  0.00  0.00    -0.276 OA
ATOM     17  H   LIG d   1      -1.336  56.766 120.762  0.00  0.00     0.149 HD
ENDBRANCH   6  13
BRANCH   5  18
ATOM     18  N   LIG d   1      -3.534  57.043 118.094  0.00  0.00     0.381 N 
ATOM     19  H   LIG d   1      -4.191  57.402 117.430  0.00  0.00    -0.090 HD
ATOM     20  H   LIG d   1      -3.732  57.454 118.989  0.00  0.00    -0.090 HD
ATOM     21  H   LIG d   1      -3.616  56.051 118.150  0.00  0.00    -0.090 HD
ENDBRANCH   5  18
BRANCH   3  22
ATOM     22  C   LIG d   1      -0.900  59.752 115.151  0.00  0.00     0.382 C 
ATOM     23  O   LIG d   1      -1.927  60.040 114.490  0.00  0.00    -0.241 OA
ATOM     24  O   LIG d   1       0.225  59.973 114.664  0.00  0.00    -0.241 OA
ENDBRANCH   3  22
TORSDOF 7
ENDMDL
