MODEL 1
REMARK VINA RESULT:      -5.6      0.000      0.000
REMARK  7 active torsions:
REMARK  status: ('A' for Active; 'I' for Inactive)
REMARK    1  A    between atoms: C_2  and  C_3 
REMARK    2  A    between atoms: C_3  and  O_6 
REMARK    3  A    between atoms: C_3  and  C_4 
REMARK    4  A    between atoms: C_7  and  O_6 
REMARK    5  A    between atoms: C_9  and  C_10 
REMARK    6  A    between atoms: N_15  and  C_14 
REMARK    7  A    between atoms: N_20  and  C_19 
REMARK       I    between atoms: C_22  and  N_20 
ROOT
ATOM      1  C   LIG d   1      -7.111  77.614 117.268  0.00  0.00     0.161 C 
ATOM      2  C   LIG d   1      -6.680  76.732 116.264  0.00  0.00     0.016 C 
ATOM      3  C   LIG d   1      -5.319  76.528 115.939  0.00  0.00     0.038 C 
ATOM      4  C   LIG d   1      -4.283  77.084 116.704  0.00  0.00     0.028 C 
ATOM      5  C   LIG d   1      -4.677  78.378 117.408  0.00  0.00    -0.047 C 
ATOM      6  C   LIG d   1      -5.992  78.145 118.187  0.00  0.00     0.091 C 
ENDROOT
BRANCH   1   7
ATOM      7  O   LIG d   1      -8.150  76.993 118.051  0.00  0.00    -0.368 OA
BRANCH   7   8
ATOM      8  C   LIG d   1      -9.511  77.326 117.683  0.00  0.00     0.119 C 
BRANCH   8   9
ATOM      9  C   LIG d   1     -10.096  78.197 118.812  0.00  0.00     0.028 C 
ATOM     10  C   LIG d   1      -9.432  77.919 120.171  0.00  0.00     0.006 C 
ENDBRANCH   8   9
BRANCH   8  11
ATOM     11  C   LIG d   1     -10.397  76.077 117.634  0.00  0.00     0.028 C 
ATOM     12  C   LIG d   1      -9.597  74.774 117.786  0.00  0.00     0.006 C 
ENDBRANCH   8  11
ENDBRANCH   7   8
ENDBRANCH   1   7
BRANCH   6  13
ATOM     13  N   LIG d   1      -6.493  79.384 118.837  0.00  0.00    -0.311 N 
ATOM     14  C   LIG d   1      -6.970  80.426 118.158  0.00  0.00     0.210 C 
ATOM     15  C   LIG d   1      -7.416  81.610 119.022  0.00  0.00     0.109 C 
ATOM     16  O   LIG d   1      -7.096  80.469 116.925  0.00  0.00    -0.276 OA
ATOM     17  H   LIG d   1      -6.456  79.422 119.837  0.00  0.00     0.149 HD
ENDBRANCH   6  13
BRANCH   5  18
ATOM     18  N   LIG d   1      -3.552  78.773 118.277  0.00  0.00     0.381 N 
ATOM     19  H   LIG d   1      -3.751  79.653 118.708  0.00  0.00    -0.090 HD
ATOM     20  H   LIG d   1      -2.727  78.877 117.713  0.00  0.00    -0.090 HD
ATOM     21  H   LIG d   1      -3.401  78.079 118.976  0.00  0.00    -0.090 HD
ENDBRANCH   5  18
BRANCH   3  22
ATOM     22  C   LIG d   1      -4.984  75.792 114.812  0.00  0.00     0.382 C 
ATOM     23  O   LIG d   1      -3.944  76.070 114.168  0.00  0.00    -0.241 OA
ATOM     24  O   LIG d   1      -5.731  74.882 114.407  0.00  0.00    -0.241 OA
ENDBRANCH   3  22
TORSDOF 7
ENDMDL
MODEL 2
REMARK VINA RESULT:      -5.4     12.938     16.091
REMARK  7 active torsions:
REMARK  status: ('A' for Active; 'I' for Inactive)
REMARK    1  A    between atoms: C_2  and  C_3 
REMARK    2  A    between atoms: C_3  and  O_6 
REMARK    3  A    between atoms: C_3  and  C_4 
REMARK    4  A    between atoms: C_7  and  O_6 
REMARK    5  A    between atoms: C_9  and  C_10 
REMARK    6  A    between atoms: N_15  and  C_14 
REMARK    7  A    between atoms: N_20  and  C_19 
REMARK       I    between atoms: C_22  and  N_20 
ROOT
ATOM      1  C   LIG d   1      -4.666  92.775 118.483  0.00  0.00     0.161 C 
ATOM      2  C   LIG d   1      -4.437  91.609 117.733  0.00  0.00     0.016 C 
ATOM      3  C   LIG d   1      -5.400  91.038 116.870  0.00  0.00     0.038 C 
ATOM      4  C   LIG d   1      -6.612  91.682 116.581  0.00  0.00     0.028 C 
ATOM      5  C   LIG d   1      -7.092  92.599 117.701  0.00  0.00    -0.047 C 
ATOM      6  C   LIG d   1      -5.941  93.552 118.097  0.00  0.00     0.091 C 
ENDROOT
BRANCH   1   7
ATOM      7  O   LIG d   1      -3.512  93.636 118.412  0.00  0.00    -0.368 OA
BRANCH   7   8
ATOM      8  C   LIG d   1      -2.612  93.592 119.546  0.00  0.00     0.119 C 
BRANCH   8   9
ATOM      9  C   LIG d   1      -2.753  94.928 120.301  0.00  0.00     0.028 C 
ATOM     10  C   LIG d   1      -3.033  96.109 119.357  0.00  0.00     0.006 C 
ENDBRANCH   8   9
BRANCH   8  11
ATOM     11  C   LIG d   1      -1.150  93.533 119.095  0.00  0.00     0.028 C 
ATOM     12  C   LIG d   1      -0.758  92.162 118.521  0.00  0.00     0.006 C 
ENDBRANCH   8  11
ENDBRANCH   7   8
ENDBRANCH   1   7
BRANCH   6  13
ATOM     13  N   LIG d   1      -6.299  94.428 119.244  0.00  0.00    -0.311 N 
ATOM     14  C   LIG d   1      -6.914  95.601 119.106  0.00  0.00     0.210 C 
ATOM     15  C   LIG d   1      -7.172  96.353 120.416  0.00  0.00     0.109 C 
ATOM     16  O   LIG d   1      -7.299  96.076 118.027  0.00  0.00    -0.276 OA
ATOM     17  H   LIG d   1      -6.051  94.105 120.158  0.00  0.00     0.149 HD
ENDBRANCH   6  13
BRANCH   5  18
ATOM     18  N   LIG d   1      -8.289  93.310 117.213  0.00  0.00     0.381 N 
ATOM     19  H   LIG d   1      -8.903  93.504 117.978  0.00  0.00    -0.090 HD
ATOM     20  H   LIG d   1      -8.774  92.719 116.561  0.00  0.00    -0.090 HD
ATOM     21  H   LIG d   1      -8.023  94.160 116.768  0.00  0.00    -0.090 HD
ENDBRANCH   5  18
BRANCH   3  22
ATOM     22  C   LIG d   1      -5.170  89.788 116.315  0.00  0.00     0.382 C 
ATOM     23  O   LIG d   1      -4.077  89.205 116.514  0.00  0.00    -0.241 OA
ATOM     24  O   LIG d   1      -6.025  89.255 115.583  0.00  0.00    -0.241 OA
ENDBRANCH   3  22
TORSDOF 7
ENDMDL
MODEL 3
REMARK VINA RESULT:      -5.3     13.045     15.864
REMARK  7 active torsions:
REMARK  status: ('A' for Active; 'I' for Inactive)
REMARK    1  A    between atoms: C_2  and  C_3 
REMARK    2  A    between atoms: C_3  and  O_6 
REMARK    3  A    between atoms: C_3  and  C_4 
REMARK    4  A    between atoms: C_7  and  O_6 
REMARK    5  A    between atoms: C_9  and  C_10 
REMARK    6  A    between atoms: N_15  and  C_14 
REMARK    7  A    between atoms: N_20  and  C_19 
REMARK       I    between atoms: C_22  and  N_20 
ROOT
ATOM      1  C   LIG d   1      -5.410  92.101 119.517  0.00  0.00     0.161 C 
ATOM      2  C   LIG d   1      -4.581  91.213 118.812  0.00  0.00     0.016 C 
ATOM      3  C   LIG d   1      -4.784  90.870 117.456  0.00  0.00     0.038 C 
ATOM      4  C   LIG d   1      -5.746  91.514 116.664  0.00  0.00     0.028 C 
ATOM      5  C   LIG d   1      -6.930  92.047 117.464  0.00  0.00    -0.047 C 
ATOM      6  C   LIG d   1      -6.399  92.898 118.640  0.00  0.00     0.091 C 
ENDROOT
BRANCH   1   7
ATOM      7  O   LIG d   1      -4.605  92.999 120.306  0.00  0.00    -0.368 OA
BRANCH   7   8
ATOM      8  C   LIG d   1      -4.128  94.189 119.631  0.00  0.00     0.119 C 
BRANCH   8   9
ATOM      9  C   LIG d   1      -2.592  94.093 119.554  0.00  0.00     0.028 C 
ATOM     10  C   LIG d   1      -2.087  93.911 118.113  0.00  0.00     0.006 C 
ENDBRANCH   8   9
BRANCH   8  11
ATOM     11  C   LIG d   1      -4.416  95.449 120.452  0.00  0.00     0.028 C 
ATOM     12  C   LIG d   1      -4.935  96.613 119.594  0.00  0.00     0.006 C 
ENDBRANCH   8  11
ENDBRANCH   7   8
ENDBRANCH   1   7
BRANCH   6  13
ATOM     13  N   LIG d   1      -7.489  93.389 119.522  0.00  0.00    -0.311 N 
ATOM     14  C   LIG d   1      -8.137  94.534 119.319  0.00  0.00     0.210 C 
ATOM     15  C   LIG d   1      -9.212  94.862 120.359  0.00  0.00     0.109 C 
ATOM     16  O   LIG d   1      -7.945  95.295 118.358  0.00  0.00    -0.276 OA
ATOM     17  H   LIG d   1      -7.731  92.819 120.309  0.00  0.00     0.149 HD
ENDBRANCH   6  13
BRANCH   5  18
ATOM     18  N   LIG d   1      -7.786  92.812 116.537  0.00  0.00     0.381 N 
ATOM     19  H   LIG d   1      -7.886  93.751 116.866  0.00  0.00    -0.090 HD
ATOM     20  H   LIG d   1      -8.696  92.388 116.510  0.00  0.00    -0.090 HD
ATOM     21  H   LIG d   1      -7.385  92.813 115.625  0.00  0.00    -0.090 HD
ENDBRANCH   5  18
BRANCH   3  22
ATOM     22  C   LIG d   1      -4.043  89.844 116.888  0.00  0.00     0.382 C 
ATOM     23  O   LIG d   1      -4.574  89.078 116.049  0.00  0.00    -0.241 OA
ATOM     24  O   LIG d   1      -2.864  89.648 117.238  0.00  0.00    -0.241 OA
ENDBRANCH   3  22
TORSDOF 7
ENDMDL
MODEL 4
REMARK VINA RESULT:      -5.3      2.134      3.216
REMARK  7 active torsions:
REMARK  status: ('A' for Active; 'I' for Inactive)
REMARK    1  A    between atoms: C_2  and  C_3 
REMARK    2  A    between atoms: C_3  and  O_6 
REMARK    3  A    between atoms: C_3  and  C_4 
REMARK    4  A    between atoms: C_7  and  O_6 
REMARK    5  A    between atoms: C_9  and  C_10 
REMARK    6  A    between atoms: N_15  and  C_14 
REMARK    7  A    between atoms: N_20  and  C_19 
REMARK       I    between atoms: C_22  and  N_20 
ROOT
ATOM      1  C   LIG d   1      -4.583  77.957 116.832  0.00  0.00     0.161 C 
ATOM      2  C   LIG d   1      -3.825  76.881 116.341  0.00  0.00     0.016 C 
ATOM      3  C   LIG d   1      -3.030  76.050 117.164  0.00  0.00     0.038 C 
ATOM      4  C   LIG d   1      -3.059  76.146 118.563  0.00  0.00     0.028 C 
ATOM      5  C   LIG d   1      -3.417  77.540 119.068  0.00  0.00    -0.047 C 
ATOM      6  C   LIG d   1      -4.714  78.008 118.369  0.00  0.00     0.091 C 
ENDROOT
BRANCH   1   7
ATOM      7  O   LIG d   1      -5.887  77.957 116.218  0.00  0.00    -0.368 OA
BRANCH   7   8
ATOM      8  C   LIG d   1      -6.770  76.874 116.598  0.00  0.00     0.119 C 
BRANCH   8   9
ATOM      9  C   LIG d   1      -7.139  76.104 115.315  0.00  0.00     0.028 C 
ATOM     10  C   LIG d   1      -6.499  74.707 115.264  0.00  0.00     0.006 C 
ENDBRANCH   8   9
BRANCH   8  11
ATOM     11  C   LIG d   1      -8.097  77.404 117.149  0.00  0.00     0.028 C 
ATOM     12  C   LIG d   1      -9.096  76.284 117.480  0.00  0.00     0.006 C 
ENDBRANCH   8  11
ENDBRANCH   7   8
ENDBRANCH   1   7
BRANCH   6  13
ATOM     13  N   LIG d   1      -5.090  79.397 118.742  0.00  0.00    -0.311 N 
ATOM     14  C   LIG d   1      -5.979  79.685 119.691  0.00  0.00     0.210 C 
ATOM     15  C   LIG d   1      -6.235  81.181 119.904  0.00  0.00     0.109 C 
ATOM     16  O   LIG d   1      -6.557  78.846 120.398  0.00  0.00    -0.276 OA
ATOM     17  H   LIG d   1      -4.646  80.140 118.240  0.00  0.00     0.149 HD
ENDBRANCH   6  13
BRANCH   5  18
ATOM     18  N   LIG d   1      -3.547  77.463 120.535  0.00  0.00     0.381 N 
ATOM     19  H   LIG d   1      -2.881  78.073 120.966  0.00  0.00    -0.090 HD
ATOM     20  H   LIG d   1      -3.350  76.523 120.830  0.00  0.00    -0.090 HD
ATOM     21  H   LIG d   1      -4.469  77.719 120.810  0.00  0.00    -0.090 HD
ENDBRANCH   5  18
BRANCH   3  22
ATOM     22  C   LIG d   1      -2.164  75.136 116.584  0.00  0.00     0.382 C 
ATOM     23  O   LIG d   1      -2.368  74.734 115.413  0.00  0.00    -0.241 OA
ATOM     24  O   LIG d   1      -1.206  74.674 117.233  0.00  0.00    -0.241 OA
ENDBRANCH   3  22
TORSDOF 7
ENDMDL
MODEL 5
REMARK VINA RESULT:      -5.2     12.821     15.161
REMARK  7 active torsions:
REMARK  status: ('A' for Active; 'I' for Inactive)
REMARK    1  A    between atoms: C_2  and  C_3 
REMARK    2  A    between atoms: C_3  and  O_6 
REMARK    3  A    between atoms: C_3  and  C_4 
REMARK    4  A    between atoms: C_7  and  O_6 
REMARK    5  A    between atoms: C_9  and  C_10 
REMARK    6  A    between atoms: N_15  and  C_14 
REMARK    7  A    between atoms: N_20  and  C_19 
REMARK       I    between atoms: C_22  and  N_20 
ROOT
ATOM      1  C   LIG d   1      -3.922  92.168 117.986  0.00  0.00     0.161 C 
ATOM      2  C   LIG d   1      -5.015  92.260 117.108  0.00  0.00     0.016 C 
ATOM      3  C   LIG d   1      -5.441  91.195 116.281  0.00  0.00     0.038 C 
ATOM      4  C   LIG d   1      -4.893  89.908 116.389  0.00  0.00     0.028 C 
ATOM      5  C   LIG d   1      -3.456  89.902 116.900  0.00  0.00    -0.047 C 
ATOM      6  C   LIG d   1      -3.382  90.738 118.198  0.00  0.00     0.091 C 
ENDROOT
BRANCH   1   7
ATOM      7  O   LIG d   1      -4.261  92.768 119.252  0.00  0.00    -0.368 OA
BRANCH   7   8
ATOM      8  C   LIG d   1      -3.503  93.946 119.622  0.00  0.00     0.119 C 
BRANCH   8   9
ATOM      9  C   LIG d   1      -4.484  95.134 119.660  0.00  0.00     0.028 C 
ATOM     10  C   LIG d   1      -5.922  94.698 119.988  0.00  0.00     0.006 C 
ENDBRANCH   8   9
BRANCH   8  11
ATOM     11  C   LIG d   1      -2.473  94.306 118.547  0.00  0.00     0.028 C 
ATOM     12  C   LIG d   1      -1.077  94.583 119.129  0.00  0.00     0.006 C 
ENDBRANCH   8  11
ENDBRANCH   7   8
ENDBRANCH   1   7
BRANCH   6  13
ATOM     13  N   LIG d   1      -1.995  90.854 118.719  0.00  0.00    -0.311 N 
ATOM     14  C   LIG d   1      -1.495  90.052 119.657  0.00  0.00     0.210 C 
ATOM     15  C   LIG d   1      -0.050  90.357 120.065  0.00  0.00     0.109 C 
ATOM     16  O   LIG d   1      -2.100  89.097 120.167  0.00  0.00    -0.276 OA
ATOM     17  H   LIG d   1      -1.424  91.583 118.337  0.00  0.00     0.149 HD
ENDBRANCH   6  13
BRANCH   5  18
ATOM     18  N   LIG d   1      -3.058  88.495 117.094  0.00  0.00     0.381 N 
ATOM     19  H   LIG d   1      -3.712  88.039 117.698  0.00  0.00    -0.090 HD
ATOM     20  H   LIG d   1      -2.154  88.471 117.532  0.00  0.00    -0.090 HD
ATOM     21  H   LIG d   1      -3.023  88.027 116.216  0.00  0.00    -0.090 HD
ENDBRANCH   5  18
BRANCH   3  22
ATOM     22  C   LIG d   1      -6.400  91.423 115.306  0.00  0.00     0.382 C 
ATOM     23  O   LIG d   1      -7.340  90.607 115.149  0.00  0.00    -0.241 OA
ATOM     24  O   LIG d   1      -6.313  92.411 114.553  0.00  0.00    -0.241 OA
ENDBRANCH   3  22
TORSDOF 7
ENDMDL
MODEL 6
REMARK VINA RESULT:      -5.2      4.237      6.254
REMARK  7 active torsions:
REMARK  status: ('A' for Active; 'I' for Inactive)
REMARK    1  A    between atoms: C_2  and  C_3 
REMARK    2  A    between atoms: C_3  and  O_6 
REMARK    3  A    between atoms: C_3  and  C_4 
REMARK    4  A    between atoms: C_7  and  O_6 
REMARK    5  A    between atoms: C_9  and  C_10 
REMARK    6  A    between atoms: N_15  and  C_14 
REMARK    7  A    between atoms: N_20  and  C_19 
REMARK       I    between atoms: C_22  and  N_20 
ROOT
ATOM      1  C   LIG d   1      -2.742  77.215 117.383  0.00  0.00     0.161 C 
ATOM      2  C   LIG d   1      -3.799  76.511 116.783  0.00  0.00     0.016 C 
ATOM      3  C   LIG d   1      -4.069  76.545 115.395  0.00  0.00     0.038 C 
ATOM      4  C   LIG d   1      -3.202  77.171 114.487  0.00  0.00     0.028 C 
ATOM      5  C   LIG d   1      -2.404  78.316 115.102  0.00  0.00    -0.047 C 
ATOM      6  C   LIG d   1      -1.720  77.813 116.394  0.00  0.00     0.091 C 
ENDROOT
BRANCH   1   7
ATOM      7  O   LIG d   1      -2.076  76.372 118.343  0.00  0.00    -0.368 OA
BRANCH   7   8
ATOM      8  C   LIG d   1      -2.034  74.958 118.029  0.00  0.00     0.119 C 
BRANCH   8   9
ATOM      9  C   LIG d   1      -2.244  74.185 119.345  0.00  0.00     0.028 C 
ATOM     10  C   LIG d   1      -0.945  73.543 119.862  0.00  0.00     0.006 C 
ENDBRANCH   8   9
BRANCH   8  11
ATOM     11  C   LIG d   1      -0.649  74.539 117.528  0.00  0.00     0.028 C 
ATOM     12  C   LIG d   1      -0.588  74.385 116.000  0.00  0.00     0.006 C 
ENDBRANCH   8  11
ENDBRANCH   7   8
ENDBRANCH   1   7
BRANCH   6  13
ATOM     13  N   LIG d   1      -0.987  78.894 117.104  0.00  0.00    -0.311 N 
ATOM     14  C   LIG d   1       0.316  78.840 117.373  0.00  0.00     0.210 C 
ATOM     15  C   LIG d   1       0.870  80.051 118.131  0.00  0.00     0.109 C 
ATOM     16  O   LIG d   1       1.073  77.920 117.028  0.00  0.00    -0.276 OA
ATOM     17  H   LIG d   1      -1.518  79.692 117.393  0.00  0.00     0.149 HD
ENDBRANCH   6  13
BRANCH   5  18
ATOM     18  N   LIG d   1      -1.444  78.787 114.085  0.00  0.00     0.381 N 
ATOM     19  H   LIG d   1      -1.374  78.113 113.349  0.00  0.00    -0.090 HD
ATOM     20  H   LIG d   1      -0.540  78.883 114.512  0.00  0.00    -0.090 HD
ATOM     21  H   LIG d   1      -1.741  79.663 113.717  0.00  0.00    -0.090 HD
ENDBRANCH   5  18
BRANCH   3  22
ATOM     22  C   LIG d   1      -5.239  75.983 114.908  0.00  0.00     0.382 C 
ATOM     23  O   LIG d   1      -6.340  76.546 115.117  0.00  0.00    -0.241 OA
ATOM     24  O   LIG d   1      -5.212  74.896 114.300  0.00  0.00    -0.241 OA
ENDBRANCH   3  22
TORSDOF 7
ENDMDL
MODEL 7
REMARK VINA RESULT:      -5.1      2.559      5.842
REMARK  7 active torsions:
REMARK  status: ('A' for Active; 'I' for Inactive)
REMARK    1  A    between atoms: C_2  and  C_3 
REMARK    2  A    between atoms: C_3  and  O_6 
REMARK    3  A    between atoms: C_3  and  C_4 
REMARK    4  A    between atoms: C_7  and  O_6 
REMARK    5  A    between atoms: C_9  and  C_10 
REMARK    6  A    between atoms: N_15  and  C_14 
REMARK    7  A    between atoms: N_20  and  C_19 
REMARK       I    between atoms: C_22  and  N_20 
ROOT
ATOM      1  C   LIG d   1      -6.028  78.039 117.700  0.00  0.00     0.161 C 
ATOM      2  C   LIG d   1      -7.352  78.222 118.134  0.00  0.00     0.016 C 
ATOM      3  C   LIG d   1      -8.448  77.493 117.617  0.00  0.00     0.038 C 
ATOM      4  C   LIG d   1      -8.272  76.418 116.733  0.00  0.00     0.028 C 
ATOM      5  C   LIG d   1      -7.009  76.530 115.886  0.00  0.00    -0.047 C 
ATOM      6  C   LIG d   1      -5.803  76.794 116.817  0.00  0.00     0.091 C 
ENDROOT
BRANCH   1   7
ATOM      7  O   LIG d   1      -5.141  78.015 118.836  0.00  0.00    -0.368 OA
BRANCH   7   8
ATOM      8  C   LIG d   1      -4.066  78.986 118.826  0.00  0.00     0.119 C 
BRANCH   8   9
ATOM      9  C   LIG d   1      -2.793  78.273 119.320  0.00  0.00     0.028 C 
ATOM     10  C   LIG d   1      -2.971  76.748 119.408  0.00  0.00     0.006 C 
ENDBRANCH   8   9
BRANCH   8  11
ATOM     11  C   LIG d   1      -4.320  80.109 119.837  0.00  0.00     0.028 C 
ATOM     12  C   LIG d   1      -3.039  80.865 120.222  0.00  0.00     0.006 C 
ENDBRANCH   8  11
ENDBRANCH   7   8
ENDBRANCH   1   7
BRANCH   6  13
ATOM     13  N   LIG d   1      -4.539  77.001 116.062  0.00  0.00    -0.311 N 
ATOM     14  C   LIG d   1      -3.685  76.018 115.780  0.00  0.00     0.210 C 
ATOM     15  C   LIG d   1      -2.433  76.451 115.010  0.00  0.00     0.109 C 
ATOM     16  O   LIG d   1      -3.861  74.825 116.066  0.00  0.00    -0.276 OA
ATOM     17  H   LIG d   1      -4.333  77.934 115.764  0.00  0.00     0.149 HD
ENDBRANCH   6  13
BRANCH   5  18
ATOM     18  N   LIG d   1      -6.879  75.281 115.112  0.00  0.00     0.381 N 
ATOM     19  H   LIG d   1      -6.906  75.486 114.133  0.00  0.00    -0.090 HD
ATOM     20  H   LIG d   1      -7.655  74.681 115.331  0.00  0.00    -0.090 HD
ATOM     21  H   LIG d   1      -6.023  74.826 115.340  0.00  0.00    -0.090 HD
ENDBRANCH   5  18
BRANCH   3  22
ATOM     22  C   LIG d   1      -9.740  77.864 117.954  0.00  0.00     0.382 C 
ATOM     23  O   LIG d   1     -10.665  77.017 117.922  0.00  0.00    -0.241 OA
ATOM     24  O   LIG d   1     -10.002  79.046 118.247  0.00  0.00    -0.241 OA
ENDBRANCH   3  22
TORSDOF 7
ENDMDL
MODEL 8
REMARK VINA RESULT:      -5.0     12.373     15.927
REMARK  7 active torsions:
REMARK  status: ('A' for Active; 'I' for Inactive)
REMARK    1  A    between atoms: C_2  and  C_3 
REMARK    2  A    between atoms: C_3  and  O_6 
REMARK    3  A    between atoms: C_3  and  C_4 
REMARK    4  A    between atoms: C_7  and  O_6 
REMARK    5  A    between atoms: C_9  and  C_10 
REMARK    6  A    between atoms: N_15  and  C_14 
REMARK    7  A    between atoms: N_20  and  C_19 
REMARK       I    between atoms: C_22  and  N_20 
ROOT
ATOM      1  C   LIG d   1      -3.968  92.298 119.216  0.00  0.00     0.161 C 
ATOM      2  C   LIG d   1      -3.965  93.700 119.304  0.00  0.00     0.016 C 
ATOM      3  C   LIG d   1      -2.871  94.502 118.906  0.00  0.00     0.038 C 
ATOM      4  C   LIG d   1      -1.757  93.963 118.246  0.00  0.00     0.028 C 
ATOM      5  C   LIG d   1      -1.498  92.500 118.592  0.00  0.00    -0.047 C 
ATOM      6  C   LIG d   1      -2.806  91.699 118.396  0.00  0.00     0.091 C 
ENDROOT
BRANCH   1   7
ATOM      7  O   LIG d   1      -5.233  91.844 118.696  0.00  0.00    -0.368 OA
BRANCH   7   8
ATOM      8  C   LIG d   1      -5.684  92.477 117.473  0.00  0.00     0.119 C 
BRANCH   8   9
ATOM      9  C   LIG d   1      -7.139  92.933 117.697  0.00  0.00     0.028 C 
ATOM     10  C   LIG d   1      -7.246  94.442 117.972  0.00  0.00     0.006 C 
ENDBRANCH   8   9
BRANCH   8  11
ATOM     11  C   LIG d   1      -5.747  91.475 116.317  0.00  0.00     0.028 C 
ATOM     12  C   LIG d   1      -6.509  92.018 115.098  0.00  0.00     0.006 C 
ENDBRANCH   8  11
ENDBRANCH   7   8
ENDBRANCH   1   7
BRANCH   6  13
ATOM     13  N   LIG d   1      -2.663  90.274 118.793  0.00  0.00    -0.311 N 
ATOM     14  C   LIG d   1      -2.882  89.256 117.963  0.00  0.00     0.210 C 
ATOM     15  C   LIG d   1      -2.698  87.867 118.581  0.00  0.00     0.109 C 
ATOM     16  O   LIG d   1      -3.182  89.372 116.765  0.00  0.00    -0.276 OA
ATOM     17  H   LIG d   1      -2.392  90.089 119.740  0.00  0.00     0.149 HD
ENDBRANCH   6  13
BRANCH   5  18
ATOM     18  N   LIG d   1      -0.396  92.027 117.733  0.00  0.00     0.381 N 
ATOM     19  H   LIG d   1       0.178  92.800 117.462  0.00  0.00    -0.090 HD
ATOM     20  H   LIG d   1      -0.785  91.616 116.903  0.00  0.00    -0.090 HD
ATOM     21  H   LIG d   1       0.151  91.353 118.221  0.00  0.00    -0.090 HD
ENDBRANCH   5  18
BRANCH   3  22
ATOM     22  C   LIG d   1      -2.868  95.857 119.203  0.00  0.00     0.382 C 
ATOM     23  O   LIG d   1      -3.952  96.457 119.402  0.00  0.00    -0.241 OA
ATOM     24  O   LIG d   1      -1.799  96.495 119.231  0.00  0.00    -0.241 OA
ENDBRANCH   3  22
TORSDOF 7
ENDMDL
MODEL 9
REMARK VINA RESULT:      -5.0     12.982     16.137
REMARK  7 active torsions:
REMARK  status: ('A' for Active; 'I' for Inactive)
REMARK    1  A    between atoms: C_2  and  C_3 
REMARK    2  A    between atoms: C_3  and  O_6 
REMARK    3  A    between atoms: C_3  and  C_4 
REMARK    4  A    between atoms: C_7  and  O_6 
REMARK    5  A    between atoms: C_9  and  C_10 
REMARK    6  A    between atoms: N_15  and  C_14 
REMARK    7  A    between atoms: N_20  and  C_19 
REMARK       I    between atoms: C_22  and  N_20 
ROOT
ATOM      1  C   LIG d   1      -4.473  92.958 118.743  0.00  0.00     0.161 C 
ATOM      2  C   LIG d   1      -5.633  93.749 118.783  0.00  0.00     0.016 C 
ATOM      3  C   LIG d   1      -6.832  93.408 118.116  0.00  0.00     0.038 C 
ATOM      4  C   LIG d   1      -7.000  92.168 117.482  0.00  0.00     0.028 C 
ATOM      5  C   LIG d   1      -5.693  91.558 116.987  0.00  0.00    -0.047 C 
ATOM      6  C   LIG d   1      -4.673  91.548 118.149  0.00  0.00     0.091 C 
ENDROOT
BRANCH   1   7
ATOM      7  O   LIG d   1      -3.896  92.869 120.061  0.00  0.00    -0.368 OA
BRANCH   7   8
ATOM      8  C   LIG d   1      -2.624  93.537 120.246  0.00  0.00     0.119 C 
BRANCH   8   9
ATOM      9  C   LIG d   1      -2.340  94.353 118.970  0.00  0.00     0.028 C 
ATOM     10  C   LIG d   1      -2.334  95.869 119.232  0.00  0.00     0.006 C 
ENDBRANCH   8   9
BRANCH   8  11
ATOM     11  C   LIG d   1      -1.475  92.529 120.346  0.00  0.00     0.028 C 
ATOM     12  C   LIG d   1      -0.461  92.664 119.199  0.00  0.00     0.006 C 
ENDBRANCH   8  11
ENDBRANCH   7   8
ENDBRANCH   1   7
BRANCH   6  13
ATOM     13  N   LIG d   1      -3.339  91.045 117.728  0.00  0.00    -0.311 N 
ATOM     14  C   LIG d   1      -2.941  89.786 117.907  0.00  0.00     0.210 C 
ATOM     15  C   LIG d   1      -1.521  89.482 117.418  0.00  0.00     0.109 C 
ATOM     16  O   LIG d   1      -3.640  88.886 118.395  0.00  0.00    -0.276 OA
ATOM     17  H   LIG d   1      -2.720  91.701 117.295  0.00  0.00     0.149 HD
ENDBRANCH   6  13
BRANCH   5  18
ATOM     18  N   LIG d   1      -5.996  90.209 116.473  0.00  0.00     0.381 N 
ATOM     19  H   LIG d   1      -5.786  89.525 117.172  0.00  0.00    -0.090 HD
ATOM     20  H   LIG d   1      -5.418  90.029 115.671  0.00  0.00    -0.090 HD
ATOM     21  H   LIG d   1      -6.958  90.150 116.219  0.00  0.00    -0.090 HD
ENDBRANCH   5  18
BRANCH   3  22
ATOM     22  C   LIG d   1      -7.865  94.330 118.044  0.00  0.00     0.382 C 
ATOM     23  O   LIG d   1      -7.608  95.556 117.984  0.00  0.00    -0.241 OA
ATOM     24  O   LIG d   1      -9.052  93.953 118.083  0.00  0.00    -0.241 OA
ENDBRANCH   3  22
TORSDOF 7
ENDMDL
