MODEL 1
REMARK VINA RESULT:      -5.6      0.000      0.000
REMARK  7 active torsions:
REMARK  status: ('A' for Active; 'I' for Inactive)
REMARK    1  A    between atoms: C_2  and  C_3 
REMARK    2  A    between atoms: C_3  and  O_6 
REMARK    3  A    between atoms: C_3  and  C_4 
REMARK    4  A    between atoms: C_7  and  O_6 
REMARK    5  A    between atoms: C_9  and  C_10 
REMARK    6  A    between atoms: N_15  and  C_14 
REMARK    7  A    between atoms: N_20  and  C_19 
REMARK       I    between atoms: C_22  and  N_20 
ROOT
ATOM      1  C   LIG d   1      -7.669  75.006 117.774  0.00  0.00     0.161 C 
ATOM      2  C   LIG d   1      -8.826  75.790 117.912  0.00  0.00     0.016 C 
ATOM      3  C   LIG d   1      -8.814  77.204 117.903  0.00  0.00     0.038 C 
ATOM      4  C   LIG d   1      -7.655  77.933 117.602  0.00  0.00     0.028 C 
ATOM      5  C   LIG d   1      -6.367  77.197 117.956  0.00  0.00    -0.047 C 
ATOM      6  C   LIG d   1      -6.410  75.783 117.334  0.00  0.00     0.091 C 
ENDROOT
BRANCH   1   7
ATOM      7  O   LIG d   1      -7.924  73.912 116.870  0.00  0.00    -0.368 OA
BRANCH   7   8
ATOM      8  C   LIG d   1      -8.414  72.689 117.473  0.00  0.00     0.119 C 
BRANCH   8   9
ATOM      9  C   LIG d   1      -7.729  71.512 116.752  0.00  0.00     0.028 C 
ATOM     10  C   LIG d   1      -6.890  71.969 115.547  0.00  0.00     0.006 C 
ENDBRANCH   8   9
BRANCH   8  11
ATOM     11  C   LIG d   1      -9.913  72.504 117.218  0.00  0.00     0.028 C 
ATOM     12  C   LIG d   1     -10.335  71.026 117.192  0.00  0.00     0.006 C 
ENDBRANCH   8  11
ENDBRANCH   7   8
ENDBRANCH   1   7
BRANCH   6  13
ATOM     13  N   LIG d   1      -5.225  74.965 117.702  0.00  0.00    -0.311 N 
ATOM     14  C   LIG d   1      -4.123  74.894 116.957  0.00  0.00     0.210 C 
ATOM     15  C   LIG d   1      -3.028  73.977 117.509  0.00  0.00     0.109 C 
ATOM     16  O   LIG d   1      -3.937  75.529 115.908  0.00  0.00    -0.276 OA
ATOM     17  H   LIG d   1      -5.279  74.442 118.554  0.00  0.00     0.149 HD
ENDBRANCH   6  13
BRANCH   5  18
ATOM     18  N   LIG d   1      -5.239  78.011 117.464  0.00  0.00     0.381 N 
ATOM     19  H   LIG d   1      -5.574  78.701 116.822  0.00  0.00    -0.090 HD
ATOM     20  H   LIG d   1      -4.595  77.413 116.977  0.00  0.00    -0.090 HD
ATOM     21  H   LIG d   1      -4.779  78.453 118.229  0.00  0.00    -0.090 HD
ENDBRANCH   5  18
BRANCH   3  22
ATOM     22  C   LIG d   1      -9.964  77.903 118.237  0.00  0.00     0.382 C 
ATOM     23  O   LIG d   1     -10.976  77.285 118.648  0.00  0.00    -0.241 OA
ATOM     24  O   LIG d   1     -10.018  79.139 118.090  0.00  0.00    -0.241 OA
ENDBRANCH   3  22
TORSDOF 7
ENDMDL
MODEL 2
REMARK VINA RESULT:      -5.3      1.772      2.163
REMARK  7 active torsions:
REMARK  status: ('A' for Active; 'I' for Inactive)
REMARK    1  A    between atoms: C_2  and  C_3 
REMARK    2  A    between atoms: C_3  and  O_6 
REMARK    3  A    between atoms: C_3  and  C_4 
REMARK    4  A    between atoms: C_7  and  O_6 
REMARK    5  A    between atoms: C_9  and  C_10 
REMARK    6  A    between atoms: N_15  and  C_14 
REMARK    7  A    between atoms: N_20  and  C_19 
REMARK       I    between atoms: C_22  and  N_20 
ROOT
ATOM      1  C   LIG d   1      -7.162  76.312 117.529  0.00  0.00     0.161 C 
ATOM      2  C   LIG d   1      -8.465  76.559 117.990  0.00  0.00     0.016 C 
ATOM      3  C   LIG d   1      -8.969  77.855 118.243  0.00  0.00     0.038 C 
ATOM      4  C   LIG d   1      -8.248  79.010 117.905  0.00  0.00     0.028 C 
ATOM      5  C   LIG d   1      -6.737  78.803 117.909  0.00  0.00    -0.047 C 
ATOM      6  C   LIG d   1      -6.398  77.564 117.049  0.00  0.00     0.091 C 
ENDROOT
BRANCH   1   7
ATOM      7  O   LIG d   1      -7.192  75.314 116.489  0.00  0.00    -0.368 OA
BRANCH   7   8
ATOM      8  C   LIG d   1      -6.616  74.028 116.823  0.00  0.00     0.119 C 
BRANCH   8   9
ATOM      9  C   LIG d   1      -5.999  73.448 115.536  0.00  0.00     0.028 C 
ATOM     10  C   LIG d   1      -5.355  74.531 114.654  0.00  0.00     0.006 C 
ENDBRANCH   8   9
BRANCH   8  11
ATOM     11  C   LIG d   1      -7.696  73.026 117.243  0.00  0.00     0.028 C 
ATOM     12  C   LIG d   1      -7.784  71.815 116.300  0.00  0.00     0.006 C 
ENDBRANCH   8  11
ENDBRANCH   7   8
ENDBRANCH   1   7
BRANCH   6  13
ATOM     13  N   LIG d   1      -4.948  77.241 117.068  0.00  0.00    -0.311 N 
ATOM     14  C   LIG d   1      -4.082  77.701 116.166  0.00  0.00     0.210 C 
ATOM     15  C   LIG d   1      -2.637  77.230 116.357  0.00  0.00     0.109 C 
ATOM     16  O   LIG d   1      -4.369  78.481 115.244  0.00  0.00    -0.276 OA
ATOM     17  H   LIG d   1      -4.624  76.640 117.800  0.00  0.00     0.149 HD
ENDBRANCH   6  13
BRANCH   5  18
ATOM     18  N   LIG d   1      -6.116  80.043 117.407  0.00  0.00     0.381 N 
ATOM     19  H   LIG d   1      -5.202  79.845 117.052  0.00  0.00    -0.090 HD
ATOM     20  H   LIG d   1      -6.025  80.692 118.168  0.00  0.00    -0.090 HD
ATOM     21  H   LIG d   1      -6.681  80.440 116.688  0.00  0.00    -0.090 HD
ENDBRANCH   5  18
BRANCH   3  22
ATOM     22  C   LIG d   1     -10.193  78.005 118.878  0.00  0.00     0.382 C 
ATOM     23  O   LIG d   1     -11.122  77.194 118.648  0.00  0.00    -0.241 OA
ATOM     24  O   LIG d   1     -10.394  78.967 119.643  0.00  0.00    -0.241 OA
ENDBRANCH   3  22
TORSDOF 7
ENDMDL
MODEL 3
REMARK VINA RESULT:      -5.1     15.773     19.093
REMARK  7 active torsions:
REMARK  status: ('A' for Active; 'I' for Inactive)
REMARK    1  A    between atoms: C_2  and  C_3 
REMARK    2  A    between atoms: C_3  and  O_6 
REMARK    3  A    between atoms: C_3  and  C_4 
REMARK    4  A    between atoms: C_7  and  O_6 
REMARK    5  A    between atoms: C_9  and  C_10 
REMARK    6  A    between atoms: N_15  and  C_14 
REMARK    7  A    between atoms: N_20  and  C_19 
REMARK       I    between atoms: C_22  and  N_20 
ROOT
ATOM      1  C   LIG d   1      -6.027  93.073 118.403  0.00  0.00     0.161 C 
ATOM      2  C   LIG d   1      -4.875  93.617 118.995  0.00  0.00     0.016 C 
ATOM      3  C   LIG d   1      -3.563  93.200 118.671  0.00  0.00     0.038 C 
ATOM      4  C   LIG d   1      -3.307  92.311 117.616  0.00  0.00     0.028 C 
ATOM      5  C   LIG d   1      -4.464  91.359 117.331  0.00  0.00    -0.047 C 
ATOM      6  C   LIG d   1      -5.762  92.182 117.171  0.00  0.00     0.091 C 
ENDROOT
BRANCH   1   7
ATOM      7  O   LIG d   1      -6.949  94.129 118.069  0.00  0.00    -0.368 OA
BRANCH   7   8
ATOM      8  C   LIG d   1      -6.778  95.376 118.787  0.00  0.00     0.119 C 
BRANCH   8   9
ATOM      9  C   LIG d   1      -7.966  95.516 119.759  0.00  0.00     0.028 C 
ATOM     10  C   LIG d   1      -9.150  96.271 119.133  0.00  0.00     0.006 C 
ENDBRANCH   8   9
BRANCH   8  11
ATOM     11  C   LIG d   1      -6.880  96.580 117.846  0.00  0.00     0.028 C 
ATOM     12  C   LIG d   1      -5.809  97.646 118.126  0.00  0.00     0.006 C 
ENDBRANCH   8  11
ENDBRANCH   7   8
ENDBRANCH   1   7
BRANCH   6  13
ATOM     13  N   LIG d   1      -6.958  91.321 116.974  0.00  0.00    -0.311 N 
ATOM     14  C   LIG d   1      -7.413  90.962 115.775  0.00  0.00     0.210 C 
ATOM     15  C   LIG d   1      -8.671  90.088 115.795  0.00  0.00     0.109 C 
ATOM     16  O   LIG d   1      -6.875  91.258 114.697  0.00  0.00    -0.276 OA
ATOM     17  H   LIG d   1      -7.437  91.010 117.796  0.00  0.00     0.149 HD
ENDBRANCH   6  13
BRANCH   5  18
ATOM     18  N   LIG d   1      -4.117  90.585 116.124  0.00  0.00     0.381 N 
ATOM     19  H   LIG d   1      -3.296  90.969 115.700  0.00  0.00    -0.090 HD
ATOM     20  H   LIG d   1      -4.873  90.653 115.466  0.00  0.00    -0.090 HD
ATOM     21  H   LIG d   1      -3.961  89.631 116.364  0.00  0.00    -0.090 HD
ENDBRANCH   5  18
BRANCH   3  22
ATOM     22  C   LIG d   1      -2.493  93.644 119.432  0.00  0.00     0.382 C 
ATOM     23  O   LIG d   1      -1.320  93.354 119.095  0.00  0.00    -0.241 OA
ATOM     24  O   LIG d   1      -2.688  94.293 120.478  0.00  0.00    -0.241 OA
ENDBRANCH   3  22
TORSDOF 7
ENDMDL
MODEL 4
REMARK VINA RESULT:      -5.0     16.293     19.682
REMARK  7 active torsions:
REMARK  status: ('A' for Active; 'I' for Inactive)
REMARK    1  A    between atoms: C_2  and  C_3 
REMARK    2  A    between atoms: C_3  and  O_6 
REMARK    3  A    between atoms: C_3  and  C_4 
REMARK    4  A    between atoms: C_7  and  O_6 
REMARK    5  A    between atoms: C_9  and  C_10 
REMARK    6  A    between atoms: N_15  and  C_14 
REMARK    7  A    between atoms: N_20  and  C_19 
REMARK       I    between atoms: C_22  and  N_20 
ROOT
ATOM      1  C   LIG d   1      -4.715  93.180 119.458  0.00  0.00     0.161 C 
ATOM      2  C   LIG d   1      -3.803  92.206 119.015  0.00  0.00     0.016 C 
ATOM      3  C   LIG d   1      -3.937  91.516 117.789  0.00  0.00     0.038 C 
ATOM      4  C   LIG d   1      -4.915  91.862 116.846  0.00  0.00     0.028 C 
ATOM      5  C   LIG d   1      -6.159  92.490 117.465  0.00  0.00    -0.047 C 
ATOM      6  C   LIG d   1      -5.727  93.650 118.392  0.00  0.00     0.091 C 
ENDROOT
BRANCH   1   7
ATOM      7  O   LIG d   1      -4.000  94.307 120.002  0.00  0.00    -0.368 OA
BRANCH   7   8
ATOM      8  C   LIG d   1      -3.498  95.268 119.041  0.00  0.00     0.119 C 
BRANCH   8   9
ATOM      9  C   LIG d   1      -1.962  95.149 119.027  0.00  0.00     0.028 C 
ATOM     10  C   LIG d   1      -1.419  94.716 117.655  0.00  0.00     0.006 C 
ENDBRANCH   8   9
BRANCH   8  11
ATOM     11  C   LIG d   1      -3.790  96.704 119.484  0.00  0.00     0.028 C 
ATOM     12  C   LIG d   1      -3.614  97.726 118.349  0.00  0.00     0.006 C 
ENDBRANCH   8  11
ENDBRANCH   7   8
ENDBRANCH   1   7
BRANCH   6  13
ATOM     13  N   LIG d   1      -6.877  94.266 119.104  0.00  0.00    -0.311 N 
ATOM     14  C   LIG d   1      -7.348  95.479 118.824  0.00  0.00     0.210 C 
ATOM     15  C   LIG d   1      -8.527  95.931 119.691  0.00  0.00     0.109 C 
ATOM     16  O   LIG d   1      -6.922  96.212 117.918  0.00  0.00    -0.276 OA
ATOM     17  H   LIG d   1      -7.302  93.727 119.833  0.00  0.00     0.149 HD
ENDBRANCH   6  13
BRANCH   5  18
ATOM     18  N   LIG d   1      -7.035  92.928 116.362  0.00  0.00     0.381 N 
ATOM     19  H   LIG d   1      -7.942  92.520 116.467  0.00  0.00    -0.090 HD
ATOM     20  H   LIG d   1      -6.645  92.610 115.492  0.00  0.00    -0.090 HD
ATOM     21  H   LIG d   1      -7.108  93.921 116.358  0.00  0.00    -0.090 HD
ENDBRANCH   5  18
BRANCH   3  22
ATOM     22  C   LIG d   1      -3.109  90.438 117.514  0.00  0.00     0.382 C 
ATOM     23  O   LIG d   1      -1.989  90.349 118.072  0.00  0.00    -0.241 OA
ATOM     24  O   LIG d   1      -3.449  89.577 116.680  0.00  0.00    -0.241 OA
ENDBRANCH   3  22
TORSDOF 7
ENDMDL
MODEL 5
REMARK VINA RESULT:      -4.9      2.439      3.470
REMARK  7 active torsions:
REMARK  status: ('A' for Active; 'I' for Inactive)
REMARK    1  A    between atoms: C_2  and  C_3 
REMARK    2  A    between atoms: C_3  and  O_6 
REMARK    3  A    between atoms: C_3  and  C_4 
REMARK    4  A    between atoms: C_7  and  O_6 
REMARK    5  A    between atoms: C_9  and  C_10 
REMARK    6  A    between atoms: N_15  and  C_14 
REMARK    7  A    between atoms: N_20  and  C_19 
REMARK       I    between atoms: C_22  and  N_20 
ROOT
ATOM      1  C   LIG d   1      -4.777  76.302 117.843  0.00  0.00     0.161 C 
ATOM      2  C   LIG d   1      -5.905  77.139 117.868  0.00  0.00     0.016 C 
ATOM      3  C   LIG d   1      -5.924  78.436 117.306  0.00  0.00     0.038 C 
ATOM      4  C   LIG d   1      -4.856  78.928 116.541  0.00  0.00     0.028 C 
ATOM      5  C   LIG d   1      -3.510  78.318 116.918  0.00  0.00    -0.047 C 
ATOM      6  C   LIG d   1      -3.639  76.778 116.917  0.00  0.00     0.091 C 
ENDROOT
BRANCH   1   7
ATOM      7  O   LIG d   1      -5.173  74.959 117.501  0.00  0.00    -0.368 OA
BRANCH   7   8
ATOM      8  C   LIG d   1      -6.283  74.838 116.577  0.00  0.00     0.119 C 
BRANCH   8   9
ATOM      9  C   LIG d   1      -7.082  73.582 116.976  0.00  0.00     0.028 C 
ATOM     10  C   LIG d   1      -6.944  72.447 115.947  0.00  0.00     0.006 C 
ENDBRANCH   8   9
BRANCH   8  11
ATOM     11  C   LIG d   1      -5.794  74.571 115.150  0.00  0.00     0.028 C 
ATOM     12  C   LIG d   1      -5.837  75.825 114.262  0.00  0.00     0.006 C 
ENDBRANCH   8  11
ENDBRANCH   7   8
ENDBRANCH   1   7
BRANCH   6  13
ATOM     13  N   LIG d   1      -2.389  76.104 117.357  0.00  0.00    -0.311 N 
ATOM     14  C   LIG d   1      -1.806  75.122 116.672  0.00  0.00     0.210 C 
ATOM     15  C   LIG d   1      -0.536  74.552 117.313  0.00  0.00     0.109 C 
ATOM     16  O   LIG d   1      -2.201  74.691 115.578  0.00  0.00    -0.276 OA
ATOM     17  H   LIG d   1      -1.984  76.413 118.218  0.00  0.00     0.149 HD
ENDBRANCH   6  13
BRANCH   5  18
ATOM     18  N   LIG d   1      -2.510  78.815 115.954  0.00  0.00     0.381 N 
ATOM     19  H   LIG d   1      -2.808  78.611 115.022  0.00  0.00    -0.090 HD
ATOM     20  H   LIG d   1      -1.638  78.343 116.118  0.00  0.00    -0.090 HD
ATOM     21  H   LIG d   1      -2.389  79.798 116.065  0.00  0.00    -0.090 HD
ENDBRANCH   5  18
BRANCH   3  22
ATOM     22  C   LIG d   1      -7.006  79.271 117.540  0.00  0.00     0.382 C 
ATOM     23  O   LIG d   1      -6.937  80.486 117.238  0.00  0.00    -0.241 OA
ATOM     24  O   LIG d   1      -8.035  78.833 118.089  0.00  0.00    -0.241 OA
ENDBRANCH   3  22
TORSDOF 7
ENDMDL
MODEL 6
REMARK VINA RESULT:      -4.9      2.417      5.208
REMARK  7 active torsions:
REMARK  status: ('A' for Active; 'I' for Inactive)
REMARK    1  A    between atoms: C_2  and  C_3 
REMARK    2  A    between atoms: C_3  and  O_6 
REMARK    3  A    between atoms: C_3  and  C_4 
REMARK    4  A    between atoms: C_7  and  O_6 
REMARK    5  A    between atoms: C_9  and  C_10 
REMARK    6  A    between atoms: N_15  and  C_14 
REMARK    7  A    between atoms: N_20  and  C_19 
REMARK       I    between atoms: C_22  and  N_20 
ROOT
ATOM      1  C   LIG d   1      -5.114  75.051 116.289  0.00  0.00     0.161 C 
ATOM      2  C   LIG d   1      -4.685  76.387 116.219  0.00  0.00     0.016 C 
ATOM      3  C   LIG d   1      -5.509  77.487 116.550  0.00  0.00     0.038 C 
ATOM      4  C   LIG d   1      -6.778  77.317 117.123  0.00  0.00     0.028 C 
ATOM      5  C   LIG d   1      -7.444  75.999 116.741  0.00  0.00    -0.047 C 
ATOM      6  C   LIG d   1      -6.458  74.841 117.017  0.00  0.00     0.091 C 
ENDROOT
BRANCH   1   7
ATOM      7  O   LIG d   1      -4.086  74.239 116.890  0.00  0.00    -0.368 OA
BRANCH   7   8
ATOM      8  C   LIG d   1      -2.883  74.934 117.300  0.00  0.00     0.119 C 
BRANCH   8   9
ATOM      9  C   LIG d   1      -1.709  74.342 116.496  0.00  0.00     0.028 C 
ATOM     10  C   LIG d   1      -1.132  75.340 115.478  0.00  0.00     0.006 C 
ENDBRANCH   8   9
BRANCH   8  11
ATOM     11  C   LIG d   1      -2.551  74.655 118.768  0.00  0.00     0.028 C 
ATOM     12  C   LIG d   1      -1.915  73.272 118.983  0.00  0.00     0.006 C 
ENDBRANCH   8  11
ENDBRANCH   7   8
ENDBRANCH   1   7
BRANCH   6  13
ATOM     13  N   LIG d   1      -6.998  73.523 116.593  0.00  0.00    -0.311 N 
ATOM     14  C   LIG d   1      -7.740  72.746 117.380  0.00  0.00     0.210 C 
ATOM     15  C   LIG d   1      -8.178  71.419 116.753  0.00  0.00     0.109 C 
ATOM     16  O   LIG d   1      -8.103  73.044 118.528  0.00  0.00    -0.276 OA
ATOM     17  H   LIG d   1      -6.778  73.217 115.665  0.00  0.00     0.149 HD
ENDBRANCH   6  13
BRANCH   5  18
ATOM     18  N   LIG d   1      -8.695  75.891 117.515  0.00  0.00     0.381 N 
ATOM     19  H   LIG d   1      -8.666  75.075 118.093  0.00  0.00    -0.090 HD
ATOM     20  H   LIG d   1      -9.465  75.797 116.876  0.00  0.00    -0.090 HD
ATOM     21  H   LIG d   1      -8.819  76.703 118.079  0.00  0.00    -0.090 HD
ENDBRANCH   5  18
BRANCH   3  22
ATOM     22  C   LIG d   1      -5.080  78.776 116.272  0.00  0.00     0.382 C 
ATOM     23  O   LIG d   1      -3.932  78.967 115.802  0.00  0.00    -0.241 OA
ATOM     24  O   LIG d   1      -5.809  79.754 116.526  0.00  0.00    -0.241 OA
ENDBRANCH   3  22
TORSDOF 7
ENDMDL
MODEL 7
REMARK VINA RESULT:      -4.8      2.214      5.097
REMARK  7 active torsions:
REMARK  status: ('A' for Active; 'I' for Inactive)
REMARK    1  A    between atoms: C_2  and  C_3 
REMARK    2  A    between atoms: C_3  and  O_6 
REMARK    3  A    between atoms: C_3  and  C_4 
REMARK    4  A    between atoms: C_7  and  O_6 
REMARK    5  A    between atoms: C_9  and  C_10 
REMARK    6  A    between atoms: N_15  and  C_14 
REMARK    7  A    between atoms: N_20  and  C_19 
REMARK       I    between atoms: C_22  and  N_20 
ROOT
ATOM      1  C   LIG d   1      -5.526  76.249 117.917  0.00  0.00     0.161 C 
ATOM      2  C   LIG d   1      -5.983  74.952 117.633  0.00  0.00     0.016 C 
ATOM      3  C   LIG d   1      -7.352  74.621 117.502  0.00  0.00     0.038 C 
ATOM      4  C   LIG d   1      -8.355  75.601 117.498  0.00  0.00     0.028 C 
ATOM      5  C   LIG d   1      -7.981  76.853 118.285  0.00  0.00    -0.047 C 
ATOM      6  C   LIG d   1      -6.599  77.353 117.806  0.00  0.00     0.091 C 
ENDROOT
BRANCH   1   7
ATOM      7  O   LIG d   1      -4.395  76.564 117.080  0.00  0.00    -0.368 OA
BRANCH   7   8
ATOM      8  C   LIG d   1      -4.173  75.682 115.952  0.00  0.00     0.119 C 
BRANCH   8   9
ATOM      9  C   LIG d   1      -2.665  75.372 115.897  0.00  0.00     0.028 C 
ATOM     10  C   LIG d   1      -2.238  74.343 116.958  0.00  0.00     0.006 C 
ENDBRANCH   8   9
BRANCH   8  11
ATOM     11  C   LIG d   1      -4.492  76.381 114.627  0.00  0.00     0.028 C 
ATOM     12  C   LIG d   1      -5.951  76.183 114.185  0.00  0.00     0.006 C 
ENDBRANCH   8  11
ENDBRANCH   7   8
ENDBRANCH   1   7
BRANCH   6  13
ATOM     13  N   LIG d   1      -6.120  78.526 118.583  0.00  0.00    -0.311 N 
ATOM     14  C   LIG d   1      -6.335  79.787 118.214  0.00  0.00     0.210 C 
ATOM     15  C   LIG d   1      -5.738  80.845 119.147  0.00  0.00     0.109 C 
ATOM     16  O   LIG d   1      -6.992  80.131 117.219  0.00  0.00    -0.276 OA
ATOM     17  H   LIG d   1      -5.605  78.338 119.421  0.00  0.00     0.149 HD
ENDBRANCH   6  13
BRANCH   5  18
ATOM     18  N   LIG d   1      -9.055  77.844 118.083  0.00  0.00     0.381 N 
ATOM     19  H   LIG d   1      -9.831  77.412 117.622  0.00  0.00    -0.090 HD
ATOM     20  H   LIG d   1      -8.710  78.582 117.495  0.00  0.00    -0.090 HD
ATOM     21  H   LIG d   1      -9.346  78.216 118.960  0.00  0.00    -0.090 HD
ENDBRANCH   5  18
BRANCH   3  22
ATOM     22  C   LIG d   1      -7.731  73.290 117.413  0.00  0.00     0.382 C 
ATOM     23  O   LIG d   1      -7.382  72.604 116.423  0.00  0.00    -0.241 OA
ATOM     24  O   LIG d   1      -8.455  72.780 118.289  0.00  0.00    -0.241 OA
ENDBRANCH   3  22
TORSDOF 7
ENDMDL
MODEL 8
REMARK VINA RESULT:      -4.8      2.356      5.124
REMARK  7 active torsions:
REMARK  status: ('A' for Active; 'I' for Inactive)
REMARK    1  A    between atoms: C_2  and  C_3 
REMARK    2  A    between atoms: C_3  and  O_6 
REMARK    3  A    between atoms: C_3  and  C_4 
REMARK    4  A    between atoms: C_7  and  O_6 
REMARK    5  A    between atoms: C_9  and  C_10 
REMARK    6  A    between atoms: N_15  and  C_14 
REMARK    7  A    between atoms: N_20  and  C_19 
REMARK       I    between atoms: C_22  and  N_20 
ROOT
ATOM      1  C   LIG d   1      -6.362  75.567 117.422  0.00  0.00     0.161 C 
ATOM      2  C   LIG d   1      -7.262  74.610 117.918  0.00  0.00     0.016 C 
ATOM      3  C   LIG d   1      -7.508  73.370 117.285  0.00  0.00     0.038 C 
ATOM      4  C   LIG d   1      -6.752  72.936 116.186  0.00  0.00     0.028 C 
ATOM      5  C   LIG d   1      -6.185  74.080 115.351  0.00  0.00    -0.047 C 
ATOM      6  C   LIG d   1      -5.446  75.065 116.285  0.00  0.00     0.091 C 
ENDROOT
BRANCH   1   7
ATOM      7  O   LIG d   1      -5.572  76.101 118.502  0.00  0.00    -0.368 OA
BRANCH   7   8
ATOM      8  C   LIG d   1      -5.861  77.468 118.887  0.00  0.00     0.119 C 
BRANCH   8   9
ATOM      9  C   LIG d   1      -6.676  77.418 120.194  0.00  0.00     0.028 C 
ATOM     10  C   LIG d   1      -8.169  77.705 119.965  0.00  0.00     0.006 C 
ENDBRANCH   8   9
BRANCH   8  11
ATOM     11  C   LIG d   1      -6.773  78.154 117.866  0.00  0.00     0.028 C 
ATOM     12  C   LIG d   1      -6.138  79.409 117.248  0.00  0.00     0.006 C 
ENDBRANCH   8  11
ENDBRANCH   7   8
ENDBRANCH   1   7
BRANCH   6  13
ATOM     13  N   LIG d   1      -4.934  76.257 115.561  0.00  0.00    -0.311 N 
ATOM     14  C   LIG d   1      -3.710  76.327 115.038  0.00  0.00     0.210 C 
ATOM     15  C   LIG d   1      -3.377  77.655 114.351  0.00  0.00     0.109 C 
ATOM     16  O   LIG d   1      -2.882  75.405 115.051  0.00  0.00    -0.276 OA
ATOM     17  H   LIG d   1      -5.551  77.040 115.477  0.00  0.00     0.149 HD
ENDBRANCH   6  13
BRANCH   5  18
ATOM     18  N   LIG d   1      -5.308  73.489 114.323  0.00  0.00     0.381 N 
ATOM     19  H   LIG d   1      -4.683  72.833 114.748  0.00  0.00    -0.090 HD
ATOM     20  H   LIG d   1      -4.761  74.220 113.904  0.00  0.00    -0.090 HD
ATOM     21  H   LIG d   1      -5.856  73.033 113.627  0.00  0.00    -0.090 HD
ENDBRANCH   5  18
BRANCH   3  22
ATOM     22  C   LIG d   1      -8.548  72.566 117.727  0.00  0.00     0.382 C 
ATOM     23  O   LIG d   1      -8.300  71.455 118.256  0.00  0.00    -0.241 OA
ATOM     24  O   LIG d   1      -9.731  72.918 117.565  0.00  0.00    -0.241 OA
ENDBRANCH   3  22
TORSDOF 7
ENDMDL
MODEL 9
REMARK VINA RESULT:      -4.6      2.649      5.553
REMARK  7 active torsions:
REMARK  status: ('A' for Active; 'I' for Inactive)
REMARK    1  A    between atoms: C_2  and  C_3 
REMARK    2  A    between atoms: C_3  and  O_6 
REMARK    3  A    between atoms: C_3  and  C_4 
REMARK    4  A    between atoms: C_7  and  O_6 
REMARK    5  A    between atoms: C_9  and  C_10 
REMARK    6  A    between atoms: N_15  and  C_14 
REMARK    7  A    between atoms: N_20  and  C_19 
REMARK       I    between atoms: C_22  and  N_20 
ROOT
ATOM      1  C   LIG d   1      -4.679  75.947 116.256  0.00  0.00     0.161 C 
ATOM      2  C   LIG d   1      -3.641  75.086 115.863  0.00  0.00     0.016 C 
ATOM      3  C   LIG d   1      -2.462  74.892 116.618  0.00  0.00     0.038 C 
ATOM      4  C   LIG d   1      -2.307  75.435 117.903  0.00  0.00     0.028 C 
ATOM      5  C   LIG d   1      -3.109  76.713 118.121  0.00  0.00    -0.047 C 
ATOM      6  C   LIG d   1      -4.577  76.461 117.708  0.00  0.00     0.091 C 
ENDROOT
BRANCH   1   7
ATOM      7  O   LIG d   1      -5.953  75.307 116.040  0.00  0.00    -0.368 OA
BRANCH   7   8
ATOM      8  C   LIG d   1      -6.177  74.072 116.763  0.00  0.00     0.119 C 
BRANCH   8   9
ATOM      9  C   LIG d   1      -6.497  72.979 115.725  0.00  0.00     0.028 C 
ATOM     10  C   LIG d   1      -7.545  71.975 116.235  0.00  0.00     0.006 C 
ENDBRANCH   8   9
BRANCH   8  11
ATOM     11  C   LIG d   1      -7.421  74.165 117.652  0.00  0.00     0.028 C 
ATOM     12  C   LIG d   1      -8.188  75.484 117.467  0.00  0.00     0.006 C 
ENDBRANCH   8  11
ENDBRANCH   7   8
ENDBRANCH   1   7
BRANCH   6  13
ATOM     13  N   LIG d   1      -5.413  77.685 117.810  0.00  0.00    -0.311 N 
ATOM     14  C   LIG d   1      -5.305  78.719 116.978  0.00  0.00     0.210 C 
ATOM     15  C   LIG d   1      -6.249  79.889 117.273  0.00  0.00     0.109 C 
ATOM     16  O   LIG d   1      -4.540  78.765 116.003  0.00  0.00    -0.276 OA
ATOM     17  H   LIG d   1      -6.083  77.720 118.554  0.00  0.00     0.149 HD
ENDBRANCH   6  13
BRANCH   5  18
ATOM     18  N   LIG d   1      -2.965  77.093 119.539  0.00  0.00     0.381 N 
ATOM     19  H   LIG d   1      -3.393  77.984 119.697  0.00  0.00    -0.090 HD
ATOM     20  H   LIG d   1      -1.988  77.169 119.758  0.00  0.00    -0.090 HD
ATOM     21  H   LIG d   1      -3.391  76.405 120.121  0.00  0.00    -0.090 HD
ENDBRANCH   5  18
BRANCH   3  22
ATOM     22  C   LIG d   1      -1.405  74.180 116.072  0.00  0.00     0.382 C 
ATOM     23  O   LIG d   1      -1.155  74.270 114.846  0.00  0.00    -0.241 OA
ATOM     24  O   LIG d   1      -0.725  73.415 116.782  0.00  0.00    -0.241 OA
ENDBRANCH   3  22
TORSDOF 7
ENDMDL
