MODEL 1
REMARK VINA RESULT:      -5.6      0.000      0.000
REMARK  7 active torsions:
REMARK  status: ('A' for Active; 'I' for Inactive)
REMARK    1  A    between atoms: C_2  and  C_3 
REMARK    2  A    between atoms: C_3  and  O_6 
REMARK    3  A    between atoms: C_3  and  C_4 
REMARK    4  A    between atoms: C_7  and  O_6 
REMARK    5  A    between atoms: C_9  and  C_10 
REMARK    6  A    between atoms: N_15  and  C_14 
REMARK    7  A    between atoms: N_20  and  C_19 
REMARK       I    between atoms: C_22  and  N_20 
ROOT
ATOM      1  C   LIG d   1      -8.086  75.196 116.839  0.00  0.00     0.161 C 
ATOM      2  C   LIG d   1      -7.026  74.944 115.952  0.00  0.00     0.016 C 
ATOM      3  C   LIG d   1      -5.867  75.752 115.876  0.00  0.00     0.038 C 
ATOM      4  C   LIG d   1      -5.622  76.785 116.792  0.00  0.00     0.028 C 
ATOM      5  C   LIG d   1      -6.893  77.391 117.377  0.00  0.00    -0.047 C 
ATOM      6  C   LIG d   1      -7.786  76.253 117.922  0.00  0.00     0.091 C 
ENDROOT
BRANCH   1   7
ATOM      7  O   LIG d   1      -8.517  73.963 117.448  0.00  0.00    -0.368 OA
BRANCH   7   8
ATOM      8  C   LIG d   1      -9.565  73.242 116.755  0.00  0.00     0.119 C 
BRANCH   8   9
ATOM      9  C   LIG d   1     -10.823  73.287 117.642  0.00  0.00     0.028 C 
ATOM     10  C   LIG d   1     -11.733  74.482 117.310  0.00  0.00     0.006 C 
ENDBRANCH   8   9
BRANCH   8  11
ATOM     11  C   LIG d   1      -9.220  71.756 116.615  0.00  0.00     0.028 C 
ATOM     12  C   LIG d   1      -9.123  71.037 117.970  0.00  0.00     0.006 C 
ENDBRANCH   8  11
ENDBRANCH   7   8
ENDBRANCH   1   7
BRANCH   6  13
ATOM     13  N   LIG d   1      -9.088  76.752 118.437  0.00  0.00    -0.311 N 
ATOM     14  C   LIG d   1      -9.623  76.350 119.588  0.00  0.00     0.210 C 
ATOM     15  C   LIG d   1     -10.982  76.974 119.922  0.00  0.00     0.109 C 
ATOM     16  O   LIG d   1      -9.087  75.561 120.381  0.00  0.00    -0.276 OA
ATOM     17  H   LIG d   1      -9.577  77.419 117.872  0.00  0.00     0.149 HD
ENDBRANCH   6  13
BRANCH   5  18
ATOM     18  N   LIG d   1      -6.489  78.357 118.415  0.00  0.00     0.381 N 
ATOM     19  H   LIG d   1      -5.938  79.085 118.005  0.00  0.00    -0.090 HD
ATOM     20  H   LIG d   1      -5.926  77.883 119.099  0.00  0.00    -0.090 HD
ATOM     21  H   LIG d   1      -7.296  78.747 118.851  0.00  0.00    -0.090 HD
ENDBRANCH   5  18
BRANCH   3  22
ATOM     22  C   LIG d   1      -4.958  75.553 114.848  0.00  0.00     0.382 C 
ATOM     23  O   LIG d   1      -5.028  76.248 113.805  0.00  0.00    -0.241 OA
ATOM     24  O   LIG d   1      -4.096  74.657 114.931  0.00  0.00    -0.241 OA
ENDBRANCH   3  22
TORSDOF 7
ENDMDL
MODEL 2
REMARK VINA RESULT:      -5.5      2.187      4.946
REMARK  7 active torsions:
REMARK  status: ('A' for Active; 'I' for Inactive)
REMARK    1  A    between atoms: C_2  and  C_3 
REMARK    2  A    between atoms: C_3  and  O_6 
REMARK    3  A    between atoms: C_3  and  C_4 
REMARK    4  A    between atoms: C_7  and  O_6 
REMARK    5  A    between atoms: C_9  and  C_10 
REMARK    6  A    between atoms: N_15  and  C_14 
REMARK    7  A    between atoms: N_20  and  C_19 
REMARK       I    between atoms: C_22  and  N_20 
ROOT
ATOM      1  C   LIG d   1      -8.589  76.358 117.954  0.00  0.00     0.161 C 
ATOM      2  C   LIG d   1      -9.602  77.262 118.318  0.00  0.00     0.016 C 
ATOM      3  C   LIG d   1      -9.418  78.663 118.353  0.00  0.00     0.038 C 
ATOM      4  C   LIG d   1      -8.246  79.270 117.878  0.00  0.00     0.028 C 
ATOM      5  C   LIG d   1      -7.017  78.372 117.976  0.00  0.00    -0.047 C 
ATOM      6  C   LIG d   1      -7.339  77.008 117.325  0.00  0.00     0.091 C 
ENDROOT
BRANCH   1   7
ATOM      7  O   LIG d   1      -9.127  75.351 117.074  0.00  0.00    -0.368 OA
BRANCH   7   8
ATOM      8  C   LIG d   1      -9.067  73.986 117.556  0.00  0.00     0.119 C 
BRANCH   8   9
ATOM      9  C   LIG d   1      -8.252  73.170 116.534  0.00  0.00     0.028 C 
ATOM     10  C   LIG d   1      -8.735  71.713 116.428  0.00  0.00     0.006 C 
ENDBRANCH   8   9
BRANCH   8  11
ATOM     11  C   LIG d   1     -10.455  73.341 117.576  0.00  0.00     0.028 C 
ATOM     12  C   LIG d   1     -11.584  74.347 117.300  0.00  0.00     0.006 C 
ENDBRANCH   8  11
ENDBRANCH   7   8
ENDBRANCH   1   7
BRANCH   6  13
ATOM     13  N   LIG d   1      -6.217  76.041 117.453  0.00  0.00    -0.311 N 
ATOM     14  C   LIG d   1      -5.281  75.876 116.520  0.00  0.00     0.210 C 
ATOM     15  C   LIG d   1      -4.227  74.812 116.843  0.00  0.00     0.109 C 
ATOM     16  O   LIG d   1      -5.206  76.532 115.471  0.00  0.00    -0.276 OA
ATOM     17  H   LIG d   1      -6.184  75.489 118.288  0.00  0.00     0.149 HD
ENDBRANCH   6  13
BRANCH   5  18
ATOM     18  N   LIG d   1      -5.898  79.076 117.321  0.00  0.00     0.381 N 
ATOM     19  H   LIG d   1      -5.156  79.216 117.977  0.00  0.00    -0.090 HD
ATOM     20  H   LIG d   1      -6.218  79.976 117.009  0.00  0.00    -0.090 HD
ATOM     21  H   LIG d   1      -5.569  78.545 116.545  0.00  0.00    -0.090 HD
ENDBRANCH   5  18
BRANCH   3  22
ATOM     22  C   LIG d   1     -10.400  79.471 118.906  0.00  0.00     0.382 C 
ATOM     23  O   LIG d   1     -11.008  79.102 119.940  0.00  0.00    -0.241 OA
ATOM     24  O   LIG d   1     -10.718  80.544 118.358  0.00  0.00    -0.241 OA
ENDBRANCH   3  22
TORSDOF 7
ENDMDL
MODEL 3
REMARK VINA RESULT:      -5.3      2.456      5.184
REMARK  7 active torsions:
REMARK  status: ('A' for Active; 'I' for Inactive)
REMARK    1  A    between atoms: C_2  and  C_3 
REMARK    2  A    between atoms: C_3  and  O_6 
REMARK    3  A    between atoms: C_3  and  C_4 
REMARK    4  A    between atoms: C_7  and  O_6 
REMARK    5  A    between atoms: C_9  and  C_10 
REMARK    6  A    between atoms: N_15  and  C_14 
REMARK    7  A    between atoms: N_20  and  C_19 
REMARK       I    between atoms: C_22  and  N_20 
ROOT
ATOM      1  C   LIG d   1      -8.936  75.951 119.082  0.00  0.00     0.161 C 
ATOM      2  C   LIG d   1      -8.788  74.675 118.514  0.00  0.00     0.016 C 
ATOM      3  C   LIG d   1      -9.819  74.012 117.810  0.00  0.00     0.038 C 
ATOM      4  C   LIG d   1     -11.028  74.648 117.493  0.00  0.00     0.028 C 
ATOM      5  C   LIG d   1     -11.411  75.747 118.479  0.00  0.00    -0.047 C 
ATOM      6  C   LIG d   1     -10.211  76.706 118.652  0.00  0.00     0.091 C 
ENDROOT
BRANCH   1   7
ATOM      7  O   LIG d   1      -7.766  76.747 118.809  0.00  0.00    -0.368 OA
BRANCH   7   8
ATOM      8  C   LIG d   1      -7.688  77.331 117.485  0.00  0.00     0.119 C 
BRANCH   8   9
ATOM      9  C   LIG d   1      -6.534  76.634 116.739  0.00  0.00     0.028 C 
ATOM     10  C   LIG d   1      -7.008  75.915 115.465  0.00  0.00     0.006 C 
ENDBRANCH   8   9
BRANCH   8  11
ATOM     11  C   LIG d   1      -7.294  78.810 117.551  0.00  0.00     0.028 C 
ATOM     12  C   LIG d   1      -6.907  79.261 118.968  0.00  0.00     0.006 C 
ENDBRANCH   8  11
ENDBRANCH   7   8
ENDBRANCH   1   7
BRANCH   6  13
ATOM     13  N   LIG d   1     -10.472  77.763 119.664  0.00  0.00    -0.311 N 
ATOM     14  C   LIG d   1     -10.626  79.050 119.357  0.00  0.00     0.210 C 
ATOM     15  C   LIG d   1     -10.866  79.976 120.554  0.00  0.00     0.109 C 
ATOM     16  O   LIG d   1     -10.620  79.508 118.204  0.00  0.00    -0.276 OA
ATOM     17  H   LIG d   1     -10.524  77.475 120.621  0.00  0.00     0.149 HD
ENDBRANCH   6  13
BRANCH   5  18
ATOM     18  N   LIG d   1     -12.616  76.417 117.954  0.00  0.00     0.381 N 
ATOM     19  H   LIG d   1     -12.640  77.366 118.269  0.00  0.00    -0.090 HD
ATOM     20  H   LIG d   1     -13.430  75.946 118.309  0.00  0.00    -0.090 HD
ATOM     21  H   LIG d   1     -12.615  76.389 116.959  0.00  0.00    -0.090 HD
ENDBRANCH   5  18
BRANCH   3  22
ATOM     22  C   LIG d   1      -9.660  72.683 117.449  0.00  0.00     0.382 C 
ATOM     23  O   LIG d   1      -8.993  72.386 116.428  0.00  0.00    -0.241 OA
ATOM     24  O   LIG d   1     -10.211  71.779 118.105  0.00  0.00    -0.241 OA
ENDBRANCH   3  22
TORSDOF 7
ENDMDL
MODEL 4
REMARK VINA RESULT:      -5.2      2.793      5.039
REMARK  7 active torsions:
REMARK  status: ('A' for Active; 'I' for Inactive)
REMARK    1  A    between atoms: C_2  and  C_3 
REMARK    2  A    between atoms: C_3  and  O_6 
REMARK    3  A    between atoms: C_3  and  C_4 
REMARK    4  A    between atoms: C_7  and  O_6 
REMARK    5  A    between atoms: C_9  and  C_10 
REMARK    6  A    between atoms: N_15  and  C_14 
REMARK    7  A    between atoms: N_20  and  C_19 
REMARK       I    between atoms: C_22  and  N_20 
ROOT
ATOM      1  C   LIG d   1      -8.096  77.212 117.447  0.00  0.00     0.161 C 
ATOM      2  C   LIG d   1      -7.811  78.576 117.620  0.00  0.00     0.016 C 
ATOM      3  C   LIG d   1      -8.685  79.478 118.270  0.00  0.00     0.038 C 
ATOM      4  C   LIG d   1      -9.844  79.041 118.928  0.00  0.00     0.028 C 
ATOM      5  C   LIG d   1     -10.425  77.757 118.346  0.00  0.00    -0.047 C 
ATOM      6  C   LIG d   1      -9.304  76.696 118.256  0.00  0.00     0.091 C 
ENDROOT
BRANCH   1   7
ATOM      7  O   LIG d   1      -6.924  76.426 117.741  0.00  0.00    -0.368 OA
BRANCH   7   8
ATOM      8  C   LIG d   1      -5.965  76.283 116.664  0.00  0.00     0.119 C 
BRANCH   8   9
ATOM      9  C   LIG d   1      -6.662  75.514 115.525  0.00  0.00     0.028 C 
ATOM     10  C   LIG d   1      -6.810  74.015 115.833  0.00  0.00     0.006 C 
ENDBRANCH   8   9
BRANCH   8  11
ATOM     11  C   LIG d   1      -4.783  75.404 117.083  0.00  0.00     0.028 C 
ATOM     12  C   LIG d   1      -3.895  76.067 118.148  0.00  0.00     0.006 C 
ENDBRANCH   8  11
ENDBRANCH   7   8
ENDBRANCH   1   7
BRANCH   6  13
ATOM     13  N   LIG d   1      -9.767  75.436 117.619  0.00  0.00    -0.311 N 
ATOM     14  C   LIG d   1      -9.725  74.250 118.223  0.00  0.00     0.210 C 
ATOM     15  C   LIG d   1     -10.233  73.076 117.381  0.00  0.00     0.109 C 
ATOM     16  O   LIG d   1      -9.346  74.064 119.389  0.00  0.00    -0.276 OA
ATOM     17  H   LIG d   1     -10.120  75.500 116.684  0.00  0.00     0.149 HD
ENDBRANCH   6  13
BRANCH   5  18
ATOM     18  N   LIG d   1     -11.545  77.342 119.211  0.00  0.00     0.381 N 
ATOM     19  H   LIG d   1     -12.207  76.814 118.677  0.00  0.00    -0.090 HD
ATOM     20  H   LIG d   1     -12.006  78.163 119.561  0.00  0.00    -0.090 HD
ATOM     21  H   LIG d   1     -11.206  76.793 119.970  0.00  0.00    -0.090 HD
ENDBRANCH   5  18
BRANCH   3  22
ATOM     22  C   LIG d   1      -8.422  80.839 118.231  0.00  0.00     0.382 C 
ATOM     23  O   LIG d   1      -8.068  81.378 117.155  0.00  0.00    -0.241 OA
ATOM     24  O   LIG d   1      -8.493  81.526 119.267  0.00  0.00    -0.241 OA
ENDBRANCH   3  22
TORSDOF 7
ENDMDL
MODEL 5
REMARK VINA RESULT:      -5.2      2.571      5.388
REMARK  7 active torsions:
REMARK  status: ('A' for Active; 'I' for Inactive)
REMARK    1  A    between atoms: C_2  and  C_3 
REMARK    2  A    between atoms: C_3  and  O_6 
REMARK    3  A    between atoms: C_3  and  C_4 
REMARK    4  A    between atoms: C_7  and  O_6 
REMARK    5  A    between atoms: C_9  and  C_10 
REMARK    6  A    between atoms: N_15  and  C_14 
REMARK    7  A    between atoms: N_20  and  C_19 
REMARK       I    between atoms: C_22  and  N_20 
ROOT
ATOM      1  C   LIG d   1      -8.371  76.732 117.279  0.00  0.00     0.161 C 
ATOM      2  C   LIG d   1      -9.388  75.768 117.178  0.00  0.00     0.016 C 
ATOM      3  C   LIG d   1     -10.689  75.950 117.701  0.00  0.00     0.038 C 
ATOM      4  C   LIG d   1     -11.108  77.178 118.233  0.00  0.00     0.028 C 
ATOM      5  C   LIG d   1      -9.968  78.009 118.811  0.00  0.00    -0.047 C 
ATOM      6  C   LIG d   1      -8.843  78.121 117.757  0.00  0.00     0.091 C 
ENDROOT
BRANCH   1   7
ATOM      7  O   LIG d   1      -7.677  76.844 116.021  0.00  0.00    -0.368 OA
BRANCH   7   8
ATOM      8  C   LIG d   1      -6.282  76.454 116.025  0.00  0.00     0.119 C 
BRANCH   8   9
ATOM      9  C   LIG d   1      -6.130  75.267 115.055  0.00  0.00     0.028 C 
ATOM     10  C   LIG d   1      -6.469  73.921 115.716  0.00  0.00     0.006 C 
ENDBRANCH   8   9
BRANCH   8  11
ATOM     11  C   LIG d   1      -5.859  75.915 117.395  0.00  0.00     0.028 C 
ATOM     12  C   LIG d   1      -4.679  76.691 118.003  0.00  0.00     0.006 C 
ENDBRANCH   8  11
ENDBRANCH   7   8
ENDBRANCH   1   7
BRANCH   6  13
ATOM     13  N   LIG d   1      -7.653  78.848 118.272  0.00  0.00    -0.311 N 
ATOM     14  C   LIG d   1      -7.419  80.136 118.029  0.00  0.00     0.210 C 
ATOM     15  C   LIG d   1      -6.125  80.684 118.638  0.00  0.00     0.109 C 
ATOM     16  O   LIG d   1      -8.177  80.885 117.395  0.00  0.00    -0.276 OA
ATOM     17  H   LIG d   1      -7.002  78.323 118.823  0.00  0.00     0.149 HD
ENDBRANCH   6  13
BRANCH   5  18
ATOM     18  N   LIG d   1     -10.525  79.318 119.204  0.00  0.00     0.381 N 
ATOM     19  H   LIG d   1     -11.442  79.196 119.583  0.00  0.00    -0.090 HD
ATOM     20  H   LIG d   1     -10.595  79.899 118.388  0.00  0.00    -0.090 HD
ATOM     21  H   LIG d   1      -9.934  79.751 119.879  0.00  0.00    -0.090 HD
ENDBRANCH   5  18
BRANCH   3  22
ATOM     22  C   LIG d   1     -11.573  74.882 117.732  0.00  0.00     0.382 C 
ATOM     23  O   LIG d   1     -11.164  73.722 117.486  0.00  0.00    -0.241 OA
ATOM     24  O   LIG d   1     -12.783  75.071 117.960  0.00  0.00    -0.241 OA
ENDBRANCH   3  22
TORSDOF 7
ENDMDL
MODEL 6
REMARK VINA RESULT:      -5.1     15.796     18.193
REMARK  7 active torsions:
REMARK  status: ('A' for Active; 'I' for Inactive)
REMARK    1  A    between atoms: C_2  and  C_3 
REMARK    2  A    between atoms: C_3  and  O_6 
REMARK    3  A    between atoms: C_3  and  C_4 
REMARK    4  A    between atoms: C_7  and  O_6 
REMARK    5  A    between atoms: C_9  and  C_10 
REMARK    6  A    between atoms: N_15  and  C_14 
REMARK    7  A    between atoms: N_20  and  C_19 
REMARK       I    between atoms: C_22  and  N_20 
ROOT
ATOM      1  C   LIG d   1      -4.582  92.131 117.612  0.00  0.00     0.161 C 
ATOM      2  C   LIG d   1      -4.654  91.137 116.622  0.00  0.00     0.016 C 
ATOM      3  C   LIG d   1      -5.796  90.924 115.815  0.00  0.00     0.038 C 
ATOM      4  C   LIG d   1      -6.895  91.796 115.841  0.00  0.00     0.028 C 
ATOM      5  C   LIG d   1      -7.071  92.509 117.177  0.00  0.00    -0.047 C 
ATOM      6  C   LIG d   1      -5.729  93.163 117.578  0.00  0.00     0.091 C 
ENDROOT
BRANCH   1   7
ATOM      7  O   LIG d   1      -3.306  92.799 117.541  0.00  0.00    -0.368 OA
BRANCH   7   8
ATOM      8  C   LIG d   1      -2.247  92.237 118.355  0.00  0.00     0.119 C 
BRANCH   8   9
ATOM      9  C   LIG d   1      -2.192  93.045 119.666  0.00  0.00     0.028 C 
ATOM     10  C   LIG d   1      -2.309  94.560 119.426  0.00  0.00     0.006 C 
ENDBRANCH   8   9
BRANCH   8  11
ATOM     11  C   LIG d   1      -0.877  92.433 117.699  0.00  0.00     0.028 C 
ATOM     12  C   LIG d   1       0.287  92.034 118.620  0.00  0.00     0.006 C 
ENDBRANCH   8  11
ENDBRANCH   7   8
ENDBRANCH   1   7
BRANCH   6  13
ATOM     13  N   LIG d   1      -5.791  93.810 118.914  0.00  0.00    -0.311 N 
ATOM     14  C   LIG d   1      -6.161  95.076 119.099  0.00  0.00     0.210 C 
ATOM     15  C   LIG d   1      -6.136  95.552 120.555  0.00  0.00     0.109 C 
ATOM     16  O   LIG d   1      -6.538  95.841 118.199  0.00  0.00    -0.276 OA
ATOM     17  H   LIG d   1      -5.531  93.252 119.704  0.00  0.00     0.149 HD
ENDBRANCH   6  13
BRANCH   5  18
ATOM     18  N   LIG d   1      -8.166  93.485 117.020  0.00  0.00     0.381 N 
ATOM     19  H   LIG d   1      -9.018  93.098 117.373  0.00  0.00    -0.090 HD
ATOM     20  H   LIG d   1      -8.289  93.681 116.042  0.00  0.00    -0.090 HD
ATOM     21  H   LIG d   1      -7.946  94.325 117.509  0.00  0.00    -0.090 HD
ENDBRANCH   5  18
BRANCH   3  22
ATOM     22  C   LIG d   1      -5.861  89.806 114.998  0.00  0.00     0.382 C 
ATOM     23  O   LIG d   1      -6.931  89.523 114.407  0.00  0.00    -0.241 OA
ATOM     24  O   LIG d   1      -4.877  89.051 114.881  0.00  0.00    -0.241 OA
ENDBRANCH   3  22
TORSDOF 7
ENDMDL
MODEL 7
REMARK VINA RESULT:      -4.9      2.329      4.681
REMARK  7 active torsions:
REMARK  status: ('A' for Active; 'I' for Inactive)
REMARK    1  A    between atoms: C_2  and  C_3 
REMARK    2  A    between atoms: C_3  and  O_6 
REMARK    3  A    between atoms: C_3  and  C_4 
REMARK    4  A    between atoms: C_7  and  O_6 
REMARK    5  A    between atoms: C_9  and  C_10 
REMARK    6  A    between atoms: N_15  and  C_14 
REMARK    7  A    between atoms: N_20  and  C_19 
REMARK       I    between atoms: C_22  and  N_20 
ROOT
ATOM      1  C   LIG d   1      -7.369  77.239 117.540  0.00  0.00     0.161 C 
ATOM      2  C   LIG d   1      -6.345  76.697 116.746  0.00  0.00     0.016 C 
ATOM      3  C   LIG d   1      -6.376  75.382 116.228  0.00  0.00     0.038 C 
ATOM      4  C   LIG d   1      -7.511  74.566 116.343  0.00  0.00     0.028 C 
ATOM      5  C   LIG d   1      -8.366  74.887 117.564  0.00  0.00    -0.047 C 
ATOM      6  C   LIG d   1      -8.666  76.403 117.583  0.00  0.00     0.091 C 
ENDROOT
BRANCH   1   7
ATOM      7  O   LIG d   1      -7.656  78.586 117.114  0.00  0.00    -0.368 OA
BRANCH   7   8
ATOM      8  C   LIG d   1      -7.351  79.635 118.067  0.00  0.00     0.119 C 
BRANCH   8   9
ATOM      9  C   LIG d   1      -8.427  80.726 117.915  0.00  0.00     0.028 C 
ATOM     10  C   LIG d   1      -9.706  80.404 118.707  0.00  0.00     0.006 C 
ENDBRANCH   8   9
BRANCH   8  11
ATOM     11  C   LIG d   1      -6.024  80.323 117.731  0.00  0.00     0.028 C 
ATOM     12  C   LIG d   1      -4.861  79.838 118.610  0.00  0.00     0.006 C 
ENDBRANCH   8  11
ENDBRANCH   7   8
ENDBRANCH   1   7
BRANCH   6  13
ATOM     13  N   LIG d   1      -9.427  76.815 118.792  0.00  0.00    -0.311 N 
ATOM     14  C   LIG d   1     -10.757  76.851 118.843  0.00  0.00     0.210 C 
ATOM     15  C   LIG d   1     -11.340  77.324 120.178  0.00  0.00     0.109 C 
ATOM     16  O   LIG d   1     -11.510  76.504 117.921  0.00  0.00    -0.276 OA
ATOM     17  H   LIG d   1      -8.895  77.083 119.596  0.00  0.00     0.149 HD
ENDBRANCH   6  13
BRANCH   5  18
ATOM     18  N   LIG d   1      -9.584  74.058 117.486  0.00  0.00     0.381 N 
ATOM     19  H   LIG d   1      -9.333  73.100 117.343  0.00  0.00    -0.090 HD
ATOM     20  H   LIG d   1     -10.133  74.360 116.700  0.00  0.00    -0.090 HD
ATOM     21  H   LIG d   1     -10.113  74.149 118.325  0.00  0.00    -0.090 HD
ENDBRANCH   5  18
BRANCH   3  22
ATOM     22  C   LIG d   1      -5.246  74.857 115.619  0.00  0.00     0.382 C 
ATOM     23  O   LIG d   1      -4.335  74.352 116.318  0.00  0.00    -0.241 OA
ATOM     24  O   LIG d   1      -5.107  74.921 114.383  0.00  0.00    -0.241 OA
ENDBRANCH   3  22
TORSDOF 7
ENDMDL
MODEL 8
REMARK VINA RESULT:      -4.8     16.950     19.284
REMARK  7 active torsions:
REMARK  status: ('A' for Active; 'I' for Inactive)
REMARK    1  A    between atoms: C_2  and  C_3 
REMARK    2  A    between atoms: C_3  and  O_6 
REMARK    3  A    between atoms: C_3  and  C_4 
REMARK    4  A    between atoms: C_7  and  O_6 
REMARK    5  A    between atoms: C_9  and  C_10 
REMARK    6  A    between atoms: N_15  and  C_14 
REMARK    7  A    between atoms: N_20  and  C_19 
REMARK       I    between atoms: C_22  and  N_20 
ROOT
ATOM      1  C   LIG d   1      -5.214  93.172 119.583  0.00  0.00     0.161 C 
ATOM      2  C   LIG d   1      -4.175  92.384 119.060  0.00  0.00     0.016 C 
ATOM      3  C   LIG d   1      -4.235  91.758 117.794  0.00  0.00     0.038 C 
ATOM      4  C   LIG d   1      -5.284  92.003 116.895  0.00  0.00     0.028 C 
ATOM      5  C   LIG d   1      -6.591  92.388 117.579  0.00  0.00    -0.047 C 
ATOM      6  C   LIG d   1      -6.318  93.542 118.571  0.00  0.00     0.091 C 
ENDROOT
BRANCH   1   7
ATOM      7  O   LIG d   1      -4.668  94.362 120.186  0.00  0.00    -0.368 OA
BRANCH   7   8
ATOM      8  C   LIG d   1      -4.321  95.436 119.276  0.00  0.00     0.119 C 
BRANCH   8   9
ATOM      9  C   LIG d   1      -2.818  95.725 119.453  0.00  0.00     0.028 C 
ATOM     10  C   LIG d   1      -2.000  95.368 118.201  0.00  0.00     0.006 C 
ENDBRANCH   8   9
BRANCH   8  11
ATOM     11  C   LIG d   1      -5.032  96.738 119.655  0.00  0.00     0.028 C 
ATOM     12  C   LIG d   1      -5.337  97.626 118.438  0.00  0.00     0.006 C 
ENDBRANCH   8  11
ENDBRANCH   7   8
ENDBRANCH   1   7
BRANCH   6  13
ATOM     13  N   LIG d   1      -7.528  93.923 119.345  0.00  0.00    -0.311 N 
ATOM     14  C   LIG d   1      -8.343  94.915 118.990  0.00  0.00     0.210 C 
ATOM     15  C   LIG d   1      -9.521  95.155 119.939  0.00  0.00     0.109 C 
ATOM     16  O   LIG d   1      -8.219  95.599 117.963  0.00  0.00    -0.276 OA
ATOM     17  H   LIG d   1      -7.722  93.399 120.176  0.00  0.00     0.149 HD
ENDBRANCH   6  13
BRANCH   5  18
ATOM     18  N   LIG d   1      -7.557  92.748 116.524  0.00  0.00     0.381 N 
ATOM     19  H   LIG d   1      -7.302  92.304 115.665  0.00  0.00    -0.090 HD
ATOM     20  H   LIG d   1      -7.530  93.743 116.385  0.00  0.00    -0.090 HD
ATOM     21  H   LIG d   1      -8.475  92.468 116.792  0.00  0.00    -0.090 HD
ENDBRANCH   5  18
BRANCH   3  22
ATOM     22  C   LIG d   1      -3.258  90.844 117.432  0.00  0.00     0.382 C 
ATOM     23  O   LIG d   1      -3.577  89.787 116.835  0.00  0.00    -0.241 OA
ATOM     24  O   LIG d   1      -2.066  91.041 117.734  0.00  0.00    -0.241 OA
ENDBRANCH   3  22
TORSDOF 7
ENDMDL
MODEL 9
REMARK VINA RESULT:      -4.7      2.460      5.542
REMARK  7 active torsions:
REMARK  status: ('A' for Active; 'I' for Inactive)
REMARK    1  A    between atoms: C_2  and  C_3 
REMARK    2  A    between atoms: C_3  and  O_6 
REMARK    3  A    between atoms: C_3  and  C_4 
REMARK    4  A    between atoms: C_7  and  O_6 
REMARK    5  A    between atoms: C_9  and  C_10 
REMARK    6  A    between atoms: N_15  and  C_14 
REMARK    7  A    between atoms: N_20  and  C_19 
REMARK       I    between atoms: C_22  and  N_20 
ROOT
ATOM      1  C   LIG d   1      -7.389  76.859 117.465  0.00  0.00     0.161 C 
ATOM      2  C   LIG d   1      -8.136  75.679 117.310  0.00  0.00     0.016 C 
ATOM      3  C   LIG d   1      -9.517  75.588 117.599  0.00  0.00     0.038 C 
ATOM      4  C   LIG d   1     -10.283  76.719 117.921  0.00  0.00     0.028 C 
ATOM      5  C   LIG d   1      -9.473  77.831 118.579  0.00  0.00    -0.047 C 
ATOM      6  C   LIG d   1      -8.231  78.129 117.709  0.00  0.00     0.091 C 
ENDROOT
BRANCH   1   7
ATOM      7  O   LIG d   1      -6.523  77.043 116.328  0.00  0.00    -0.368 OA
BRANCH   7   8
ATOM      8  C   LIG d   1      -5.173  76.534 116.466  0.00  0.00     0.119 C 
BRANCH   8   9
ATOM      9  C   LIG d   1      -4.227  77.748 116.535  0.00  0.00     0.028 C 
ATOM     10  C   LIG d   1      -3.915  78.168 117.982  0.00  0.00     0.006 C 
ENDBRANCH   8   9
BRANCH   8  11
ATOM     11  C   LIG d   1      -4.742  75.754 115.221  0.00  0.00     0.028 C 
ATOM     12  C   LIG d   1      -3.708  76.511 114.372  0.00  0.00     0.006 C 
ENDBRANCH   8  11
ENDBRANCH   7   8
ENDBRANCH   1   7
BRANCH   6  13
ATOM     13  N   LIG d   1      -7.340  79.148 118.324  0.00  0.00    -0.311 N 
ATOM     14  C   LIG d   1      -7.431  80.452 118.068  0.00  0.00     0.210 C 
ATOM     15  C   LIG d   1      -6.402  81.326 118.792  0.00  0.00     0.109 C 
ATOM     16  O   LIG d   1      -8.286  80.970 117.335  0.00  0.00    -0.276 OA
ATOM     17  H   LIG d   1      -6.637  78.817 118.956  0.00  0.00     0.149 HD
ENDBRANCH   6  13
BRANCH   5  18
ATOM     18  N   LIG d   1     -10.363  78.997 118.735  0.00  0.00     0.381 N 
ATOM     19  H   LIG d   1     -10.276  79.599 117.940  0.00  0.00    -0.090 HD
ATOM     20  H   LIG d   1     -10.085  79.512 119.552  0.00  0.00    -0.090 HD
ATOM     21  H   LIG d   1     -11.308  78.695 118.829  0.00  0.00    -0.090 HD
ENDBRANCH   5  18
BRANCH   3  22
ATOM     22  C   LIG d   1     -10.137  74.348 117.606  0.00  0.00     0.382 C 
ATOM     23  O   LIG d   1     -11.299  74.226 117.148  0.00  0.00    -0.241 OA
ATOM     24  O   LIG d   1      -9.567  73.359 118.104  0.00  0.00    -0.241 OA
ENDBRANCH   3  22
TORSDOF 7
ENDMDL
