MODEL 1
REMARK VINA RESULT:      -5.1      0.000      0.000
REMARK  7 active torsions:
REMARK  status: ('A' for Active; 'I' for Inactive)
REMARK    1  A    between atoms: C_2  and  C_3 
REMARK    2  A    between atoms: C_3  and  O_6 
REMARK    3  A    between atoms: C_3  and  C_4 
REMARK    4  A    between atoms: C_7  and  O_6 
REMARK    5  A    between atoms: C_9  and  C_10 
REMARK    6  A    between atoms: N_15  and  C_14 
REMARK    7  A    between atoms: N_20  and  C_19 
REMARK       I    between atoms: C_22  and  N_20 
ROOT
ATOM      1  C   LIG d   1      -6.081  76.664 116.711  0.00  0.00     0.161 C 
ATOM      2  C   LIG d   1      -7.437  76.347 116.897  0.00  0.00     0.016 C 
ATOM      3  C   LIG d   1      -8.324  77.142 117.659  0.00  0.00     0.038 C 
ATOM      4  C   LIG d   1      -7.948  78.395 118.166  0.00  0.00     0.028 C 
ATOM      5  C   LIG d   1      -6.451  78.517 118.431  0.00  0.00    -0.047 C 
ATOM      6  C   LIG d   1      -5.680  78.084 117.163  0.00  0.00     0.091 C 
ENDROOT
BRANCH   1   7
ATOM      7  O   LIG d   1      -5.716  76.455 115.332  0.00  0.00    -0.368 OA
BRANCH   7   8
ATOM      8  C   LIG d   1      -4.855  75.320 115.066  0.00  0.00     0.119 C 
BRANCH   8   9
ATOM      9  C   LIG d   1      -5.730  74.207 114.460  0.00  0.00     0.028 C 
ATOM     10  C   LIG d   1      -6.163  73.165 115.505  0.00  0.00     0.006 C 
ENDBRANCH   8   9
BRANCH   8  11
ATOM     11  C   LIG d   1      -4.291  74.732 116.363  0.00  0.00     0.028 C 
ATOM     12  C   LIG d   1      -2.762  74.852 116.457  0.00  0.00     0.006 C 
ENDBRANCH   8  11
ENDBRANCH   7   8
ENDBRANCH   1   7
BRANCH   6  13
ATOM     13  N   LIG d   1      -4.208  78.092 117.364  0.00  0.00    -0.311 N 
ATOM     14  C   LIG d   1      -3.362  78.738 116.562  0.00  0.00     0.210 C 
ATOM     15  C   LIG d   1      -1.883  78.601 116.937  0.00  0.00     0.109 C 
ATOM     16  O   LIG d   1      -3.699  79.437 115.595  0.00  0.00    -0.276 OA
ATOM     17  H   LIG d   1      -3.851  77.576 118.144  0.00  0.00     0.149 HD
ENDBRANCH   6  13
BRANCH   5  18
ATOM     18  N   LIG d   1      -6.180  79.913 118.823  0.00  0.00     0.381 N 
ATOM     19  H   LIG d   1      -5.721  79.932 119.712  0.00  0.00    -0.090 HD
ATOM     20  H   LIG d   1      -7.054  80.402 118.909  0.00  0.00    -0.090 HD
ATOM     21  H   LIG d   1      -5.609  80.355 118.137  0.00  0.00    -0.090 HD
ENDBRANCH   5  18
BRANCH   3  22
ATOM     22  C   LIG d   1      -9.592  76.666 117.956  0.00  0.00     0.382 C 
ATOM     23  O   LIG d   1      -9.916  75.500 117.625  0.00  0.00    -0.241 OA
ATOM     24  O   LIG d   1     -10.430  77.402 118.510  0.00  0.00    -0.241 OA
ENDBRANCH   3  22
TORSDOF 7
ENDMDL
MODEL 2
REMARK VINA RESULT:      -5.0      0.510      1.705
REMARK  7 active torsions:
REMARK  status: ('A' for Active; 'I' for Inactive)
REMARK    1  A    between atoms: C_2  and  C_3 
REMARK    2  A    between atoms: C_3  and  O_6 
REMARK    3  A    between atoms: C_3  and  C_4 
REMARK    4  A    between atoms: C_7  and  O_6 
REMARK    5  A    between atoms: C_9  and  C_10 
REMARK    6  A    between atoms: N_15  and  C_14 
REMARK    7  A    between atoms: N_20  and  C_19 
REMARK       I    between atoms: C_22  and  N_20 
ROOT
ATOM      1  C   LIG d   1      -6.192  76.788 116.908  0.00  0.00     0.161 C 
ATOM      2  C   LIG d   1      -7.548  76.455 117.061  0.00  0.00     0.016 C 
ATOM      3  C   LIG d   1      -8.474  77.262 117.761  0.00  0.00     0.038 C 
ATOM      4  C   LIG d   1      -8.137  78.541 118.228  0.00  0.00     0.028 C 
ATOM      5  C   LIG d   1      -6.652  78.702 118.538  0.00  0.00    -0.047 C 
ATOM      6  C   LIG d   1      -5.831  78.233 117.315  0.00  0.00     0.091 C 
ENDROOT
BRANCH   1   7
ATOM      7  O   LIG d   1      -5.775  76.531 115.552  0.00  0.00    -0.368 OA
BRANCH   7   8
ATOM      8  C   LIG d   1      -4.923  75.377 115.356  0.00  0.00     0.119 C 
BRANCH   8   9
ATOM      9  C   LIG d   1      -3.721  75.829 114.504  0.00  0.00     0.028 C 
ATOM     10  C   LIG d   1      -2.375  75.552 115.194  0.00  0.00     0.006 C 
ENDBRANCH   8   9
BRANCH   8  11
ATOM     11  C   LIG d   1      -5.627  74.300 114.525  0.00  0.00     0.028 C 
ATOM     12  C   LIG d   1      -6.173  73.147 115.383  0.00  0.00     0.006 C 
ENDBRANCH   8  11
ENDBRANCH   7   8
ENDBRANCH   1   7
BRANCH   6  13
ATOM     13  N   LIG d   1      -4.367  78.277 117.565  0.00  0.00    -0.311 N 
ATOM     14  C   LIG d   1      -3.497  78.841 116.729  0.00  0.00     0.210 C 
ATOM     15  C   LIG d   1      -2.032  78.759 117.168  0.00  0.00     0.109 C 
ATOM     16  O   LIG d   1      -3.804  79.430 115.681  0.00  0.00    -0.276 OA
ATOM     17  H   LIG d   1      -4.035  77.850 118.408  0.00  0.00     0.149 HD
ENDBRANCH   6  13
BRANCH   5  18
ATOM     18  N   LIG d   1      -6.419  80.117 118.882  0.00  0.00     0.381 N 
ATOM     19  H   LIG d   1      -5.539  80.415 118.512  0.00  0.00    -0.090 HD
ATOM     20  H   LIG d   1      -6.388  80.207 119.882  0.00  0.00    -0.090 HD
ATOM     21  H   LIG d   1      -7.152  80.683 118.513  0.00  0.00    -0.090 HD
ENDBRANCH   5  18
BRANCH   3  22
ATOM     22  C   LIG d   1      -9.742  76.774 118.033  0.00  0.00     0.382 C 
ATOM     23  O   LIG d   1     -10.531  77.441 118.746  0.00  0.00    -0.241 OA
ATOM     24  O   LIG d   1     -10.093  75.655 117.613  0.00  0.00    -0.241 OA
ENDBRANCH   3  22
TORSDOF 7
ENDMDL
MODEL 3
REMARK VINA RESULT:      -4.8      1.977      3.044
REMARK  7 active torsions:
REMARK  status: ('A' for Active; 'I' for Inactive)
REMARK    1  A    between atoms: C_2  and  C_3 
REMARK    2  A    between atoms: C_3  and  O_6 
REMARK    3  A    between atoms: C_3  and  C_4 
REMARK    4  A    between atoms: C_7  and  O_6 
REMARK    5  A    between atoms: C_9  and  C_10 
REMARK    6  A    between atoms: N_15  and  C_14 
REMARK    7  A    between atoms: N_20  and  C_19 
REMARK       I    between atoms: C_22  and  N_20 
ROOT
ATOM      1  C   LIG d   1      -6.590  77.037 117.377  0.00  0.00     0.161 C 
ATOM      2  C   LIG d   1      -7.266  75.806 117.376  0.00  0.00     0.016 C 
ATOM      3  C   LIG d   1      -8.614  75.657 117.776  0.00  0.00     0.038 C 
ATOM      4  C   LIG d   1      -9.428  76.763 118.062  0.00  0.00     0.028 C 
ATOM      5  C   LIG d   1      -8.650  77.975 118.563  0.00  0.00    -0.047 C 
ATOM      6  C   LIG d   1      -7.494  78.271 117.580  0.00  0.00     0.091 C 
ENDROOT
BRANCH   1   7
ATOM      7  O   LIG d   1      -5.821  77.173 116.165  0.00  0.00    -0.368 OA
BRANCH   7   8
ATOM      8  C   LIG d   1      -5.054  76.012 115.763  0.00  0.00     0.119 C 
BRANCH   8   9
ATOM      9  C   LIG d   1      -3.598  76.471 115.549  0.00  0.00     0.028 C 
ATOM     10  C   LIG d   1      -2.765  76.403 116.840  0.00  0.00     0.006 C 
ENDBRANCH   8   9
BRANCH   8  11
ATOM     11  C   LIG d   1      -5.517  75.482 114.403  0.00  0.00     0.028 C 
ATOM     12  C   LIG d   1      -5.650  73.951 114.374  0.00  0.00     0.006 C 
ENDBRANCH   8  11
ENDBRANCH   7   8
ENDBRANCH   1   7
BRANCH   6  13
ATOM     13  N   LIG d   1      -6.631  79.390 118.039  0.00  0.00    -0.311 N 
ATOM     14  C   LIG d   1      -6.830  80.660 117.690  0.00  0.00     0.210 C 
ATOM     15  C   LIG d   1      -5.812  81.654 118.259  0.00  0.00     0.109 C 
ATOM     16  O   LIG d   1      -7.771  81.062 116.990  0.00  0.00    -0.276 OA
ATOM     17  H   LIG d   1      -5.862  79.157 118.637  0.00  0.00     0.149 HD
ENDBRANCH   6  13
BRANCH   5  18
ATOM     18  N   LIG d   1      -9.602  79.095 118.691  0.00  0.00     0.381 N 
ATOM     19  H   LIG d   1     -10.178  78.959 119.497  0.00  0.00    -0.090 HD
ATOM     20  H   LIG d   1     -10.194  79.112 117.879  0.00  0.00    -0.090 HD
ATOM     21  H   LIG d   1      -9.107  79.956 118.768  0.00  0.00    -0.090 HD
ENDBRANCH   5  18
BRANCH   3  22
ATOM     22  C   LIG d   1      -9.149  74.388 117.931  0.00  0.00     0.382 C 
ATOM     23  O   LIG d   1     -10.357  74.180 117.663  0.00  0.00    -0.241 OA
ATOM     24  O   LIG d   1      -8.451  73.458 118.377  0.00  0.00    -0.241 OA
ENDBRANCH   3  22
TORSDOF 7
ENDMDL
MODEL 4
REMARK VINA RESULT:      -4.7     12.561     16.105
REMARK  7 active torsions:
REMARK  status: ('A' for Active; 'I' for Inactive)
REMARK    1  A    between atoms: C_2  and  C_3 
REMARK    2  A    between atoms: C_3  and  O_6 
REMARK    3  A    between atoms: C_3  and  C_4 
REMARK    4  A    between atoms: C_7  and  O_6 
REMARK    5  A    between atoms: C_9  and  C_10 
REMARK    6  A    between atoms: N_15  and  C_14 
REMARK    7  A    between atoms: N_20  and  C_19 
REMARK       I    between atoms: C_22  and  N_20 
ROOT
ATOM      1  C   LIG d   1       1.717  90.150 115.744  0.00  0.00     0.161 C 
ATOM      2  C   LIG d   1       3.043  89.872 115.373  0.00  0.00     0.016 C 
ATOM      3  C   LIG d   1       4.164  90.509 115.954  0.00  0.00     0.038 C 
ATOM      4  C   LIG d   1       4.040  91.363 117.060  0.00  0.00     0.028 C 
ATOM      5  C   LIG d   1       2.686  92.059 117.140  0.00  0.00    -0.047 C 
ATOM      6  C   LIG d   1       1.568  90.997 117.025  0.00  0.00     0.091 C 
ENDROOT
BRANCH   1   7
ATOM      7  O   LIG d   1       0.976  88.920 115.868  0.00  0.00    -0.368 OA
BRANCH   7   8
ATOM      8  C   LIG d   1       1.764  87.708 115.956  0.00  0.00     0.119 C 
BRANCH   8   9
ATOM      9  C   LIG d   1       1.201  86.714 114.921  0.00  0.00     0.028 C 
ATOM     10  C   LIG d   1      -0.156  86.129 115.347  0.00  0.00     0.006 C 
ENDBRANCH   8   9
BRANCH   8  11
ATOM     11  C   LIG d   1       1.585  87.024 117.314  0.00  0.00     0.028 C 
ATOM     12  C   LIG d   1       2.459  87.646 118.414  0.00  0.00     0.006 C 
ENDBRANCH   8  11
ENDBRANCH   7   8
ENDBRANCH   1   7
BRANCH   6  13
ATOM     13  N   LIG d   1       0.211  91.603 117.009  0.00  0.00    -0.311 N 
ATOM     14  C   LIG d   1      -0.557  91.710 118.092  0.00  0.00     0.210 C 
ATOM     15  C   LIG d   1      -1.929  92.347 117.852  0.00  0.00     0.109 C 
ATOM     16  O   LIG d   1      -0.219  91.367 119.235  0.00  0.00    -0.276 OA
ATOM     17  H   LIG d   1      -0.130  91.936 116.128  0.00  0.00     0.149 HD
ENDBRANCH   6  13
BRANCH   5  18
ATOM     18  N   LIG d   1       2.643  92.809 118.409  0.00  0.00     0.381 N 
ATOM     19  H   LIG d   1       2.342  93.747 118.239  0.00  0.00    -0.090 HD
ATOM     20  H   LIG d   1       3.569  92.841 118.799  0.00  0.00    -0.090 HD
ATOM     21  H   LIG d   1       2.022  92.363 119.048  0.00  0.00    -0.090 HD
ENDBRANCH   5  18
BRANCH   3  22
ATOM     22  C   LIG d   1       5.422  90.323 115.403  0.00  0.00     0.382 C 
ATOM     23  O   LIG d   1       5.535  89.945 114.212  0.00  0.00    -0.241 OA
ATOM     24  O   LIG d   1       6.445  90.486 116.094  0.00  0.00    -0.241 OA
ENDBRANCH   3  22
TORSDOF 7
ENDMDL
MODEL 5
REMARK VINA RESULT:      -4.5      2.635      4.433
REMARK  7 active torsions:
REMARK  status: ('A' for Active; 'I' for Inactive)
REMARK    1  A    between atoms: C_2  and  C_3 
REMARK    2  A    between atoms: C_3  and  O_6 
REMARK    3  A    between atoms: C_3  and  C_4 
REMARK    4  A    between atoms: C_7  and  O_6 
REMARK    5  A    between atoms: C_9  and  C_10 
REMARK    6  A    between atoms: N_15  and  C_14 
REMARK    7  A    between atoms: N_20  and  C_19 
REMARK       I    between atoms: C_22  and  N_20 
ROOT
ATOM      1  C   LIG d   1      -6.903  77.456 117.369  0.00  0.00     0.161 C 
ATOM      2  C   LIG d   1      -6.578  78.821 117.447  0.00  0.00     0.016 C 
ATOM      3  C   LIG d   1      -7.405  79.783 118.070  0.00  0.00     0.038 C 
ATOM      4  C   LIG d   1      -8.550  79.420 118.796  0.00  0.00     0.028 C 
ATOM      5  C   LIG d   1      -9.183  78.118 118.316  0.00  0.00    -0.047 C 
ATOM      6  C   LIG d   1      -8.093  77.024 118.252  0.00  0.00     0.091 C 
ENDROOT
BRANCH   1   7
ATOM      7  O   LIG d   1      -5.740  76.660 117.670  0.00  0.00    -0.368 OA
BRANCH   7   8
ATOM      8  C   LIG d   1      -4.937  76.251 116.536  0.00  0.00     0.119 C 
BRANCH   8   9
ATOM      9  C   LIG d   1      -5.883  75.593 115.512  0.00  0.00     0.028 C 
ATOM     10  C   LIG d   1      -6.004  74.073 115.716  0.00  0.00     0.006 C 
ENDBRANCH   8   9
BRANCH   8  11
ATOM     11  C   LIG d   1      -3.938  75.157 116.925  0.00  0.00     0.028 C 
ATOM     12  C   LIG d   1      -2.502  75.685 117.067  0.00  0.00     0.006 C 
ENDBRANCH   8  11
ENDBRANCH   7   8
ENDBRANCH   1   7
BRANCH   6  13
ATOM     13  N   LIG d   1      -8.610  75.739 117.711  0.00  0.00    -0.311 N 
ATOM     14  C   LIG d   1      -8.704  74.625 118.434  0.00  0.00     0.210 C 
ATOM     15  C   LIG d   1      -9.245  73.407 117.678  0.00  0.00     0.109 C 
ATOM     16  O   LIG d   1      -8.422  74.537 119.638  0.00  0.00    -0.276 OA
ATOM     17  H   LIG d   1      -8.891  75.729 116.750  0.00  0.00     0.149 HD
ENDBRANCH   6  13
BRANCH   5  18
ATOM     18  N   LIG d   1     -10.280  77.787 119.244  0.00  0.00     0.381 N 
ATOM     19  H   LIG d   1     -10.183  78.318 120.086  0.00  0.00    -0.090 HD
ATOM     20  H   LIG d   1     -10.225  76.812 119.478  0.00  0.00    -0.090 HD
ATOM     21  H   LIG d   1     -11.159  77.985 118.818  0.00  0.00    -0.090 HD
ENDBRANCH   5  18
BRANCH   3  22
ATOM     22  C   LIG d   1      -7.111  81.132 117.937  0.00  0.00     0.382 C 
ATOM     23  O   LIG d   1      -6.317  81.515 117.044  0.00  0.00    -0.241 OA
ATOM     24  O   LIG d   1      -7.596  81.965 118.726  0.00  0.00    -0.241 OA
ENDBRANCH   3  22
TORSDOF 7
ENDMDL
MODEL 6
REMARK VINA RESULT:      -4.5      3.529      5.965
REMARK  7 active torsions:
REMARK  status: ('A' for Active; 'I' for Inactive)
REMARK    1  A    between atoms: C_2  and  C_3 
REMARK    2  A    between atoms: C_3  and  O_6 
REMARK    3  A    between atoms: C_3  and  C_4 
REMARK    4  A    between atoms: C_7  and  O_6 
REMARK    5  A    between atoms: C_9  and  C_10 
REMARK    6  A    between atoms: N_15  and  C_14 
REMARK    7  A    between atoms: N_20  and  C_19 
REMARK       I    between atoms: C_22  and  N_20 
ROOT
ATOM      1  C   LIG d   1      -1.991  75.786 115.109  0.00  0.00     0.161 C 
ATOM      2  C   LIG d   1      -1.938  74.541 115.758  0.00  0.00     0.016 C 
ATOM      3  C   LIG d   1      -0.996  74.227 116.765  0.00  0.00     0.038 C 
ATOM      4  C   LIG d   1      -0.134  75.195 117.301  0.00  0.00     0.028 C 
ATOM      5  C   LIG d   1       0.190  76.324 116.327  0.00  0.00    -0.047 C 
ATOM      6  C   LIG d   1      -1.131  76.890 115.758  0.00  0.00     0.091 C 
ENDROOT
BRANCH   1   7
ATOM      7  O   LIG d   1      -3.361  76.220 114.996  0.00  0.00    -0.368 OA
BRANCH   7   8
ATOM      8  C   LIG d   1      -4.340  75.436 115.721  0.00  0.00     0.119 C 
BRANCH   8   9
ATOM      9  C   LIG d   1      -5.493  75.120 114.748  0.00  0.00     0.028 C 
ATOM     10  C   LIG d   1      -5.975  73.664 114.864  0.00  0.00     0.006 C 
ENDBRANCH   8   9
BRANCH   8  11
ATOM     11  C   LIG d   1      -4.977  76.249 116.853  0.00  0.00     0.028 C 
ATOM     12  C   LIG d   1      -6.292  76.925 116.434  0.00  0.00     0.006 C 
ENDBRANCH   8  11
ENDBRANCH   7   8
ENDBRANCH   1   7
BRANCH   6  13
ATOM     13  N   LIG d   1      -0.902  77.942 114.734  0.00  0.00    -0.311 N 
ATOM     14  C   LIG d   1      -0.887  79.245 115.011  0.00  0.00     0.210 C 
ATOM     15  C   LIG d   1      -0.654  80.160 113.805  0.00  0.00     0.109 C 
ATOM     16  O   LIG d   1      -1.013  79.728 116.147  0.00  0.00    -0.276 OA
ATOM     17  H   LIG d   1      -0.760  77.637 113.791  0.00  0.00     0.149 HD
ENDBRANCH   6  13
BRANCH   5  18
ATOM     18  N   LIG d   1       0.983  77.329 117.058  0.00  0.00     0.381 N 
ATOM     19  H   LIG d   1       1.910  76.985 117.210  0.00  0.00    -0.090 HD
ATOM     20  H   LIG d   1       0.557  77.492 117.954  0.00  0.00    -0.090 HD
ATOM     21  H   LIG d   1       1.018  78.179 116.540  0.00  0.00    -0.090 HD
ENDBRANCH   5  18
BRANCH   3  22
ATOM     22  C   LIG d   1      -0.883  72.922 117.218  0.00  0.00     0.382 C 
ATOM     23  O   LIG d   1      -1.593  72.526 118.174  0.00  0.00    -0.241 OA
ATOM     24  O   LIG d   1      -0.050  72.147 116.711  0.00  0.00    -0.241 OA
ENDBRANCH   3  22
TORSDOF 7
ENDMDL
MODEL 7
REMARK VINA RESULT:      -4.4     12.787     15.467
REMARK  7 active torsions:
REMARK  status: ('A' for Active; 'I' for Inactive)
REMARK    1  A    between atoms: C_2  and  C_3 
REMARK    2  A    between atoms: C_3  and  O_6 
REMARK    3  A    between atoms: C_3  and  C_4 
REMARK    4  A    between atoms: C_7  and  O_6 
REMARK    5  A    between atoms: C_9  and  C_10 
REMARK    6  A    between atoms: N_15  and  C_14 
REMARK    7  A    between atoms: N_20  and  C_19 
REMARK       I    between atoms: C_22  and  N_20 
ROOT
ATOM      1  C   LIG d   1       1.794  89.782 116.886  0.00  0.00     0.161 C 
ATOM      2  C   LIG d   1       0.724  90.196 117.696  0.00  0.00     0.016 C 
ATOM      3  C   LIG d   1       0.650  91.475 118.294  0.00  0.00     0.038 C 
ATOM      4  C   LIG d   1       1.575  92.487 117.997  0.00  0.00     0.028 C 
ATOM      5  C   LIG d   1       2.943  91.954 117.585  0.00  0.00    -0.047 C 
ATOM      6  C   LIG d   1       2.758  90.910 116.461  0.00  0.00     0.091 C 
ENDROOT
BRANCH   1   7
ATOM      7  O   LIG d   1       1.291  89.090 115.726  0.00  0.00    -0.368 OA
BRANCH   7   8
ATOM      8  C   LIG d   1       1.629  87.685 115.626  0.00  0.00     0.119 C 
BRANCH   8   9
ATOM      9  C   LIG d   1       0.320  86.883 115.756  0.00  0.00     0.028 C 
ATOM     10  C   LIG d   1       0.078  85.956 114.553  0.00  0.00     0.006 C 
ENDBRANCH   8   9
BRANCH   8  11
ATOM     11  C   LIG d   1       2.499  87.235 116.803  0.00  0.00     0.028 C 
ATOM     12  C   LIG d   1       3.828  86.606 116.357  0.00  0.00     0.006 C 
ENDBRANCH   8  11
ENDBRANCH   7   8
ENDBRANCH   1   7
BRANCH   6  13
ATOM     13  N   LIG d   1       4.041  90.277 116.058  0.00  0.00    -0.311 N 
ATOM     14  C   LIG d   1       4.397  90.087 114.789  0.00  0.00     0.210 C 
ATOM     15  C   LIG d   1       5.752  89.400 114.594  0.00  0.00     0.109 C 
ATOM     16  O   LIG d   1       3.735  90.452 113.806  0.00  0.00    -0.276 OA
ATOM     17  H   LIG d   1       4.653  89.979 116.792  0.00  0.00     0.149 HD
ENDBRANCH   6  13
BRANCH   5  18
ATOM     18  N   LIG d   1       3.765  93.108 117.173  0.00  0.00     0.381 N 
ATOM     19  H   LIG d   1       4.235  92.900 116.315  0.00  0.00    -0.090 HD
ATOM     20  H   LIG d   1       4.458  93.282 117.878  0.00  0.00    -0.090 HD
ATOM     21  H   LIG d   1       3.189  93.913 117.057  0.00  0.00    -0.090 HD
ENDBRANCH   5  18
BRANCH   3  22
ATOM     22  C   LIG d   1      -0.338  91.739 119.231  0.00  0.00     0.382 C 
ATOM     23  O   LIG d   1      -0.157  91.435 120.435  0.00  0.00    -0.241 OA
ATOM     24  O   LIG d   1      -1.424  92.238 118.881  0.00  0.00    -0.241 OA
ENDBRANCH   3  22
TORSDOF 7
ENDMDL
MODEL 8
REMARK VINA RESULT:      -4.4     14.411     16.859
REMARK  7 active torsions:
REMARK  status: ('A' for Active; 'I' for Inactive)
REMARK    1  A    between atoms: C_2  and  C_3 
REMARK    2  A    between atoms: C_3  and  O_6 
REMARK    3  A    between atoms: C_3  and  C_4 
REMARK    4  A    between atoms: C_7  and  O_6 
REMARK    5  A    between atoms: C_9  and  C_10 
REMARK    6  A    between atoms: N_15  and  C_14 
REMARK    7  A    between atoms: N_20  and  C_19 
REMARK       I    between atoms: C_22  and  N_20 
ROOT
ATOM      1  C   LIG d   1     -17.943  65.701 116.531  0.00  0.00     0.161 C 
ATOM      2  C   LIG d   1     -18.775  64.731 117.115  0.00  0.00     0.016 C 
ATOM      3  C   LIG d   1     -18.831  63.388 116.676  0.00  0.00     0.038 C 
ATOM      4  C   LIG d   1     -17.941  62.884 115.716  0.00  0.00     0.028 C 
ATOM      5  C   LIG d   1     -17.432  63.946 114.746  0.00  0.00    -0.047 C 
ATOM      6  C   LIG d   1     -16.885  65.144 115.556  0.00  0.00     0.091 C 
ENDROOT
BRANCH   1   7
ATOM      7  O   LIG d   1     -17.311  66.487 117.561  0.00  0.00    -0.368 OA
BRANCH   7   8
ATOM      8  C   LIG d   1     -17.015  65.794 118.799  0.00  0.00     0.119 C 
BRANCH   8   9
ATOM      9  C   LIG d   1     -17.151  66.816 119.944  0.00  0.00     0.028 C 
ATOM     10  C   LIG d   1     -17.909  68.083 119.514  0.00  0.00     0.006 C 
ENDBRANCH   8   9
BRANCH   8  11
ATOM     11  C   LIG d   1     -15.557  65.328 118.842  0.00  0.00     0.028 C 
ATOM     12  C   LIG d   1     -15.416  63.803 118.714  0.00  0.00     0.006 C 
ENDBRANCH   8  11
ENDBRANCH   7   8
ENDBRANCH   1   7
BRANCH   6  13
ATOM     13  N   LIG d   1     -16.444  66.263 114.683  0.00  0.00    -0.311 N 
ATOM     14  C   LIG d   1     -15.335  66.968 114.900  0.00  0.00     0.210 C 
ATOM     15  C   LIG d   1     -15.075  68.092 113.891  0.00  0.00     0.109 C 
ATOM     16  O   LIG d   1     -14.524  66.749 115.813  0.00  0.00    -0.276 OA
ATOM     17  H   LIG d   1     -17.027  66.489 113.901  0.00  0.00     0.149 HD
ENDBRANCH   6  13
BRANCH   5  18
ATOM     18  N   LIG d   1     -16.411  63.313 113.889  0.00  0.00     0.381 N 
ATOM     19  H   LIG d   1     -16.541  63.600 112.940  0.00  0.00    -0.090 HD
ATOM     20  H   LIG d   1     -16.520  62.316 113.936  0.00  0.00    -0.090 HD
ATOM     21  H   LIG d   1     -15.499  63.570 114.199  0.00  0.00    -0.090 HD
ENDBRANCH   5  18
BRANCH   3  22
ATOM     22  C   LIG d   1     -19.812  62.543 117.173  0.00  0.00     0.382 C 
ATOM     23  O   LIG d   1     -20.086  61.478 116.569  0.00  0.00    -0.241 OA
ATOM     24  O   LIG d   1     -20.456  62.854 118.192  0.00  0.00    -0.241 OA
ENDBRANCH   3  22
TORSDOF 7
ENDMDL
MODEL 9
REMARK VINA RESULT:      -4.3     12.839     15.805
REMARK  7 active torsions:
REMARK  status: ('A' for Active; 'I' for Inactive)
REMARK    1  A    between atoms: C_2  and  C_3 
REMARK    2  A    between atoms: C_3  and  O_6 
REMARK    3  A    between atoms: C_3  and  C_4 
REMARK    4  A    between atoms: C_7  and  O_6 
REMARK    5  A    between atoms: C_9  and  C_10 
REMARK    6  A    between atoms: N_15  and  C_14 
REMARK    7  A    between atoms: N_20  and  C_19 
REMARK       I    between atoms: C_22  and  N_20 
ROOT
ATOM      1  C   LIG d   1       3.302  89.306 117.462  0.00  0.00     0.161 C 
ATOM      2  C   LIG d   1       2.717  88.193 116.836  0.00  0.00     0.016 C 
ATOM      3  C   LIG d   1       1.421  88.211 116.269  0.00  0.00     0.038 C 
ATOM      4  C   LIG d   1       0.678  89.395 116.156  0.00  0.00     0.028 C 
ATOM      5  C   LIG d   1       1.018  90.429 117.225  0.00  0.00    -0.047 C 
ATOM      6  C   LIG d   1       2.550  90.637 117.251  0.00  0.00     0.091 C 
ENDROOT
BRANCH   1   7
ATOM      7  O   LIG d   1       4.676  89.435 117.046  0.00  0.00    -0.368 OA
BRANCH   7   8
ATOM      8  C   LIG d   1       5.099  88.565 115.968  0.00  0.00     0.119 C 
BRANCH   8   9
ATOM      9  C   LIG d   1       6.385  87.852 116.426  0.00  0.00     0.028 C 
ATOM     10  C   LIG d   1       6.093  86.585 117.247  0.00  0.00     0.006 C 
ENDBRANCH   8   9
BRANCH   8  11
ATOM     11  C   LIG d   1       5.502  89.370 114.728  0.00  0.00     0.028 C 
ATOM     12  C   LIG d   1       4.295  89.804 113.881  0.00  0.00     0.006 C 
ENDBRANCH   8  11
ENDBRANCH   7   8
ENDBRANCH   1   7
BRANCH   6  13
ATOM     13  N   LIG d   1       2.977  91.571 118.325  0.00  0.00    -0.311 N 
ATOM     14  C   LIG d   1       3.532  92.758 118.088  0.00  0.00     0.210 C 
ATOM     15  C   LIG d   1       3.916  93.554 119.338  0.00  0.00     0.109 C 
ATOM     16  O   LIG d   1       3.714  93.240 116.960  0.00  0.00    -0.276 OA
ATOM     17  H   LIG d   1       2.838  91.272 119.271  0.00  0.00     0.149 HD
ENDBRANCH   6  13
BRANCH   5  18
ATOM     18  N   LIG d   1       0.272  91.661 116.907  0.00  0.00     0.381 N 
ATOM     19  H   LIG d   1       0.534  91.990 115.999  0.00  0.00    -0.090 HD
ATOM     20  H   LIG d   1       0.511  92.368 117.580  0.00  0.00    -0.090 HD
ATOM     21  H   LIG d   1      -0.707  91.483 116.934  0.00  0.00    -0.090 HD
ENDBRANCH   5  18
BRANCH   3  22
ATOM     22  C   LIG d   1       0.841  87.026 115.843  0.00  0.00     0.382 C 
ATOM     23  O   LIG d   1       0.544  86.872 114.634  0.00  0.00    -0.241 OA
ATOM     24  O   LIG d   1       0.571  86.125 116.661  0.00  0.00    -0.241 OA
ENDBRANCH   3  22
TORSDOF 7
ENDMDL
