MODEL 1
REMARK VINA RESULT:      -5.9      0.000      0.000
REMARK  7 active torsions:
REMARK  status: ('A' for Active; 'I' for Inactive)
REMARK    1  A    between atoms: C_2  and  C_3 
REMARK    2  A    between atoms: C_3  and  O_6 
REMARK    3  A    between atoms: C_3  and  C_4 
REMARK    4  A    between atoms: C_7  and  O_6 
REMARK    5  A    between atoms: C_9  and  C_10 
REMARK    6  A    between atoms: N_15  and  C_14 
REMARK    7  A    between atoms: N_20  and  C_19 
REMARK       I    between atoms: C_22  and  N_20 
ROOT
ATOM      1  C   LIG d   1      -7.940  75.358 117.636  0.00  0.00     0.161 C 
ATOM      2  C   LIG d   1      -9.292  75.608 117.925  0.00  0.00     0.016 C 
ATOM      3  C   LIG d   1      -9.784  76.877 118.307  0.00  0.00     0.038 C 
ATOM      4  C   LIG d   1      -8.977  78.025 118.280  0.00  0.00     0.028 C 
ATOM      5  C   LIG d   1      -7.495  77.727 118.484  0.00  0.00    -0.047 C 
ATOM      6  C   LIG d   1      -7.065  76.621 117.494  0.00  0.00     0.091 C 
ENDROOT
BRANCH   1   7
ATOM      7  O   LIG d   1      -7.836  74.541 116.454  0.00  0.00    -0.368 OA
BRANCH   7   8
ATOM      8  C   LIG d   1      -7.652  73.121 116.675  0.00  0.00     0.119 C 
BRANCH   8   9
ATOM      9  C   LIG d   1      -6.429  72.678 115.848  0.00  0.00     0.028 C 
ATOM     10  C   LIG d   1      -5.828  73.831 115.026  0.00  0.00     0.006 C 
ENDBRANCH   8   9
BRANCH   8  11
ATOM     11  C   LIG d   1      -8.829  72.313 116.122  0.00  0.00     0.028 C 
ATOM     12  C   LIG d   1      -9.032  70.977 116.854  0.00  0.00     0.006 C 
ENDBRANCH   8  11
ENDBRANCH   7   8
ENDBRANCH   1   7
BRANCH   6  13
ATOM     13  N   LIG d   1      -5.649  76.210 117.683  0.00  0.00    -0.311 N 
ATOM     14  C   LIG d   1      -4.635  76.735 116.996  0.00  0.00     0.210 C 
ATOM     15  C   LIG d   1      -3.258  76.155 117.332  0.00  0.00     0.109 C 
ATOM     16  O   LIG d   1      -4.743  77.648 116.163  0.00  0.00    -0.276 OA
ATOM     17  H   LIG d   1      -5.468  75.497 118.362  0.00  0.00     0.149 HD
ENDBRANCH   6  13
BRANCH   5  18
ATOM     18  N   LIG d   1      -6.757  78.991 118.295  0.00  0.00     0.381 N 
ATOM     19  H   LIG d   1      -5.880  78.807 117.851  0.00  0.00    -0.090 HD
ATOM     20  H   LIG d   1      -6.576  79.399 119.196  0.00  0.00    -0.090 HD
ATOM     21  H   LIG d   1      -7.294  79.620 117.740  0.00  0.00    -0.090 HD
ENDBRANCH   5  18
BRANCH   3  22
ATOM     22  C   LIG d   1     -11.089  77.000 118.760  0.00  0.00     0.382 C 
ATOM     23  O   LIG d   1     -11.975  76.219 118.339  0.00  0.00    -0.241 OA
ATOM     24  O   LIG d   1     -11.399  77.911 119.551  0.00  0.00    -0.241 OA
ENDBRANCH   3  22
TORSDOF 7
ENDMDL
MODEL 2
REMARK VINA RESULT:      -5.8      1.001      2.075
REMARK  7 active torsions:
REMARK  status: ('A' for Active; 'I' for Inactive)
REMARK    1  A    between atoms: C_2  and  C_3 
REMARK    2  A    between atoms: C_3  and  O_6 
REMARK    3  A    between atoms: C_3  and  C_4 
REMARK    4  A    between atoms: C_7  and  O_6 
REMARK    5  A    between atoms: C_9  and  C_10 
REMARK    6  A    between atoms: N_15  and  C_14 
REMARK    7  A    between atoms: N_20  and  C_19 
REMARK       I    between atoms: C_22  and  N_20 
ROOT
ATOM      1  C   LIG d   1      -8.518  75.741 117.400  0.00  0.00     0.161 C 
ATOM      2  C   LIG d   1      -9.858  75.820 117.814  0.00  0.00     0.016 C 
ATOM      3  C   LIG d   1     -10.342  76.810 118.700  0.00  0.00     0.038 C 
ATOM      4  C   LIG d   1      -9.545  77.886 119.116  0.00  0.00     0.028 C 
ATOM      5  C   LIG d   1      -8.054  77.567 119.127  0.00  0.00    -0.047 C 
ATOM      6  C   LIG d   1      -7.658  76.972 117.756  0.00  0.00     0.091 C 
ENDROOT
BRANCH   1   7
ATOM      7  O   LIG d   1      -8.459  75.481 115.984  0.00  0.00    -0.368 OA
BRANCH   7   8
ATOM      8  C   LIG d   1      -7.972  74.173 115.596  0.00  0.00     0.119 C 
BRANCH   8   9
ATOM      9  C   LIG d   1      -8.047  73.264 116.838  0.00  0.00     0.028 C 
ATOM     10  C   LIG d   1      -8.756  71.930 116.548  0.00  0.00     0.006 C 
ENDBRANCH   8   9
BRANCH   8  11
ATOM     11  C   LIG d   1      -6.489  74.220 115.218  0.00  0.00     0.028 C 
ATOM     12  C   LIG d   1      -6.159  75.360 114.242  0.00  0.00     0.006 C 
ENDBRANCH   8  11
ENDBRANCH   7   8
ENDBRANCH   1   7
BRANCH   6  13
ATOM     13  N   LIG d   1      -6.233  76.553 117.710  0.00  0.00    -0.311 N 
ATOM     14  C   LIG d   1      -5.251  77.340 117.273  0.00  0.00     0.210 C 
ATOM     15  C   LIG d   1      -3.857  76.705 117.290  0.00  0.00     0.109 C 
ATOM     16  O   LIG d   1      -5.398  78.515 116.903  0.00  0.00    -0.276 OA
ATOM     17  H   LIG d   1      -6.020  75.626 118.021  0.00  0.00     0.149 HD
ENDBRANCH   6  13
BRANCH   5  18
ATOM     18  N   LIG d   1      -7.333  78.813 119.446  0.00  0.00     0.381 N 
ATOM     19  H   LIG d   1      -7.780  79.277 120.212  0.00  0.00    -0.090 HD
ATOM     20  H   LIG d   1      -7.366  79.422 118.647  0.00  0.00    -0.090 HD
ATOM     21  H   LIG d   1      -6.386  78.610 119.679  0.00  0.00    -0.090 HD
ENDBRANCH   5  18
BRANCH   3  22
ATOM     22  C   LIG d   1     -11.627  76.706 119.211  0.00  0.00     0.382 C 
ATOM     23  O   LIG d   1     -11.841  76.942 120.424  0.00  0.00    -0.241 OA
ATOM     24  O   LIG d   1     -12.568  76.337 118.483  0.00  0.00    -0.241 OA
ENDBRANCH   3  22
TORSDOF 7
ENDMDL
MODEL 3
REMARK VINA RESULT:      -5.7      2.304      5.502
REMARK  7 active torsions:
REMARK  status: ('A' for Active; 'I' for Inactive)
REMARK    1  A    between atoms: C_2  and  C_3 
REMARK    2  A    between atoms: C_3  and  O_6 
REMARK    3  A    between atoms: C_3  and  C_4 
REMARK    4  A    between atoms: C_7  and  O_6 
REMARK    5  A    between atoms: C_9  and  C_10 
REMARK    6  A    between atoms: N_15  and  C_14 
REMARK    7  A    between atoms: N_20  and  C_19 
REMARK       I    between atoms: C_22  and  N_20 
ROOT
ATOM      1  C   LIG d   1      -5.637  75.301 116.296  0.00  0.00     0.161 C 
ATOM      2  C   LIG d   1      -4.475  74.657 115.839  0.00  0.00     0.016 C 
ATOM      3  C   LIG d   1      -3.168  75.071 116.185  0.00  0.00     0.038 C 
ATOM      4  C   LIG d   1      -2.936  76.073 117.139  0.00  0.00     0.028 C 
ATOM      5  C   LIG d   1      -4.072  77.086 117.242  0.00  0.00    -0.047 C 
ATOM      6  C   LIG d   1      -5.406  76.326 117.426  0.00  0.00     0.091 C 
ENDROOT
BRANCH   1   7
ATOM      7  O   LIG d   1      -6.612  74.320 116.702  0.00  0.00    -0.368 OA
BRANCH   7   8
ATOM      8  C   LIG d   1      -7.659  74.029 115.744  0.00  0.00     0.119 C 
BRANCH   8   9
ATOM      9  C   LIG d   1      -8.737  75.120 115.890  0.00  0.00     0.028 C 
ATOM     10  C   LIG d   1      -9.514  75.006 117.212  0.00  0.00     0.006 C 
ENDBRANCH   8   9
BRANCH   8  11
ATOM     11  C   LIG d   1      -8.368  72.712 116.077  0.00  0.00     0.028 C 
ATOM     12  C   LIG d   1      -7.398  71.525 116.188  0.00  0.00     0.006 C 
ENDBRANCH   8  11
ENDBRANCH   7   8
ENDBRANCH   1   7
BRANCH   6  13
ATOM     13  N   LIG d   1      -6.579  77.239 117.452  0.00  0.00    -0.311 N 
ATOM     14  C   LIG d   1      -7.150  77.666 118.576  0.00  0.00     0.210 C 
ATOM     15  C   LIG d   1      -8.360  78.585 118.378  0.00  0.00     0.109 C 
ATOM     16  O   LIG d   1      -6.751  77.397 119.719  0.00  0.00    -0.276 OA
ATOM     17  H   LIG d   1      -6.948  77.532 116.569  0.00  0.00     0.149 HD
ENDBRANCH   6  13
BRANCH   5  18
ATOM     18  N   LIG d   1      -3.762  77.990 118.366  0.00  0.00     0.381 N 
ATOM     19  H   LIG d   1      -3.980  77.540 119.232  0.00  0.00    -0.090 HD
ATOM     20  H   LIG d   1      -4.331  78.814 118.286  0.00  0.00    -0.090 HD
ATOM     21  H   LIG d   1      -2.798  78.240 118.346  0.00  0.00    -0.090 HD
ENDBRANCH   5  18
BRANCH   3  22
ATOM     22  C   LIG d   1      -2.076  74.508 115.542  0.00  0.00     0.382 C 
ATOM     23  O   LIG d   1      -1.326  73.714 116.161  0.00  0.00    -0.241 OA
ATOM     24  O   LIG d   1      -1.806  74.817 114.366  0.00  0.00    -0.241 OA
ENDBRANCH   3  22
TORSDOF 7
ENDMDL
MODEL 4
REMARK VINA RESULT:      -5.6     15.249     17.871
REMARK  7 active torsions:
REMARK  status: ('A' for Active; 'I' for Inactive)
REMARK    1  A    between atoms: C_2  and  C_3 
REMARK    2  A    between atoms: C_3  and  O_6 
REMARK    3  A    between atoms: C_3  and  C_4 
REMARK    4  A    between atoms: C_7  and  O_6 
REMARK    5  A    between atoms: C_9  and  C_10 
REMARK    6  A    between atoms: N_15  and  C_14 
REMARK    7  A    between atoms: N_20  and  C_19 
REMARK       I    between atoms: C_22  and  N_20 
ROOT
ATOM      1  C   LIG d   1      -6.532  92.953 118.110  0.00  0.00     0.161 C 
ATOM      2  C   LIG d   1      -7.305  92.064 117.345  0.00  0.00     0.016 C 
ATOM      3  C   LIG d   1      -6.750  91.022 116.566  0.00  0.00     0.038 C 
ATOM      4  C   LIG d   1      -5.385  90.703 116.620  0.00  0.00     0.028 C 
ATOM      5  C   LIG d   1      -4.500  91.889 116.985  0.00  0.00    -0.047 C 
ATOM      6  C   LIG d   1      -5.051  92.551 118.269  0.00  0.00     0.091 C 
ENDROOT
BRANCH   1   7
ATOM      7  O   LIG d   1      -7.141  93.142 119.403  0.00  0.00    -0.368 OA
BRANCH   7   8
ATOM      8  C   LIG d   1      -7.508  94.502 119.742  0.00  0.00     0.119 C 
BRANCH   8   9
ATOM      9  C   LIG d   1      -8.815  94.440 120.555  0.00  0.00     0.028 C 
ATOM     10  C   LIG d   1      -9.847  93.482 119.935  0.00  0.00     0.006 C 
ENDBRANCH   8   9
BRANCH   8  11
ATOM     11  C   LIG d   1      -7.847  95.317 118.490  0.00  0.00     0.028 C 
ATOM     12  C   LIG d   1      -7.663  96.829 118.695  0.00  0.00     0.006 C 
ENDBRANCH   8  11
ENDBRANCH   7   8
ENDBRANCH   1   7
BRANCH   6  13
ATOM     13  N   LIG d   1      -4.292  93.771 118.648  0.00  0.00    -0.311 N 
ATOM     14  C   LIG d   1      -3.276  93.764 119.509  0.00  0.00     0.210 C 
ATOM     15  C   LIG d   1      -2.644  95.134 119.776  0.00  0.00     0.109 C 
ATOM     16  O   LIG d   1      -2.816  92.748 120.052  0.00  0.00    -0.276 OA
ATOM     17  H   LIG d   1      -4.578  94.635 118.230  0.00  0.00     0.149 HD
ENDBRANCH   6  13
BRANCH   5  18
ATOM     18  N   LIG d   1      -3.122  91.386 117.140  0.00  0.00     0.381 N 
ATOM     19  H   LIG d   1      -2.696  91.806 117.942  0.00  0.00    -0.090 HD
ATOM     20  H   LIG d   1      -2.588  91.644 116.329  0.00  0.00    -0.090 HD
ATOM     21  H   LIG d   1      -3.130  90.395 117.240  0.00  0.00    -0.090 HD
ENDBRANCH   5  18
BRANCH   3  22
ATOM     22  C   LIG d   1      -7.559  90.313 115.692  0.00  0.00     0.382 C 
ATOM     23  O   LIG d   1      -8.389  89.485 116.137  0.00  0.00    -0.241 OA
ATOM     24  O   LIG d   1      -7.437  90.458 114.461  0.00  0.00    -0.241 OA
ENDBRANCH   3  22
TORSDOF 7
ENDMDL
MODEL 5
REMARK VINA RESULT:      -5.2      2.631      4.789
REMARK  7 active torsions:
REMARK  status: ('A' for Active; 'I' for Inactive)
REMARK    1  A    between atoms: C_2  and  C_3 
REMARK    2  A    between atoms: C_3  and  O_6 
REMARK    3  A    between atoms: C_3  and  C_4 
REMARK    4  A    between atoms: C_7  and  O_6 
REMARK    5  A    between atoms: C_9  and  C_10 
REMARK    6  A    between atoms: N_15  and  C_14 
REMARK    7  A    between atoms: N_20  and  C_19 
REMARK       I    between atoms: C_22  and  N_20 
ROOT
ATOM      1  C   LIG d   1      -5.437  75.025 116.051  0.00  0.00     0.161 C 
ATOM      2  C   LIG d   1      -6.172  73.871 115.730  0.00  0.00     0.016 C 
ATOM      3  C   LIG d   1      -7.478  73.622 116.208  0.00  0.00     0.038 C 
ATOM      4  C   LIG d   1      -8.203  74.587 116.924  0.00  0.00     0.028 C 
ATOM      5  C   LIG d   1      -7.317  75.558 117.698  0.00  0.00    -0.047 C 
ATOM      6  C   LIG d   1      -6.253  76.139 116.740  0.00  0.00     0.091 C 
ENDROOT
BRANCH   1   7
ATOM      7  O   LIG d   1      -4.788  75.536 114.870  0.00  0.00    -0.368 OA
BRANCH   7   8
ATOM      8  C   LIG d   1      -3.414  75.122 114.669  0.00  0.00     0.119 C 
BRANCH   8   9
ATOM      9  C   LIG d   1      -2.816  74.812 116.055  0.00  0.00     0.028 C 
ATOM     10  C   LIG d   1      -1.348  74.361 115.973  0.00  0.00     0.006 C 
ENDBRANCH   8   9
BRANCH   8  11
ATOM     11  C   LIG d   1      -2.565  76.266 114.107  0.00  0.00     0.028 C 
ATOM     12  C   LIG d   1      -2.919  77.629 114.722  0.00  0.00     0.006 C 
ENDBRANCH   8  11
ENDBRANCH   7   8
ENDBRANCH   1   7
BRANCH   6  13
ATOM     13  N   LIG d   1      -5.293  77.035 117.436  0.00  0.00    -0.311 N 
ATOM     14  C   LIG d   1      -5.478  78.347 117.569  0.00  0.00     0.210 C 
ATOM     15  C   LIG d   1      -4.356  79.088 118.304  0.00  0.00     0.109 C 
ATOM     16  O   LIG d   1      -6.481  78.963 117.178  0.00  0.00    -0.276 OA
ATOM     17  H   LIG d   1      -4.466  76.613 117.812  0.00  0.00     0.149 HD
ENDBRANCH   6  13
BRANCH   5  18
ATOM     18  N   LIG d   1      -8.194  76.590 118.284  0.00  0.00     0.381 N 
ATOM     19  H   LIG d   1      -9.120  76.227 118.390  0.00  0.00    -0.090 HD
ATOM     20  H   LIG d   1      -8.232  77.376 117.660  0.00  0.00    -0.090 HD
ATOM     21  H   LIG d   1      -7.838  76.876 119.169  0.00  0.00    -0.090 HD
ENDBRANCH   5  18
BRANCH   3  22
ATOM     22  C   LIG d   1      -8.059  72.379 116.005  0.00  0.00     0.382 C 
ATOM     23  O   LIG d   1      -9.308  72.259 116.030  0.00  0.00    -0.241 OA
ATOM     24  O   LIG d   1      -7.349  71.369 115.842  0.00  0.00    -0.241 OA
ENDBRANCH   3  22
TORSDOF 7
ENDMDL
MODEL 6
REMARK VINA RESULT:      -5.1      2.314      2.883
REMARK  7 active torsions:
REMARK  status: ('A' for Active; 'I' for Inactive)
REMARK    1  A    between atoms: C_2  and  C_3 
REMARK    2  A    between atoms: C_3  and  O_6 
REMARK    3  A    between atoms: C_3  and  C_4 
REMARK    4  A    between atoms: C_7  and  O_6 
REMARK    5  A    between atoms: C_9  and  C_10 
REMARK    6  A    between atoms: N_15  and  C_14 
REMARK    7  A    between atoms: N_20  and  C_19 
REMARK       I    between atoms: C_22  and  N_20 
ROOT
ATOM      1  C   LIG d   1      -6.451  76.377 117.403  0.00  0.00     0.161 C 
ATOM      2  C   LIG d   1      -7.364  77.363 117.814  0.00  0.00     0.016 C 
ATOM      3  C   LIG d   1      -7.032  78.732 117.928  0.00  0.00     0.038 C 
ATOM      4  C   LIG d   1      -5.798  79.235 117.489  0.00  0.00     0.028 C 
ATOM      5  C   LIG d   1      -4.673  78.207 117.540  0.00  0.00    -0.047 C 
ATOM      6  C   LIG d   1      -5.133  76.922 116.814  0.00  0.00     0.091 C 
ENDROOT
BRANCH   1   7
ATOM      7  O   LIG d   1      -7.086  75.483 116.468  0.00  0.00    -0.368 OA
BRANCH   7   8
ATOM      8  C   LIG d   1      -7.212  74.103 116.890  0.00  0.00     0.119 C 
BRANCH   8   9
ATOM      9  C   LIG d   1      -6.426  73.238 115.885  0.00  0.00     0.028 C 
ATOM     10  C   LIG d   1      -6.840  71.758 115.936  0.00  0.00     0.006 C 
ENDBRANCH   8   9
BRANCH   8  11
ATOM     11  C   LIG d   1      -8.662  73.621 116.794  0.00  0.00     0.028 C 
ATOM     12  C   LIG d   1      -9.630  74.728 116.345  0.00  0.00     0.006 C 
ENDBRANCH   8  11
ENDBRANCH   7   8
ENDBRANCH   1   7
BRANCH   6  13
ATOM     13  N   LIG d   1      -4.123  75.835 116.891  0.00  0.00    -0.311 N 
ATOM     14  C   LIG d   1      -3.241  75.585 115.925  0.00  0.00     0.210 C 
ATOM     15  C   LIG d   1      -2.302  74.406 116.197  0.00  0.00     0.109 C 
ATOM     16  O   LIG d   1      -3.126  76.247 114.882  0.00  0.00    -0.276 OA
ATOM     17  H   LIG d   1      -4.125  75.268 117.716  0.00  0.00     0.149 HD
ENDBRANCH   6  13
BRANCH   5  18
ATOM     18  N   LIG d   1      -3.480  78.822 116.928  0.00  0.00     0.381 N 
ATOM     19  H   LIG d   1      -2.653  78.439 117.340  0.00  0.00    -0.090 HD
ATOM     20  H   LIG d   1      -3.494  79.810 117.109  0.00  0.00    -0.090 HD
ATOM     21  H   LIG d   1      -3.478  78.657 115.945  0.00  0.00    -0.090 HD
ENDBRANCH   5  18
BRANCH   3  22
ATOM     22  C   LIG d   1      -7.927  79.609 118.522  0.00  0.00     0.382 C 
ATOM     23  O   LIG d   1      -8.194  79.500 119.743  0.00  0.00    -0.241 OA
ATOM     24  O   LIG d   1      -8.504  80.480 117.844  0.00  0.00    -0.241 OA
ENDBRANCH   3  22
TORSDOF 7
ENDMDL
MODEL 7
REMARK VINA RESULT:      -5.0      2.300      4.912
REMARK  7 active torsions:
REMARK  status: ('A' for Active; 'I' for Inactive)
REMARK    1  A    between atoms: C_2  and  C_3 
REMARK    2  A    between atoms: C_3  and  O_6 
REMARK    3  A    between atoms: C_3  and  C_4 
REMARK    4  A    between atoms: C_7  and  O_6 
REMARK    5  A    between atoms: C_9  and  C_10 
REMARK    6  A    between atoms: N_15  and  C_14 
REMARK    7  A    between atoms: N_20  and  C_19 
REMARK       I    between atoms: C_22  and  N_20 
ROOT
ATOM      1  C   LIG d   1      -6.540  75.519 116.460  0.00  0.00     0.161 C 
ATOM      2  C   LIG d   1      -6.591  74.157 116.119  0.00  0.00     0.016 C 
ATOM      3  C   LIG d   1      -7.743  73.355 116.287  0.00  0.00     0.038 C 
ATOM      4  C   LIG d   1      -8.977  73.902 116.671  0.00  0.00     0.028 C 
ATOM      5  C   LIG d   1      -8.844  75.170 117.507  0.00  0.00    -0.047 C 
ATOM      6  C   LIG d   1      -7.908  76.158 116.775  0.00  0.00     0.091 C 
ENDROOT
BRANCH   1   7
ATOM      7  O   LIG d   1      -5.868  76.258 115.421  0.00  0.00    -0.368 OA
BRANCH   7   8
ATOM      8  C   LIG d   1      -4.495  76.632 115.690  0.00  0.00     0.119 C 
BRANCH   8   9
ATOM      9  C   LIG d   1      -3.598  75.820 114.735  0.00  0.00     0.028 C 
ATOM     10  C   LIG d   1      -2.772  74.752 115.472  0.00  0.00     0.006 C 
ENDBRANCH   8   9
BRANCH   8  11
ATOM     11  C   LIG d   1      -4.069  76.214 117.100  0.00  0.00     0.028 C 
ATOM     12  C   LIG d   1      -3.548  77.391 117.939  0.00  0.00     0.006 C 
ENDBRANCH   8  11
ENDBRANCH   7   8
ENDBRANCH   1   7
BRANCH   6  13
ATOM     13  N   LIG d   1      -7.657  77.392 117.565  0.00  0.00    -0.311 N 
ATOM     14  C   LIG d   1      -7.124  77.385 118.786  0.00  0.00     0.210 C 
ATOM     15  C   LIG d   1      -6.969  78.765 119.432  0.00  0.00     0.109 C 
ATOM     16  O   LIG d   1      -6.736  76.369 119.383  0.00  0.00    -0.276 OA
ATOM     17  H   LIG d   1      -7.913  78.263 117.145  0.00  0.00     0.149 HD
ENDBRANCH   6  13
BRANCH   5  18
ATOM     18  N   LIG d   1     -10.201  75.708 117.720  0.00  0.00     0.381 N 
ATOM     19  H   LIG d   1     -10.191  76.361 118.477  0.00  0.00    -0.090 HD
ATOM     20  H   LIG d   1     -10.816  74.952 117.963  0.00  0.00    -0.090 HD
ATOM     21  H   LIG d   1     -10.524  76.155 116.890  0.00  0.00    -0.090 HD
ENDBRANCH   5  18
BRANCH   3  22
ATOM     22  C   LIG d   1      -7.657  71.983 116.110  0.00  0.00     0.382 C 
ATOM     23  O   LIG d   1      -6.637  71.482 115.578  0.00  0.00    -0.241 OA
ATOM     24  O   LIG d   1      -8.606  71.244 116.433  0.00  0.00    -0.241 OA
ENDBRANCH   3  22
TORSDOF 7
ENDMDL
MODEL 8
REMARK VINA RESULT:      -4.9      2.016      5.177
REMARK  7 active torsions:
REMARK  status: ('A' for Active; 'I' for Inactive)
REMARK    1  A    between atoms: C_2  and  C_3 
REMARK    2  A    between atoms: C_3  and  O_6 
REMARK    3  A    between atoms: C_3  and  C_4 
REMARK    4  A    between atoms: C_7  and  O_6 
REMARK    5  A    between atoms: C_9  and  C_10 
REMARK    6  A    between atoms: N_15  and  C_14 
REMARK    7  A    between atoms: N_20  and  C_19 
REMARK       I    between atoms: C_22  and  N_20 
ROOT
ATOM      1  C   LIG d   1      -6.161  76.745 116.838  0.00  0.00     0.161 C 
ATOM      2  C   LIG d   1      -4.852  76.949 116.371  0.00  0.00     0.016 C 
ATOM      3  C   LIG d   1      -4.081  78.091 116.689  0.00  0.00     0.038 C 
ATOM      4  C   LIG d   1      -4.515  79.041 117.625  0.00  0.00     0.028 C 
ATOM      5  C   LIG d   1      -6.033  79.135 117.733  0.00  0.00    -0.047 C 
ATOM      6  C   LIG d   1      -6.610  77.717 117.949  0.00  0.00     0.091 C 
ENDROOT
BRANCH   1   7
ATOM      7  O   LIG d   1      -6.318  75.380 117.273  0.00  0.00    -0.368 OA
BRANCH   7   8
ATOM      8  C   LIG d   1      -6.772  74.439 116.269  0.00  0.00     0.119 C 
BRANCH   8   9
ATOM      9  C   LIG d   1      -8.023  75.043 115.601  0.00  0.00     0.028 C 
ATOM     10  C   LIG d   1      -9.315  74.706 116.364  0.00  0.00     0.006 C 
ENDBRANCH   8   9
BRANCH   8  11
ATOM     11  C   LIG d   1      -7.244  73.129 116.906  0.00  0.00     0.028 C 
ATOM     12  C   LIG d   1      -6.763  71.887 116.140  0.00  0.00     0.006 C 
ENDBRANCH   8  11
ENDBRANCH   7   8
ENDBRANCH   1   7
BRANCH   6  13
ATOM     13  N   LIG d   1      -8.095  77.708 117.982  0.00  0.00    -0.311 N 
ATOM     14  C   LIG d   1      -8.805  77.835 119.102  0.00  0.00     0.210 C 
ATOM     15  C   LIG d   1     -10.324  77.779 118.915  0.00  0.00     0.109 C 
ATOM     16  O   LIG d   1      -8.321  78.020 120.229  0.00  0.00    -0.276 OA
ATOM     17  H   LIG d   1      -8.570  77.594 117.108  0.00  0.00     0.149 HD
ENDBRANCH   6  13
BRANCH   5  18
ATOM     18  N   LIG d   1      -6.345  80.061 118.839  0.00  0.00     0.381 N 
ATOM     19  H   LIG d   1      -5.496  80.401 119.245  0.00  0.00    -0.090 HD
ATOM     20  H   LIG d   1      -6.855  79.562 119.546  0.00  0.00    -0.090 HD
ATOM     21  H   LIG d   1      -6.889  80.824 118.502  0.00  0.00    -0.090 HD
ENDBRANCH   5  18
BRANCH   3  22
ATOM     22  C   LIG d   1      -2.877  78.310 116.037  0.00  0.00     0.382 C 
ATOM     23  O   LIG d   1      -2.054  79.136 116.501  0.00  0.00    -0.241 OA
ATOM     24  O   LIG d   1      -2.623  77.727 114.966  0.00  0.00    -0.241 OA
ENDBRANCH   3  22
TORSDOF 7
ENDMDL
MODEL 9
REMARK VINA RESULT:      -4.8      2.750      3.792
REMARK  7 active torsions:
REMARK  status: ('A' for Active; 'I' for Inactive)
REMARK    1  A    between atoms: C_2  and  C_3 
REMARK    2  A    between atoms: C_3  and  O_6 
REMARK    3  A    between atoms: C_3  and  C_4 
REMARK    4  A    between atoms: C_7  and  O_6 
REMARK    5  A    between atoms: C_9  and  C_10 
REMARK    6  A    between atoms: N_15  and  C_14 
REMARK    7  A    between atoms: N_20  and  C_19 
REMARK       I    between atoms: C_22  and  N_20 
ROOT
ATOM      1  C   LIG d   1      -5.670  76.558 117.738  0.00  0.00     0.161 C 
ATOM      2  C   LIG d   1      -6.569  77.598 118.031  0.00  0.00     0.016 C 
ATOM      3  C   LIG d   1      -6.229  78.967 117.946  0.00  0.00     0.038 C 
ATOM      4  C   LIG d   1      -5.004  79.396 117.412  0.00  0.00     0.028 C 
ATOM      5  C   LIG d   1      -3.882  78.377 117.578  0.00  0.00    -0.047 C 
ATOM      6  C   LIG d   1      -4.365  77.008 117.048  0.00  0.00     0.091 C 
ENDROOT
BRANCH   1   7
ATOM      7  O   LIG d   1      -6.331  75.548 116.950  0.00  0.00    -0.368 OA
BRANCH   7   8
ATOM      8  C   LIG d   1      -7.263  76.028 115.950  0.00  0.00     0.119 C 
BRANCH   8   9
ATOM      9  C   LIG d   1      -8.581  75.252 116.136  0.00  0.00     0.028 C 
ATOM     10  C   LIG d   1      -8.397  73.973 116.969  0.00  0.00     0.006 C 
ENDBRANCH   8   9
BRANCH   8  11
ATOM     11  C   LIG d   1      -6.787  75.686 114.535  0.00  0.00     0.028 C 
ATOM     12  C   LIG d   1      -5.639  74.664 114.524  0.00  0.00     0.006 C 
ENDBRANCH   8  11
ENDBRANCH   7   8
ENDBRANCH   1   7
BRANCH   6  13
ATOM     13  N   LIG d   1      -3.357  75.934 117.250  0.00  0.00    -0.311 N 
ATOM     14  C   LIG d   1      -2.475  75.572 116.320  0.00  0.00     0.210 C 
ATOM     15  C   LIG d   1      -1.539  74.430 116.727  0.00  0.00     0.109 C 
ATOM     16  O   LIG d   1      -2.359  76.109 115.208  0.00  0.00    -0.276 OA
ATOM     17  H   LIG d   1      -3.360  75.466 118.135  0.00  0.00     0.149 HD
ENDBRANCH   6  13
BRANCH   5  18
ATOM     18  N   LIG d   1      -2.702  78.892 116.859  0.00  0.00     0.381 N 
ATOM     19  H   LIG d   1      -1.866  78.564 117.299  0.00  0.00    -0.090 HD
ATOM     20  H   LIG d   1      -2.708  79.896 116.902  0.00  0.00    -0.090 HD
ATOM     21  H   LIG d   1      -2.725  78.593 115.909  0.00  0.00    -0.090 HD
ENDBRANCH   5  18
BRANCH   3  22
ATOM     22  C   LIG d   1      -7.105  79.925 118.434  0.00  0.00     0.382 C 
ATOM     23  O   LIG d   1      -8.079  80.298 117.736  0.00  0.00    -0.241 OA
ATOM     24  O   LIG d   1      -6.910  80.451 119.546  0.00  0.00    -0.241 OA
ENDBRANCH   3  22
TORSDOF 7
ENDMDL
