MODEL 1
REMARK VINA RESULT:      -5.9      0.000      0.000
REMARK  7 active torsions:
REMARK  status: ('A' for Active; 'I' for Inactive)
REMARK    1  A    between atoms: C_2  and  C_3 
REMARK    2  A    between atoms: C_3  and  O_6 
REMARK    3  A    between atoms: C_3  and  C_4 
REMARK    4  A    between atoms: C_7  and  O_6 
REMARK    5  A    between atoms: C_9  and  C_10 
REMARK    6  A    between atoms: N_15  and  C_14 
REMARK    7  A    between atoms: N_20  and  C_19 
REMARK       I    between atoms: C_22  and  N_20 
ROOT
ATOM      1  C   LIG d   1      -6.226  76.878 117.119  0.00  0.00     0.161 C 
ATOM      2  C   LIG d   1      -7.567  77.039 117.504  0.00  0.00     0.016 C 
ATOM      3  C   LIG d   1      -8.001  78.024 118.421  0.00  0.00     0.038 C 
ATOM      4  C   LIG d   1      -7.138  79.020 118.903  0.00  0.00     0.028 C 
ATOM      5  C   LIG d   1      -5.675  78.590 118.935  0.00  0.00    -0.047 C 
ATOM      6  C   LIG d   1      -5.288  78.025 117.549  0.00  0.00     0.091 C 
ENDROOT
BRANCH   1   7
ATOM      7  O   LIG d   1      -6.147  76.674 115.694  0.00  0.00    -0.368 OA
BRANCH   7   8
ATOM      8  C   LIG d   1      -6.274  75.304 115.239  0.00  0.00     0.119 C 
BRANCH   8   9
ATOM      9  C   LIG d   1      -5.760  74.391 116.369  0.00  0.00     0.028 C 
ATOM     10  C   LIG d   1      -6.200  72.929 116.188  0.00  0.00     0.006 C 
ENDBRANCH   8   9
BRANCH   8  11
ATOM     11  C   LIG d   1      -5.356  75.027 114.045  0.00  0.00     0.028 C 
ATOM     12  C   LIG d   1      -3.865  75.103 114.409  0.00  0.00     0.006 C 
ENDBRANCH   8  11
ENDBRANCH   7   8
ENDBRANCH   1   7
BRANCH   6  13
ATOM     13  N   LIG d   1      -3.896  77.504 117.518  0.00  0.00    -0.311 N 
ATOM     14  C   LIG d   1      -3.027  77.792 116.551  0.00  0.00     0.210 C 
ATOM     15  C   LIG d   1      -1.651  77.134 116.701  0.00  0.00     0.109 C 
ATOM     16  O   LIG d   1      -3.253  78.555 115.600  0.00  0.00    -0.276 OA
ATOM     17  H   LIG d   1      -3.618  76.902 118.268  0.00  0.00     0.149 HD
ENDBRANCH   6  13
BRANCH   5  18
ATOM     18  N   LIG d   1      -4.874  79.765 119.325  0.00  0.00     0.381 N 
ATOM     19  H   LIG d   1      -5.479  80.536 119.525  0.00  0.00    -0.090 HD
ATOM     20  H   LIG d   1      -4.278  80.022 118.557  0.00  0.00    -0.090 HD
ATOM     21  H   LIG d   1      -4.322  79.550 120.126  0.00  0.00    -0.090 HD
ENDBRANCH   5  18
BRANCH   3  22
ATOM     22  C   LIG d   1      -9.303  77.995 118.896  0.00  0.00     0.382 C 
ATOM     23  O   LIG d   1     -10.218  78.564 118.253  0.00  0.00    -0.241 OA
ATOM     24  O   LIG d   1      -9.568  77.445 119.981  0.00  0.00    -0.241 OA
ENDBRANCH   3  22
TORSDOF 7
ENDMDL
MODEL 2
REMARK VINA RESULT:      -5.7     14.319     15.999
REMARK  7 active torsions:
REMARK  status: ('A' for Active; 'I' for Inactive)
REMARK    1  A    between atoms: C_2  and  C_3 
REMARK    2  A    between atoms: C_3  and  O_6 
REMARK    3  A    between atoms: C_3  and  C_4 
REMARK    4  A    between atoms: C_7  and  O_6 
REMARK    5  A    between atoms: C_9  and  C_10 
REMARK    6  A    between atoms: N_15  and  C_14 
REMARK    7  A    between atoms: N_20  and  C_19 
REMARK       I    between atoms: C_22  and  N_20 
ROOT
ATOM      1  C   LIG d   1      -5.943  92.699 117.604  0.00  0.00     0.161 C 
ATOM      2  C   LIG d   1      -7.115  93.471 117.543  0.00  0.00     0.016 C 
ATOM      3  C   LIG d   1      -7.335  94.616 118.342  0.00  0.00     0.038 C 
ATOM      4  C   LIG d   1      -6.328  95.158 119.155  0.00  0.00     0.028 C 
ATOM      5  C   LIG d   1      -5.310  94.126 119.627  0.00  0.00    -0.047 C 
ATOM      6  C   LIG d   1      -4.788  93.339 118.403  0.00  0.00     0.091 C 
ENDROOT
BRANCH   1   7
ATOM      7  O   LIG d   1      -5.506  92.368 116.271  0.00  0.00    -0.368 OA
BRANCH   7   8
ATOM      8  C   LIG d   1      -5.554  90.964 115.915  0.00  0.00     0.119 C 
BRANCH   8   9
ATOM      9  C   LIG d   1      -6.424  90.837 114.650  0.00  0.00     0.028 C 
ATOM     10  C   LIG d   1      -6.844  92.206 114.087  0.00  0.00     0.006 C 
ENDBRANCH   8   9
BRANCH   8  11
ATOM     11  C   LIG d   1      -6.275  90.142 116.987  0.00  0.00     0.028 C 
ATOM     12  C   LIG d   1      -7.514  89.412 116.445  0.00  0.00     0.006 C 
ENDBRANCH   8  11
ENDBRANCH   7   8
ENDBRANCH   1   7
BRANCH   6  13
ATOM     13  N   LIG d   1      -3.850  92.252 118.787  0.00  0.00    -0.311 N 
ATOM     14  C   LIG d   1      -2.601  92.168 118.331  0.00  0.00     0.210 C 
ATOM     15  C   LIG d   1      -1.809  90.957 118.836  0.00  0.00     0.109 C 
ATOM     16  O   LIG d   1      -2.063  92.997 117.583  0.00  0.00    -0.276 OA
ATOM     17  H   LIG d   1      -4.194  91.553 119.415  0.00  0.00     0.149 HD
ENDBRANCH   6  13
BRANCH   5  18
ATOM     18  N   LIG d   1      -4.244  94.849 120.347  0.00  0.00     0.381 N 
ATOM     19  H   LIG d   1      -4.576  95.132 121.248  0.00  0.00    -0.090 HD
ATOM     20  H   LIG d   1      -4.002  95.674 119.827  0.00  0.00    -0.090 HD
ATOM     21  H   LIG d   1      -3.444  94.264 120.448  0.00  0.00    -0.090 HD
ENDBRANCH   5  18
BRANCH   3  22
ATOM     22  C   LIG d   1      -8.589  95.208 118.364  0.00  0.00     0.382 C 
ATOM     23  O   LIG d   1      -8.724  96.403 118.007  0.00  0.00    -0.241 OA
ATOM     24  O   LIG d   1      -9.579  94.576 118.778  0.00  0.00    -0.241 OA
ENDBRANCH   3  22
TORSDOF 7
ENDMDL
MODEL 3
REMARK VINA RESULT:      -5.6     13.552     15.791
REMARK  7 active torsions:
REMARK  status: ('A' for Active; 'I' for Inactive)
REMARK    1  A    between atoms: C_2  and  C_3 
REMARK    2  A    between atoms: C_3  and  O_6 
REMARK    3  A    between atoms: C_3  and  C_4 
REMARK    4  A    between atoms: C_7  and  O_6 
REMARK    5  A    between atoms: C_9  and  C_10 
REMARK    6  A    between atoms: N_15  and  C_14 
REMARK    7  A    between atoms: N_20  and  C_19 
REMARK       I    between atoms: C_22  and  N_20 
ROOT
ATOM      1  C   LIG d   1      -5.420  91.231 118.029  0.00  0.00     0.161 C 
ATOM      2  C   LIG d   1      -4.989  90.242 117.130  0.00  0.00     0.016 C 
ATOM      3  C   LIG d   1      -5.456  90.143 115.799  0.00  0.00     0.038 C 
ATOM      4  C   LIG d   1      -6.278  91.126 115.227  0.00  0.00     0.028 C 
ATOM      5  C   LIG d   1      -7.138  91.865 116.246  0.00  0.00    -0.047 C 
ATOM      6  C   LIG d   1      -6.232  92.377 117.389  0.00  0.00     0.091 C 
ENDROOT
BRANCH   1   7
ATOM      7  O   LIG d   1      -4.291  91.760 118.752  0.00  0.00    -0.368 OA
BRANCH   7   8
ATOM      8  C   LIG d   1      -3.393  92.612 117.998  0.00  0.00     0.119 C 
BRANCH   8   9
ATOM      9  C   LIG d   1      -2.022  91.910 117.949  0.00  0.00     0.028 C 
ATOM     10  C   LIG d   1      -1.756  91.054 119.198  0.00  0.00     0.006 C 
ENDBRANCH   8   9
BRANCH   8  11
ATOM     11  C   LIG d   1      -3.145  93.939 118.721  0.00  0.00     0.028 C 
ATOM     12  C   LIG d   1      -1.906  94.681 118.194  0.00  0.00     0.006 C 
ENDBRANCH   8  11
ENDBRANCH   7   8
ENDBRANCH   1   7
BRANCH   6  13
ATOM     13  N   LIG d   1      -7.006  93.039 118.472  0.00  0.00    -0.311 N 
ATOM     14  C   LIG d   1      -7.320  94.333 118.462  0.00  0.00     0.210 C 
ATOM     15  C   LIG d   1      -8.105  94.817 119.686  0.00  0.00     0.109 C 
ATOM     16  O   LIG d   1      -7.052  95.119 117.541  0.00  0.00    -0.276 OA
ATOM     17  H   LIG d   1      -7.291  92.468 119.244  0.00  0.00     0.149 HD
ENDBRANCH   6  13
BRANCH   5  18
ATOM     18  N   LIG d   1      -7.840  92.949 115.535  0.00  0.00     0.381 N 
ATOM     19  H   LIG d   1      -7.534  93.836 115.882  0.00  0.00    -0.090 HD
ATOM     20  H   LIG d   1      -8.826  92.866 115.708  0.00  0.00    -0.090 HD
ATOM     21  H   LIG d   1      -7.660  92.887 114.557  0.00  0.00    -0.090 HD
ENDBRANCH   5  18
BRANCH   3  22
ATOM     22  C   LIG d   1      -5.131  89.031 115.038  0.00  0.00     0.382 C 
ATOM     23  O   LIG d   1      -5.687  88.847 113.928  0.00  0.00    -0.241 OA
ATOM     24  O   LIG d   1      -4.323  88.186 115.466  0.00  0.00    -0.241 OA
ENDBRANCH   3  22
TORSDOF 7
ENDMDL
MODEL 4
REMARK VINA RESULT:      -5.4     13.182     15.155
REMARK  7 active torsions:
REMARK  status: ('A' for Active; 'I' for Inactive)
REMARK    1  A    between atoms: C_2  and  C_3 
REMARK    2  A    between atoms: C_3  and  O_6 
REMARK    3  A    between atoms: C_3  and  C_4 
REMARK    4  A    between atoms: C_7  and  O_6 
REMARK    5  A    between atoms: C_9  and  C_10 
REMARK    6  A    between atoms: N_15  and  C_14 
REMARK    7  A    between atoms: N_20  and  C_19 
REMARK       I    between atoms: C_22  and  N_20 
ROOT
ATOM      1  C   LIG d   1      -3.776  91.833 117.776  0.00  0.00     0.161 C 
ATOM      2  C   LIG d   1      -4.904  92.533 117.314  0.00  0.00     0.016 C 
ATOM      3  C   LIG d   1      -5.818  92.002 116.375  0.00  0.00     0.038 C 
ATOM      4  C   LIG d   1      -5.748  90.668 115.945  0.00  0.00     0.028 C 
ATOM      5  C   LIG d   1      -4.339  90.087 115.998  0.00  0.00    -0.047 C 
ATOM      6  C   LIG d   1      -3.746  90.336 117.403  0.00  0.00     0.091 C 
ENDROOT
BRANCH   1   7
ATOM      7  O   LIG d   1      -3.651  91.997 119.203  0.00  0.00    -0.368 OA
BRANCH   7   8
ATOM      8  C   LIG d   1      -2.514  92.772 119.658  0.00  0.00     0.119 C 
BRANCH   8   9
ATOM      9  C   LIG d   1      -1.775  93.288 118.408  0.00  0.00     0.028 C 
ATOM     10  C   LIG d   1      -1.807  94.821 118.298  0.00  0.00     0.006 C 
ENDBRANCH   8   9
BRANCH   8  11
ATOM     11  C   LIG d   1      -1.499  91.892 120.395  0.00  0.00     0.028 C 
ATOM     12  C   LIG d   1      -0.147  91.807 119.670  0.00  0.00     0.006 C 
ENDBRANCH   8  11
ENDBRANCH   7   8
ENDBRANCH   1   7
BRANCH   6  13
ATOM     13  N   LIG d   1      -2.338  89.874 117.514  0.00  0.00    -0.311 N 
ATOM     14  C   LIG d   1      -1.993  88.690 118.018  0.00  0.00     0.210 C 
ATOM     15  C   LIG d   1      -0.485  88.419 118.059  0.00  0.00     0.109 C 
ATOM     16  O   LIG d   1      -2.793  87.825 118.404  0.00  0.00    -0.276 OA
ATOM     17  H   LIG d   1      -1.625  90.500 117.195  0.00  0.00     0.149 HD
ENDBRANCH   6  13
BRANCH   5  18
ATOM     18  N   LIG d   1      -4.435  88.655 115.656  0.00  0.00     0.381 N 
ATOM     19  H   LIG d   1      -5.017  88.537 114.852  0.00  0.00    -0.090 HD
ATOM     20  H   LIG d   1      -4.856  88.165 116.426  0.00  0.00    -0.090 HD
ATOM     21  H   LIG d   1      -3.527  88.286 115.476  0.00  0.00    -0.090 HD
ENDBRANCH   5  18
BRANCH   3  22
ATOM     22  C   LIG d   1      -6.792  92.821 115.825  0.00  0.00     0.382 C 
ATOM     23  O   LIG d   1      -7.625  93.391 116.570  0.00  0.00    -0.241 OA
ATOM     24  O   LIG d   1      -6.875  92.962 114.590  0.00  0.00    -0.241 OA
ENDBRANCH   3  22
TORSDOF 7
ENDMDL
MODEL 5
REMARK VINA RESULT:      -5.4     13.690     15.470
REMARK  7 active torsions:
REMARK  status: ('A' for Active; 'I' for Inactive)
REMARK    1  A    between atoms: C_2  and  C_3 
REMARK    2  A    between atoms: C_3  and  O_6 
REMARK    3  A    between atoms: C_3  and  C_4 
REMARK    4  A    between atoms: C_7  and  O_6 
REMARK    5  A    between atoms: C_9  and  C_10 
REMARK    6  A    between atoms: N_15  and  C_14 
REMARK    7  A    between atoms: N_20  and  C_19 
REMARK       I    between atoms: C_22  and  N_20 
ROOT
ATOM      1  C   LIG d   1      -5.104  92.170 117.747  0.00  0.00     0.161 C 
ATOM      2  C   LIG d   1      -5.356  93.304 118.538  0.00  0.00     0.016 C 
ATOM      3  C   LIG d   1      -6.417  94.205 118.290  0.00  0.00     0.038 C 
ATOM      4  C   LIG d   1      -7.395  93.949 117.317  0.00  0.00     0.028 C 
ATOM      5  C   LIG d   1      -6.893  93.082 116.167  0.00  0.00    -0.047 C 
ATOM      6  C   LIG d   1      -6.226  91.815 116.749  0.00  0.00     0.091 C 
ENDROOT
BRANCH   1   7
ATOM      7  O   LIG d   1      -4.809  91.041 118.593  0.00  0.00    -0.368 OA
BRANCH   7   8
ATOM      8  C   LIG d   1      -3.425  90.613 118.625  0.00  0.00     0.119 C 
BRANCH   8   9
ATOM      9  C   LIG d   1      -2.627  91.557 117.704  0.00  0.00     0.028 C 
ATOM     10  C   LIG d   1      -1.330  92.060 118.361  0.00  0.00     0.006 C 
ENDBRANCH   8   9
BRANCH   8  11
ATOM     11  C   LIG d   1      -3.258  89.217 118.018  0.00  0.00     0.028 C 
ATOM     12  C   LIG d   1      -2.292  88.330 118.819  0.00  0.00     0.006 C 
ENDBRANCH   8  11
ENDBRANCH   7   8
ENDBRANCH   1   7
BRANCH   6  13
ATOM     13  N   LIG d   1      -5.633  90.951 115.695  0.00  0.00    -0.311 N 
ATOM     14  C   LIG d   1      -5.899  89.651 115.577  0.00  0.00     0.210 C 
ATOM     15  C   LIG d   1      -5.166  88.943 114.433  0.00  0.00     0.109 C 
ATOM     16  O   LIG d   1      -6.697  89.025 116.290  0.00  0.00    -0.276 OA
ATOM     17  H   LIG d   1      -4.998  91.385 115.054  0.00  0.00     0.149 HD
ENDBRANCH   6  13
BRANCH   5  18
ATOM     18  N   LIG d   1      -8.048  92.780 115.300  0.00  0.00     0.381 N 
ATOM     19  H   LIG d   1      -7.730  92.373 114.443  0.00  0.00    -0.090 HD
ATOM     20  H   LIG d   1      -8.524  93.638 115.083  0.00  0.00    -0.090 HD
ATOM     21  H   LIG d   1      -8.669  92.154 115.764  0.00  0.00    -0.090 HD
ENDBRANCH   5  18
BRANCH   3  22
ATOM     22  C   LIG d   1      -6.484  95.398 118.993  0.00  0.00     0.382 C 
ATOM     23  O   LIG d   1      -7.189  96.342 118.561  0.00  0.00    -0.241 OA
ATOM     24  O   LIG d   1      -5.813  95.558 120.030  0.00  0.00    -0.241 OA
ENDBRANCH   3  22
TORSDOF 7
ENDMDL
MODEL 6
REMARK VINA RESULT:      -5.0     15.476     17.201
REMARK  7 active torsions:
REMARK  status: ('A' for Active; 'I' for Inactive)
REMARK    1  A    between atoms: C_2  and  C_3 
REMARK    2  A    between atoms: C_3  and  O_6 
REMARK    3  A    between atoms: C_3  and  C_4 
REMARK    4  A    between atoms: C_7  and  O_6 
REMARK    5  A    between atoms: C_9  and  C_10 
REMARK    6  A    between atoms: N_15  and  C_14 
REMARK    7  A    between atoms: N_20  and  C_19 
REMARK       I    between atoms: C_22  and  N_20 
ROOT
ATOM      1  C   LIG d   1      -5.854  93.539 119.680  0.00  0.00     0.161 C 
ATOM      2  C   LIG d   1      -7.202  93.888 119.495  0.00  0.00     0.016 C 
ATOM      3  C   LIG d   1      -7.635  95.208 119.231  0.00  0.00     0.038 C 
ATOM      4  C   LIG d   1      -6.729  96.250 118.984  0.00  0.00     0.028 C 
ATOM      5  C   LIG d   1      -5.376  96.049 119.657  0.00  0.00    -0.047 C 
ATOM      6  C   LIG d   1      -4.843  94.643 119.303  0.00  0.00     0.091 C 
ENDROOT
BRANCH   1   7
ATOM      7  O   LIG d   1      -5.560  92.325 118.962  0.00  0.00    -0.368 OA
BRANCH   7   8
ATOM      8  C   LIG d   1      -5.240  92.476 117.557  0.00  0.00     0.119 C 
BRANCH   8   9
ATOM      9  C   LIG d   1      -6.370  91.807 116.750  0.00  0.00     0.028 C 
ATOM     10  C   LIG d   1      -7.051  92.781 115.774  0.00  0.00     0.006 C 
ENDBRANCH   8   9
BRANCH   8  11
ATOM     11  C   LIG d   1      -3.968  91.707 117.189  0.00  0.00     0.028 C 
ATOM     12  C   LIG d   1      -4.256  90.282 116.690  0.00  0.00     0.006 C 
ENDBRANCH   8  11
ENDBRANCH   7   8
ENDBRANCH   1   7
BRANCH   6  13
ATOM     13  N   LIG d   1      -3.562  94.332 119.990  0.00  0.00    -0.311 N 
ATOM     14  C   LIG d   1      -2.369  94.464 119.412  0.00  0.00     0.210 C 
ATOM     15  C   LIG d   1      -1.178  94.071 120.290  0.00  0.00     0.109 C 
ATOM     16  O   LIG d   1      -2.183  94.899 118.265  0.00  0.00    -0.276 OA
ATOM     17  H   LIG d   1      -3.618  94.003 120.934  0.00  0.00     0.149 HD
ENDBRANCH   6  13
BRANCH   5  18
ATOM     18  N   LIG d   1      -4.487  97.136 119.204  0.00  0.00     0.381 N 
ATOM     19  H   LIG d   1      -4.259  97.731 119.976  0.00  0.00    -0.090 HD
ATOM     20  H   LIG d   1      -4.970  97.684 118.515  0.00  0.00    -0.090 HD
ATOM     21  H   LIG d   1      -3.654  96.754 118.813  0.00  0.00    -0.090 HD
ENDBRANCH   5  18
BRANCH   3  22
ATOM     22  C   LIG d   1      -8.989  95.504 119.253  0.00  0.00     0.382 C 
ATOM     23  O   LIG d   1      -9.372  96.675 119.492  0.00  0.00    -0.241 OA
ATOM     24  O   LIG d   1      -9.835  94.606 119.081  0.00  0.00    -0.241 OA
ENDBRANCH   3  22
TORSDOF 7
ENDMDL
MODEL 7
REMARK VINA RESULT:      -4.9      1.755      2.075
REMARK  7 active torsions:
REMARK  status: ('A' for Active; 'I' for Inactive)
REMARK    1  A    between atoms: C_2  and  C_3 
REMARK    2  A    between atoms: C_3  and  O_6 
REMARK    3  A    between atoms: C_3  and  C_4 
REMARK    4  A    between atoms: C_7  and  O_6 
REMARK    5  A    between atoms: C_9  and  C_10 
REMARK    6  A    between atoms: N_15  and  C_14 
REMARK    7  A    between atoms: N_20  and  C_19 
REMARK       I    between atoms: C_22  and  N_20 
ROOT
ATOM      1  C   LIG d   1      -4.902  77.481 117.188  0.00  0.00     0.161 C 
ATOM      2  C   LIG d   1      -6.119  78.182 117.196  0.00  0.00     0.016 C 
ATOM      3  C   LIG d   1      -6.357  79.318 118.004  0.00  0.00     0.038 C 
ATOM      4  C   LIG d   1      -5.337  79.923 118.751  0.00  0.00     0.028 C 
ATOM      5  C   LIG d   1      -4.233  78.956 119.164  0.00  0.00    -0.047 C 
ATOM      6  C   LIG d   1      -3.741  78.192 117.914  0.00  0.00     0.091 C 
ENDROOT
BRANCH   1   7
ATOM      7  O   LIG d   1      -4.528  77.167 115.832  0.00  0.00    -0.368 OA
BRANCH   7   8
ATOM      8  C   LIG d   1      -4.709  75.788 115.424  0.00  0.00     0.119 C 
BRANCH   8   9
ATOM      9  C   LIG d   1      -5.610  75.109 116.473  0.00  0.00     0.028 C 
ATOM     10  C   LIG d   1      -5.858  73.624 116.161  0.00  0.00     0.006 C 
ENDBRANCH   8   9
BRANCH   8  11
ATOM     11  C   LIG d   1      -3.387  75.017 115.464  0.00  0.00     0.028 C 
ATOM     12  C   LIG d   1      -2.204  75.833 114.921  0.00  0.00     0.006 C 
ENDBRANCH   8  11
ENDBRANCH   7   8
ENDBRANCH   1   7
BRANCH   6  13
ATOM     13  N   LIG d   1      -2.719  77.164 118.242  0.00  0.00    -0.311 N 
ATOM     14  C   LIG d   1      -1.408  77.395 118.201  0.00  0.00     0.210 C 
ATOM     15  C   LIG d   1      -0.528  76.192 118.557  0.00  0.00     0.109 C 
ATOM     16  O   LIG d   1      -0.890  78.490 117.933  0.00  0.00    -0.276 OA
ATOM     17  H   LIG d   1      -3.052  76.256 118.500  0.00  0.00     0.149 HD
ENDBRANCH   6  13
BRANCH   5  18
ATOM     18  N   LIG d   1      -3.170  79.744 119.816  0.00  0.00     0.381 N 
ATOM     19  H   LIG d   1      -3.578  80.460 120.382  0.00  0.00    -0.090 HD
ATOM     20  H   LIG d   1      -2.610  80.183 119.107  0.00  0.00    -0.090 HD
ATOM     21  H   LIG d   1      -2.601  79.150 120.378  0.00  0.00    -0.090 HD
ENDBRANCH   5  18
BRANCH   3  22
ATOM     22  C   LIG d   1      -7.640  79.836 118.100  0.00  0.00     0.382 C 
ATOM     23  O   LIG d   1      -8.019  80.724 117.299  0.00  0.00    -0.241 OA
ATOM     24  O   LIG d   1      -8.408  79.458 119.005  0.00  0.00    -0.241 OA
ENDBRANCH   3  22
TORSDOF 7
ENDMDL
MODEL 8
REMARK VINA RESULT:      -4.6     13.155     14.927
REMARK  7 active torsions:
REMARK  status: ('A' for Active; 'I' for Inactive)
REMARK    1  A    between atoms: C_2  and  C_3 
REMARK    2  A    between atoms: C_3  and  O_6 
REMARK    3  A    between atoms: C_3  and  C_4 
REMARK    4  A    between atoms: C_7  and  O_6 
REMARK    5  A    between atoms: C_9  and  C_10 
REMARK    6  A    between atoms: N_15  and  C_14 
REMARK    7  A    between atoms: N_20  and  C_19 
REMARK       I    between atoms: C_22  and  N_20 
ROOT
ATOM      1  C   LIG d   1      -3.820  91.533 118.021  0.00  0.00     0.161 C 
ATOM      2  C   LIG d   1      -3.862  92.630 118.897  0.00  0.00     0.016 C 
ATOM      3  C   LIG d   1      -4.916  93.573 118.914  0.00  0.00     0.038 C 
ATOM      4  C   LIG d   1      -6.081  93.396 118.154  0.00  0.00     0.028 C 
ATOM      5  C   LIG d   1      -5.859  92.576 116.888  0.00  0.00    -0.047 C 
ATOM      6  C   LIG d   1      -5.136  91.262 117.261  0.00  0.00     0.091 C 
ENDROOT
BRANCH   1   7
ATOM      7  O   LIG d   1      -3.401  90.353 118.734  0.00  0.00    -0.368 OA
BRANCH   7   8
ATOM      8  C   LIG d   1      -2.168  89.741 118.285  0.00  0.00     0.119 C 
BRANCH   8   9
ATOM      9  C   LIG d   1      -2.494  88.292 117.872  0.00  0.00     0.028 C 
ATOM     10  C   LIG d   1      -1.259  87.377 117.916  0.00  0.00     0.006 C 
ENDBRANCH   8   9
BRANCH   8  11
ATOM     11  C   LIG d   1      -1.157  89.618 119.429  0.00  0.00     0.028 C 
ATOM     12  C   LIG d   1      -0.492  90.958 119.782  0.00  0.00     0.006 C 
ENDBRANCH   8  11
ENDBRANCH   7   8
ENDBRANCH   1   7
BRANCH   6  13
ATOM     13  N   LIG d   1      -4.805  90.439 116.069  0.00  0.00    -0.311 N 
ATOM     14  C   LIG d   1      -5.538  89.402 115.668  0.00  0.00     0.210 C 
ATOM     15  C   LIG d   1      -5.008  88.677 114.426  0.00  0.00     0.109 C 
ATOM     16  O   LIG d   1      -6.594  89.033 116.203  0.00  0.00    -0.276 OA
ATOM     17  H   LIG d   1      -3.981  90.688 115.557  0.00  0.00     0.149 HD
ENDBRANCH   6  13
BRANCH   5  18
ATOM     18  N   LIG d   1      -7.178  92.353 116.264  0.00  0.00     0.381 N 
ATOM     19  H   LIG d   1      -7.267  91.393 115.995  0.00  0.00    -0.090 HD
ATOM     20  H   LIG d   1      -7.247  92.920 115.438  0.00  0.00    -0.090 HD
ATOM     21  H   LIG d   1      -7.902  92.595 116.904  0.00  0.00    -0.090 HD
ENDBRANCH   5  18
BRANCH   3  22
ATOM     22  C   LIG d   1      -4.792  94.729 119.670  0.00  0.00     0.382 C 
ATOM     23  O   LIG d   1      -5.656  95.633 119.579  0.00  0.00    -0.241 OA
ATOM     24  O   LIG d   1      -3.803  94.897 120.409  0.00  0.00    -0.241 OA
ENDBRANCH   3  22
TORSDOF 7
ENDMDL
MODEL 9
REMARK VINA RESULT:      -4.6     12.242     13.948
REMARK  7 active torsions:
REMARK  status: ('A' for Active; 'I' for Inactive)
REMARK    1  A    between atoms: C_2  and  C_3 
REMARK    2  A    between atoms: C_3  and  O_6 
REMARK    3  A    between atoms: C_3  and  C_4 
REMARK    4  A    between atoms: C_7  and  O_6 
REMARK    5  A    between atoms: C_9  and  C_10 
REMARK    6  A    between atoms: N_15  and  C_14 
REMARK    7  A    between atoms: N_20  and  C_19 
REMARK       I    between atoms: C_22  and  N_20 
ROOT
ATOM      1  C   LIG d   1      -2.824  90.137 118.206  0.00  0.00     0.161 C 
ATOM      2  C   LIG d   1      -3.963  89.721 117.496  0.00  0.00     0.016 C 
ATOM      3  C   LIG d   1      -4.975  90.608 117.060  0.00  0.00     0.038 C 
ATOM      4  C   LIG d   1      -4.840  91.999 117.172  0.00  0.00     0.028 C 
ATOM      5  C   LIG d   1      -3.946  92.430 118.330  0.00  0.00    -0.047 C 
ATOM      6  C   LIG d   1      -2.606  91.664 118.240  0.00  0.00     0.091 C 
ENDROOT
BRANCH   1   7
ATOM      7  O   LIG d   1      -1.655  89.475 117.684  0.00  0.00    -0.368 OA
BRANCH   7   8
ATOM      8  C   LIG d   1      -1.083  88.439 118.520  0.00  0.00     0.119 C 
BRANCH   8   9
ATOM      9  C   LIG d   1      -1.151  87.118 117.731  0.00  0.00     0.028 C 
ATOM     10  C   LIG d   1       0.193  86.754 117.078  0.00  0.00     0.006 C 
ENDBRANCH   8   9
BRANCH   8  11
ATOM     11  C   LIG d   1      -1.929  88.206 119.775  0.00  0.00     0.028 C 
ATOM     12  C   LIG d   1      -1.791  86.779 120.329  0.00  0.00     0.006 C 
ENDBRANCH   8  11
ENDBRANCH   7   8
ENDBRANCH   1   7
BRANCH   6  13
ATOM     13  N   LIG d   1      -1.704  91.964 119.383  0.00  0.00    -0.311 N 
ATOM     14  C   LIG d   1      -0.403  92.209 119.245  0.00  0.00     0.210 C 
ATOM     15  C   LIG d   1       0.347  92.475 120.555  0.00  0.00     0.109 C 
ATOM     16  O   LIG d   1       0.196  92.263 118.161  0.00  0.00    -0.276 OA
ATOM     17  H   LIG d   1      -2.114  91.971 120.297  0.00  0.00     0.149 HD
ENDBRANCH   6  13
BRANCH   5  18
ATOM     18  N   LIG d   1      -3.782  93.893 118.246  0.00  0.00     0.381 N 
ATOM     19  H   LIG d   1      -4.600  94.347 118.601  0.00  0.00    -0.090 HD
ATOM     20  H   LIG d   1      -3.671  94.154 117.282  0.00  0.00    -0.090 HD
ATOM     21  H   LIG d   1      -2.983  94.178 118.768  0.00  0.00    -0.090 HD
ENDBRANCH   5  18
BRANCH   3  22
ATOM     22  C   LIG d   1      -6.155  90.100 116.539  0.00  0.00     0.382 C 
ATOM     23  O   LIG d   1      -7.203  90.790 116.571  0.00  0.00    -0.241 OA
ATOM     24  O   LIG d   1      -6.196  88.944 116.076  0.00  0.00    -0.241 OA
ENDBRANCH   3  22
TORSDOF 7
ENDMDL
