MODEL 1
REMARK VINA RESULT:      -5.2      0.000      0.000
REMARK  7 active torsions:
REMARK  status: ('A' for Active; 'I' for Inactive)
REMARK    1  A    between atoms: C_2  and  C_3 
REMARK    2  A    between atoms: C_3  and  O_6 
REMARK    3  A    between atoms: C_3  and  C_4 
REMARK    4  A    between atoms: C_7  and  O_6 
REMARK    5  A    between atoms: C_9  and  C_10 
REMARK    6  A    between atoms: N_15  and  C_14 
REMARK    7  A    between atoms: N_20  and  C_19 
REMARK       I    between atoms: C_22  and  N_20 
ROOT
ATOM      1  C   LIG d   1      -5.947  77.807 117.267  0.00  0.00     0.161 C 
ATOM      2  C   LIG d   1      -7.314  77.735 117.582  0.00  0.00     0.016 C 
ATOM      3  C   LIG d   1      -7.985  78.702 118.365  0.00  0.00     0.038 C 
ATOM      4  C   LIG d   1      -7.362  79.894 118.765  0.00  0.00     0.028 C 
ATOM      5  C   LIG d   1      -5.848  79.771 118.899  0.00  0.00    -0.047 C 
ATOM      6  C   LIG d   1      -5.277  79.157 117.601  0.00  0.00     0.091 C 
ENDROOT
BRANCH   1   7
ATOM      7  O   LIG d   1      -5.746  77.478 115.879  0.00  0.00    -0.368 OA
BRANCH   7   8
ATOM      8  C   LIG d   1      -5.180  76.172 115.608  0.00  0.00     0.119 C 
BRANCH   8   9
ATOM      9  C   LIG d   1      -3.815  76.391 114.927  0.00  0.00     0.028 C 
ATOM     10  C   LIG d   1      -2.675  75.653 115.647  0.00  0.00     0.006 C 
ENDBRANCH   8   9
BRANCH   8  11
ATOM     11  C   LIG d   1      -6.023  75.400 114.589  0.00  0.00     0.028 C 
ATOM     12  C   LIG d   1      -6.250  73.934 114.992  0.00  0.00     0.006 C 
ENDBRANCH   8  11
ENDBRANCH   7   8
ENDBRANCH   1   7
BRANCH   6  13
ATOM     13  N   LIG d   1      -3.811  78.924 117.680  0.00  0.00    -0.311 N 
ATOM     14  C   LIG d   1      -2.960  79.273 116.717  0.00  0.00     0.210 C 
ATOM     15  C   LIG d   1      -1.494  78.924 116.992  0.00  0.00     0.109 C 
ATOM     16  O   LIG d   1      -3.276  79.867 115.676  0.00  0.00    -0.276 OA
ATOM     17  H   LIG d   1      -3.465  78.475 118.506  0.00  0.00     0.149 HD
ENDBRANCH   6  13
BRANCH   5  18
ATOM     18  N   LIG d   1      -5.315  81.117 119.185  0.00  0.00     0.381 N 
ATOM     19  H   LIG d   1      -5.548  81.739 118.437  0.00  0.00    -0.090 HD
ATOM     20  H   LIG d   1      -4.314  81.062 119.252  0.00  0.00    -0.090 HD
ATOM     21  H   LIG d   1      -5.694  81.458 120.041  0.00  0.00    -0.090 HD
ENDBRANCH   5  18
BRANCH   3  22
ATOM     22  C   LIG d   1      -9.282  78.461 118.792  0.00  0.00     0.382 C 
ATOM     23  O   LIG d   1      -9.538  77.442 119.476  0.00  0.00    -0.241 OA
ATOM     24  O   LIG d   1     -10.207  79.228 118.463  0.00  0.00    -0.241 OA
ENDBRANCH   3  22
TORSDOF 7
ENDMDL
MODEL 2
REMARK VINA RESULT:      -5.0      3.822      5.858
REMARK  7 active torsions:
REMARK  status: ('A' for Active; 'I' for Inactive)
REMARK    1  A    between atoms: C_2  and  C_3 
REMARK    2  A    between atoms: C_3  and  O_6 
REMARK    3  A    between atoms: C_3  and  C_4 
REMARK    4  A    between atoms: C_7  and  O_6 
REMARK    5  A    between atoms: C_9  and  C_10 
REMARK    6  A    between atoms: N_15  and  C_14 
REMARK    7  A    between atoms: N_20  and  C_19 
REMARK       I    between atoms: C_22  and  N_20 
ROOT
ATOM      1  C   LIG d   1      -2.247  78.105 117.418  0.00  0.00     0.161 C 
ATOM      2  C   LIG d   1      -3.294  77.326 116.899  0.00  0.00     0.016 C 
ATOM      3  C   LIG d   1      -3.350  76.893 115.554  0.00  0.00     0.038 C 
ATOM      4  C   LIG d   1      -2.279  77.085 114.669  0.00  0.00     0.028 C 
ATOM      5  C   LIG d   1      -1.424  78.301 115.007  0.00  0.00    -0.047 C 
ATOM      6  C   LIG d   1      -1.016  78.230 116.496  0.00  0.00     0.091 C 
ENDROOT
BRANCH   1   7
ATOM      7  O   LIG d   1      -1.856  77.600 118.710  0.00  0.00    -0.368 OA
BRANCH   7   8
ATOM      8  C   LIG d   1      -0.796  76.613 118.715  0.00  0.00     0.119 C 
BRANCH   8   9
ATOM      9  C   LIG d   1      -1.381  75.307 119.285  0.00  0.00     0.028 C 
ATOM     10  C   LIG d   1      -1.603  74.240 118.200  0.00  0.00     0.006 C 
ENDBRANCH   8   9
BRANCH   8  11
ATOM     11  C   LIG d   1       0.329  77.008 119.677  0.00  0.00     0.028 C 
ATOM     12  C   LIG d   1       1.638  76.250 119.406  0.00  0.00     0.006 C 
ENDBRANCH   8  11
ENDBRANCH   7   8
ENDBRANCH   1   7
BRANCH   6  13
ATOM     13  N   LIG d   1      -0.247  79.425 116.931  0.00  0.00    -0.311 N 
ATOM     14  C   LIG d   1       1.083  79.461 116.987  0.00  0.00     0.210 C 
ATOM     15  C   LIG d   1       1.674  80.785 117.482  0.00  0.00     0.109 C 
ATOM     16  O   LIG d   1       1.831  78.533 116.642  0.00  0.00    -0.276 OA
ATOM     17  H   LIG d   1      -0.774  80.233 117.199  0.00  0.00     0.149 HD
ENDBRANCH   6  13
BRANCH   5  18
ATOM     18  N   LIG d   1      -0.268  78.302 114.090  0.00  0.00     0.381 N 
ATOM     19  H   LIG d   1      -0.578  78.476 113.155  0.00  0.00    -0.090 HD
ATOM     20  H   LIG d   1       0.167  77.397 114.115  0.00  0.00    -0.090 HD
ATOM     21  H   LIG d   1       0.386  79.001 114.366  0.00  0.00    -0.090 HD
ENDBRANCH   5  18
BRANCH   3  22
ATOM     22  C   LIG d   1      -4.505  76.295 115.072  0.00  0.00     0.382 C 
ATOM     23  O   LIG d   1      -5.628  76.769 115.370  0.00  0.00    -0.241 OA
ATOM     24  O   LIG d   1      -4.439  75.262 114.379  0.00  0.00    -0.241 OA
ENDBRANCH   3  22
TORSDOF 7
ENDMDL
MODEL 3
REMARK VINA RESULT:      -4.9      2.633      6.286
REMARK  7 active torsions:
REMARK  status: ('A' for Active; 'I' for Inactive)
REMARK    1  A    between atoms: C_2  and  C_3 
REMARK    2  A    between atoms: C_3  and  O_6 
REMARK    3  A    between atoms: C_3  and  C_4 
REMARK    4  A    between atoms: C_7  and  O_6 
REMARK    5  A    between atoms: C_9  and  C_10 
REMARK    6  A    between atoms: N_15  and  C_14 
REMARK    7  A    between atoms: N_20  and  C_19 
REMARK       I    between atoms: C_22  and  N_20 
ROOT
ATOM      1  C   LIG d   1      -3.699  78.021 117.148  0.00  0.00     0.161 C 
ATOM      2  C   LIG d   1      -2.747  78.886 117.712  0.00  0.00     0.016 C 
ATOM      3  C   LIG d   1      -1.372  78.850 117.384  0.00  0.00     0.038 C 
ATOM      4  C   LIG d   1      -0.877  78.041 116.350  0.00  0.00     0.028 C 
ATOM      5  C   LIG d   1      -1.717  76.792 116.104  0.00  0.00    -0.047 C 
ATOM      6  C   LIG d   1      -3.197  77.207 115.937  0.00  0.00     0.091 C 
ENDROOT
BRANCH   1   7
ATOM      7  O   LIG d   1      -4.885  78.761 116.797  0.00  0.00    -0.368 OA
BRANCH   7   8
ATOM      8  C   LIG d   1      -5.818  79.017 117.875  0.00  0.00     0.119 C 
BRANCH   8   9
ATOM      9  C   LIG d   1      -7.110  78.236 117.564  0.00  0.00     0.028 C 
ATOM     10  C   LIG d   1      -7.838  77.776 118.838  0.00  0.00     0.006 C 
ENDBRANCH   8   9
BRANCH   8  11
ATOM     11  C   LIG d   1      -6.235  80.491 117.913  0.00  0.00     0.028 C 
ATOM     12  C   LIG d   1      -6.167  81.093 119.325  0.00  0.00     0.006 C 
ENDBRANCH   8  11
ENDBRANCH   7   8
ENDBRANCH   1   7
BRANCH   6  13
ATOM     13  N   LIG d   1      -4.099  76.036 115.777  0.00  0.00    -0.311 N 
ATOM     14  C   LIG d   1      -4.942  75.896 114.755  0.00  0.00     0.210 C 
ATOM     15  C   LIG d   1      -5.795  74.624 114.792  0.00  0.00     0.109 C 
ATOM     16  O   LIG d   1      -5.040  76.687 113.805  0.00  0.00    -0.276 OA
ATOM     17  H   LIG d   1      -4.061  75.331 116.486  0.00  0.00     0.149 HD
ENDBRANCH   6  13
BRANCH   5  18
ATOM     18  N   LIG d   1      -1.169  76.114 114.914  0.00  0.00     0.381 N 
ATOM     19  H   LIG d   1      -1.536  76.537 114.084  0.00  0.00    -0.090 HD
ATOM     20  H   LIG d   1      -1.454  75.151 114.928  0.00  0.00    -0.090 HD
ATOM     21  H   LIG d   1      -0.175  76.174 114.914  0.00  0.00    -0.090 HD
ENDBRANCH   5  18
BRANCH   3  22
ATOM     22  C   LIG d   1      -0.469  79.601 118.121  0.00  0.00     0.382 C 
ATOM     23  O   LIG d   1       0.375  80.321 117.534  0.00  0.00    -0.241 OA
ATOM     24  O   LIG d   1      -0.459  79.535 119.365  0.00  0.00    -0.241 OA
ENDBRANCH   3  22
TORSDOF 7
ENDMDL
MODEL 4
REMARK VINA RESULT:      -4.8      2.623      5.311
REMARK  7 active torsions:
REMARK  status: ('A' for Active; 'I' for Inactive)
REMARK    1  A    between atoms: C_2  and  C_3 
REMARK    2  A    between atoms: C_3  and  O_6 
REMARK    3  A    between atoms: C_3  and  C_4 
REMARK    4  A    between atoms: C_7  and  O_6 
REMARK    5  A    between atoms: C_9  and  C_10 
REMARK    6  A    between atoms: N_15  and  C_14 
REMARK    7  A    between atoms: N_20  and  C_19 
REMARK       I    between atoms: C_22  and  N_20 
ROOT
ATOM      1  C   LIG d   1      -3.732  77.895 116.760  0.00  0.00     0.161 C 
ATOM      2  C   LIG d   1      -4.703  77.281 115.952  0.00  0.00     0.016 C 
ATOM      3  C   LIG d   1      -4.544  75.995 115.387  0.00  0.00     0.038 C 
ATOM      4  C   LIG d   1      -3.461  75.168 115.718  0.00  0.00     0.028 C 
ATOM      5  C   LIG d   1      -2.212  75.941 116.127  0.00  0.00    -0.047 C 
ATOM      6  C   LIG d   1      -2.592  76.964 117.222  0.00  0.00     0.091 C 
ENDROOT
BRANCH   1   7
ATOM      7  O   LIG d   1      -4.364  78.516 117.897  0.00  0.00    -0.368 OA
BRANCH   7   8
ATOM      8  C   LIG d   1      -5.716  78.995 117.692  0.00  0.00     0.119 C 
BRANCH   8   9
ATOM      9  C   LIG d   1      -5.688  80.530 117.824  0.00  0.00     0.028 C 
ATOM     10  C   LIG d   1      -5.994  81.002 119.255  0.00  0.00     0.006 C 
ENDBRANCH   8   9
BRANCH   8  11
ATOM     11  C   LIG d   1      -6.653  78.510 118.801  0.00  0.00     0.028 C 
ATOM     12  C   LIG d   1      -7.930  77.849 118.256  0.00  0.00     0.006 C 
ENDBRANCH   8  11
ENDBRANCH   7   8
ENDBRANCH   1   7
BRANCH   6  13
ATOM     13  N   LIG d   1      -1.444  77.820 117.620  0.00  0.00    -0.311 N 
ATOM     14  C   LIG d   1      -0.660  77.556 118.664  0.00  0.00     0.210 C 
ATOM     15  C   LIG d   1       0.454  78.579 118.911  0.00  0.00     0.109 C 
ATOM     16  O   LIG d   1      -0.760  76.555 119.389  0.00  0.00    -0.276 OA
ATOM     17  H   LIG d   1      -1.272  78.637 117.068  0.00  0.00     0.149 HD
ENDBRANCH   6  13
BRANCH   5  18
ATOM     18  N   LIG d   1      -1.207  74.959 116.577  0.00  0.00     0.381 N 
ATOM     19  H   LIG d   1      -1.471  74.587 117.468  0.00  0.00    -0.090 HD
ATOM     20  H   LIG d   1      -0.322  75.423 116.679  0.00  0.00    -0.090 HD
ATOM     21  H   LIG d   1      -1.129  74.222 115.911  0.00  0.00    -0.090 HD
ENDBRANCH   5  18
BRANCH   3  22
ATOM     22  C   LIG d   1      -5.458  75.539 114.448  0.00  0.00     0.382 C 
ATOM     23  O   LIG d   1      -6.157  76.359 113.805  0.00  0.00    -0.241 OA
ATOM     24  O   LIG d   1      -5.623  74.318 114.268  0.00  0.00    -0.241 OA
ENDBRANCH   3  22
TORSDOF 7
ENDMDL
MODEL 5
REMARK VINA RESULT:      -4.5     14.940     17.174
REMARK  7 active torsions:
REMARK  status: ('A' for Active; 'I' for Inactive)
REMARK    1  A    between atoms: C_2  and  C_3 
REMARK    2  A    between atoms: C_3  and  O_6 
REMARK    3  A    between atoms: C_3  and  C_4 
REMARK    4  A    between atoms: C_7  and  O_6 
REMARK    5  A    between atoms: C_9  and  C_10 
REMARK    6  A    between atoms: N_15  and  C_14 
REMARK    7  A    between atoms: N_20  and  C_19 
REMARK       I    between atoms: C_22  and  N_20 
ROOT
ATOM      1  C   LIG d   1      10.395  75.452 115.178  0.00  0.00     0.161 C 
ATOM      2  C   LIG d   1       9.307  76.340 115.185  0.00  0.00     0.016 C 
ATOM      3  C   LIG d   1       9.451  77.747 115.186  0.00  0.00     0.038 C 
ATOM      4  C   LIG d   1      10.701  78.364 115.027  0.00  0.00     0.028 C 
ATOM      5  C   LIG d   1      11.865  77.513 115.524  0.00  0.00    -0.047 C 
ATOM      6  C   LIG d   1      11.763  76.106 114.893  0.00  0.00     0.091 C 
ENDROOT
BRANCH   1   7
ATOM      7  O   LIG d   1      10.147  74.382 114.244  0.00  0.00    -0.368 OA
BRANCH   7   8
ATOM      8  C   LIG d   1       9.702  73.127 114.816  0.00  0.00     0.119 C 
BRANCH   8   9
ATOM      9  C   LIG d   1      10.033  73.161 116.320  0.00  0.00     0.028 C 
ATOM     10  C   LIG d   1       8.899  72.585 117.184  0.00  0.00     0.006 C 
ENDBRANCH   8   9
BRANCH   8  11
ATOM     11  C   LIG d   1      10.496  71.946 114.252  0.00  0.00     0.028 C 
ATOM     12  C   LIG d   1      11.860  71.763 114.937  0.00  0.00     0.006 C 
ENDBRANCH   8  11
ENDBRANCH   7   8
ENDBRANCH   1   7
BRANCH   6  13
ATOM     13  N   LIG d   1      12.816  75.184 115.392  0.00  0.00    -0.311 N 
ATOM     14  C   LIG d   1      14.000  75.034 114.800  0.00  0.00     0.210 C 
ATOM     15  C   LIG d   1      14.932  74.016 115.466  0.00  0.00     0.109 C 
ATOM     16  O   LIG d   1      14.379  75.670 113.805  0.00  0.00    -0.276 OA
ATOM     17  H   LIG d   1      12.604  74.651 116.212  0.00  0.00     0.149 HD
ENDBRANCH   6  13
BRANCH   5  18
ATOM     18  N   LIG d   1      13.113  78.216 115.173  0.00  0.00     0.381 N 
ATOM     19  H   LIG d   1      13.877  77.571 115.175  0.00  0.00    -0.090 HD
ATOM     20  H   LIG d   1      13.294  78.922 115.865  0.00  0.00    -0.090 HD
ATOM     21  H   LIG d   1      13.026  78.637 114.274  0.00  0.00    -0.090 HD
ENDBRANCH   5  18
BRANCH   3  22
ATOM     22  C   LIG d   1       8.340  78.551 115.388  0.00  0.00     0.382 C 
ATOM     23  O   LIG d   1       7.419  78.573 114.536  0.00  0.00    -0.241 OA
ATOM     24  O   LIG d   1       8.267  79.289 116.389  0.00  0.00    -0.241 OA
ENDBRANCH   3  22
TORSDOF 7
ENDMDL
MODEL 6
REMARK VINA RESULT:      -4.5      3.395      6.011
REMARK  7 active torsions:
REMARK  status: ('A' for Active; 'I' for Inactive)
REMARK    1  A    between atoms: C_2  and  C_3 
REMARK    2  A    between atoms: C_3  and  O_6 
REMARK    3  A    between atoms: C_3  and  C_4 
REMARK    4  A    between atoms: C_7  and  O_6 
REMARK    5  A    between atoms: C_9  and  C_10 
REMARK    6  A    between atoms: N_15  and  C_14 
REMARK    7  A    between atoms: N_20  and  C_19 
REMARK       I    between atoms: C_22  and  N_20 
ROOT
ATOM      1  C   LIG d   1      -2.174  78.939 116.725  0.00  0.00     0.161 C 
ATOM      2  C   LIG d   1      -3.270  78.123 116.400  0.00  0.00     0.016 C 
ATOM      3  C   LIG d   1      -3.184  77.015 115.526  0.00  0.00     0.038 C 
ATOM      4  C   LIG d   1      -1.954  76.554 115.032  0.00  0.00     0.028 C 
ATOM      5  C   LIG d   1      -0.895  77.646 114.930  0.00  0.00    -0.047 C 
ATOM      6  C   LIG d   1      -0.803  78.385 116.285  0.00  0.00     0.091 C 
ENDROOT
BRANCH   1   7
ATOM      7  O   LIG d   1      -2.172  79.213 118.140  0.00  0.00    -0.368 OA
BRANCH   7   8
ATOM      8  C   LIG d   1      -2.855  78.248 118.978  0.00  0.00     0.119 C 
BRANCH   8   9
ATOM      9  C   LIG d   1      -3.681  79.036 120.012  0.00  0.00     0.028 C 
ATOM     10  C   LIG d   1      -4.664  80.018 119.353  0.00  0.00     0.006 C 
ENDBRANCH   8   9
BRANCH   8  11
ATOM     11  C   LIG d   1      -1.861  77.420 119.798  0.00  0.00     0.028 C 
ATOM     12  C   LIG d   1      -0.543  78.164 120.065  0.00  0.00     0.006 C 
ENDBRANCH   8  11
ENDBRANCH   7   8
ENDBRANCH   1   7
BRANCH   6  13
ATOM     13  N   LIG d   1       0.151  79.524 116.246  0.00  0.00    -0.311 N 
ATOM     14  C   LIG d   1       1.339  79.507 116.849  0.00  0.00     0.210 C 
ATOM     15  C   LIG d   1       2.158  80.793 116.700  0.00  0.00     0.109 C 
ATOM     16  O   LIG d   1       1.805  78.537 117.465  0.00  0.00    -0.276 OA
ATOM     17  H   LIG d   1      -0.134  80.340 115.740  0.00  0.00     0.149 HD
ENDBRANCH   6  13
BRANCH   5  18
ATOM     18  N   LIG d   1       0.372  77.002 114.534  0.00  0.00     0.381 N 
ATOM     19  H   LIG d   1       0.744  77.456 113.724  0.00  0.00    -0.090 HD
ATOM     20  H   LIG d   1       0.190  76.042 114.302  0.00  0.00    -0.090 HD
ATOM     21  H   LIG d   1       1.028  77.052 115.283  0.00  0.00    -0.090 HD
ENDBRANCH   5  18
BRANCH   3  22
ATOM     22  C   LIG d   1      -4.343  76.380 115.104  0.00  0.00     0.382 C 
ATOM     23  O   LIG d   1      -5.462  76.804 115.482  0.00  0.00    -0.241 OA
ATOM     24  O   LIG d   1      -4.281  75.363 114.388  0.00  0.00    -0.241 OA
ENDBRANCH   3  22
TORSDOF 7
ENDMDL
MODEL 7
REMARK VINA RESULT:      -4.4      1.765      2.748
REMARK  7 active torsions:
REMARK  status: ('A' for Active; 'I' for Inactive)
REMARK    1  A    between atoms: C_2  and  C_3 
REMARK    2  A    between atoms: C_3  and  O_6 
REMARK    3  A    between atoms: C_3  and  C_4 
REMARK    4  A    between atoms: C_7  and  O_6 
REMARK    5  A    between atoms: C_9  and  C_10 
REMARK    6  A    between atoms: N_15  and  C_14 
REMARK    7  A    between atoms: N_20  and  C_19 
REMARK       I    between atoms: C_22  and  N_20 
ROOT
ATOM      1  C   LIG d   1      -4.050  78.140 116.909  0.00  0.00     0.161 C 
ATOM      2  C   LIG d   1      -5.403  78.514 116.955  0.00  0.00     0.016 C 
ATOM      3  C   LIG d   1      -5.947  79.345 117.962  0.00  0.00     0.038 C 
ATOM      4  C   LIG d   1      -5.137  79.985 118.912  0.00  0.00     0.028 C 
ATOM      5  C   LIG d   1      -3.843  79.235 119.208  0.00  0.00    -0.047 C 
ATOM      6  C   LIG d   1      -3.131  78.918 117.873  0.00  0.00     0.091 C 
ENDROOT
BRANCH   1   7
ATOM      7  O   LIG d   1      -3.561  78.243 115.557  0.00  0.00    -0.368 OA
BRANCH   7   8
ATOM      8  C   LIG d   1      -3.327  76.991 114.867  0.00  0.00     0.119 C 
BRANCH   8   9
ATOM      9  C   LIG d   1      -4.059  75.885 115.652  0.00  0.00     0.028 C 
ATOM     10  C   LIG d   1      -5.242  75.294 114.867  0.00  0.00     0.006 C 
ENDBRANCH   8   9
BRANCH   8  11
ATOM     11  C   LIG d   1      -1.846  76.602 114.905  0.00  0.00     0.028 C 
ATOM     12  C   LIG d   1      -1.593  75.294 115.671  0.00  0.00     0.006 C 
ENDBRANCH   8  11
ENDBRANCH   7   8
ENDBRANCH   1   7
BRANCH   6  13
ATOM     13  N   LIG d   1      -1.897  78.111 118.067  0.00  0.00    -0.311 N 
ATOM     14  C   LIG d   1      -0.681  78.541 117.734  0.00  0.00     0.210 C 
ATOM     15  C   LIG d   1       0.452  77.544 117.999  0.00  0.00     0.109 C 
ATOM     16  O   LIG d   1      -0.429  79.664 117.273  0.00  0.00    -0.276 OA
ATOM     17  H   LIG d   1      -2.006  77.199 118.464  0.00  0.00     0.149 HD
ENDBRANCH   6  13
BRANCH   5  18
ATOM     18  N   LIG d   1      -3.035  80.080 120.108  0.00  0.00     0.381 N 
ATOM     19  H   LIG d   1      -3.392  81.014 120.108  0.00  0.00    -0.090 HD
ATOM     20  H   LIG d   1      -2.089  80.104 119.769  0.00  0.00    -0.090 HD
ATOM     21  H   LIG d   1      -3.054  79.709 121.033  0.00  0.00    -0.090 HD
ENDBRANCH   5  18
BRANCH   3  22
ATOM     22  C   LIG d   1      -7.321  79.511 118.048  0.00  0.00     0.382 C 
ATOM     23  O   LIG d   1      -7.850  80.578 117.653  0.00  0.00    -0.241 OA
ATOM     24  O   LIG d   1      -8.033  78.625 118.558  0.00  0.00    -0.241 OA
ENDBRANCH   3  22
TORSDOF 7
ENDMDL
MODEL 8
REMARK VINA RESULT:      -4.2     15.940     18.244
REMARK  7 active torsions:
REMARK  status: ('A' for Active; 'I' for Inactive)
REMARK    1  A    between atoms: C_2  and  C_3 
REMARK    2  A    between atoms: C_3  and  O_6 
REMARK    3  A    between atoms: C_3  and  C_4 
REMARK    4  A    between atoms: C_7  and  O_6 
REMARK    5  A    between atoms: C_9  and  C_10 
REMARK    6  A    between atoms: N_15  and  C_14 
REMARK    7  A    between atoms: N_20  and  C_19 
REMARK       I    between atoms: C_22  and  N_20 
ROOT
ATOM      1  C   LIG d   1      11.938  72.963 115.112  0.00  0.00     0.161 C 
ATOM      2  C   LIG d   1      11.478  74.289 115.049  0.00  0.00     0.016 C 
ATOM      3  C   LIG d   1      10.150  74.637 114.709  0.00  0.00     0.038 C 
ATOM      4  C   LIG d   1       9.147  73.669 114.555  0.00  0.00     0.028 C 
ATOM      5  C   LIG d   1       9.678  72.310 114.113  0.00  0.00    -0.047 C 
ATOM      6  C   LIG d   1      10.830  71.891 115.056  0.00  0.00     0.091 C 
ENDROOT
BRANCH   1   7
ATOM      7  O   LIG d   1      12.750  72.783 116.289  0.00  0.00    -0.368 OA
BRANCH   7   8
ATOM      8  C   LIG d   1      12.066  72.287 117.466  0.00  0.00     0.119 C 
BRANCH   8   9
ATOM      9  C   LIG d   1      12.095  73.406 118.525  0.00  0.00     0.028 C 
ATOM     10  C   LIG d   1      10.723  74.079 118.705  0.00  0.00     0.006 C 
ENDBRANCH   8   9
BRANCH   8  11
ATOM     11  C   LIG d   1      12.821  71.113 118.096  0.00  0.00     0.028 C 
ATOM     12  C   LIG d   1      11.888  70.110 118.794  0.00  0.00     0.006 C 
ENDBRANCH   8  11
ENDBRANCH   7   8
ENDBRANCH   1   7
BRANCH   6  13
ATOM     13  N   LIG d   1      11.463  70.611 114.643  0.00  0.00    -0.311 N 
ATOM     14  C   LIG d   1      11.084  69.422 115.109  0.00  0.00     0.210 C 
ATOM     15  C   LIG d   1      11.883  68.232 114.569  0.00  0.00     0.109 C 
ATOM     16  O   LIG d   1      10.142  69.238 115.894  0.00  0.00    -0.276 OA
ATOM     17  H   LIG d   1      12.215  70.666 113.985  0.00  0.00     0.149 HD
ENDBRANCH   6  13
BRANCH   5  18
ATOM     18  N   LIG d   1       8.547  71.363 114.125  0.00  0.00     0.381 N 
ATOM     19  H   LIG d   1       8.749  70.602 114.743  0.00  0.00    -0.090 HD
ATOM     20  H   LIG d   1       8.423  70.994 113.199  0.00  0.00    -0.090 HD
ATOM     21  H   LIG d   1       7.717  71.828 114.420  0.00  0.00    -0.090 HD
ENDBRANCH   5  18
BRANCH   3  22
ATOM     22  C   LIG d   1       9.825  75.965 114.481  0.00  0.00     0.382 C 
ATOM     23  O   LIG d   1       8.622  76.319 114.443  0.00  0.00    -0.241 OA
ATOM     24  O   LIG d   1      10.718  76.807 114.268  0.00  0.00    -0.241 OA
ENDBRANCH   3  22
TORSDOF 7
ENDMDL
MODEL 9
REMARK VINA RESULT:      -4.2      3.648      6.232
REMARK  7 active torsions:
REMARK  status: ('A' for Active; 'I' for Inactive)
REMARK    1  A    between atoms: C_2  and  C_3 
REMARK    2  A    between atoms: C_3  and  O_6 
REMARK    3  A    between atoms: C_3  and  C_4 
REMARK    4  A    between atoms: C_7  and  O_6 
REMARK    5  A    between atoms: C_9  and  C_10 
REMARK    6  A    between atoms: N_15  and  C_14 
REMARK    7  A    between atoms: N_20  and  C_19 
REMARK       I    between atoms: C_22  and  N_20 
ROOT
ATOM      1  C   LIG d   1      -1.705  78.469 117.039  0.00  0.00     0.161 C 
ATOM      2  C   LIG d   1      -2.200  77.157 116.951  0.00  0.00     0.016 C 
ATOM      3  C   LIG d   1      -1.575  76.047 117.566  0.00  0.00     0.038 C 
ATOM      4  C   LIG d   1      -0.490  76.198 118.441  0.00  0.00     0.028 C 
ATOM      5  C   LIG d   1       0.349  77.440 118.158  0.00  0.00    -0.047 C 
ATOM      6  C   LIG d   1      -0.585  78.669 118.081  0.00  0.00     0.091 C 
ENDROOT
BRANCH   1   7
ATOM      7  O   LIG d   1      -2.790  79.384 117.287  0.00  0.00    -0.368 OA
BRANCH   7   8
ATOM      8  C   LIG d   1      -3.885  78.873 118.087  0.00  0.00     0.119 C 
BRANCH   8   9
ATOM      9  C   LIG d   1      -5.196  79.384 117.458  0.00  0.00     0.028 C 
ATOM     10  C   LIG d   1      -6.317  78.332 117.501  0.00  0.00     0.006 C 
ENDBRANCH   8   9
BRANCH   8  11
ATOM     11  C   LIG d   1      -3.861  79.457 119.503  0.00  0.00     0.028 C 
ATOM     12  C   LIG d   1      -3.373  78.448 120.555  0.00  0.00     0.006 C 
ENDBRANCH   8  11
ENDBRANCH   7   8
ENDBRANCH   1   7
BRANCH   6  13
ATOM     13  N   LIG d   1       0.144  79.913 117.724  0.00  0.00    -0.311 N 
ATOM     14  C   LIG d   1       0.642  80.757 118.627  0.00  0.00     0.210 C 
ATOM     15  C   LIG d   1       1.340  81.990 118.044  0.00  0.00     0.109 C 
ATOM     16  O   LIG d   1       0.600  80.585 119.854  0.00  0.00    -0.276 OA
ATOM     17  H   LIG d   1       0.252  80.115 116.749  0.00  0.00     0.149 HD
ENDBRANCH   6  13
BRANCH   5  18
ATOM     18  N   LIG d   1       1.361  77.548 119.226  0.00  0.00     0.381 N 
ATOM     19  H   LIG d   1       0.973  77.232 120.093  0.00  0.00    -0.090 HD
ATOM     20  H   LIG d   1       1.622  78.512 119.329  0.00  0.00    -0.090 HD
ATOM     21  H   LIG d   1       2.161  77.002 118.994  0.00  0.00    -0.090 HD
ENDBRANCH   5  18
BRANCH   3  22
ATOM     22  C   LIG d   1      -2.013  74.764 117.274  0.00  0.00     0.382 C 
ATOM     23  O   LIG d   1      -2.698  74.554 116.244  0.00  0.00    -0.241 OA
ATOM     24  O   LIG d   1      -1.769  73.821 118.051  0.00  0.00    -0.241 OA
ENDBRANCH   3  22
TORSDOF 7
ENDMDL
