MODEL 1
REMARK VINA RESULT:      -5.4      0.000      0.000
REMARK  7 active torsions:
REMARK  status: ('A' for Active; 'I' for Inactive)
REMARK    1  A    between atoms: C_2  and  C_3 
REMARK    2  A    between atoms: C_3  and  O_6 
REMARK    3  A    between atoms: C_3  and  C_4 
REMARK    4  A    between atoms: C_7  and  O_6 
REMARK    5  A    between atoms: C_9  and  C_10 
REMARK    6  A    between atoms: N_15  and  C_14 
REMARK    7  A    between atoms: N_20  and  C_19 
REMARK       I    between atoms: C_22  and  N_20 
ROOT
ATOM      1  C   LIG d   1      -6.879  77.405 117.177  0.00  0.00     0.161 C 
ATOM      2  C   LIG d   1      -8.121  77.944 117.550  0.00  0.00     0.016 C 
ATOM      3  C   LIG d   1      -8.310  79.305 117.884  0.00  0.00     0.038 C 
ATOM      4  C   LIG d   1      -7.292  80.256 117.721  0.00  0.00     0.028 C 
ATOM      5  C   LIG d   1      -5.890  79.668 117.832  0.00  0.00    -0.047 C 
ATOM      6  C   LIG d   1      -5.781  78.449 116.887  0.00  0.00     0.091 C 
ENDROOT
BRANCH   1   7
ATOM      7  O   LIG d   1      -7.047  76.527 116.047  0.00  0.00    -0.368 OA
BRANCH   7   8
ATOM      8  C   LIG d   1      -6.442  75.215 116.163  0.00  0.00     0.119 C 
BRANCH   8   9
ATOM      9  C   LIG d   1      -5.648  74.954 114.868  0.00  0.00     0.028 C 
ATOM     10  C   LIG d   1      -5.713  76.141 113.892  0.00  0.00     0.006 C 
ENDBRANCH   8   9
BRANCH   8  11
ATOM     11  C   LIG d   1      -7.506  74.114 116.215  0.00  0.00     0.028 C 
ATOM     12  C   LIG d   1      -6.951  72.732 115.835  0.00  0.00     0.006 C 
ENDBRANCH   8  11
ENDBRANCH   7   8
ENDBRANCH   1   7
BRANCH   6  13
ATOM     13  N   LIG d   1      -4.467  77.763 116.996  0.00  0.00    -0.311 N 
ATOM     14  C   LIG d   1      -3.458  77.974 116.153  0.00  0.00     0.210 C 
ATOM     15  C   LIG d   1      -2.198  77.149 116.433  0.00  0.00     0.109 C 
ATOM     16  O   LIG d   1      -3.475  78.791 115.219  0.00  0.00    -0.276 OA
ATOM     17  H   LIG d   1      -4.356  77.107 117.744  0.00  0.00     0.149 HD
ENDBRANCH   6  13
BRANCH   5  18
ATOM     18  N   LIG d   1      -4.930  80.739 117.506  0.00  0.00     0.381 N 
ATOM     19  H   LIG d   1      -5.424  81.579 117.277  0.00  0.00    -0.090 HD
ATOM     20  H   LIG d   1      -4.392  80.461 116.704  0.00  0.00    -0.090 HD
ATOM     21  H   LIG d   1      -4.325  80.902 118.281  0.00  0.00    -0.090 HD
ENDBRANCH   5  18
BRANCH   3  22
ATOM     22  C   LIG d   1      -9.518  79.719 118.425  0.00  0.00     0.382 C 
ATOM     23  O   LIG d   1     -10.568  79.078 118.178  0.00  0.00    -0.241 OA
ATOM     24  O   LIG d   1      -9.578  80.750 119.121  0.00  0.00    -0.241 OA
ENDBRANCH   3  22
TORSDOF 7
ENDMDL
MODEL 2
REMARK VINA RESULT:      -5.4      3.323      5.434
REMARK  7 active torsions:
REMARK  status: ('A' for Active; 'I' for Inactive)
REMARK    1  A    between atoms: C_2  and  C_3 
REMARK    2  A    between atoms: C_3  and  O_6 
REMARK    3  A    between atoms: C_3  and  C_4 
REMARK    4  A    between atoms: C_7  and  O_6 
REMARK    5  A    between atoms: C_9  and  C_10 
REMARK    6  A    between atoms: N_15  and  C_14 
REMARK    7  A    between atoms: N_20  and  C_19 
REMARK       I    between atoms: C_22  and  N_20 
ROOT
ATOM      1  C   LIG d   1      -3.267  77.240 116.988  0.00  0.00     0.161 C 
ATOM      2  C   LIG d   1      -3.411  78.320 116.102  0.00  0.00     0.016 C 
ATOM      3  C   LIG d   1      -2.384  78.758 115.235  0.00  0.00     0.038 C 
ATOM      4  C   LIG d   1      -1.186  78.045 115.086  0.00  0.00     0.028 C 
ATOM      5  C   LIG d   1      -0.800  77.243 116.325  0.00  0.00    -0.047 C 
ATOM      6  C   LIG d   1      -2.006  76.380 116.760  0.00  0.00     0.091 C 
ENDROOT
BRANCH   1   7
ATOM      7  O   LIG d   1      -4.449  76.415 116.949  0.00  0.00    -0.368 OA
BRANCH   7   8
ATOM      8  C   LIG d   1      -5.359  76.657 115.848  0.00  0.00     0.119 C 
BRANCH   8   9
ATOM      9  C   LIG d   1      -6.781  76.746 116.435  0.00  0.00     0.028 C 
ATOM     10  C   LIG d   1      -6.780  76.796 117.972  0.00  0.00     0.006 C 
ENDBRANCH   8   9
BRANCH   8  11
ATOM     11  C   LIG d   1      -5.392  75.469 114.882  0.00  0.00     0.028 C 
ATOM     12  C   LIG d   1      -6.252  74.305 115.399  0.00  0.00     0.006 C 
ENDBRANCH   8  11
ENDBRANCH   7   8
ENDBRANCH   1   7
BRANCH   6  13
ATOM     13  N   LIG d   1      -1.741  75.628 118.014  0.00  0.00    -0.311 N 
ATOM     14  C   LIG d   1      -1.253  74.389 118.036  0.00  0.00     0.210 C 
ATOM     15  C   LIG d   1      -1.075  73.789 119.435  0.00  0.00     0.109 C 
ATOM     16  O   LIG d   1      -0.921  73.741 117.032  0.00  0.00    -0.276 OA
ATOM     17  H   LIG d   1      -1.953  76.090 118.877  0.00  0.00     0.149 HD
ENDBRANCH   6  13
BRANCH   5  18
ATOM     18  N   LIG d   1       0.391  76.442 115.984  0.00  0.00     0.381 N 
ATOM     19  H   LIG d   1       0.903  76.225 116.816  0.00  0.00    -0.090 HD
ATOM     20  H   LIG d   1       0.986  76.984 115.381  0.00  0.00    -0.090 HD
ATOM     21  H   LIG d   1       0.117  75.602 115.525  0.00  0.00    -0.090 HD
ENDBRANCH   5  18
BRANCH   3  22
ATOM     22  C   LIG d   1      -2.536  79.945 114.535  0.00  0.00     0.382 C 
ATOM     23  O   LIG d   1      -1.578  80.407 113.868  0.00  0.00    -0.241 OA
ATOM     24  O   LIG d   1      -3.603  80.584 114.597  0.00  0.00    -0.241 OA
ENDBRANCH   3  22
TORSDOF 7
ENDMDL
MODEL 3
REMARK VINA RESULT:      -5.3      2.378      5.536
REMARK  7 active torsions:
REMARK  status: ('A' for Active; 'I' for Inactive)
REMARK    1  A    between atoms: C_2  and  C_3 
REMARK    2  A    between atoms: C_3  and  O_6 
REMARK    3  A    between atoms: C_3  and  C_4 
REMARK    4  A    between atoms: C_7  and  O_6 
REMARK    5  A    between atoms: C_9  and  C_10 
REMARK    6  A    between atoms: N_15  and  C_14 
REMARK    7  A    between atoms: N_20  and  C_19 
REMARK       I    between atoms: C_22  and  N_20 
ROOT
ATOM      1  C   LIG d   1      -4.240  77.214 115.586  0.00  0.00     0.161 C 
ATOM      2  C   LIG d   1      -3.397  76.107 115.397  0.00  0.00     0.016 C 
ATOM      3  C   LIG d   1      -2.461  75.668 116.362  0.00  0.00     0.038 C 
ATOM      4  C   LIG d   1      -2.411  76.219 117.651  0.00  0.00     0.028 C 
ATOM      5  C   LIG d   1      -2.894  77.664 117.711  0.00  0.00    -0.047 C 
ATOM      6  C   LIG d   1      -4.278  77.759 117.029  0.00  0.00     0.091 C 
ENDROOT
BRANCH   1   7
ATOM      7  O   LIG d   1      -5.572  76.896 115.136  0.00  0.00    -0.368 OA
BRANCH   7   8
ATOM      8  C   LIG d   1      -6.338  76.008 115.987  0.00  0.00     0.119 C 
BRANCH   8   9
ATOM      9  C   LIG d   1      -6.355  74.622 115.314  0.00  0.00     0.028 C 
ATOM     10  C   LIG d   1      -6.979  73.541 116.213  0.00  0.00     0.006 C 
ENDBRANCH   8   9
BRANCH   8  11
ATOM     11  C   LIG d   1      -7.805  76.439 116.065  0.00  0.00     0.028 C 
ATOM     12  C   LIG d   1      -8.078  77.420 117.216  0.00  0.00     0.006 C 
ENDBRANCH   8  11
ENDBRANCH   7   8
ENDBRANCH   1   7
BRANCH   6  13
ATOM     13  N   LIG d   1      -4.786  79.155 116.969  0.00  0.00    -0.311 N 
ATOM     14  C   LIG d   1      -5.483  79.724 117.952  0.00  0.00     0.210 C 
ATOM     15  C   LIG d   1      -5.928  81.164 117.678  0.00  0.00     0.109 C 
ATOM     16  O   LIG d   1      -5.746  79.185 119.037  0.00  0.00    -0.276 OA
ATOM     17  H   LIG d   1      -4.591  79.676 116.137  0.00  0.00     0.149 HD
ENDBRANCH   6  13
BRANCH   5  18
ATOM     18  N   LIG d   1      -2.920  78.067 119.130  0.00  0.00     0.381 N 
ATOM     19  H   LIG d   1      -2.063  77.802 119.573  0.00  0.00    -0.090 HD
ATOM     20  H   LIG d   1      -3.674  77.589 119.590  0.00  0.00    -0.090 HD
ATOM     21  H   LIG d   1      -3.048  79.053 119.202  0.00  0.00    -0.090 HD
ENDBRANCH   5  18
BRANCH   3  22
ATOM     22  C   LIG d   1      -1.534  74.693 116.027  0.00  0.00     0.382 C 
ATOM     23  O   LIG d   1      -1.058  73.947 116.917  0.00  0.00    -0.241 OA
ATOM     24  O   LIG d   1      -1.134  74.578 114.853  0.00  0.00    -0.241 OA
ENDBRANCH   3  22
TORSDOF 7
ENDMDL
MODEL 4
REMARK VINA RESULT:      -5.1     13.993     17.144
REMARK  7 active torsions:
REMARK  status: ('A' for Active; 'I' for Inactive)
REMARK    1  A    between atoms: C_2  and  C_3 
REMARK    2  A    between atoms: C_3  and  O_6 
REMARK    3  A    between atoms: C_3  and  C_4 
REMARK    4  A    between atoms: C_7  and  O_6 
REMARK    5  A    between atoms: C_9  and  C_10 
REMARK    6  A    between atoms: N_15  and  C_14 
REMARK    7  A    between atoms: N_20  and  C_19 
REMARK       I    between atoms: C_22  and  N_20 
ROOT
ATOM      1  C   LIG d   1      -5.265  92.887 119.601  0.00  0.00     0.161 C 
ATOM      2  C   LIG d   1      -4.142  92.177 119.143  0.00  0.00     0.016 C 
ATOM      3  C   LIG d   1      -3.998  91.724 117.811  0.00  0.00     0.038 C 
ATOM      4  C   LIG d   1      -4.904  92.084 116.803  0.00  0.00     0.028 C 
ATOM      5  C   LIG d   1      -6.308  92.373 117.325  0.00  0.00    -0.047 C 
ATOM      6  C   LIG d   1      -6.212  93.385 118.489  0.00  0.00     0.091 C 
ENDROOT
BRANCH   1   7
ATOM      7  O   LIG d   1      -4.842  93.987 120.430  0.00  0.00    -0.368 OA
BRANCH   7   8
ATOM      8  C   LIG d   1      -4.373  95.167 119.732  0.00  0.00     0.119 C 
BRANCH   8   9
ATOM      9  C   LIG d   1      -2.868  95.313 120.030  0.00  0.00     0.028 C 
ATOM     10  C   LIG d   1      -2.001  95.142 118.770  0.00  0.00     0.006 C 
ENDBRANCH   8   9
BRANCH   8  11
ATOM     11  C   LIG d   1      -5.021  96.438 120.289  0.00  0.00     0.028 C 
ATOM     12  C   LIG d   1      -4.748  97.676 119.420  0.00  0.00     0.006 C 
ENDBRANCH   8  11
ENDBRANCH   7   8
ENDBRANCH   1   7
BRANCH   6  13
ATOM     13  N   LIG d   1      -7.533  93.658 119.113  0.00  0.00    -0.311 N 
ATOM     14  C   LIG d   1      -8.178  94.816 118.986  0.00  0.00     0.210 C 
ATOM     15  C   LIG d   1      -9.517  94.895 119.727  0.00  0.00     0.109 C 
ATOM     16  O   LIG d   1      -7.785  95.774 118.304  0.00  0.00    -0.276 OA
ATOM     17  H   LIG d   1      -7.940  92.924 119.659  0.00  0.00     0.149 HD
ENDBRANCH   6  13
BRANCH   5  18
ATOM     18  N   LIG d   1      -7.112  92.868 116.192  0.00  0.00     0.381 N 
ATOM     19  H   LIG d   1      -7.420  92.098 115.633  0.00  0.00    -0.090 HD
ATOM     20  H   LIG d   1      -6.537  93.462 115.621  0.00  0.00    -0.090 HD
ATOM     21  H   LIG d   1      -7.898  93.380 116.530  0.00  0.00    -0.090 HD
ENDBRANCH   5  18
BRANCH   3  22
ATOM     22  C   LIG d   1      -2.957  90.867 117.486  0.00  0.00     0.382 C 
ATOM     23  O   LIG d   1      -1.775  91.287 117.491  0.00  0.00    -0.241 OA
ATOM     24  O   LIG d   1      -3.189  89.692 117.144  0.00  0.00    -0.241 OA
ENDBRANCH   3  22
TORSDOF 7
ENDMDL
MODEL 5
REMARK VINA RESULT:      -5.0      2.891      4.875
REMARK  7 active torsions:
REMARK  status: ('A' for Active; 'I' for Inactive)
REMARK    1  A    between atoms: C_2  and  C_3 
REMARK    2  A    between atoms: C_3  and  O_6 
REMARK    3  A    between atoms: C_3  and  C_4 
REMARK    4  A    between atoms: C_7  and  O_6 
REMARK    5  A    between atoms: C_9  and  C_10 
REMARK    6  A    between atoms: N_15  and  C_14 
REMARK    7  A    between atoms: N_20  and  C_19 
REMARK       I    between atoms: C_22  and  N_20 
ROOT
ATOM      1  C   LIG d   1      -4.454  75.776 116.616  0.00  0.00     0.161 C 
ATOM      2  C   LIG d   1      -5.157  74.634 116.197  0.00  0.00     0.016 C 
ATOM      3  C   LIG d   1      -6.569  74.554 116.176  0.00  0.00     0.038 C 
ATOM      4  C   LIG d   1      -7.378  75.671 116.430  0.00  0.00     0.028 C 
ATOM      5  C   LIG d   1      -6.722  76.700 117.345  0.00  0.00    -0.047 C 
ATOM      6  C   LIG d   1      -5.319  77.041 116.791  0.00  0.00     0.091 C 
ENDROOT
BRANCH   1   7
ATOM      7  O   LIG d   1      -3.363  76.036 115.711  0.00  0.00    -0.368 OA
BRANCH   7   8
ATOM      8  C   LIG d   1      -2.035  76.023 116.291  0.00  0.00     0.119 C 
BRANCH   8   9
ATOM      9  C   LIG d   1      -1.082  76.694 115.283  0.00  0.00     0.028 C 
ATOM     10  C   LIG d   1      -1.606  78.055 114.796  0.00  0.00     0.006 C 
ENDBRANCH   8   9
BRANCH   8  11
ATOM     11  C   LIG d   1      -1.513  74.593 116.455  0.00  0.00     0.028 C 
ATOM     12  C   LIG d   1      -0.928  74.328 117.851  0.00  0.00     0.006 C 
ENDBRANCH   8  11
ENDBRANCH   7   8
ENDBRANCH   1   7
BRANCH   6  13
ATOM     13  N   LIG d   1      -4.574  77.978 117.672  0.00  0.00    -0.311 N 
ATOM     14  C   LIG d   1      -4.178  79.189 117.286  0.00  0.00     0.210 C 
ATOM     15  C   LIG d   1      -3.406  79.985 118.343  0.00  0.00     0.109 C 
ATOM     16  O   LIG d   1      -4.420  79.693 116.179  0.00  0.00    -0.276 OA
ATOM     17  H   LIG d   1      -4.362  77.661 118.598  0.00  0.00     0.149 HD
ENDBRANCH   6  13
BRANCH   5  18
ATOM     18  N   LIG d   1      -7.616  77.871 117.414  0.00  0.00     0.381 N 
ATOM     19  H   LIG d   1      -7.087  78.688 117.643  0.00  0.00    -0.090 HD
ATOM     20  H   LIG d   1      -8.294  77.720 118.141  0.00  0.00    -0.090 HD
ATOM     21  H   LIG d   1      -8.078  77.999 116.541  0.00  0.00    -0.090 HD
ENDBRANCH   5  18
BRANCH   3  22
ATOM     22  C   LIG d   1      -7.185  73.335 115.936  0.00  0.00     0.382 C 
ATOM     23  O   LIG d   1      -8.407  73.192 116.179  0.00  0.00    -0.241 OA
ATOM     24  O   LIG d   1      -6.523  72.364 115.523  0.00  0.00    -0.241 OA
ENDBRANCH   3  22
TORSDOF 7
ENDMDL
MODEL 6
REMARK VINA RESULT:      -4.9      2.641      5.586
REMARK  7 active torsions:
REMARK  status: ('A' for Active; 'I' for Inactive)
REMARK    1  A    between atoms: C_2  and  C_3 
REMARK    2  A    between atoms: C_3  and  O_6 
REMARK    3  A    between atoms: C_3  and  C_4 
REMARK    4  A    between atoms: C_7  and  O_6 
REMARK    5  A    between atoms: C_9  and  C_10 
REMARK    6  A    between atoms: N_15  and  C_14 
REMARK    7  A    between atoms: N_20  and  C_19 
REMARK       I    between atoms: C_22  and  N_20 
ROOT
ATOM      1  C   LIG d   1      -4.263  76.666 116.726  0.00  0.00     0.161 C 
ATOM      2  C   LIG d   1      -3.442  75.532 116.610  0.00  0.00     0.016 C 
ATOM      3  C   LIG d   1      -2.160  75.437 117.199  0.00  0.00     0.038 C 
ATOM      4  C   LIG d   1      -1.672  76.417 118.076  0.00  0.00     0.028 C 
ATOM      5  C   LIG d   1      -2.253  77.803 117.819  0.00  0.00    -0.047 C 
ATOM      6  C   LIG d   1      -3.794  77.700 117.771  0.00  0.00     0.091 C 
ENDROOT
BRANCH   1   7
ATOM      7  O   LIG d   1      -5.620  76.260 116.997  0.00  0.00    -0.368 OA
BRANCH   7   8
ATOM      8  C   LIG d   1      -6.489  76.135 115.844  0.00  0.00     0.119 C 
BRANCH   8   9
ATOM      9  C   LIG d   1      -7.924  76.444 116.311  0.00  0.00     0.028 C 
ATOM     10  C   LIG d   1      -7.968  77.550 117.380  0.00  0.00     0.006 C 
ENDBRANCH   8   9
BRANCH   8  11
ATOM     11  C   LIG d   1      -6.531  74.691 115.333  0.00  0.00     0.028 C 
ATOM     12  C   LIG d   1      -7.057  73.702 116.386  0.00  0.00     0.006 C 
ENDBRANCH   8  11
ENDBRANCH   7   8
ENDBRANCH   1   7
BRANCH   6  13
ATOM     13  N   LIG d   1      -4.439  78.998 117.440  0.00  0.00    -0.311 N 
ATOM     14  C   LIG d   1      -5.176  79.692 118.305  0.00  0.00     0.210 C 
ATOM     15  C   LIG d   1      -5.766  80.994 117.754  0.00  0.00     0.109 C 
ATOM     16  O   LIG d   1      -5.370  79.370 119.487  0.00  0.00    -0.276 OA
ATOM     17  H   LIG d   1      -4.307  79.349 116.512  0.00  0.00     0.149 HD
ENDBRANCH   6  13
BRANCH   5  18
ATOM     18  N   LIG d   1      -1.766  78.696 118.887  0.00  0.00     0.381 N 
ATOM     19  H   LIG d   1      -2.518  79.263 119.224  0.00  0.00    -0.090 HD
ATOM     20  H   LIG d   1      -1.059  79.302 118.508  0.00  0.00    -0.090 HD
ATOM     21  H   LIG d   1      -1.386  78.158 119.635  0.00  0.00    -0.090 HD
ENDBRANCH   5  18
BRANCH   3  22
ATOM     22  C   LIG d   1      -1.335  74.369 116.880  0.00  0.00     0.382 C 
ATOM     23  O   LIG d   1      -0.835  73.668 117.793  0.00  0.00    -0.241 OA
ATOM     24  O   LIG d   1      -1.048  74.125 115.692  0.00  0.00    -0.241 OA
ENDBRANCH   3  22
TORSDOF 7
ENDMDL
MODEL 7
REMARK VINA RESULT:      -4.8     12.955     15.310
REMARK  7 active torsions:
REMARK  status: ('A' for Active; 'I' for Inactive)
REMARK    1  A    between atoms: C_2  and  C_3 
REMARK    2  A    between atoms: C_3  and  O_6 
REMARK    3  A    between atoms: C_3  and  C_4 
REMARK    4  A    between atoms: C_7  and  O_6 
REMARK    5  A    between atoms: C_9  and  C_10 
REMARK    6  A    between atoms: N_15  and  C_14 
REMARK    7  A    between atoms: N_20  and  C_19 
REMARK       I    between atoms: C_22  and  N_20 
ROOT
ATOM      1  C   LIG d   1     -16.011  65.735 117.465  0.00  0.00     0.161 C 
ATOM      2  C   LIG d   1     -16.070  67.129 117.305  0.00  0.00     0.016 C 
ATOM      3  C   LIG d   1     -15.348  68.037 118.113  0.00  0.00     0.038 C 
ATOM      4  C   LIG d   1     -14.394  67.602 119.045  0.00  0.00     0.028 C 
ATOM      5  C   LIG d   1     -14.672  66.205 119.589  0.00  0.00    -0.047 C 
ATOM      6  C   LIG d   1     -14.891  65.239 118.403  0.00  0.00     0.091 C 
ENDROOT
BRANCH   1   7
ATOM      7  O   LIG d   1     -15.903  65.099 116.176  0.00  0.00    -0.368 OA
BRANCH   7   8
ATOM      8  C   LIG d   1     -16.686  65.686 115.108  0.00  0.00     0.119 C 
BRANCH   8   9
ATOM      9  C   LIG d   1     -17.784  64.674 114.727  0.00  0.00     0.028 C 
ATOM     10  C   LIG d   1     -17.251  63.232 114.652  0.00  0.00     0.006 C 
ENDBRANCH   8   9
BRANCH   8  11
ATOM     11  C   LIG d   1     -15.849  65.872 113.839  0.00  0.00     0.028 C 
ATOM     12  C   LIG d   1     -15.108  67.219 113.805  0.00  0.00     0.006 C 
ENDBRANCH   8  11
ENDBRANCH   7   8
ENDBRANCH   1   7
BRANCH   6  13
ATOM     13  N   LIG d   1     -15.251  63.867 118.848  0.00  0.00    -0.311 N 
ATOM     14  C   LIG d   1     -14.575  62.778 118.487  0.00  0.00     0.210 C 
ATOM     15  C   LIG d   1     -15.127  61.461 119.041  0.00  0.00     0.109 C 
ATOM     16  O   LIG d   1     -13.551  62.781 117.787  0.00  0.00    -0.276 OA
ATOM     17  H   LIG d   1     -16.051  63.776 119.444  0.00  0.00     0.149 HD
ENDBRANCH   6  13
BRANCH   5  18
ATOM     18  N   LIG d   1     -13.530  65.823 120.442  0.00  0.00     0.381 N 
ATOM     19  H   LIG d   1     -12.752  66.425 120.256  0.00  0.00    -0.090 HD
ATOM     20  H   LIG d   1     -13.260  64.881 120.222  0.00  0.00    -0.090 HD
ATOM     21  H   LIG d   1     -13.786  65.887 121.403  0.00  0.00    -0.090 HD
ENDBRANCH   5  18
BRANCH   3  22
ATOM     22  C   LIG d   1     -15.607  69.396 118.021  0.00  0.00     0.382 C 
ATOM     23  O   LIG d   1     -15.767  70.076 119.063  0.00  0.00    -0.241 OA
ATOM     24  O   LIG d   1     -15.726  69.942 116.908  0.00  0.00    -0.241 OA
ENDBRANCH   3  22
TORSDOF 7
ENDMDL
MODEL 8
REMARK VINA RESULT:      -4.8     14.174     16.279
REMARK  7 active torsions:
REMARK  status: ('A' for Active; 'I' for Inactive)
REMARK    1  A    between atoms: C_2  and  C_3 
REMARK    2  A    between atoms: C_3  and  O_6 
REMARK    3  A    between atoms: C_3  and  C_4 
REMARK    4  A    between atoms: C_7  and  O_6 
REMARK    5  A    between atoms: C_9  and  C_10 
REMARK    6  A    between atoms: N_15  and  C_14 
REMARK    7  A    between atoms: N_20  and  C_19 
REMARK       I    between atoms: C_22  and  N_20 
ROOT
ATOM      1  C   LIG d   1      -6.038  93.182 119.118  0.00  0.00     0.161 C 
ATOM      2  C   LIG d   1      -7.279  93.779 118.840  0.00  0.00     0.016 C 
ATOM      3  C   LIG d   1      -7.470  95.178 118.768  0.00  0.00     0.038 C 
ATOM      4  C   LIG d   1      -6.394  96.077 118.819  0.00  0.00     0.028 C 
ATOM      5  C   LIG d   1      -5.198  95.546 119.601  0.00  0.00    -0.047 C 
ATOM      6  C   LIG d   1      -4.832  94.143 119.066  0.00  0.00     0.091 C 
ENDROOT
BRANCH   1   7
ATOM      7  O   LIG d   1      -5.825  92.063 118.234  0.00  0.00    -0.368 OA
BRANCH   7   8
ATOM      8  C   LIG d   1      -5.239  92.372 116.945  0.00  0.00     0.119 C 
BRANCH   8   9
ATOM      9  C   LIG d   1      -6.385  92.428 115.916  0.00  0.00     0.028 C 
ATOM     10  C   LIG d   1      -6.352  91.243 114.936  0.00  0.00     0.006 C 
ENDBRANCH   8   9
BRANCH   8  11
ATOM     11  C   LIG d   1      -4.320  91.244 116.467  0.00  0.00     0.028 C 
ATOM     12  C   LIG d   1      -3.402  90.712 117.579  0.00  0.00     0.006 C 
ENDBRANCH   8  11
ENDBRANCH   7   8
ENDBRANCH   1   7
BRANCH   6  13
ATOM     13  N   LIG d   1      -3.724  93.515 119.833  0.00  0.00    -0.311 N 
ATOM     14  C   LIG d   1      -2.446  93.582 119.462  0.00  0.00     0.210 C 
ATOM     15  C   LIG d   1      -1.466  92.849 120.384  0.00  0.00     0.109 C 
ATOM     16  O   LIG d   1      -2.028  94.206 118.475  0.00  0.00    -0.276 OA
ATOM     17  H   LIG d   1      -3.970  93.015 120.664  0.00  0.00     0.149 HD
ENDBRANCH   6  13
BRANCH   5  18
ATOM     18  N   LIG d   1      -4.102  96.523 119.457  0.00  0.00     0.381 N 
ATOM     19  H   LIG d   1      -3.256  96.141 119.831  0.00  0.00    -0.090 HD
ATOM     20  H   LIG d   1      -4.333  97.349 119.981  0.00  0.00    -0.090 HD
ATOM     21  H   LIG d   1      -3.975  96.755 118.497  0.00  0.00    -0.090 HD
ENDBRANCH   5  18
BRANCH   3  22
ATOM     22  C   LIG d   1      -8.755  95.692 118.682  0.00  0.00     0.382 C 
ATOM     23  O   LIG d   1      -8.933  96.872 118.294  0.00  0.00    -0.241 OA
ATOM     24  O   LIG d   1      -9.734  95.006 119.031  0.00  0.00    -0.241 OA
ENDBRANCH   3  22
TORSDOF 7
ENDMDL
MODEL 9
REMARK VINA RESULT:      -4.7      2.065      5.257
REMARK  7 active torsions:
REMARK  status: ('A' for Active; 'I' for Inactive)
REMARK    1  A    between atoms: C_2  and  C_3 
REMARK    2  A    between atoms: C_3  and  O_6 
REMARK    3  A    between atoms: C_3  and  C_4 
REMARK    4  A    between atoms: C_7  and  O_6 
REMARK    5  A    between atoms: C_9  and  C_10 
REMARK    6  A    between atoms: N_15  and  C_14 
REMARK    7  A    between atoms: N_20  and  C_19 
REMARK       I    between atoms: C_22  and  N_20 
ROOT
ATOM      1  C   LIG d   1      -5.049  78.345 116.891  0.00  0.00     0.161 C 
ATOM      2  C   LIG d   1      -5.189  77.021 116.444  0.00  0.00     0.016 C 
ATOM      3  C   LIG d   1      -6.421  76.327 116.443  0.00  0.00     0.038 C 
ATOM      4  C   LIG d   1      -7.632  76.964 116.750  0.00  0.00     0.028 C 
ATOM      5  C   LIG d   1      -7.468  78.154 117.690  0.00  0.00    -0.047 C 
ATOM      6  C   LIG d   1      -6.378  79.093 117.126  0.00  0.00     0.091 C 
ENDROOT
BRANCH   1   7
ATOM      7  O   LIG d   1      -4.213  79.083 115.978  0.00  0.00    -0.368 OA
BRANCH   7   8
ATOM      8  C   LIG d   1      -2.803  78.747 115.991  0.00  0.00     0.119 C 
BRANCH   8   9
ATOM      9  C   LIG d   1      -2.079  79.820 116.828  0.00  0.00     0.028 C 
ATOM     10  C   LIG d   1      -1.020  79.216 117.765  0.00  0.00     0.006 C 
ENDBRANCH   8   9
BRANCH   8  11
ATOM     11  C   LIG d   1      -2.194  78.847 114.589  0.00  0.00     0.028 C 
ATOM     12  C   LIG d   1      -2.284  77.528 113.805  0.00  0.00     0.006 C 
ENDBRANCH   8  11
ENDBRANCH   7   8
ENDBRANCH   1   7
BRANCH   6  13
ATOM     13  N   LIG d   1      -6.096  80.240 118.027  0.00  0.00    -0.311 N 
ATOM     14  C   LIG d   1      -6.701  81.422 117.922  0.00  0.00     0.210 C 
ATOM     15  C   LIG d   1      -6.248  82.474 118.940  0.00  0.00     0.109 C 
ATOM     16  O   LIG d   1      -7.592  81.689 117.102  0.00  0.00    -0.276 OA
ATOM     17  H   LIG d   1      -5.407  80.101 118.741  0.00  0.00     0.149 HD
ENDBRANCH   6  13
BRANCH   5  18
ATOM     18  N   LIG d   1      -8.785  78.807 117.816  0.00  0.00     0.381 N 
ATOM     19  H   LIG d   1      -9.493  78.221 117.419  0.00  0.00    -0.090 HD
ATOM     20  H   LIG d   1      -8.769  79.672 117.305  0.00  0.00    -0.090 HD
ATOM     21  H   LIG d   1      -8.989  78.982 118.775  0.00  0.00    -0.090 HD
ENDBRANCH   5  18
BRANCH   3  22
ATOM     22  C   LIG d   1      -6.443  74.967 116.170  0.00  0.00     0.382 C 
ATOM     23  O   LIG d   1      -6.271  74.561 114.995  0.00  0.00    -0.241 OA
ATOM     24  O   LIG d   1      -6.676  74.145 117.076  0.00  0.00    -0.241 OA
ENDBRANCH   3  22
TORSDOF 7
ENDMDL
