MODEL 1
REMARK VINA RESULT:      -5.7      0.000      0.000
REMARK  7 active torsions:
REMARK  status: ('A' for Active; 'I' for Inactive)
REMARK    1  A    between atoms: C_2  and  C_3 
REMARK    2  A    between atoms: C_3  and  O_6 
REMARK    3  A    between atoms: C_3  and  C_4 
REMARK    4  A    between atoms: C_7  and  O_6 
REMARK    5  A    between atoms: C_9  and  C_10 
REMARK    6  A    between atoms: N_15  and  C_14 
REMARK    7  A    between atoms: N_20  and  C_19 
REMARK       I    between atoms: C_22  and  N_20 
ROOT
ATOM      1  C   LIG d   1      -5.412  91.204 117.578  0.00  0.00     0.161 C 
ATOM      2  C   LIG d   1      -4.756  90.170 116.890  0.00  0.00     0.016 C 
ATOM      3  C   LIG d   1      -5.017  89.847 115.539  0.00  0.00     0.038 C 
ATOM      4  C   LIG d   1      -5.849  90.639 114.734  0.00  0.00     0.028 C 
ATOM      5  C   LIG d   1      -6.918  91.389 115.522  0.00  0.00    -0.047 C 
ATOM      6  C   LIG d   1      -6.242  92.150 116.686  0.00  0.00     0.091 C 
ENDROOT
BRANCH   1   7
ATOM      7  O   LIG d   1      -4.459  91.956 118.355  0.00  0.00    -0.368 OA
BRANCH   7   8
ATOM      8  C   LIG d   1      -3.395  92.598 117.610  0.00  0.00     0.119 C 
BRANCH   8   9
ATOM      9  C   LIG d   1      -2.072  92.299 118.342  0.00  0.00     0.028 C 
ATOM     10  C   LIG d   1      -1.267  91.177 117.664  0.00  0.00     0.006 C 
ENDBRANCH   8   9
BRANCH   8  11
ATOM     11  C   LIG d   1      -3.537  94.123 117.637  0.00  0.00     0.028 C 
ATOM     12  C   LIG d   1      -4.223  94.635 118.913  0.00  0.00     0.006 C 
ENDBRANCH   8  11
ENDBRANCH   7   8
ENDBRANCH   1   7
BRANCH   6  13
ATOM     13  N   LIG d   1      -7.227  92.843 117.557  0.00  0.00    -0.311 N 
ATOM     14  C   LIG d   1      -7.576  94.118 117.400  0.00  0.00     0.210 C 
ATOM     15  C   LIG d   1      -8.592  94.641 118.420  0.00  0.00     0.109 C 
ATOM     16  O   LIG d   1      -7.165  94.857 116.492  0.00  0.00    -0.276 OA
ATOM     17  H   LIG d   1      -7.633  92.308 118.300  0.00  0.00     0.149 HD
ENDBRANCH   6  13
BRANCH   5  18
ATOM     18  N   LIG d   1      -7.623  92.279 114.581  0.00  0.00     0.381 N 
ATOM     19  H   LIG d   1      -7.835  93.147 115.031  0.00  0.00    -0.090 HD
ATOM     20  H   LIG d   1      -8.488  91.845 114.309  0.00  0.00    -0.090 HD
ATOM     21  H   LIG d   1      -7.058  92.443 113.777  0.00  0.00    -0.090 HD
ENDBRANCH   5  18
BRANCH   3  22
ATOM     22  C   LIG d   1      -4.472  88.696 114.990  0.00  0.00     0.382 C 
ATOM     23  O   LIG d   1      -4.738  88.379 113.805  0.00  0.00    -0.241 OA
ATOM     24  O   LIG d   1      -3.753  87.947 115.678  0.00  0.00    -0.241 OA
ENDBRANCH   3  22
TORSDOF 7
ENDMDL
MODEL 2
REMARK VINA RESULT:      -5.4      1.759      4.934
REMARK  7 active torsions:
REMARK  status: ('A' for Active; 'I' for Inactive)
REMARK    1  A    between atoms: C_2  and  C_3 
REMARK    2  A    between atoms: C_3  and  O_6 
REMARK    3  A    between atoms: C_3  and  C_4 
REMARK    4  A    between atoms: C_7  and  O_6 
REMARK    5  A    between atoms: C_9  and  C_10 
REMARK    6  A    between atoms: N_15  and  C_14 
REMARK    7  A    between atoms: N_20  and  C_19 
REMARK       I    between atoms: C_22  and  N_20 
ROOT
ATOM      1  C   LIG d   1      -5.136  93.109 117.211  0.00  0.00     0.161 C 
ATOM      2  C   LIG d   1      -5.591  94.309 117.783  0.00  0.00     0.016 C 
ATOM      3  C   LIG d   1      -6.847  94.885 117.486  0.00  0.00     0.038 C 
ATOM      4  C   LIG d   1      -7.803  94.219 116.706  0.00  0.00     0.028 C 
ATOM      5  C   LIG d   1      -7.194  93.245 115.702  0.00  0.00    -0.047 C 
ATOM      6  C   LIG d   1      -6.211  92.311 116.443  0.00  0.00     0.091 C 
ENDROOT
BRANCH   1   7
ATOM      7  O   LIG d   1      -4.527  92.284 118.224  0.00  0.00    -0.368 OA
BRANCH   7   8
ATOM      8  C   LIG d   1      -3.079  92.264 118.245  0.00  0.00     0.119 C 
BRANCH   8   9
ATOM      9  C   LIG d   1      -2.629  90.858 117.804  0.00  0.00     0.028 C 
ATOM     10  C   LIG d   1      -3.332  89.742 118.594  0.00  0.00     0.006 C 
ENDBRANCH   8   9
BRANCH   8  11
ATOM     11  C   LIG d   1      -2.540  92.435 119.668  0.00  0.00     0.028 C 
ATOM     12  C   LIG d   1      -2.057  93.866 119.954  0.00  0.00     0.006 C 
ENDBRANCH   8  11
ENDBRANCH   7   8
ENDBRANCH   1   7
BRANCH   6  13
ATOM     13  N   LIG d   1      -5.507  91.382 115.521  0.00  0.00    -0.311 N 
ATOM     14  C   LIG d   1      -5.566  90.056 115.630  0.00  0.00     0.210 C 
ATOM     15  C   LIG d   1      -4.751  89.284 114.587  0.00  0.00     0.109 C 
ATOM     16  O   LIG d   1      -6.242  89.445 116.471  0.00  0.00    -0.276 OA
ATOM     17  H   LIG d   1      -4.961  91.792 114.789  0.00  0.00     0.149 HD
ENDBRANCH   6  13
BRANCH   5  18
ATOM     18  N   LIG d   1      -8.304  92.520 115.055  0.00  0.00     0.381 N 
ATOM     19  H   LIG d   1      -8.172  91.534 115.162  0.00  0.00    -0.090 HD
ATOM     20  H   LIG d   1      -8.303  92.734 114.073  0.00  0.00    -0.090 HD
ATOM     21  H   LIG d   1      -9.172  92.793 115.460  0.00  0.00    -0.090 HD
ENDBRANCH   5  18
BRANCH   3  22
ATOM     22  C   LIG d   1      -7.141  96.162 117.940  0.00  0.00     0.382 C 
ATOM     23  O   LIG d   1      -7.173  97.122 117.133  0.00  0.00    -0.241 OA
ATOM     24  O   LIG d   1      -7.331  96.374 119.152  0.00  0.00    -0.241 OA
ENDBRANCH   3  22
TORSDOF 7
ENDMDL
MODEL 3
REMARK VINA RESULT:      -5.3      2.447      4.217
REMARK  7 active torsions:
REMARK  status: ('A' for Active; 'I' for Inactive)
REMARK    1  A    between atoms: C_2  and  C_3 
REMARK    2  A    between atoms: C_3  and  O_6 
REMARK    3  A    between atoms: C_3  and  C_4 
REMARK    4  A    between atoms: C_7  and  O_6 
REMARK    5  A    between atoms: C_9  and  C_10 
REMARK    6  A    between atoms: N_15  and  C_14 
REMARK    7  A    between atoms: N_20  and  C_19 
REMARK       I    between atoms: C_22  and  N_20 
ROOT
ATOM      1  C   LIG d   1      -5.604  92.769 117.146  0.00  0.00     0.161 C 
ATOM      2  C   LIG d   1      -6.652  91.918 116.755  0.00  0.00     0.016 C 
ATOM      3  C   LIG d   1      -6.463  90.561 116.406  0.00  0.00     0.038 C 
ATOM      4  C   LIG d   1      -5.227  89.918 116.571  0.00  0.00     0.028 C 
ATOM      5  C   LIG d   1      -4.035  90.865 116.481  0.00  0.00    -0.047 C 
ATOM      6  C   LIG d   1      -4.267  92.056 117.439  0.00  0.00     0.091 C 
ENDROOT
BRANCH   1   7
ATOM      7  O   LIG d   1      -6.012  93.555 118.283  0.00  0.00    -0.368 OA
BRANCH   7   8
ATOM      8  C   LIG d   1      -6.128  94.982 118.063  0.00  0.00     0.119 C 
BRANCH   8   9
ATOM      9  C   LIG d   1      -5.251  95.686 119.116  0.00  0.00     0.028 C 
ATOM     10  C   LIG d   1      -5.096  94.855 120.401  0.00  0.00     0.006 C 
ENDBRANCH   8   9
BRANCH   8  11
ATOM     11  C   LIG d   1      -7.554  95.473 118.329  0.00  0.00     0.028 C 
ATOM     12  C   LIG d   1      -8.457  94.384 118.928  0.00  0.00     0.006 C 
ENDBRANCH   8  11
ENDBRANCH   7   8
ENDBRANCH   1   7
BRANCH   6  13
ATOM     13  N   LIG d   1      -3.187  93.073 117.351  0.00  0.00    -0.311 N 
ATOM     14  C   LIG d   1      -2.373  93.366 118.363  0.00  0.00     0.210 C 
ATOM     15  C   LIG d   1      -1.341  94.460 118.067  0.00  0.00     0.109 C 
ATOM     16  O   LIG d   1      -2.386  92.803 119.468  0.00  0.00    -0.276 OA
ATOM     17  H   LIG d   1      -3.085  93.556 116.480  0.00  0.00     0.149 HD
ENDBRANCH   6  13
BRANCH   5  18
ATOM     18  N   LIG d   1      -2.824  90.089 116.807  0.00  0.00     0.381 N 
ATOM     19  H   LIG d   1      -2.813  89.872 117.784  0.00  0.00    -0.090 HD
ATOM     20  H   LIG d   1      -2.015  90.647 116.599  0.00  0.00    -0.090 HD
ATOM     21  H   LIG d   1      -2.803  89.248 116.272  0.00  0.00    -0.090 HD
ENDBRANCH   5  18
BRANCH   3  22
ATOM     22  C   LIG d   1      -7.510  89.843 115.848  0.00  0.00     0.382 C 
ATOM     23  O   LIG d   1      -7.846  90.049 114.657  0.00  0.00    -0.241 OA
ATOM     24  O   LIG d   1      -8.151  89.024 116.533  0.00  0.00    -0.241 OA
ENDBRANCH   3  22
TORSDOF 7
ENDMDL
MODEL 4
REMARK VINA RESULT:      -5.1      1.504      2.219
REMARK  7 active torsions:
REMARK  status: ('A' for Active; 'I' for Inactive)
REMARK    1  A    between atoms: C_2  and  C_3 
REMARK    2  A    between atoms: C_3  and  O_6 
REMARK    3  A    between atoms: C_3  and  C_4 
REMARK    4  A    between atoms: C_7  and  O_6 
REMARK    5  A    between atoms: C_9  and  C_10 
REMARK    6  A    between atoms: N_15  and  C_14 
REMARK    7  A    between atoms: N_20  and  C_19 
REMARK       I    between atoms: C_22  and  N_20 
ROOT
ATOM      1  C   LIG d   1      -4.626  92.763 117.148  0.00  0.00     0.161 C 
ATOM      2  C   LIG d   1      -4.320  91.464 116.708  0.00  0.00     0.016 C 
ATOM      3  C   LIG d   1      -5.055  90.788 115.707  0.00  0.00     0.038 C 
ATOM      4  C   LIG d   1      -6.060  91.427 114.967  0.00  0.00     0.028 C 
ATOM      5  C   LIG d   1      -6.737  92.567 115.721  0.00  0.00    -0.047 C 
ATOM      6  C   LIG d   1      -5.650  93.517 116.274  0.00  0.00     0.091 C 
ENDROOT
BRANCH   1   7
ATOM      7  O   LIG d   1      -3.415  93.533 117.279  0.00  0.00    -0.368 OA
BRANCH   7   8
ATOM      8  C   LIG d   1      -3.024  93.883 118.629  0.00  0.00     0.119 C 
BRANCH   8   9
ATOM      9  C   LIG d   1      -3.186  95.408 118.777  0.00  0.00     0.028 C 
ATOM     10  C   LIG d   1      -4.151  95.789 119.913  0.00  0.00     0.006 C 
ENDBRANCH   8   9
BRANCH   8  11
ATOM     11  C   LIG d   1      -1.537  93.608 118.868  0.00  0.00     0.028 C 
ATOM     12  C   LIG d   1      -0.658  94.850 118.646  0.00  0.00     0.006 C 
ENDBRANCH   8  11
ENDBRANCH   7   8
ENDBRANCH   1   7
BRANCH   6  13
ATOM     13  N   LIG d   1      -6.222  94.614 117.097  0.00  0.00    -0.311 N 
ATOM     14  C   LIG d   1      -7.278  94.459 117.895  0.00  0.00     0.210 C 
ATOM     15  C   LIG d   1      -7.717  95.723 118.639  0.00  0.00     0.109 C 
ATOM     16  O   LIG d   1      -7.872  93.386 118.080  0.00  0.00    -0.276 OA
ATOM     17  H   LIG d   1      -5.782  95.511 117.031  0.00  0.00     0.149 HD
ENDBRANCH   6  13
BRANCH   5  18
ATOM     18  N   LIG d   1      -7.664  93.231 114.786  0.00  0.00     0.381 N 
ATOM     19  H   LIG d   1      -8.551  93.369 115.229  0.00  0.00    -0.090 HD
ATOM     20  H   LIG d   1      -7.800  92.639 113.986  0.00  0.00    -0.090 HD
ATOM     21  H   LIG d   1      -7.289  94.108 114.499  0.00  0.00    -0.090 HD
ENDBRANCH   5  18
BRANCH   3  22
ATOM     22  C   LIG d   1      -4.812  89.445 115.466  0.00  0.00     0.382 C 
ATOM     23  O   LIG d   1      -5.125  88.939 114.361  0.00  0.00    -0.241 OA
ATOM     24  O   LIG d   1      -4.325  88.721 116.355  0.00  0.00    -0.241 OA
ENDBRANCH   3  22
TORSDOF 7
ENDMDL
MODEL 5
REMARK VINA RESULT:      -5.1      2.328      5.756
REMARK  7 active torsions:
REMARK  status: ('A' for Active; 'I' for Inactive)
REMARK    1  A    between atoms: C_2  and  C_3 
REMARK    2  A    between atoms: C_3  and  O_6 
REMARK    3  A    between atoms: C_3  and  C_4 
REMARK    4  A    between atoms: C_7  and  O_6 
REMARK    5  A    between atoms: C_9  and  C_10 
REMARK    6  A    between atoms: N_15  and  C_14 
REMARK    7  A    between atoms: N_20  and  C_19 
REMARK       I    between atoms: C_22  and  N_20 
ROOT
ATOM      1  C   LIG d   1      -5.686  92.509 117.383  0.00  0.00     0.161 C 
ATOM      2  C   LIG d   1      -6.926  92.988 117.837  0.00  0.00     0.016 C 
ATOM      3  C   LIG d   1      -7.117  94.292 118.348  0.00  0.00     0.038 C 
ATOM      4  C   LIG d   1      -6.106  95.263 118.298  0.00  0.00     0.028 C 
ATOM      5  C   LIG d   1      -4.699  94.675 118.314  0.00  0.00    -0.047 C 
ATOM      6  C   LIG d   1      -4.597  93.590 117.218  0.00  0.00     0.091 C 
ENDROOT
BRANCH   1   7
ATOM      7  O   LIG d   1      -5.864  91.784 116.150  0.00  0.00    -0.368 OA
BRANCH   7   8
ATOM      8  C   LIG d   1      -6.007  90.347 116.271  0.00  0.00     0.119 C 
BRANCH   8   9
ATOM      9  C   LIG d   1      -4.926  89.698 115.384  0.00  0.00     0.028 C 
ATOM     10  C   LIG d   1      -3.837  88.991 116.208  0.00  0.00     0.006 C 
ENDBRANCH   8   9
BRANCH   8  11
ATOM     11  C   LIG d   1      -7.344  89.871 115.695  0.00  0.00     0.028 C 
ATOM     12  C   LIG d   1      -7.932  90.849 114.666  0.00  0.00     0.006 C 
ENDBRANCH   8  11
ENDBRANCH   7   8
ENDBRANCH   1   7
BRANCH   6  13
ATOM     13  N   LIG d   1      -3.278  92.904 117.221  0.00  0.00    -0.311 N 
ATOM     14  C   LIG d   1      -2.872  92.101 118.203  0.00  0.00     0.210 C 
ATOM     15  C   LIG d   1      -1.470  91.511 118.017  0.00  0.00     0.109 C 
ATOM     16  O   LIG d   1      -3.552  91.796 119.194  0.00  0.00    -0.276 OA
ATOM     17  H   LIG d   1      -2.676  93.071 116.439  0.00  0.00     0.149 HD
ENDBRANCH   6  13
BRANCH   5  18
ATOM     18  N   LIG d   1      -3.749  95.786 118.119  0.00  0.00     0.381 N 
ATOM     19  H   LIG d   1      -3.760  96.386 118.919  0.00  0.00    -0.090 HD
ATOM     20  H   LIG d   1      -4.035  96.321 117.318  0.00  0.00    -0.090 HD
ATOM     21  H   LIG d   1      -2.830  95.427 117.976  0.00  0.00    -0.090 HD
ENDBRANCH   5  18
BRANCH   3  22
ATOM     22  C   LIG d   1      -8.320  94.624 118.953  0.00  0.00     0.382 C 
ATOM     23  O   LIG d   1      -9.288  93.829 118.900  0.00  0.00    -0.241 OA
ATOM     24  O   LIG d   1      -8.462  95.728 119.512  0.00  0.00    -0.241 OA
ENDBRANCH   3  22
TORSDOF 7
ENDMDL
MODEL 6
REMARK VINA RESULT:      -5.1      2.159      4.801
REMARK  7 active torsions:
REMARK  status: ('A' for Active; 'I' for Inactive)
REMARK    1  A    between atoms: C_2  and  C_3 
REMARK    2  A    between atoms: C_3  and  O_6 
REMARK    3  A    between atoms: C_3  and  C_4 
REMARK    4  A    between atoms: C_7  and  O_6 
REMARK    5  A    between atoms: C_9  and  C_10 
REMARK    6  A    between atoms: N_15  and  C_14 
REMARK    7  A    between atoms: N_20  and  C_19 
REMARK       I    between atoms: C_22  and  N_20 
ROOT
ATOM      1  C   LIG d   1      -4.640  92.491 117.450  0.00  0.00     0.161 C 
ATOM      2  C   LIG d   1      -5.730  93.358 117.270  0.00  0.00     0.016 C 
ATOM      3  C   LIG d   1      -6.718  93.171 116.276  0.00  0.00     0.038 C 
ATOM      4  C   LIG d   1      -6.764  92.013 115.485  0.00  0.00     0.028 C 
ATOM      5  C   LIG d   1      -5.401  91.359 115.289  0.00  0.00    -0.047 C 
ATOM      6  C   LIG d   1      -4.734  91.163 116.670  0.00  0.00     0.091 C 
ENDROOT
BRANCH   1   7
ATOM      7  O   LIG d   1      -4.445  92.234 118.855  0.00  0.00    -0.368 OA
BRANCH   7   8
ATOM      8  C   LIG d   1      -3.279  92.845 119.459  0.00  0.00     0.119 C 
BRANCH   8   9
ATOM      9  C   LIG d   1      -3.769  94.019 120.328  0.00  0.00     0.028 C 
ATOM     10  C   LIG d   1      -3.438  95.387 119.708  0.00  0.00     0.006 C 
ENDBRANCH   8   9
BRANCH   8  11
ATOM     11  C   LIG d   1      -2.369  93.477 118.400  0.00  0.00     0.028 C 
ATOM     12  C   LIG d   1      -0.990  92.804 118.323  0.00  0.00     0.006 C 
ENDBRANCH   8  11
ENDBRANCH   7   8
ENDBRANCH   1   7
BRANCH   6  13
ATOM     13  N   LIG d   1      -3.361  90.605 116.563  0.00  0.00    -0.311 N 
ATOM     14  C   LIG d   1      -2.889  89.658 117.372  0.00  0.00     0.210 C 
ATOM     15  C   LIG d   1      -1.440  89.240 117.101  0.00  0.00     0.109 C 
ATOM     16  O   LIG d   1      -3.543  89.102 118.267  0.00  0.00    -0.276 OA
ATOM     17  H   LIG d   1      -2.772  90.977 115.843  0.00  0.00     0.149 HD
ENDBRANCH   6  13
BRANCH   5  18
ATOM     18  N   LIG d   1      -5.614  90.091 114.565  0.00  0.00     0.381 N 
ATOM     19  H   LIG d   1      -4.747  89.600 114.479  0.00  0.00    -0.090 HD
ATOM     20  H   LIG d   1      -5.952  90.298 113.641  0.00  0.00    -0.090 HD
ATOM     21  H   LIG d   1      -6.277  89.529 115.051  0.00  0.00    -0.090 HD
ENDBRANCH   5  18
BRANCH   3  22
ATOM     22  C   LIG d   1      -7.650  94.169 116.037  0.00  0.00     0.382 C 
ATOM     23  O   LIG d   1      -7.498  95.304 116.549  0.00  0.00    -0.241 OA
ATOM     24  O   LIG d   1      -8.665  93.935 115.353  0.00  0.00    -0.241 OA
ENDBRANCH   3  22
TORSDOF 7
ENDMDL
MODEL 7
REMARK VINA RESULT:      -5.0      2.316      5.756
REMARK  7 active torsions:
REMARK  status: ('A' for Active; 'I' for Inactive)
REMARK    1  A    between atoms: C_2  and  C_3 
REMARK    2  A    between atoms: C_3  and  O_6 
REMARK    3  A    between atoms: C_3  and  C_4 
REMARK    4  A    between atoms: C_7  and  O_6 
REMARK    5  A    between atoms: C_9  and  C_10 
REMARK    6  A    between atoms: N_15  and  C_14 
REMARK    7  A    between atoms: N_20  and  C_19 
REMARK       I    between atoms: C_22  and  N_20 
ROOT
ATOM      1  C   LIG d   1      -5.437  90.933 117.489  0.00  0.00     0.161 C 
ATOM      2  C   LIG d   1      -6.449  91.826 117.101  0.00  0.00     0.016 C 
ATOM      3  C   LIG d   1      -6.238  93.214 116.929  0.00  0.00     0.038 C 
ATOM      4  C   LIG d   1      -4.957  93.782 116.988  0.00  0.00     0.028 C 
ATOM      5  C   LIG d   1      -3.988  93.003 117.872  0.00  0.00    -0.047 C 
ATOM      6  C   LIG d   1      -4.009  91.516 117.449  0.00  0.00     0.091 C 
ENDROOT
BRANCH   1   7
ATOM      7  O   LIG d   1      -5.511  89.735 116.691  0.00  0.00    -0.368 OA
BRANCH   7   8
ATOM      8  C   LIG d   1      -5.335  89.908 115.263  0.00  0.00     0.119 C 
BRANCH   8   9
ATOM      9  C   LIG d   1      -6.712  89.711 114.600  0.00  0.00     0.028 C 
ATOM     10  C   LIG d   1      -7.164  90.949 113.806  0.00  0.00     0.006 C 
ENDBRANCH   8   9
BRANCH   8  11
ATOM     11  C   LIG d   1      -4.442  88.812 114.674  0.00  0.00     0.028 C 
ATOM     12  C   LIG d   1      -3.535  88.153 115.726  0.00  0.00     0.006 C 
ENDBRANCH   8  11
ENDBRANCH   7   8
ENDBRANCH   1   7
BRANCH   6  13
ATOM     13  N   LIG d   1      -3.152  90.668 118.318  0.00  0.00    -0.311 N 
ATOM     14  C   LIG d   1      -1.864  90.433 118.073  0.00  0.00     0.210 C 
ATOM     15  C   LIG d   1      -1.171  89.515 119.085  0.00  0.00     0.109 C 
ATOM     16  O   LIG d   1      -1.222  90.924 117.133  0.00  0.00    -0.276 OA
ATOM     17  H   LIG d   1      -3.584  90.255 119.121  0.00  0.00     0.149 HD
ENDBRANCH   6  13
BRANCH   5  18
ATOM     18  N   LIG d   1      -2.658  93.625 117.733  0.00  0.00     0.381 N 
ATOM     19  H   LIG d   1      -2.592  94.090 116.849  0.00  0.00    -0.090 HD
ATOM     20  H   LIG d   1      -1.958  92.906 117.765  0.00  0.00    -0.090 HD
ATOM     21  H   LIG d   1      -2.509  94.278 118.471  0.00  0.00    -0.090 HD
ENDBRANCH   5  18
BRANCH   3  22
ATOM     22  C   LIG d   1      -7.323  94.055 116.735  0.00  0.00     0.382 C 
ATOM     23  O   LIG d   1      -7.246  95.264 117.063  0.00  0.00    -0.241 OA
ATOM     24  O   LIG d   1      -8.393  93.611 116.278  0.00  0.00    -0.241 OA
ENDBRANCH   3  22
TORSDOF 7
ENDMDL
MODEL 8
REMARK VINA RESULT:      -4.9      2.619      4.456
REMARK  7 active torsions:
REMARK  status: ('A' for Active; 'I' for Inactive)
REMARK    1  A    between atoms: C_2  and  C_3 
REMARK    2  A    between atoms: C_3  and  O_6 
REMARK    3  A    between atoms: C_3  and  C_4 
REMARK    4  A    between atoms: C_7  and  O_6 
REMARK    5  A    between atoms: C_9  and  C_10 
REMARK    6  A    between atoms: N_15  and  C_14 
REMARK    7  A    between atoms: N_20  and  C_19 
REMARK       I    between atoms: C_22  and  N_20 
ROOT
ATOM      1  C   LIG d   1      -4.421  92.198 116.873  0.00  0.00     0.161 C 
ATOM      2  C   LIG d   1      -5.769  92.070 116.499  0.00  0.00     0.016 C 
ATOM      3  C   LIG d   1      -6.328  90.871 116.001  0.00  0.00     0.038 C 
ATOM      4  C   LIG d   1      -5.608  89.668 115.985  0.00  0.00     0.028 C 
ATOM      5  C   LIG d   1      -4.100  89.866 115.878  0.00  0.00    -0.047 C 
ATOM      6  C   LIG d   1      -3.647  90.866 116.967  0.00  0.00     0.091 C 
ENDROOT
BRANCH   1   7
ATOM      7  O   LIG d   1      -4.324  92.922 118.115  0.00  0.00    -0.368 OA
BRANCH   7   8
ATOM      8  C   LIG d   1      -4.019  94.334 118.008  0.00  0.00     0.119 C 
BRANCH   8   9
ATOM      9  C   LIG d   1      -2.792  94.612 118.897  0.00  0.00     0.028 C 
ATOM     10  C   LIG d   1      -1.470  94.534 118.115  0.00  0.00     0.006 C 
ENDBRANCH   8   9
BRANCH   8  11
ATOM     11  C   LIG d   1      -5.145  95.193 118.591  0.00  0.00     0.028 C 
ATOM     12  C   LIG d   1      -6.104  94.392 119.486  0.00  0.00     0.006 C 
ENDBRANCH   8  11
ENDBRANCH   7   8
ENDBRANCH   1   7
BRANCH   6  13
ATOM     13  N   LIG d   1      -2.197  91.181 116.879  0.00  0.00    -0.311 N 
ATOM     14  C   LIG d   1      -1.269  90.572 117.614  0.00  0.00     0.210 C 
ATOM     15  C   LIG d   1       0.164  91.062 117.382  0.00  0.00     0.109 C 
ATOM     16  O   LIG d   1      -1.492  89.649 118.412  0.00  0.00    -0.276 OA
ATOM     17  H   LIG d   1      -1.924  91.896 116.233  0.00  0.00     0.149 HD
ENDBRANCH   6  13
BRANCH   5  18
ATOM     18  N   LIG d   1      -3.465  88.541 116.011  0.00  0.00     0.381 N 
ATOM     19  H   LIG d   1      -4.018  87.959 116.607  0.00  0.00    -0.090 HD
ATOM     20  H   LIG d   1      -2.560  88.655 116.432  0.00  0.00    -0.090 HD
ATOM     21  H   LIG d   1      -3.371  88.117 115.114  0.00  0.00    -0.090 HD
ENDBRANCH   5  18
BRANCH   3  22
ATOM     22  C   LIG d   1      -7.611  90.878 115.475  0.00  0.00     0.382 C 
ATOM     23  O   LIG d   1      -8.234  89.799 115.328  0.00  0.00    -0.241 OA
ATOM     24  O   LIG d   1      -8.137  91.945 115.105  0.00  0.00    -0.241 OA
ENDBRANCH   3  22
TORSDOF 7
ENDMDL
MODEL 9
REMARK VINA RESULT:      -4.8      2.516      4.076
REMARK  7 active torsions:
REMARK  status: ('A' for Active; 'I' for Inactive)
REMARK    1  A    between atoms: C_2  and  C_3 
REMARK    2  A    between atoms: C_3  and  O_6 
REMARK    3  A    between atoms: C_3  and  C_4 
REMARK    4  A    between atoms: C_7  and  O_6 
REMARK    5  A    between atoms: C_9  and  C_10 
REMARK    6  A    between atoms: N_15  and  C_14 
REMARK    7  A    between atoms: N_20  and  C_19 
REMARK       I    between atoms: C_22  and  N_20 
ROOT
ATOM      1  C   LIG d   1      -4.348  90.687 117.504  0.00  0.00     0.161 C 
ATOM      2  C   LIG d   1      -5.407  90.086 116.802  0.00  0.00     0.016 C 
ATOM      3  C   LIG d   1      -6.488  90.813 116.254  0.00  0.00     0.038 C 
ATOM      4  C   LIG d   1      -6.508  92.215 116.238  0.00  0.00     0.028 C 
ATOM      5  C   LIG d   1      -5.712  92.844 117.377  0.00  0.00    -0.047 C 
ATOM      6  C   LIG d   1      -4.295  92.226 117.401  0.00  0.00     0.091 C 
ENDROOT
BRANCH   1   7
ATOM      7  O   LIG d   1      -3.095  90.113 117.082  0.00  0.00    -0.368 OA
BRANCH   7   8
ATOM      8  C   LIG d   1      -2.469  89.197 118.013  0.00  0.00     0.119 C 
BRANCH   8   9
ATOM      9  C   LIG d   1      -1.210  89.890 118.570  0.00  0.00     0.028 C 
ATOM     10  C   LIG d   1      -0.524  90.788 117.526  0.00  0.00     0.006 C 
ENDBRANCH   8   9
BRANCH   8  11
ATOM     11  C   LIG d   1      -1.958  87.941 117.300  0.00  0.00     0.028 C 
ATOM     12  C   LIG d   1      -1.896  86.715 118.225  0.00  0.00     0.006 C 
ENDBRANCH   8  11
ENDBRANCH   7   8
ENDBRANCH   1   7
BRANCH   6  13
ATOM     13  N   LIG d   1      -3.478  92.725 118.537  0.00  0.00    -0.311 N 
ATOM     14  C   LIG d   1      -2.658  93.771 118.447  0.00  0.00     0.210 C 
ATOM     15  C   LIG d   1      -1.894  94.106 119.731  0.00  0.00     0.109 C 
ATOM     16  O   LIG d   1      -2.515  94.472 117.434  0.00  0.00    -0.276 OA
ATOM     17  H   LIG d   1      -3.556  92.233 119.406  0.00  0.00     0.149 HD
ENDBRANCH   6  13
BRANCH   5  18
ATOM     18  N   LIG d   1      -5.702  94.303 117.160  0.00  0.00     0.381 N 
ATOM     19  H   LIG d   1      -5.587  94.501 116.186  0.00  0.00    -0.090 HD
ATOM     20  H   LIG d   1      -4.923  94.700 117.656  0.00  0.00    -0.090 HD
ATOM     21  H   LIG d   1      -6.553  94.703 117.489  0.00  0.00    -0.090 HD
ENDBRANCH   5  18
BRANCH   3  22
ATOM     22  C   LIG d   1      -7.586  90.133 115.747  0.00  0.00     0.382 C 
ATOM     23  O   LIG d   1      -8.150  90.543 114.704  0.00  0.00    -0.241 OA
ATOM     24  O   LIG d   1      -8.046  89.142 116.345  0.00  0.00    -0.241 OA
ENDBRANCH   3  22
TORSDOF 7
ENDMDL
