MODEL 1
REMARK VINA RESULT:      -5.2      0.000      0.000
REMARK  7 active torsions:
REMARK  status: ('A' for Active; 'I' for Inactive)
REMARK    1  A    between atoms: C_2  and  C_3 
REMARK    2  A    between atoms: C_3  and  O_6 
REMARK    3  A    between atoms: C_3  and  C_4 
REMARK    4  A    between atoms: C_7  and  O_6 
REMARK    5  A    between atoms: C_9  and  C_10 
REMARK    6  A    between atoms: N_15  and  C_14 
REMARK    7  A    between atoms: N_20  and  C_19 
REMARK       I    between atoms: C_22  and  N_20 
ROOT
ATOM      1  C   LIG d   1      -5.574  77.252 116.347  0.00  0.00     0.161 C 
ATOM      2  C   LIG d   1      -6.886  76.875 116.680  0.00  0.00     0.016 C 
ATOM      3  C   LIG d   1      -7.714  77.624 117.548  0.00  0.00     0.038 C 
ATOM      4  C   LIG d   1      -7.338  78.888 118.025  0.00  0.00     0.028 C 
ATOM      5  C   LIG d   1      -5.827  79.073 118.122  0.00  0.00    -0.047 C 
ATOM      6  C   LIG d   1      -5.186  78.685 116.770  0.00  0.00     0.091 C 
ENDROOT
BRANCH   1   7
ATOM      7  O   LIG d   1      -5.358  77.071 114.934  0.00  0.00    -0.368 OA
BRANCH   7   8
ATOM      8  C   LIG d   1      -4.520  75.951 114.556  0.00  0.00     0.119 C 
BRANCH   8   9
ATOM      9  C   LIG d   1      -5.445  74.838 114.029  0.00  0.00     0.028 C 
ATOM     10  C   LIG d   1      -5.635  73.701 115.048  0.00  0.00     0.006 C 
ENDBRANCH   8   9
BRANCH   8  11
ATOM     11  C   LIG d   1      -3.812  75.349 115.773  0.00  0.00     0.028 C 
ATOM     12  C   LIG d   1      -2.283  75.480 115.699  0.00  0.00     0.006 C 
ENDBRANCH   8  11
ENDBRANCH   7   8
ENDBRANCH   1   7
BRANCH   6  13
ATOM     13  N   LIG d   1      -3.702  78.757 116.805  0.00  0.00    -0.311 N 
ATOM     14  C   LIG d   1      -2.978  79.404 115.893  0.00  0.00     0.210 C 
ATOM     15  C   LIG d   1      -1.462  79.337 116.105  0.00  0.00     0.109 C 
ATOM     16  O   LIG d   1      -3.449  80.055 114.948  0.00  0.00    -0.276 OA
ATOM     17  H   LIG d   1      -3.240  78.282 117.556  0.00  0.00     0.149 HD
ENDBRANCH   6  13
BRANCH   5  18
ATOM     18  N   LIG d   1      -5.574  80.476 118.500  0.00  0.00     0.381 N 
ATOM     19  H   LIG d   1      -5.006  80.917 117.804  0.00  0.00    -0.090 HD
ATOM     20  H   LIG d   1      -5.073  80.493 119.371  0.00  0.00    -0.090 HD
ATOM     21  H   LIG d   1      -6.436  80.965 118.594  0.00  0.00    -0.090 HD
ENDBRANCH   5  18
BRANCH   3  22
ATOM     22  C   LIG d   1      -8.919  77.089 117.978  0.00  0.00     0.382 C 
ATOM     23  O   LIG d   1      -9.099  75.848 117.953  0.00  0.00    -0.241 OA
ATOM     24  O   LIG d   1      -9.845  77.836 118.349  0.00  0.00    -0.241 OA
ENDBRANCH   3  22
TORSDOF 7
ENDMDL
MODEL 2
REMARK VINA RESULT:      -5.1     14.060     16.352
REMARK  7 active torsions:
REMARK  status: ('A' for Active; 'I' for Inactive)
REMARK    1  A    between atoms: C_2  and  C_3 
REMARK    2  A    between atoms: C_3  and  O_6 
REMARK    3  A    between atoms: C_3  and  C_4 
REMARK    4  A    between atoms: C_7  and  O_6 
REMARK    5  A    between atoms: C_9  and  C_10 
REMARK    6  A    between atoms: N_15  and  C_14 
REMARK    7  A    between atoms: N_20  and  C_19 
REMARK       I    between atoms: C_22  and  N_20 
ROOT
ATOM      1  C   LIG d   1      -6.421  93.182 118.070  0.00  0.00     0.161 C 
ATOM      2  C   LIG d   1      -7.201  92.237 117.383  0.00  0.00     0.016 C 
ATOM      3  C   LIG d   1      -6.667  91.073 116.786  0.00  0.00     0.038 C 
ATOM      4  C   LIG d   1      -5.328  90.694 116.967  0.00  0.00     0.028 C 
ATOM      5  C   LIG d   1      -4.396  91.872 117.226  0.00  0.00    -0.047 C 
ATOM      6  C   LIG d   1      -4.977  92.730 118.373  0.00  0.00     0.091 C 
ENDROOT
BRANCH   1   7
ATOM      7  O   LIG d   1      -7.088  93.576 119.285  0.00  0.00    -0.368 OA
BRANCH   7   8
ATOM      8  C   LIG d   1      -8.212  94.477 119.132  0.00  0.00     0.119 C 
BRANCH   8   9
ATOM      9  C   LIG d   1      -7.658  95.829 118.642  0.00  0.00     0.028 C 
ATOM     10  C   LIG d   1      -8.774  96.820 118.271  0.00  0.00     0.006 C 
ENDBRANCH   8   9
BRANCH   8  11
ATOM     11  C   LIG d   1      -8.875  94.775 120.480  0.00  0.00     0.028 C 
ATOM     12  C   LIG d   1     -10.325  94.274 120.555  0.00  0.00     0.006 C 
ENDBRANCH   8  11
ENDBRANCH   7   8
ENDBRANCH   1   7
BRANCH   6  13
ATOM     13  N   LIG d   1      -4.169  93.950 118.634  0.00  0.00    -0.311 N 
ATOM     14  C   LIG d   1      -3.186  94.000 119.531  0.00  0.00     0.210 C 
ATOM     15  C   LIG d   1      -2.494  95.360 119.657  0.00  0.00     0.109 C 
ATOM     16  O   LIG d   1      -2.800  93.037 120.212  0.00  0.00    -0.276 OA
ATOM     17  H   LIG d   1      -4.394  94.768 118.103  0.00  0.00     0.149 HD
ENDBRANCH   6  13
BRANCH   5  18
ATOM     18  N   LIG d   1      -3.061  91.325 117.532  0.00  0.00     0.381 N 
ATOM     19  H   LIG d   1      -3.129  90.341 117.701  0.00  0.00    -0.090 HD
ATOM     20  H   LIG d   1      -2.713  91.764 118.366  0.00  0.00    -0.090 HD
ATOM     21  H   LIG d   1      -2.439  91.497 116.773  0.00  0.00    -0.090 HD
ENDBRANCH   5  18
BRANCH   3  22
ATOM     22  C   LIG d   1      -7.467  90.293 115.964  0.00  0.00     0.382 C 
ATOM     23  O   LIG d   1      -7.163  90.140 114.756  0.00  0.00    -0.241 OA
ATOM     24  O   LIG d   1      -8.512  89.777 116.404  0.00  0.00    -0.241 OA
ENDBRANCH   3  22
TORSDOF 7
ENDMDL
MODEL 3
REMARK VINA RESULT:      -4.8      2.912      5.884
REMARK  7 active torsions:
REMARK  status: ('A' for Active; 'I' for Inactive)
REMARK    1  A    between atoms: C_2  and  C_3 
REMARK    2  A    between atoms: C_3  and  O_6 
REMARK    3  A    between atoms: C_3  and  C_4 
REMARK    4  A    between atoms: C_7  and  O_6 
REMARK    5  A    between atoms: C_9  and  C_10 
REMARK    6  A    between atoms: N_15  and  C_14 
REMARK    7  A    between atoms: N_20  and  C_19 
REMARK       I    between atoms: C_22  and  N_20 
ROOT
ATOM      1  C   LIG d   1      -3.027  76.741 116.403  0.00  0.00     0.161 C 
ATOM      2  C   LIG d   1      -3.065  77.920 115.640  0.00  0.00     0.016 C 
ATOM      3  C   LIG d   1      -1.928  78.479 115.014  0.00  0.00     0.038 C 
ATOM      4  C   LIG d   1      -0.695  77.810 114.983  0.00  0.00     0.028 C 
ATOM      5  C   LIG d   1      -0.486  76.869 116.164  0.00  0.00    -0.047 C 
ATOM      6  C   LIG d   1      -1.714  75.938 116.288  0.00  0.00     0.091 C 
ENDROOT
BRANCH   1   7
ATOM      7  O   LIG d   1      -4.154  75.907 116.072  0.00  0.00    -0.368 OA
BRANCH   7   8
ATOM      8  C   LIG d   1      -5.195  76.528 115.278  0.00  0.00     0.119 C 
BRANCH   8   9
ATOM      9  C   LIG d   1      -6.498  76.473 116.098  0.00  0.00     0.028 C 
ATOM     10  C   LIG d   1      -6.570  77.583 117.161  0.00  0.00     0.006 C 
ENDBRANCH   8   9
BRANCH   8  11
ATOM     11  C   LIG d   1      -5.482  75.724 114.006  0.00  0.00     0.028 C 
ATOM     12  C   LIG d   1      -5.390  74.206 114.228  0.00  0.00     0.006 C 
ENDBRANCH   8  11
ENDBRANCH   7   8
ENDBRANCH   1   7
BRANCH   6  13
ATOM     13  N   LIG d   1      -1.629  75.042 117.470  0.00  0.00    -0.311 N 
ATOM     14  C   LIG d   1      -1.116  73.813 117.424  0.00  0.00     0.210 C 
ATOM     15  C   LIG d   1      -1.143  73.051 118.752  0.00  0.00     0.109 C 
ATOM     16  O   LIG d   1      -0.612  73.295 116.416  0.00  0.00    -0.276 OA
ATOM     17  H   LIG d   1      -1.987  75.394 118.336  0.00  0.00     0.149 HD
ENDBRANCH   6  13
BRANCH   5  18
ATOM     18  N   LIG d   1       0.774  76.137 115.934  0.00  0.00     0.381 N 
ATOM     19  H   LIG d   1       1.082  75.716 116.787  0.00  0.00    -0.090 HD
ATOM     20  H   LIG d   1       1.477  76.787 115.631  0.00  0.00    -0.090 HD
ATOM     21  H   LIG d   1       0.638  75.436 115.239  0.00  0.00    -0.090 HD
ENDBRANCH   5  18
BRANCH   3  22
ATOM     22  C   LIG d   1      -2.007  79.740 114.444  0.00  0.00     0.382 C 
ATOM     23  O   LIG d   1      -3.114  80.326 114.370  0.00  0.00    -0.241 OA
ATOM     24  O   LIG d   1      -0.994  80.281 113.962  0.00  0.00    -0.241 OA
ENDBRANCH   3  22
TORSDOF 7
ENDMDL
MODEL 4
REMARK VINA RESULT:      -4.5      2.716      4.395
REMARK  7 active torsions:
REMARK  status: ('A' for Active; 'I' for Inactive)
REMARK    1  A    between atoms: C_2  and  C_3 
REMARK    2  A    between atoms: C_3  and  O_6 
REMARK    3  A    between atoms: C_3  and  C_4 
REMARK    4  A    between atoms: C_7  and  O_6 
REMARK    5  A    between atoms: C_9  and  C_10 
REMARK    6  A    between atoms: N_15  and  C_14 
REMARK    7  A    between atoms: N_20  and  C_19 
REMARK       I    between atoms: C_22  and  N_20 
ROOT
ATOM      1  C   LIG d   1      -6.568  78.814 117.895  0.00  0.00     0.161 C 
ATOM      2  C   LIG d   1      -6.701  77.438 117.643  0.00  0.00     0.016 C 
ATOM      3  C   LIG d   1      -7.904  76.722 117.847  0.00  0.00     0.038 C 
ATOM      4  C   LIG d   1      -9.105  77.369 118.175  0.00  0.00     0.028 C 
ATOM      5  C   LIG d   1      -8.902  78.679 118.928  0.00  0.00    -0.047 C 
ATOM      6  C   LIG d   1      -7.897  79.557 118.146  0.00  0.00     0.091 C 
ENDROOT
BRANCH   1   7
ATOM      7  O   LIG d   1      -5.841  79.439 116.819  0.00  0.00    -0.368 OA
BRANCH   7   8
ATOM      8  C   LIG d   1      -4.497  79.881 117.131  0.00  0.00     0.119 C 
BRANCH   8   9
ATOM      9  C   LIG d   1      -3.519  78.921 116.425  0.00  0.00     0.028 C 
ATOM     10  C   LIG d   1      -2.723  79.614 115.305  0.00  0.00     0.006 C 
ENDBRANCH   8   9
BRANCH   8  11
ATOM     11  C   LIG d   1      -4.196  79.738 118.626  0.00  0.00     0.028 C 
ATOM     12  C   LIG d   1      -2.993  80.583 119.075  0.00  0.00     0.006 C 
ENDBRANCH   8  11
ENDBRANCH   7   8
ENDBRANCH   1   7
BRANCH   6  13
ATOM     13  N   LIG d   1      -7.577  80.822 118.857  0.00  0.00    -0.311 N 
ATOM     14  C   LIG d   1      -7.528  82.009 118.255  0.00  0.00     0.210 C 
ATOM     15  C   LIG d   1      -7.160  83.182 119.168  0.00  0.00     0.109 C 
ATOM     16  O   LIG d   1      -7.785  82.206 117.058  0.00  0.00    -0.276 OA
ATOM     17  H   LIG d   1      -7.386  80.758 119.838  0.00  0.00     0.149 HD
ENDBRANCH   6  13
BRANCH   5  18
ATOM     18  N   LIG d   1     -10.224  79.313 119.084  0.00  0.00     0.381 N 
ATOM     19  H   LIG d   1     -10.233  79.879 119.909  0.00  0.00    -0.090 HD
ATOM     20  H   LIG d   1     -10.919  78.595 119.187  0.00  0.00    -0.090 HD
ATOM     21  H   LIG d   1     -10.430  79.872 118.286  0.00  0.00    -0.090 HD
ENDBRANCH   5  18
BRANCH   3  22
ATOM     22  C   LIG d   1      -7.903  75.338 117.761  0.00  0.00     0.382 C 
ATOM     23  O   LIG d   1      -7.182  74.764 116.910  0.00  0.00    -0.241 OA
ATOM     24  O   LIG d   1      -8.646  74.660 118.494  0.00  0.00    -0.241 OA
ENDBRANCH   3  22
TORSDOF 7
ENDMDL
MODEL 5
REMARK VINA RESULT:      -4.4     14.488     16.220
REMARK  7 active torsions:
REMARK  status: ('A' for Active; 'I' for Inactive)
REMARK    1  A    between atoms: C_2  and  C_3 
REMARK    2  A    between atoms: C_3  and  O_6 
REMARK    3  A    between atoms: C_3  and  C_4 
REMARK    4  A    between atoms: C_7  and  O_6 
REMARK    5  A    between atoms: C_9  and  C_10 
REMARK    6  A    between atoms: N_15  and  C_14 
REMARK    7  A    between atoms: N_20  and  C_19 
REMARK       I    between atoms: C_22  and  N_20 
ROOT
ATOM      1  C   LIG d   1      -6.729  92.833 119.545  0.00  0.00     0.161 C 
ATOM      2  C   LIG d   1      -7.998  93.374 119.279  0.00  0.00     0.016 C 
ATOM      3  C   LIG d   1      -8.222  94.747 119.030  0.00  0.00     0.038 C 
ATOM      4  C   LIG d   1      -7.163  95.656 118.880  0.00  0.00     0.028 C 
ATOM      5  C   LIG d   1      -5.905  95.250 119.639  0.00  0.00    -0.047 C 
ATOM      6  C   LIG d   1      -5.549  93.790 119.276  0.00  0.00     0.091 C 
ENDROOT
BRANCH   1   7
ATOM      7  O   LIG d   1      -6.557  91.605 118.810  0.00  0.00    -0.368 OA
BRANCH   7   8
ATOM      8  C   LIG d   1      -6.404  91.738 117.375  0.00  0.00     0.119 C 
BRANCH   8   9
ATOM      9  C   LIG d   1      -7.353  90.721 116.712  0.00  0.00     0.028 C 
ATOM     10  C   LIG d   1      -7.282  90.767 115.177  0.00  0.00     0.006 C 
ENDBRANCH   8   9
BRANCH   8  11
ATOM     11  C   LIG d   1      -4.997  91.334 116.925  0.00  0.00     0.028 C 
ATOM     12  C   LIG d   1      -4.281  90.434 117.945  0.00  0.00     0.006 C 
ENDBRANCH   8  11
ENDBRANCH   7   8
ENDBRANCH   1   7
BRANCH   6  13
ATOM     13  N   LIG d   1      -4.378  93.285 120.040  0.00  0.00    -0.311 N 
ATOM     14  C   LIG d   1      -3.122  93.387 119.608  0.00  0.00     0.210 C 
ATOM     15  C   LIG d   1      -2.067  92.784 120.541  0.00  0.00     0.109 C 
ATOM     16  O   LIG d   1      -2.779  93.948 118.557  0.00  0.00    -0.276 OA
ATOM     17  H   LIG d   1      -4.563  92.843 120.919  0.00  0.00     0.149 HD
ENDBRANCH   6  13
BRANCH   5  18
ATOM     18  N   LIG d   1      -4.842  96.209 119.285  0.00  0.00     0.381 N 
ATOM     19  H   LIG d   1      -4.190  96.286 120.040  0.00  0.00    -0.090 HD
ATOM     20  H   LIG d   1      -5.256  97.112 119.132  0.00  0.00    -0.090 HD
ATOM     21  H   LIG d   1      -4.371  95.907 118.460  0.00  0.00    -0.090 HD
ENDBRANCH   5  18
BRANCH   3  22
ATOM     22  C   LIG d   1      -9.520  95.232 118.967  0.00  0.00     0.382 C 
ATOM     23  O   LIG d   1     -10.367  94.866 119.817  0.00  0.00    -0.241 OA
ATOM     24  O   LIG d   1      -9.865  95.996 118.046  0.00  0.00    -0.241 OA
ENDBRANCH   3  22
TORSDOF 7
ENDMDL
MODEL 6
REMARK VINA RESULT:      -4.4     15.095     17.661
REMARK  7 active torsions:
REMARK  status: ('A' for Active; 'I' for Inactive)
REMARK    1  A    between atoms: C_2  and  C_3 
REMARK    2  A    between atoms: C_3  and  O_6 
REMARK    3  A    between atoms: C_3  and  C_4 
REMARK    4  A    between atoms: C_7  and  O_6 
REMARK    5  A    between atoms: C_9  and  C_10 
REMARK    6  A    between atoms: N_15  and  C_14 
REMARK    7  A    between atoms: N_20  and  C_19 
REMARK       I    between atoms: C_22  and  N_20 
ROOT
ATOM      1  C   LIG d   1     -16.390  64.276 115.740  0.00  0.00     0.161 C 
ATOM      2  C   LIG d   1     -16.208  65.593 115.285  0.00  0.00     0.016 C 
ATOM      3  C   LIG d   1     -15.496  66.575 116.012  0.00  0.00     0.038 C 
ATOM      4  C   LIG d   1     -14.786  66.264 117.180  0.00  0.00     0.028 C 
ATOM      5  C   LIG d   1     -15.360  65.072 117.939  0.00  0.00    -0.047 C 
ATOM      6  C   LIG d   1     -15.528  63.888 116.959  0.00  0.00     0.091 C 
ENDROOT
BRANCH   1   7
ATOM      7  O   LIG d   1     -16.172  63.351 114.656  0.00  0.00    -0.368 OA
BRANCH   7   8
ATOM      8  C   LIG d   1     -17.362  62.830 114.014  0.00  0.00     0.119 C 
BRANCH   8   9
ATOM      9  C   LIG d   1     -18.539  63.032 114.987  0.00  0.00     0.028 C 
ATOM     10  C   LIG d   1     -19.707  63.798 114.343  0.00  0.00     0.006 C 
ENDBRANCH   8   9
BRANCH   8  11
ATOM     11  C   LIG d   1     -17.264  61.315 113.806  0.00  0.00     0.028 C 
ATOM     12  C   LIG d   1     -17.572  60.517 115.082  0.00  0.00     0.006 C 
ENDBRANCH   8  11
ENDBRANCH   7   8
ENDBRANCH   1   7
BRANCH   6  13
ATOM     13  N   LIG d   1     -16.163  62.707 117.601  0.00  0.00    -0.311 N 
ATOM     14  C   LIG d   1     -15.473  61.667 118.068  0.00  0.00     0.210 C 
ATOM     15  C   LIG d   1     -16.324  60.547 118.673  0.00  0.00     0.109 C 
ATOM     16  O   LIG d   1     -14.236  61.582 118.067  0.00  0.00    -0.276 OA
ATOM     17  H   LIG d   1     -17.161  62.708 117.671  0.00  0.00     0.149 HD
ENDBRANCH   6  13
BRANCH   5  18
ATOM     18  N   LIG d   1     -14.445  64.772 119.056  0.00  0.00     0.381 N 
ATOM     19  H   LIG d   1     -13.553  64.493 118.698  0.00  0.00    -0.090 HD
ATOM     20  H   LIG d   1     -14.823  64.009 119.590  0.00  0.00    -0.090 HD
ATOM     21  H   LIG d   1     -14.341  65.574 119.637  0.00  0.00    -0.090 HD
ENDBRANCH   5  18
BRANCH   3  22
ATOM     22  C   LIG d   1     -15.525  67.896 115.591  0.00  0.00     0.382 C 
ATOM     23  O   LIG d   1     -16.353  68.696 116.090  0.00  0.00    -0.241 OA
ATOM     24  O   LIG d   1     -14.763  68.288 114.687  0.00  0.00    -0.241 OA
ENDBRANCH   3  22
TORSDOF 7
ENDMDL
MODEL 7
REMARK VINA RESULT:      -4.4     14.033     16.365
REMARK  7 active torsions:
REMARK  status: ('A' for Active; 'I' for Inactive)
REMARK    1  A    between atoms: C_2  and  C_3 
REMARK    2  A    between atoms: C_3  and  O_6 
REMARK    3  A    between atoms: C_3  and  C_4 
REMARK    4  A    between atoms: C_7  and  O_6 
REMARK    5  A    between atoms: C_9  and  C_10 
REMARK    6  A    between atoms: N_15  and  C_14 
REMARK    7  A    between atoms: N_20  and  C_19 
REMARK       I    between atoms: C_22  and  N_20 
ROOT
ATOM      1  C   LIG d   1      -6.104  93.031 118.358  0.00  0.00     0.161 C 
ATOM      2  C   LIG d   1      -6.787  92.859 117.142  0.00  0.00     0.016 C 
ATOM      3  C   LIG d   1      -6.410  91.908 116.166  0.00  0.00     0.038 C 
ATOM      4  C   LIG d   1      -5.410  90.954 116.407  0.00  0.00     0.028 C 
ATOM      5  C   LIG d   1      -4.362  91.417 117.414  0.00  0.00    -0.047 C 
ATOM      6  C   LIG d   1      -5.079  91.925 118.686  0.00  0.00     0.091 C 
ENDROOT
BRANCH   1   7
ATOM      7  O   LIG d   1      -7.051  93.171 119.435  0.00  0.00    -0.368 OA
BRANCH   7   8
ATOM      8  C   LIG d   1      -7.172  94.496 120.009  0.00  0.00     0.119 C 
BRANCH   8   9
ATOM      9  C   LIG d   1      -8.528  95.074 119.559  0.00  0.00     0.028 C 
ATOM     10  C   LIG d   1      -8.396  95.990 118.330  0.00  0.00     0.006 C 
ENDBRANCH   8   9
BRANCH   8  11
ATOM     11  C   LIG d   1      -6.116  95.448 119.441  0.00  0.00     0.028 C 
ATOM     12  C   LIG d   1      -5.212  96.052 120.527  0.00  0.00     0.006 C 
ENDBRANCH   8  11
ENDBRANCH   7   8
ENDBRANCH   1   7
BRANCH   6  13
ATOM     13  N   LIG d   1      -4.130  92.474 119.689  0.00  0.00    -0.311 N 
ATOM     14  C   LIG d   1      -3.066  93.208 119.368  0.00  0.00     0.210 C 
ATOM     15  C   LIG d   1      -2.208  93.658 120.554  0.00  0.00     0.109 C 
ATOM     16  O   LIG d   1      -2.769  93.555 118.215  0.00  0.00    -0.276 OA
ATOM     17  H   LIG d   1      -4.313  92.267 120.651  0.00  0.00     0.149 HD
ENDBRANCH   6  13
BRANCH   5  18
ATOM     18  N   LIG d   1      -3.461  90.278 117.674  0.00  0.00     0.381 N 
ATOM     19  H   LIG d   1      -3.047  89.972 116.816  0.00  0.00    -0.090 HD
ATOM     20  H   LIG d   1      -3.998  89.519 118.054  0.00  0.00    -0.090 HD
ATOM     21  H   LIG d   1      -2.749  90.547 118.317  0.00  0.00    -0.090 HD
ENDBRANCH   5  18
BRANCH   3  22
ATOM     22  C   LIG d   1      -7.012  91.930 114.917  0.00  0.00     0.382 C 
ATOM     23  O   LIG d   1      -7.738  90.974 114.553  0.00  0.00    -0.241 OA
ATOM     24  O   LIG d   1      -6.801  92.874 114.131  0.00  0.00    -0.241 OA
ENDBRANCH   3  22
TORSDOF 7
ENDMDL
MODEL 8
REMARK VINA RESULT:      -4.2     14.865     17.334
REMARK  7 active torsions:
REMARK  status: ('A' for Active; 'I' for Inactive)
REMARK    1  A    between atoms: C_2  and  C_3 
REMARK    2  A    between atoms: C_3  and  O_6 
REMARK    3  A    between atoms: C_3  and  C_4 
REMARK    4  A    between atoms: C_7  and  O_6 
REMARK    5  A    between atoms: C_9  and  C_10 
REMARK    6  A    between atoms: N_15  and  C_14 
REMARK    7  A    between atoms: N_20  and  C_19 
REMARK       I    between atoms: C_22  and  N_20 
ROOT
ATOM      1  C   LIG d   1     -17.920  66.045 116.943  0.00  0.00     0.161 C 
ATOM      2  C   LIG d   1     -18.779  65.053 117.442  0.00  0.00     0.016 C 
ATOM      3  C   LIG d   1     -18.705  63.694 117.059  0.00  0.00     0.038 C 
ATOM      4  C   LIG d   1     -17.660  63.205 116.260  0.00  0.00     0.028 C 
ATOM      5  C   LIG d   1     -17.067  64.257 115.329  0.00  0.00    -0.047 C 
ATOM      6  C   LIG d   1     -16.704  65.512 116.156  0.00  0.00     0.091 C 
ENDROOT
BRANCH   1   7
ATOM      7  O   LIG d   1     -17.484  66.900 118.018  0.00  0.00    -0.368 OA
BRANCH   7   8
ATOM      8  C   LIG d   1     -17.272  66.256 119.298  0.00  0.00     0.119 C 
BRANCH   8   9
ATOM      9  C   LIG d   1     -17.856  67.181 120.384  0.00  0.00     0.028 C 
ATOM     10  C   LIG d   1     -18.823  68.228 119.805  0.00  0.00     0.006 C 
ENDBRANCH   8   9
BRANCH   8  11
ATOM     11  C   LIG d   1     -15.780  66.141 119.624  0.00  0.00     0.028 C 
ATOM     12  C   LIG d   1     -15.243  64.710 119.462  0.00  0.00     0.006 C 
ENDBRANCH   8  11
ENDBRANCH   7   8
ENDBRANCH   1   7
BRANCH   6  13
ATOM     13  N   LIG d   1     -16.195  66.621 115.308  0.00  0.00    -0.311 N 
ATOM     14  C   LIG d   1     -15.031  67.232 115.521  0.00  0.00     0.210 C 
ATOM     15  C   LIG d   1     -14.705  68.364 114.542  0.00  0.00     0.109 C 
ATOM     16  O   LIG d   1     -14.222  66.921 116.408  0.00  0.00    -0.276 OA
ATOM     17  H   LIG d   1     -16.774  66.916 114.546  0.00  0.00     0.149 HD
ENDBRANCH   6  13
BRANCH   5  18
ATOM     18  N   LIG d   1     -15.902  63.651 114.657  0.00  0.00     0.381 N 
ATOM     19  H   LIG d   1     -16.149  63.387 113.724  0.00  0.00    -0.090 HD
ATOM     20  H   LIG d   1     -15.632  62.823 115.158  0.00  0.00    -0.090 HD
ATOM     21  H   LIG d   1     -15.145  64.298 114.637  0.00  0.00    -0.090 HD
ENDBRANCH   5  18
BRANCH   3  22
ATOM     22  C   LIG d   1     -19.705  62.815 117.445  0.00  0.00     0.382 C 
ATOM     23  O   LIG d   1     -19.655  61.613 117.091  0.00  0.00    -0.241 OA
ATOM     24  O   LIG d   1     -20.681  63.219 118.105  0.00  0.00    -0.241 OA
ENDBRANCH   3  22
TORSDOF 7
ENDMDL
MODEL 9
REMARK VINA RESULT:      -4.2     13.209     15.090
REMARK  7 active torsions:
REMARK  status: ('A' for Active; 'I' for Inactive)
REMARK    1  A    between atoms: C_2  and  C_3 
REMARK    2  A    between atoms: C_3  and  O_6 
REMARK    3  A    between atoms: C_3  and  C_4 
REMARK    4  A    between atoms: C_7  and  O_6 
REMARK    5  A    between atoms: C_9  and  C_10 
REMARK    6  A    between atoms: N_15  and  C_14 
REMARK    7  A    between atoms: N_20  and  C_19 
REMARK       I    between atoms: C_22  and  N_20 
ROOT
ATOM      1  C   LIG d   1      -6.636  91.443 118.727  0.00  0.00     0.161 C 
ATOM      2  C   LIG d   1      -7.571  92.491 118.691  0.00  0.00     0.016 C 
ATOM      3  C   LIG d   1      -7.232  93.844 118.922  0.00  0.00     0.038 C 
ATOM      4  C   LIG d   1      -5.899  94.262 119.056  0.00  0.00     0.028 C 
ATOM      5  C   LIG d   1      -4.976  93.178 119.601  0.00  0.00    -0.047 C 
ATOM      6  C   LIG d   1      -5.161  91.893 118.761  0.00  0.00     0.091 C 
ENDROOT
BRANCH   1   7
ATOM      7  O   LIG d   1      -6.862  90.550 117.619  0.00  0.00    -0.368 OA
BRANCH   7   8
ATOM      8  C   LIG d   1      -7.424  91.146 116.424  0.00  0.00     0.119 C 
BRANCH   8   9
ATOM      9  C   LIG d   1      -8.282  90.070 115.730  0.00  0.00     0.028 C 
ATOM     10  C   LIG d   1      -9.293  89.417 116.687  0.00  0.00     0.006 C 
ENDBRANCH   8   9
BRANCH   8  11
ATOM     11  C   LIG d   1      -6.331  91.507 115.414  0.00  0.00     0.028 C 
ATOM     12  C   LIG d   1      -6.844  92.406 114.277  0.00  0.00     0.006 C 
ENDBRANCH   8  11
ENDBRANCH   7   8
ENDBRANCH   1   7
BRANCH   6  13
ATOM     13  N   LIG d   1      -4.356  90.756 119.280  0.00  0.00    -0.311 N 
ATOM     14  C   LIG d   1      -3.179  90.398 118.768  0.00  0.00     0.210 C 
ATOM     15  C   LIG d   1      -2.526  89.185 119.439  0.00  0.00     0.109 C 
ATOM     16  O   LIG d   1      -2.600  90.988 117.844  0.00  0.00    -0.276 OA
ATOM     17  H   LIG d   1      -4.736  90.241 120.049  0.00  0.00     0.149 HD
ENDBRANCH   6  13
BRANCH   5  18
ATOM     18  N   LIG d   1      -3.598  93.703 119.559  0.00  0.00     0.381 N 
ATOM     19  H   LIG d   1      -3.617  94.703 119.558  0.00  0.00    -0.090 HD
ATOM     20  H   LIG d   1      -3.158  93.394 118.710  0.00  0.00    -0.090 HD
ATOM     21  H   LIG d   1      -3.084  93.374 120.347  0.00  0.00    -0.090 HD
ENDBRANCH   5  18
BRANCH   3  22
ATOM     22  C   LIG d   1      -8.236  94.790 119.061  0.00  0.00     0.382 C 
ATOM     23  O   LIG d   1      -8.973  95.070 118.085  0.00  0.00    -0.241 OA
ATOM     24  O   LIG d   1      -8.385  95.400 120.137  0.00  0.00    -0.241 OA
ENDBRANCH   3  22
TORSDOF 7
ENDMDL
