MODEL 1
REMARK VINA RESULT:      -5.4      0.000      0.000
REMARK  7 active torsions:
REMARK  status: ('A' for Active; 'I' for Inactive)
REMARK    1  A    between atoms: C_2  and  C_3 
REMARK    2  A    between atoms: C_3  and  O_6 
REMARK    3  A    between atoms: C_3  and  C_4 
REMARK    4  A    between atoms: C_7  and  O_6 
REMARK    5  A    between atoms: C_9  and  C_10 
REMARK    6  A    between atoms: N_15  and  C_14 
REMARK    7  A    between atoms: N_20  and  C_19 
REMARK       I    between atoms: C_22  and  N_20 
ROOT
ATOM      1  C   LIG d   1      -7.073  77.149 117.600  0.00  0.00     0.161 C 
ATOM      2  C   LIG d   1      -8.332  77.713 117.867  0.00  0.00     0.016 C 
ATOM      3  C   LIG d   1      -8.577  79.106 117.867  0.00  0.00     0.038 C 
ATOM      4  C   LIG d   1      -7.607  80.029 117.449  0.00  0.00     0.028 C 
ATOM      5  C   LIG d   1      -6.177  79.541 117.658  0.00  0.00    -0.047 C 
ATOM      6  C   LIG d   1      -6.030  78.135 117.034  0.00  0.00     0.091 C 
ENDROOT
BRANCH   1   7
ATOM      7  O   LIG d   1      -7.221  76.016 116.722  0.00  0.00    -0.368 OA
BRANCH   7   8
ATOM      8  C   LIG d   1      -6.872  74.726 117.281  0.00  0.00     0.119 C 
BRANCH   8   9
ATOM      9  C   LIG d   1      -5.829  74.084 116.346  0.00  0.00     0.028 C 
ATOM     10  C   LIG d   1      -5.698  74.834 115.009  0.00  0.00     0.006 C 
ENDBRANCH   8   9
BRANCH   8  11
ATOM     11  C   LIG d   1      -8.069  73.771 117.269  0.00  0.00     0.028 C 
ATOM     12  C   LIG d   1      -7.669  72.318 116.970  0.00  0.00     0.006 C 
ENDBRANCH   8  11
ENDBRANCH   7   8
ENDBRANCH   1   7
BRANCH   6  13
ATOM     13  N   LIG d   1      -4.684  77.549 117.268  0.00  0.00    -0.311 N 
ATOM     14  C   LIG d   1      -3.686  77.633 116.390  0.00  0.00     0.210 C 
ATOM     15  C   LIG d   1      -2.388  76.943 116.820  0.00  0.00     0.109 C 
ATOM     16  O   LIG d   1      -3.742  78.241 115.311  0.00  0.00    -0.276 OA
ATOM     17  H   LIG d   1      -4.542  77.064 118.132  0.00  0.00     0.149 HD
ENDBRANCH   6  13
BRANCH   5  18
ATOM     18  N   LIG d   1      -5.273  80.539 117.055  0.00  0.00     0.381 N 
ATOM     19  H   LIG d   1      -5.302  80.462 116.057  0.00  0.00    -0.090 HD
ATOM     20  H   LIG d   1      -4.334  80.353 117.359  0.00  0.00    -0.090 HD
ATOM     21  H   LIG d   1      -5.544  81.457 117.332  0.00  0.00    -0.090 HD
ENDBRANCH   5  18
BRANCH   3  22
ATOM     22  C   LIG d   1      -9.792  79.590 118.326  0.00  0.00     0.382 C 
ATOM     23  O   LIG d   1     -10.381  79.012 119.271  0.00  0.00    -0.241 OA
ATOM     24  O   LIG d   1     -10.329  80.572 117.778  0.00  0.00    -0.241 OA
ENDBRANCH   3  22
TORSDOF 7
ENDMDL
MODEL 2
REMARK VINA RESULT:      -5.0      1.975      3.083
REMARK  7 active torsions:
REMARK  status: ('A' for Active; 'I' for Inactive)
REMARK    1  A    between atoms: C_2  and  C_3 
REMARK    2  A    between atoms: C_3  and  O_6 
REMARK    3  A    between atoms: C_3  and  C_4 
REMARK    4  A    between atoms: C_7  and  O_6 
REMARK    5  A    between atoms: C_9  and  C_10 
REMARK    6  A    between atoms: N_15  and  C_14 
REMARK    7  A    between atoms: N_20  and  C_19 
REMARK       I    between atoms: C_22  and  N_20 
ROOT
ATOM      1  C   LIG d   1      -5.585  78.547 117.135  0.00  0.00     0.161 C 
ATOM      2  C   LIG d   1      -6.850  77.948 117.250  0.00  0.00     0.016 C 
ATOM      3  C   LIG d   1      -8.027  78.670 117.555  0.00  0.00     0.038 C 
ATOM      4  C   LIG d   1      -8.043  80.071 117.618  0.00  0.00     0.028 C 
ATOM      5  C   LIG d   1      -6.698  80.675 118.008  0.00  0.00    -0.047 C 
ATOM      6  C   LIG d   1      -5.600  80.089 117.090  0.00  0.00     0.091 C 
ENDROOT
BRANCH   1   7
ATOM      7  O   LIG d   1      -4.898  78.019 115.983  0.00  0.00    -0.368 OA
BRANCH   7   8
ATOM      8  C   LIG d   1      -4.519  76.622 116.051  0.00  0.00     0.119 C 
BRANCH   8   9
ATOM      9  C   LIG d   1      -3.032  76.564 116.450  0.00  0.00     0.028 C 
ATOM     10  C   LIG d   1      -2.148  75.980 115.335  0.00  0.00     0.006 C 
ENDBRANCH   8   9
BRANCH   8  11
ATOM     11  C   LIG d   1      -4.596  75.957 114.673  0.00  0.00     0.028 C 
ATOM     12  C   LIG d   1      -5.589  74.785 114.632  0.00  0.00     0.006 C 
ENDBRANCH   8  11
ENDBRANCH   7   8
ENDBRANCH   1   7
BRANCH   6  13
ATOM     13  N   LIG d   1      -4.241  80.563 117.459  0.00  0.00    -0.311 N 
ATOM     14  C   LIG d   1      -3.619  81.563 116.835  0.00  0.00     0.210 C 
ATOM     15  C   LIG d   1      -2.215  81.878 117.360  0.00  0.00     0.109 C 
ATOM     16  O   LIG d   1      -4.110  82.239 115.918  0.00  0.00    -0.276 OA
ATOM     17  H   LIG d   1      -3.782  80.091 118.213  0.00  0.00     0.149 HD
ENDBRANCH   6  13
BRANCH   5  18
ATOM     18  N   LIG d   1      -6.819  82.141 117.901  0.00  0.00     0.381 N 
ATOM     19  H   LIG d   1      -7.236  82.508 118.733  0.00  0.00    -0.090 HD
ATOM     20  H   LIG d   1      -7.418  82.362 117.124  0.00  0.00    -0.090 HD
ATOM     21  H   LIG d   1      -5.921  82.548 117.763  0.00  0.00    -0.090 HD
ENDBRANCH   5  18
BRANCH   3  22
ATOM     22  C   LIG d   1      -9.198  77.985 117.841  0.00  0.00     0.382 C 
ATOM     23  O   LIG d   1      -9.305  76.772 117.539  0.00  0.00    -0.241 OA
ATOM     24  O   LIG d   1     -10.166  78.576 118.358  0.00  0.00    -0.241 OA
ENDBRANCH   3  22
TORSDOF 7
ENDMDL
MODEL 3
REMARK VINA RESULT:      -5.0      2.629      5.543
REMARK  7 active torsions:
REMARK  status: ('A' for Active; 'I' for Inactive)
REMARK    1  A    between atoms: C_2  and  C_3 
REMARK    2  A    between atoms: C_3  and  O_6 
REMARK    3  A    between atoms: C_3  and  C_4 
REMARK    4  A    between atoms: C_7  and  O_6 
REMARK    5  A    between atoms: C_9  and  C_10 
REMARK    6  A    between atoms: N_15  and  C_14 
REMARK    7  A    between atoms: N_20  and  C_19 
REMARK       I    between atoms: C_22  and  N_20 
ROOT
ATOM      1  C   LIG d   1      -4.891  76.018 116.096  0.00  0.00     0.161 C 
ATOM      2  C   LIG d   1      -3.965  75.064 115.643  0.00  0.00     0.016 C 
ATOM      3  C   LIG d   1      -2.753  74.778 116.312  0.00  0.00     0.038 C 
ATOM      4  C   LIG d   1      -2.453  75.323 117.569  0.00  0.00     0.028 C 
ATOM      5  C   LIG d   1      -3.122  76.670 117.820  0.00  0.00    -0.047 C 
ATOM      6  C   LIG d   1      -4.633  76.543 117.524  0.00  0.00     0.091 C 
ENDROOT
BRANCH   1   7
ATOM      7  O   LIG d   1      -6.228  75.490 115.990  0.00  0.00    -0.368 OA
BRANCH   7   8
ATOM      8  C   LIG d   1      -6.652  74.608 117.057  0.00  0.00     0.119 C 
BRANCH   8   9
ATOM      9  C   LIG d   1      -6.758  73.187 116.469  0.00  0.00     0.028 C 
ATOM     10  C   LIG d   1      -7.867  72.357 117.137  0.00  0.00     0.006 C 
ENDBRANCH   8   9
BRANCH   8  11
ATOM     11  C   LIG d   1      -8.064  74.954 117.540  0.00  0.00     0.028 C 
ATOM     12  C   LIG d   1      -8.513  76.358 117.107  0.00  0.00     0.006 C 
ENDBRANCH   8  11
ENDBRANCH   7   8
ENDBRANCH   1   7
BRANCH   6  13
ATOM     13  N   LIG d   1      -5.350  77.838 117.663  0.00  0.00    -0.311 N 
ATOM     14  C   LIG d   1      -5.070  78.913 116.929  0.00  0.00     0.210 C 
ATOM     15  C   LIG d   1      -5.914  80.151 117.247  0.00  0.00     0.109 C 
ATOM     16  O   LIG d   1      -4.224  78.950 116.023  0.00  0.00    -0.276 OA
ATOM     17  H   LIG d   1      -6.073  77.887 118.354  0.00  0.00     0.149 HD
ENDBRANCH   6  13
BRANCH   5  18
ATOM     18  N   LIG d   1      -2.836  77.057 119.215  0.00  0.00     0.381 N 
ATOM     19  H   LIG d   1      -1.903  76.789 119.456  0.00  0.00    -0.090 HD
ATOM     20  H   LIG d   1      -3.471  76.570 119.823  0.00  0.00    -0.090 HD
ATOM     21  H   LIG d   1      -2.947  78.041 119.325  0.00  0.00    -0.090 HD
ENDBRANCH   5  18
BRANCH   3  22
ATOM     22  C   LIG d   1      -1.806  73.967 115.703  0.00  0.00     0.382 C 
ATOM     23  O   LIG d   1      -1.062  73.238 116.402  0.00  0.00    -0.241 OA
ATOM     24  O   LIG d   1      -1.658  73.989 114.466  0.00  0.00    -0.241 OA
ENDBRANCH   3  22
TORSDOF 7
ENDMDL
MODEL 4
REMARK VINA RESULT:      -4.9      3.138      5.491
REMARK  7 active torsions:
REMARK  status: ('A' for Active; 'I' for Inactive)
REMARK    1  A    between atoms: C_2  and  C_3 
REMARK    2  A    between atoms: C_3  and  O_6 
REMARK    3  A    between atoms: C_3  and  C_4 
REMARK    4  A    between atoms: C_7  and  O_6 
REMARK    5  A    between atoms: C_9  and  C_10 
REMARK    6  A    between atoms: N_15  and  C_14 
REMARK    7  A    between atoms: N_20  and  C_19 
REMARK       I    between atoms: C_22  and  N_20 
ROOT
ATOM      1  C   LIG d   1      -4.391  75.031 116.180  0.00  0.00     0.161 C 
ATOM      2  C   LIG d   1      -3.883  76.340 116.207  0.00  0.00     0.016 C 
ATOM      3  C   LIG d   1      -4.686  77.482 116.437  0.00  0.00     0.038 C 
ATOM      4  C   LIG d   1      -6.034  77.377 116.809  0.00  0.00     0.028 C 
ATOM      5  C   LIG d   1      -6.706  76.106 116.301  0.00  0.00    -0.047 C 
ATOM      6  C   LIG d   1      -5.839  74.888 116.694  0.00  0.00     0.091 C 
ENDROOT
BRANCH   1   7
ATOM      7  O   LIG d   1      -3.512  74.151 116.908  0.00  0.00    -0.368 OA
BRANCH   7   8
ATOM      8  C   LIG d   1      -2.165  74.637 117.130  0.00  0.00     0.119 C 
BRANCH   8   9
ATOM      9  C   LIG d   1      -1.198  73.637 116.467  0.00  0.00     0.028 C 
ATOM     10  C   LIG d   1      -1.201  73.746 114.933  0.00  0.00     0.006 C 
ENDBRANCH   8   9
BRANCH   8  11
ATOM     11  C   LIG d   1      -1.805  74.622 118.619  0.00  0.00     0.028 C 
ATOM     12  C   LIG d   1      -1.311  75.986 119.126  0.00  0.00     0.006 C 
ENDBRANCH   8  11
ENDBRANCH   7   8
ENDBRANCH   1   7
BRANCH   6  13
ATOM     13  N   LIG d   1      -6.381  73.611 116.162  0.00  0.00    -0.311 N 
ATOM     14  C   LIG d   1      -7.262  72.858 116.818  0.00  0.00     0.210 C 
ATOM     15  C   LIG d   1      -7.676  71.570 116.099  0.00  0.00     0.109 C 
ATOM     16  O   LIG d   1      -7.765  73.151 117.914  0.00  0.00    -0.276 OA
ATOM     17  H   LIG d   1      -6.051  73.313 115.265  0.00  0.00     0.149 HD
ENDBRANCH   6  13
BRANCH   5  18
ATOM     18  N   LIG d   1      -8.064  76.059 116.875  0.00  0.00     0.381 N 
ATOM     19  H   LIG d   1      -8.035  75.628 117.778  0.00  0.00    -0.090 HD
ATOM     20  H   LIG d   1      -8.650  75.503 116.279  0.00  0.00    -0.090 HD
ATOM     21  H   LIG d   1      -8.434  76.981 116.952  0.00  0.00    -0.090 HD
ENDBRANCH   5  18
BRANCH   3  22
ATOM     22  C   LIG d   1      -4.149  78.747 116.257  0.00  0.00     0.382 C 
ATOM     23  O   LIG d   1      -3.356  78.962 115.308  0.00  0.00    -0.241 OA
ATOM     24  O   LIG d   1      -4.411  79.665 117.057  0.00  0.00    -0.241 OA
ENDBRANCH   3  22
TORSDOF 7
ENDMDL
MODEL 5
REMARK VINA RESULT:      -4.9      1.444      2.264
REMARK  7 active torsions:
REMARK  status: ('A' for Active; 'I' for Inactive)
REMARK    1  A    between atoms: C_2  and  C_3 
REMARK    2  A    between atoms: C_3  and  O_6 
REMARK    3  A    between atoms: C_3  and  C_4 
REMARK    4  A    between atoms: C_7  and  O_6 
REMARK    5  A    between atoms: C_9  and  C_10 
REMARK    6  A    between atoms: N_15  and  C_14 
REMARK    7  A    between atoms: N_20  and  C_19 
REMARK       I    between atoms: C_22  and  N_20 
ROOT
ATOM      1  C   LIG d   1      -5.843  77.777 116.845  0.00  0.00     0.161 C 
ATOM      2  C   LIG d   1      -7.215  77.693 117.137  0.00  0.00     0.016 C 
ATOM      3  C   LIG d   1      -7.971  78.775 117.645  0.00  0.00     0.038 C 
ATOM      4  C   LIG d   1      -7.435  80.067 117.753  0.00  0.00     0.028 C 
ATOM      5  C   LIG d   1      -5.923  80.081 117.947  0.00  0.00    -0.047 C 
ATOM      6  C   LIG d   1      -5.268  79.209 116.852  0.00  0.00     0.091 C 
ENDROOT
BRANCH   1   7
ATOM      7  O   LIG d   1      -5.572  77.134 115.585  0.00  0.00    -0.368 OA
BRANCH   7   8
ATOM      8  C   LIG d   1      -4.793  75.914 115.646  0.00  0.00     0.119 C 
BRANCH   8   9
ATOM      9  C   LIG d   1      -5.708  74.757 115.203  0.00  0.00     0.028 C 
ATOM     10  C   LIG d   1      -6.241  73.940 116.392  0.00  0.00     0.006 C 
ENDBRANCH   8   9
BRANCH   8  11
ATOM     11  C   LIG d   1      -4.389  75.583 117.086  0.00  0.00     0.028 C 
ATOM     12  C   LIG d   1      -2.865  75.542 117.284  0.00  0.00     0.006 C 
ENDBRANCH   8  11
ENDBRANCH   7   8
ENDBRANCH   1   7
BRANCH   6  13
ATOM     13  N   LIG d   1      -3.795  79.100 117.019  0.00  0.00    -0.311 N 
ATOM     14  C   LIG d   1      -2.925  79.370 116.047  0.00  0.00     0.210 C 
ATOM     15  C   LIG d   1      -1.453  79.175 116.424  0.00  0.00     0.109 C 
ATOM     16  O   LIG d   1      -3.232  79.784 114.919  0.00  0.00    -0.276 OA
ATOM     17  H   LIG d   1      -3.458  78.802 117.913  0.00  0.00     0.149 HD
ENDBRANCH   6  13
BRANCH   5  18
ATOM     18  N   LIG d   1      -5.482  81.488 117.906  0.00  0.00     0.381 N 
ATOM     19  H   LIG d   1      -6.278  82.091 117.850  0.00  0.00    -0.090 HD
ATOM     20  H   LIG d   1      -4.921  81.629 117.084  0.00  0.00    -0.090 HD
ATOM     21  H   LIG d   1      -4.950  81.703 118.721  0.00  0.00    -0.090 HD
ENDBRANCH   5  18
BRANCH   3  22
ATOM     22  C   LIG d   1      -9.267  78.559 118.088  0.00  0.00     0.382 C 
ATOM     23  O   LIG d   1      -9.911  77.562 117.682  0.00  0.00    -0.241 OA
ATOM     24  O   LIG d   1      -9.816  79.374 118.854  0.00  0.00    -0.241 OA
ENDBRANCH   3  22
TORSDOF 7
ENDMDL
MODEL 6
REMARK VINA RESULT:      -4.9      2.476      4.843
REMARK  7 active torsions:
REMARK  status: ('A' for Active; 'I' for Inactive)
REMARK    1  A    between atoms: C_2  and  C_3 
REMARK    2  A    between atoms: C_3  and  O_6 
REMARK    3  A    between atoms: C_3  and  C_4 
REMARK    4  A    between atoms: C_7  and  O_6 
REMARK    5  A    between atoms: C_9  and  C_10 
REMARK    6  A    between atoms: N_15  and  C_14 
REMARK    7  A    between atoms: N_20  and  C_19 
REMARK       I    between atoms: C_22  and  N_20 
ROOT
ATOM      1  C   LIG d   1      -5.520  76.944 116.583  0.00  0.00     0.161 C 
ATOM      2  C   LIG d   1      -6.836  77.284 116.941  0.00  0.00     0.016 C 
ATOM      3  C   LIG d   1      -7.840  76.327 117.215  0.00  0.00     0.038 C 
ATOM      4  C   LIG d   1      -7.555  74.956 117.297  0.00  0.00     0.028 C 
ATOM      5  C   LIG d   1      -6.360  74.534 116.449  0.00  0.00    -0.047 C 
ATOM      6  C   LIG d   1      -5.162  75.455 116.776  0.00  0.00     0.091 C 
ENDROOT
BRANCH   1   7
ATOM      7  O   LIG d   1      -4.588  77.780 117.297  0.00  0.00    -0.368 OA
BRANCH   7   8
ATOM      8  C   LIG d   1      -4.092  78.937 116.580  0.00  0.00     0.119 C 
BRANCH   8   9
ATOM      9  C   LIG d   1      -2.617  78.667 116.229  0.00  0.00     0.028 C 
ATOM     10  C   LIG d   1      -2.432  78.232 114.765  0.00  0.00     0.006 C 
ENDBRANCH   8   9
BRANCH   8  11
ATOM     11  C   LIG d   1      -4.075  80.181 117.473  0.00  0.00     0.028 C 
ATOM     12  C   LIG d   1      -3.664  81.453 116.716  0.00  0.00     0.006 C 
ENDBRANCH   8  11
ENDBRANCH   7   8
ENDBRANCH   1   7
BRANCH   6  13
ATOM     13  N   LIG d   1      -3.976  75.165 115.930  0.00  0.00    -0.311 N 
ATOM     14  C   LIG d   1      -3.008  74.323 116.289  0.00  0.00     0.210 C 
ATOM     15  C   LIG d   1      -1.865  74.183 115.278  0.00  0.00     0.109 C 
ATOM     16  O   LIG d   1      -3.002  73.655 117.333  0.00  0.00    -0.276 OA
ATOM     17  H   LIG d   1      -3.915  75.640 115.051  0.00  0.00     0.149 HD
ENDBRANCH   6  13
BRANCH   5  18
ATOM     18  N   LIG d   1      -6.090  73.112 116.736  0.00  0.00     0.381 N 
ATOM     19  H   LIG d   1      -5.103  72.958 116.786  0.00  0.00    -0.090 HD
ATOM     20  H   LIG d   1      -6.458  72.554 115.985  0.00  0.00    -0.090 HD
ATOM     21  H   LIG d   1      -6.519  72.850 117.596  0.00  0.00    -0.090 HD
ENDBRANCH   5  18
BRANCH   3  22
ATOM     22  C   LIG d   1      -9.155  76.737 117.370  0.00  0.00     0.382 C 
ATOM     23  O   LIG d   1      -9.407  77.862 117.866  0.00  0.00    -0.241 OA
ATOM     24  O   LIG d   1     -10.094  75.978 117.063  0.00  0.00    -0.241 OA
ENDBRANCH   3  22
TORSDOF 7
ENDMDL
MODEL 7
REMARK VINA RESULT:      -4.6      2.650      6.261
REMARK  7 active torsions:
REMARK  status: ('A' for Active; 'I' for Inactive)
REMARK    1  A    between atoms: C_2  and  C_3 
REMARK    2  A    between atoms: C_3  and  O_6 
REMARK    3  A    between atoms: C_3  and  C_4 
REMARK    4  A    between atoms: C_7  and  O_6 
REMARK    5  A    between atoms: C_9  and  C_10 
REMARK    6  A    between atoms: N_15  and  C_14 
REMARK    7  A    between atoms: N_20  and  C_19 
REMARK       I    between atoms: C_22  and  N_20 
ROOT
ATOM      1  C   LIG d   1      -4.784  78.613 116.748  0.00  0.00     0.161 C 
ATOM      2  C   LIG d   1      -4.454  77.372 116.179  0.00  0.00     0.016 C 
ATOM      3  C   LIG d   1      -5.353  76.283 116.113  0.00  0.00     0.038 C 
ATOM      4  C   LIG d   1      -6.701  76.411 116.478  0.00  0.00     0.028 C 
ATOM      5  C   LIG d   1      -6.946  77.493 117.524  0.00  0.00    -0.047 C 
ATOM      6  C   LIG d   1      -6.285  78.808 117.050  0.00  0.00     0.091 C 
ENDROOT
BRANCH   1   7
ATOM      7  O   LIG d   1      -4.300  79.680 115.908  0.00  0.00    -0.368 OA
BRANCH   7   8
ATOM      8  C   LIG d   1      -2.998  80.217 116.248  0.00  0.00     0.119 C 
BRANCH   8   9
ATOM      9  C   LIG d   1      -3.213  81.645 116.787  0.00  0.00     0.028 C 
ATOM     10  C   LIG d   1      -1.892  82.415 116.954  0.00  0.00     0.006 C 
ENDBRANCH   8   9
BRANCH   8  11
ATOM     11  C   LIG d   1      -2.121  80.383 115.003  0.00  0.00     0.028 C 
ATOM     12  C   LIG d   1      -1.168  79.197 114.784  0.00  0.00     0.006 C 
ENDBRANCH   8  11
ENDBRANCH   7   8
ENDBRANCH   1   7
BRANCH   6  13
ATOM     13  N   LIG d   1      -6.404  79.896 118.055  0.00  0.00    -0.311 N 
ATOM     14  C   LIG d   1      -6.961  81.077 117.794  0.00  0.00     0.210 C 
ATOM     15  C   LIG d   1      -6.964  82.065 118.965  0.00  0.00     0.109 C 
ATOM     16  O   LIG d   1      -7.482  81.390 116.712  0.00  0.00    -0.276 OA
ATOM     17  H   LIG d   1      -6.035  79.717 118.968  0.00  0.00     0.149 HD
ENDBRANCH   6  13
BRANCH   5  18
ATOM     18  N   LIG d   1      -8.404  77.613 117.709  0.00  0.00     0.381 N 
ATOM     19  H   LIG d   1      -8.856  76.782 117.384  0.00  0.00    -0.090 HD
ATOM     20  H   LIG d   1      -8.738  78.388 117.164  0.00  0.00    -0.090 HD
ATOM     21  H   LIG d   1      -8.615  77.760 118.672  0.00  0.00    -0.090 HD
ENDBRANCH   5  18
BRANCH   3  22
ATOM     22  C   LIG d   1      -4.894  75.036 115.715  0.00  0.00     0.382 C 
ATOM     23  O   LIG d   1      -4.650  74.815 114.504  0.00  0.00    -0.241 OA
ATOM     24  O   LIG d   1      -4.764  74.116 116.545  0.00  0.00    -0.241 OA
ENDBRANCH   3  22
TORSDOF 7
ENDMDL
MODEL 8
REMARK VINA RESULT:      -4.6      2.297      5.299
REMARK  7 active torsions:
REMARK  status: ('A' for Active; 'I' for Inactive)
REMARK    1  A    between atoms: C_2  and  C_3 
REMARK    2  A    between atoms: C_3  and  O_6 
REMARK    3  A    between atoms: C_3  and  C_4 
REMARK    4  A    between atoms: C_7  and  O_6 
REMARK    5  A    between atoms: C_9  and  C_10 
REMARK    6  A    between atoms: N_15  and  C_14 
REMARK    7  A    between atoms: N_20  and  C_19 
REMARK       I    between atoms: C_22  and  N_20 
ROOT
ATOM      1  C   LIG d   1      -7.177  79.522 117.602  0.00  0.00     0.161 C 
ATOM      2  C   LIG d   1      -8.104  78.469 117.685  0.00  0.00     0.016 C 
ATOM      3  C   LIG d   1      -7.785  77.126 117.378  0.00  0.00     0.038 C 
ATOM      4  C   LIG d   1      -6.470  76.718 117.112  0.00  0.00     0.028 C 
ATOM      5  C   LIG d   1      -5.600  77.824 116.524  0.00  0.00    -0.047 C 
ATOM      6  C   LIG d   1      -5.710  79.079 117.421  0.00  0.00     0.091 C 
ENDROOT
BRANCH   1   7
ATOM      7  O   LIG d   1      -7.303  80.376 118.756  0.00  0.00    -0.368 OA
BRANCH   7   8
ATOM      8  C   LIG d   1      -7.552  81.778 118.488  0.00  0.00     0.119 C 
BRANCH   8   9
ATOM      9  C   LIG d   1      -6.782  82.595 119.543  0.00  0.00     0.028 C 
ATOM     10  C   LIG d   1      -5.650  81.787 120.200  0.00  0.00     0.006 C 
ENDBRANCH   8   9
BRANCH   8  11
ATOM     11  C   LIG d   1      -9.027  82.132 118.697  0.00  0.00     0.028 C 
ATOM     12  C   LIG d   1      -9.801  82.264 117.376  0.00  0.00     0.006 C 
ENDBRANCH   8  11
ENDBRANCH   7   8
ENDBRANCH   1   7
BRANCH   6  13
ATOM     13  N   LIG d   1      -4.956  80.236 116.872  0.00  0.00    -0.311 N 
ATOM     14  C   LIG d   1      -3.716  80.548 117.247  0.00  0.00     0.210 C 
ATOM     15  C   LIG d   1      -3.130  81.791 116.572  0.00  0.00     0.109 C 
ATOM     16  O   LIG d   1      -3.035  79.894 118.052  0.00  0.00    -0.276 OA
ATOM     17  H   LIG d   1      -5.422  80.802 116.190  0.00  0.00     0.149 HD
ENDBRANCH   6  13
BRANCH   5  18
ATOM     18  N   LIG d   1      -4.223  77.304 116.425  0.00  0.00     0.381 N 
ATOM     19  H   LIG d   1      -3.676  77.644 117.190  0.00  0.00    -0.090 HD
ATOM     20  H   LIG d   1      -3.811  77.636 115.570  0.00  0.00    -0.090 HD
ATOM     21  H   LIG d   1      -4.234  76.308 116.432  0.00  0.00    -0.090 HD
ENDBRANCH   5  18
BRANCH   3  22
ATOM     22  C   LIG d   1      -8.797  76.181 117.297  0.00  0.00     0.382 C 
ATOM     23  O   LIG d   1      -9.996  76.549 117.256  0.00  0.00    -0.241 OA
ATOM     24  O   LIG d   1      -8.528  74.965 117.310  0.00  0.00    -0.241 OA
ENDBRANCH   3  22
TORSDOF 7
ENDMDL
MODEL 9
REMARK VINA RESULT:      -4.6      2.893      4.981
REMARK  7 active torsions:
REMARK  status: ('A' for Active; 'I' for Inactive)
REMARK    1  A    between atoms: C_2  and  C_3 
REMARK    2  A    between atoms: C_3  and  O_6 
REMARK    3  A    between atoms: C_3  and  C_4 
REMARK    4  A    between atoms: C_7  and  O_6 
REMARK    5  A    between atoms: C_9  and  C_10 
REMARK    6  A    between atoms: N_15  and  C_14 
REMARK    7  A    between atoms: N_20  and  C_19 
REMARK       I    between atoms: C_22  and  N_20 
ROOT
ATOM      1  C   LIG d   1      -5.413  74.849 117.093  0.00  0.00     0.161 C 
ATOM      2  C   LIG d   1      -6.168  73.697 116.814  0.00  0.00     0.016 C 
ATOM      3  C   LIG d   1      -7.579  73.656 116.886  0.00  0.00     0.038 C 
ATOM      4  C   LIG d   1      -8.345  74.811 117.098  0.00  0.00     0.028 C 
ATOM      5  C   LIG d   1      -7.608  75.891 117.883  0.00  0.00    -0.047 C 
ATOM      6  C   LIG d   1      -6.237  76.148 117.217  0.00  0.00     0.091 C 
ENDROOT
BRANCH   1   7
ATOM      7  O   LIG d   1      -4.377  75.006 116.104  0.00  0.00    -0.368 OA
BRANCH   7   8
ATOM      8  C   LIG d   1      -3.126  74.329 116.378  0.00  0.00     0.119 C 
BRANCH   8   9
ATOM      9  C   LIG d   1      -2.666  74.758 117.785  0.00  0.00     0.028 C 
ATOM     10  C   LIG d   1      -1.764  76.003 117.754  0.00  0.00     0.006 C 
ENDBRANCH   8   9
BRANCH   8  11
ATOM     11  C   LIG d   1      -2.018  74.798 115.430  0.00  0.00     0.028 C 
ATOM     12  C   LIG d   1      -1.141  73.643 114.921  0.00  0.00     0.006 C 
ENDBRANCH   8  11
ENDBRANCH   7   8
ENDBRANCH   1   7
BRANCH   6  13
ATOM     13  N   LIG d   1      -5.416  77.131 117.971  0.00  0.00    -0.311 N 
ATOM     14  C   LIG d   1      -4.789  78.156 117.397  0.00  0.00     0.210 C 
ATOM     15  C   LIG d   1      -3.980  79.037 118.354  0.00  0.00     0.109 C 
ATOM     16  O   LIG d   1      -4.852  78.438 116.191  0.00  0.00    -0.276 OA
ATOM     17  H   LIG d   1      -5.336  76.995 118.960  0.00  0.00     0.149 HD
ENDBRANCH   6  13
BRANCH   5  18
ATOM     18  N   LIG d   1      -8.470  77.088 117.912  0.00  0.00     0.381 N 
ATOM     19  H   LIG d   1      -9.221  76.980 117.260  0.00  0.00    -0.090 HD
ATOM     20  H   LIG d   1      -7.926  77.887 117.637  0.00  0.00    -0.090 HD
ATOM     21  H   LIG d   1      -8.834  77.225 118.829  0.00  0.00    -0.090 HD
ENDBRANCH   5  18
BRANCH   3  22
ATOM     22  C   LIG d   1      -8.237  72.439 116.786  0.00  0.00     0.382 C 
ATOM     23  O   LIG d   1      -7.602  71.409 116.453  0.00  0.00    -0.241 OA
ATOM     24  O   LIG d   1      -9.465  72.366 116.980  0.00  0.00    -0.241 OA
ENDBRANCH   3  22
TORSDOF 7
ENDMDL
