MODEL 1
REMARK VINA RESULT:      -5.6      0.000      0.000
REMARK  7 active torsions:
REMARK  status: ('A' for Active; 'I' for Inactive)
REMARK    1  A    between atoms: C_2  and  C_3 
REMARK    2  A    between atoms: C_3  and  O_6 
REMARK    3  A    between atoms: C_3  and  C_4 
REMARK    4  A    between atoms: C_7  and  O_6 
REMARK    5  A    between atoms: C_9  and  C_10 
REMARK    6  A    between atoms: N_15  and  C_14 
REMARK    7  A    between atoms: N_20  and  C_19 
REMARK       I    between atoms: C_22  and  N_20 
ROOT
ATOM      1  C   LIG d   1      -8.646  75.161 117.528  0.00  0.00     0.161 C 
ATOM      2  C   LIG d   1      -8.551  73.805 117.172  0.00  0.00     0.016 C 
ATOM      3  C   LIG d   1      -7.320  73.132 116.997  0.00  0.00     0.038 C 
ATOM      4  C   LIG d   1      -6.093  73.734 117.314  0.00  0.00     0.028 C 
ATOM      5  C   LIG d   1      -6.115  75.254 117.191  0.00  0.00    -0.047 C 
ATOM      6  C   LIG d   1      -7.321  75.805 117.986  0.00  0.00     0.091 C 
ENDROOT
BRANCH   1   7
ATOM      7  O   LIG d   1      -9.661  75.332 118.537  0.00  0.00    -0.368 OA
BRANCH   7   8
ATOM      8  C   LIG d   1     -10.809  76.130 118.158  0.00  0.00     0.119 C 
BRANCH   8   9
ATOM      9  C   LIG d   1     -11.125  77.075 119.333  0.00  0.00     0.028 C 
ATOM     10  C   LIG d   1     -10.658  78.517 119.068  0.00  0.00     0.006 C 
ENDBRANCH   8   9
BRANCH   8  11
ATOM     11  C   LIG d   1     -12.060  75.262 117.989  0.00  0.00     0.028 C 
ATOM     12  C   LIG d   1     -12.928  75.215 119.256  0.00  0.00     0.006 C 
ENDBRANCH   8  11
ENDBRANCH   7   8
ENDBRANCH   1   7
BRANCH   6  13
ATOM     13  N   LIG d   1      -7.465  77.278 117.849  0.00  0.00    -0.311 N 
ATOM     14  C   LIG d   1      -6.935  78.149 118.707  0.00  0.00     0.210 C 
ATOM     15  C   LIG d   1      -7.220  79.620 118.392  0.00  0.00     0.109 C 
ATOM     16  O   LIG d   1      -6.229  77.843 119.680  0.00  0.00    -0.276 OA
ATOM     17  H   LIG d   1      -7.996  77.614 117.070  0.00  0.00     0.149 HD
ENDBRANCH   6  13
BRANCH   5  18
ATOM     18  N   LIG d   1      -4.819  75.759 117.682  0.00  0.00     0.381 N 
ATOM     19  H   LIG d   1      -4.072  75.295 117.205  0.00  0.00    -0.090 HD
ATOM     20  H   LIG d   1      -4.742  75.556 118.663  0.00  0.00    -0.090 HD
ATOM     21  H   LIG d   1      -4.758  76.742 117.533  0.00  0.00    -0.090 HD
ENDBRANCH   5  18
BRANCH   3  22
ATOM     22  C   LIG d   1      -7.307  71.853 116.460  0.00  0.00     0.382 C 
ATOM     23  O   LIG d   1      -7.853  70.908 117.079  0.00  0.00    -0.241 OA
ATOM     24  O   LIG d   1      -6.718  71.625 115.387  0.00  0.00    -0.241 OA
ENDBRANCH   3  22
TORSDOF 7
ENDMDL
MODEL 2
REMARK VINA RESULT:      -5.4      2.082      4.507
REMARK  7 active torsions:
REMARK  status: ('A' for Active; 'I' for Inactive)
REMARK    1  A    between atoms: C_2  and  C_3 
REMARK    2  A    between atoms: C_3  and  O_6 
REMARK    3  A    between atoms: C_3  and  C_4 
REMARK    4  A    between atoms: C_7  and  O_6 
REMARK    5  A    between atoms: C_9  and  C_10 
REMARK    6  A    between atoms: N_15  and  C_14 
REMARK    7  A    between atoms: N_20  and  C_19 
REMARK       I    between atoms: C_22  and  N_20 
ROOT
ATOM      1  C   LIG d   1      -6.897  75.312 117.457  0.00  0.00     0.161 C 
ATOM      2  C   LIG d   1      -6.705  74.039 116.895  0.00  0.00     0.016 C 
ATOM      3  C   LIG d   1      -7.726  73.066 116.804  0.00  0.00     0.038 C 
ATOM      4  C   LIG d   1      -9.058  73.356 117.135  0.00  0.00     0.028 C 
ATOM      5  C   LIG d   1      -9.196  74.461 118.177  0.00  0.00    -0.047 C 
ATOM      6  C   LIG d   1      -8.371  75.686 117.722  0.00  0.00     0.091 C 
ENDROOT
BRANCH   1   7
ATOM      7  O   LIG d   1      -6.268  76.312 116.631  0.00  0.00    -0.368 OA
BRANCH   7   8
ATOM      8  C   LIG d   1      -4.889  76.060 116.265  0.00  0.00     0.119 C 
BRANCH   8   9
ATOM      9  C   LIG d   1      -4.043  77.223 116.818  0.00  0.00     0.028 C 
ATOM     10  C   LIG d   1      -4.907  78.402 117.295  0.00  0.00     0.006 C 
ENDBRANCH   8   9
BRANCH   8  11
ATOM     11  C   LIG d   1      -4.698  76.105 114.746  0.00  0.00     0.028 C 
ATOM     12  C   LIG d   1      -4.596  74.707 114.116  0.00  0.00     0.006 C 
ENDBRANCH   8  11
ENDBRANCH   7   8
ENDBRANCH   1   7
BRANCH   6  13
ATOM     13  N   LIG d   1      -8.383  76.782 118.726  0.00  0.00    -0.311 N 
ATOM     14  C   LIG d   1      -9.330  77.717 118.779  0.00  0.00     0.210 C 
ATOM     15  C   LIG d   1      -9.142  78.767 119.879  0.00  0.00     0.109 C 
ATOM     16  O   LIG d   1     -10.326  77.757 118.041  0.00  0.00    -0.276 OA
ATOM     17  H   LIG d   1      -7.628  76.807 119.384  0.00  0.00     0.149 HD
ENDBRANCH   6  13
BRANCH   5  18
ATOM     18  N   LIG d   1     -10.634  74.756 118.326  0.00  0.00     0.381 N 
ATOM     19  H   LIG d   1     -10.760  75.510 118.972  0.00  0.00    -0.090 HD
ATOM     20  H   LIG d   1     -11.096  73.944 118.696  0.00  0.00    -0.090 HD
ATOM     21  H   LIG d   1     -11.026  74.996 117.443  0.00  0.00    -0.090 HD
ENDBRANCH   5  18
BRANCH   3  22
ATOM     22  C   LIG d   1      -7.411  71.773 116.415  0.00  0.00     0.382 C 
ATOM     23  O   LIG d   1      -7.890  70.796 117.040  0.00  0.00    -0.241 OA
ATOM     24  O   LIG d   1      -6.619  71.572 115.475  0.00  0.00    -0.241 OA
ENDBRANCH   3  22
TORSDOF 7
ENDMDL
MODEL 3
REMARK VINA RESULT:      -5.2      2.428      5.592
REMARK  7 active torsions:
REMARK  status: ('A' for Active; 'I' for Inactive)
REMARK    1  A    between atoms: C_2  and  C_3 
REMARK    2  A    between atoms: C_3  and  O_6 
REMARK    3  A    between atoms: C_3  and  C_4 
REMARK    4  A    between atoms: C_7  and  O_6 
REMARK    5  A    between atoms: C_9  and  C_10 
REMARK    6  A    between atoms: N_15  and  C_14 
REMARK    7  A    between atoms: N_20  and  C_19 
REMARK       I    between atoms: C_22  and  N_20 
ROOT
ATOM      1  C   LIG d   1      -9.080  77.451 118.375  0.00  0.00     0.161 C 
ATOM      2  C   LIG d   1      -9.854  78.549 118.785  0.00  0.00     0.016 C 
ATOM      3  C   LIG d   1      -9.359  79.872 118.844  0.00  0.00     0.038 C 
ATOM      4  C   LIG d   1      -8.091  80.212 118.350  0.00  0.00     0.028 C 
ATOM      5  C   LIG d   1      -7.094  79.059 118.397  0.00  0.00    -0.047 C 
ATOM      6  C   LIG d   1      -7.729  77.819 117.727  0.00  0.00     0.091 C 
ENDROOT
BRANCH   1   7
ATOM      7  O   LIG d   1      -9.849  76.614 117.490  0.00  0.00    -0.368 OA
BRANCH   7   8
ATOM      8  C   LIG d   1     -10.307  75.355 118.041  0.00  0.00     0.119 C 
BRANCH   8   9
ATOM      9  C   LIG d   1      -9.624  74.225 117.246  0.00  0.00     0.028 C 
ATOM     10  C   LIG d   1      -8.823  73.273 118.150  0.00  0.00     0.006 C 
ENDBRANCH   8   9
BRANCH   8  11
ATOM     11  C   LIG d   1     -11.809  75.160 117.812  0.00  0.00     0.028 C 
ATOM     12  C   LIG d   1     -12.634  75.328 119.098  0.00  0.00     0.006 C 
ENDBRANCH   8  11
ENDBRANCH   7   8
ENDBRANCH   1   7
BRANCH   6  13
ATOM     13  N   LIG d   1      -6.852  76.621 117.804  0.00  0.00    -0.311 N 
ATOM     14  C   LIG d   1      -6.013  76.263 116.834  0.00  0.00     0.210 C 
ATOM     15  C   LIG d   1      -5.216  74.984 117.108  0.00  0.00     0.109 C 
ATOM     16  O   LIG d   1      -5.830  76.900 115.785  0.00  0.00    -0.276 OA
ATOM     17  H   LIG d   1      -6.913  76.064 118.634  0.00  0.00     0.149 HD
ENDBRANCH   6  13
BRANCH   5  18
ATOM     18  N   LIG d   1      -5.860  79.510 117.726  0.00  0.00     0.381 N 
ATOM     19  H   LIG d   1      -5.971  79.448 116.734  0.00  0.00    -0.090 HD
ATOM     20  H   LIG d   1      -5.103  78.906 117.997  0.00  0.00    -0.090 HD
ATOM     21  H   LIG d   1      -5.654  80.449 117.987  0.00  0.00    -0.090 HD
ENDBRANCH   5  18
BRANCH   3  22
ATOM     22  C   LIG d   1     -10.122  80.865 119.440  0.00  0.00     0.382 C 
ATOM     23  O   LIG d   1     -10.252  81.978 118.876  0.00  0.00    -0.241 OA
ATOM     24  O   LIG d   1     -10.644  80.677 120.555  0.00  0.00    -0.241 OA
ENDBRANCH   3  22
TORSDOF 7
ENDMDL
MODEL 4
REMARK VINA RESULT:      -5.1      2.361      6.192
REMARK  7 active torsions:
REMARK  status: ('A' for Active; 'I' for Inactive)
REMARK    1  A    between atoms: C_2  and  C_3 
REMARK    2  A    between atoms: C_3  and  O_6 
REMARK    3  A    between atoms: C_3  and  C_4 
REMARK    4  A    between atoms: C_7  and  O_6 
REMARK    5  A    between atoms: C_9  and  C_10 
REMARK    6  A    between atoms: N_15  and  C_14 
REMARK    7  A    between atoms: N_20  and  C_19 
REMARK       I    between atoms: C_22  and  N_20 
ROOT
ATOM      1  C   LIG d   1      -7.554  75.961 117.699  0.00  0.00     0.161 C 
ATOM      2  C   LIG d   1      -7.843  77.303 117.996  0.00  0.00     0.016 C 
ATOM      3  C   LIG d   1      -9.153  77.787 118.218  0.00  0.00     0.038 C 
ATOM      4  C   LIG d   1     -10.256  76.925 118.306  0.00  0.00     0.028 C 
ATOM      5  C   LIG d   1     -10.082  75.634 117.513  0.00  0.00    -0.047 C 
ATOM      6  C   LIG d   1      -8.733  74.986 117.901  0.00  0.00     0.091 C 
ENDROOT
BRANCH   1   7
ATOM      7  O   LIG d   1      -6.409  75.527 118.459  0.00  0.00    -0.368 OA
BRANCH   7   8
ATOM      8  C   LIG d   1      -5.192  75.304 117.707  0.00  0.00     0.119 C 
BRANCH   8   9
ATOM      9  C   LIG d   1      -4.215  76.443 118.058  0.00  0.00     0.028 C 
ATOM     10  C   LIG d   1      -4.180  77.539 116.981  0.00  0.00     0.006 C 
ENDBRANCH   8   9
BRANCH   8  11
ATOM     11  C   LIG d   1      -5.436  75.430 116.200  0.00  0.00     0.028 C 
ATOM     12  C   LIG d   1      -5.182  74.117 115.443  0.00  0.00     0.006 C 
ENDBRANCH   8  11
ENDBRANCH   7   8
ENDBRANCH   1   7
BRANCH   6  13
ATOM     13  N   LIG d   1      -8.445  73.761 117.109  0.00  0.00    -0.311 N 
ATOM     14  C   LIG d   1      -7.955  72.643 117.641  0.00  0.00     0.210 C 
ATOM     15  C   LIG d   1      -7.713  71.505 116.645  0.00  0.00     0.109 C 
ATOM     16  O   LIG d   1      -7.730  72.474 118.849  0.00  0.00    -0.276 OA
ATOM     17  H   LIG d   1      -8.629  73.800 116.126  0.00  0.00     0.149 HD
ENDBRANCH   6  13
BRANCH   5  18
ATOM     18  N   LIG d   1     -11.243  74.772 117.805  0.00  0.00     0.381 N 
ATOM     19  H   LIG d   1     -11.529  74.899 118.755  0.00  0.00    -0.090 HD
ATOM     20  H   LIG d   1     -10.974  73.812 117.682  0.00  0.00    -0.090 HD
ATOM     21  H   LIG d   1     -11.995  74.995 117.191  0.00  0.00    -0.090 HD
ENDBRANCH   5  18
BRANCH   3  22
ATOM     22  C   LIG d   1      -9.374  79.152 118.314  0.00  0.00     0.382 C 
ATOM     23  O   LIG d   1     -10.526  79.585 118.558  0.00  0.00    -0.241 OA
ATOM     24  O   LIG d   1      -8.445  79.958 118.115  0.00  0.00    -0.241 OA
ENDBRANCH   3  22
TORSDOF 7
ENDMDL
MODEL 5
REMARK VINA RESULT:      -5.1     10.769     13.368
REMARK  7 active torsions:
REMARK  status: ('A' for Active; 'I' for Inactive)
REMARK    1  A    between atoms: C_2  and  C_3 
REMARK    2  A    between atoms: C_3  and  O_6 
REMARK    3  A    between atoms: C_3  and  C_4 
REMARK    4  A    between atoms: C_7  and  O_6 
REMARK    5  A    between atoms: C_9  and  C_10 
REMARK    6  A    between atoms: N_15  and  C_14 
REMARK    7  A    between atoms: N_20  and  C_19 
REMARK       I    between atoms: C_22  and  N_20 
ROOT
ATOM      1  C   LIG d   1     -15.753  65.279 117.201  0.00  0.00     0.161 C 
ATOM      2  C   LIG d   1     -14.718  66.153 116.829  0.00  0.00     0.016 C 
ATOM      3  C   LIG d   1     -14.939  67.478 116.388  0.00  0.00     0.038 C 
ATOM      4  C   LIG d   1     -16.209  68.072 116.433  0.00  0.00     0.028 C 
ATOM      5  C   LIG d   1     -17.352  67.068 116.322  0.00  0.00    -0.047 C 
ATOM      6  C   LIG d   1     -17.135  65.945 117.362  0.00  0.00     0.091 C 
ENDROOT
BRANCH   1   7
ATOM      7  O   LIG d   1     -15.391  64.578 118.407  0.00  0.00    -0.368 OA
BRANCH   7   8
ATOM      8  C   LIG d   1     -13.980  64.562 118.736  0.00  0.00     0.119 C 
BRANCH   8   9
ATOM      9  C   LIG d   1     -13.509  63.096 118.686  0.00  0.00     0.028 C 
ATOM     10  C   LIG d   1     -14.152  62.235 119.787  0.00  0.00     0.006 C 
ENDBRANCH   8   9
BRANCH   8  11
ATOM     11  C   LIG d   1     -13.740  65.016 120.179  0.00  0.00     0.028 C 
ATOM     12  C   LIG d   1     -13.204  66.454 120.270  0.00  0.00     0.006 C 
ENDBRANCH   8  11
ENDBRANCH   7   8
ENDBRANCH   1   7
BRANCH   6  13
ATOM     13  N   LIG d   1     -18.164  64.876 117.264  0.00  0.00    -0.311 N 
ATOM     14  C   LIG d   1     -19.277  64.860 117.995  0.00  0.00     0.210 C 
ATOM     15  C   LIG d   1     -20.193  63.657 117.753  0.00  0.00     0.109 C 
ATOM     16  O   LIG d   1     -19.608  65.746 118.798  0.00  0.00    -0.276 OA
ATOM     17  H   LIG d   1     -17.990  64.134 116.614  0.00  0.00     0.149 HD
ENDBRANCH   6  13
BRANCH   5  18
ATOM     18  N   LIG d   1     -18.614  67.805 116.521  0.00  0.00     0.381 N 
ATOM     19  H   LIG d   1     -19.195  67.313 117.170  0.00  0.00    -0.090 HD
ATOM     20  H   LIG d   1     -19.100  67.860 115.643  0.00  0.00    -0.090 HD
ATOM     21  H   LIG d   1     -18.423  68.721 116.862  0.00  0.00    -0.090 HD
ENDBRANCH   5  18
BRANCH   3  22
ATOM     22  C   LIG d   1     -13.888  68.210 115.858  0.00  0.00     0.382 C 
ATOM     23  O   LIG d   1     -12.719  68.019 116.272  0.00  0.00    -0.241 OA
ATOM     24  O   LIG d   1     -14.100  69.091 115.003  0.00  0.00    -0.241 OA
ENDBRANCH   3  22
TORSDOF 7
ENDMDL
MODEL 6
REMARK VINA RESULT:      -4.9     11.329     13.601
REMARK  7 active torsions:
REMARK  status: ('A' for Active; 'I' for Inactive)
REMARK    1  A    between atoms: C_2  and  C_3 
REMARK    2  A    between atoms: C_3  and  O_6 
REMARK    3  A    between atoms: C_3  and  C_4 
REMARK    4  A    between atoms: C_7  and  O_6 
REMARK    5  A    between atoms: C_9  and  C_10 
REMARK    6  A    between atoms: N_15  and  C_14 
REMARK    7  A    between atoms: N_20  and  C_19 
REMARK       I    between atoms: C_22  and  N_20 
ROOT
ATOM      1  C   LIG d   1     -15.681  65.042 116.693  0.00  0.00     0.161 C 
ATOM      2  C   LIG d   1     -15.408  66.223 115.984  0.00  0.00     0.016 C 
ATOM      3  C   LIG d   1     -14.465  67.186 116.410  0.00  0.00     0.038 C 
ATOM      4  C   LIG d   1     -13.615  66.959 117.503  0.00  0.00     0.028 C 
ATOM      5  C   LIG d   1     -14.204  66.009 118.540  0.00  0.00    -0.047 C 
ATOM      6  C   LIG d   1     -14.685  64.724 117.828  0.00  0.00     0.091 C 
ENDROOT
BRANCH   1   7
ATOM      7  O   LIG d   1     -15.768  63.932 115.778  0.00  0.00    -0.368 OA
BRANCH   7   8
ATOM      8  C   LIG d   1     -17.039  63.237 115.739  0.00  0.00     0.119 C 
BRANCH   8   9
ATOM      9  C   LIG d   1     -17.261  62.760 114.290  0.00  0.00     0.028 C 
ATOM     10  C   LIG d   1     -17.560  61.254 114.208  0.00  0.00     0.006 C 
ENDBRANCH   8   9
BRANCH   8  11
ATOM     11  C   LIG d   1     -18.203  64.186 116.036  0.00  0.00     0.028 C 
ATOM     12  C   LIG d   1     -18.815  64.795 114.765  0.00  0.00     0.006 C 
ENDBRANCH   8  11
ENDBRANCH   7   8
ENDBRANCH   1   7
BRANCH   6  13
ATOM     13  N   LIG d   1     -15.351  63.776 118.759  0.00  0.00    -0.311 N 
ATOM     14  C   LIG d   1     -14.728  62.742 119.321  0.00  0.00     0.210 C 
ATOM     15  C   LIG d   1     -15.604  61.877 120.233  0.00  0.00     0.109 C 
ATOM     16  O   LIG d   1     -13.525  62.476 119.176  0.00  0.00    -0.276 OA
ATOM     17  H   LIG d   1     -16.319  63.935 118.957  0.00  0.00     0.149 HD
ENDBRANCH   6  13
BRANCH   5  18
ATOM     18  N   LIG d   1     -13.162  65.754 119.553  0.00  0.00     0.381 N 
ATOM     19  H   LIG d   1     -13.579  65.377 120.380  0.00  0.00    -0.090 HD
ATOM     20  H   LIG d   1     -12.720  66.624 119.791  0.00  0.00    -0.090 HD
ATOM     21  H   LIG d   1     -12.486  65.117 119.193  0.00  0.00    -0.090 HD
ENDBRANCH   5  18
BRANCH   3  22
ATOM     22  C   LIG d   1     -14.392  68.410 115.762  0.00  0.00     0.382 C 
ATOM     23  O   LIG d   1     -15.265  69.285 115.976  0.00  0.00    -0.241 OA
ATOM     24  O   LIG d   1     -13.489  68.634 114.934  0.00  0.00    -0.241 OA
ENDBRANCH   3  22
TORSDOF 7
ENDMDL
MODEL 7
REMARK VINA RESULT:      -4.9      2.059      4.489
REMARK  7 active torsions:
REMARK  status: ('A' for Active; 'I' for Inactive)
REMARK    1  A    between atoms: C_2  and  C_3 
REMARK    2  A    between atoms: C_3  and  O_6 
REMARK    3  A    between atoms: C_3  and  C_4 
REMARK    4  A    between atoms: C_7  and  O_6 
REMARK    5  A    between atoms: C_9  and  C_10 
REMARK    6  A    between atoms: N_15  and  C_14 
REMARK    7  A    between atoms: N_20  and  C_19 
REMARK       I    between atoms: C_22  and  N_20 
ROOT
ATOM      1  C   LIG d   1      -7.056  75.392 117.578  0.00  0.00     0.161 C 
ATOM      2  C   LIG d   1      -6.786  74.151 116.977  0.00  0.00     0.016 C 
ATOM      3  C   LIG d   1      -7.759  73.139 116.811  0.00  0.00     0.038 C 
ATOM      4  C   LIG d   1      -9.114  73.358 117.101  0.00  0.00     0.028 C 
ATOM      5  C   LIG d   1      -9.340  74.414 118.177  0.00  0.00    -0.047 C 
ATOM      6  C   LIG d   1      -8.554  75.691 117.800  0.00  0.00     0.091 C 
ENDROOT
BRANCH   1   7
ATOM      7  O   LIG d   1      -6.442  76.449 116.815  0.00  0.00    -0.368 OA
BRANCH   7   8
ATOM      8  C   LIG d   1      -5.280  77.075 117.414  0.00  0.00     0.119 C 
BRANCH   8   9
ATOM      9  C   LIG d   1      -4.037  76.558 116.664  0.00  0.00     0.028 C 
ATOM     10  C   LIG d   1      -3.151  75.661 117.546  0.00  0.00     0.006 C 
ENDBRANCH   8   9
BRANCH   8  11
ATOM     11  C   LIG d   1      -5.093  76.628 118.867  0.00  0.00     0.028 C 
ATOM     12  C   LIG d   1      -5.317  77.767 119.874  0.00  0.00     0.006 C 
ENDBRANCH   8  11
ENDBRANCH   7   8
ENDBRANCH   1   7
BRANCH   6  13
ATOM     13  N   LIG d   1      -8.652  76.746 118.841  0.00  0.00    -0.311 N 
ATOM     14  C   LIG d   1      -9.615  77.666 118.864  0.00  0.00     0.210 C 
ATOM     15  C   LIG d   1      -9.520  78.674 120.014  0.00  0.00     0.109 C 
ATOM     16  O   LIG d   1     -10.557  77.724 118.060  0.00  0.00    -0.276 OA
ATOM     17  H   LIG d   1      -7.946  76.754 119.551  0.00  0.00     0.149 HD
ENDBRANCH   6  13
BRANCH   5  18
ATOM     18  N   LIG d   1     -10.794  74.641 118.280  0.00  0.00     0.381 N 
ATOM     19  H   LIG d   1     -11.215  74.558 117.376  0.00  0.00    -0.090 HD
ATOM     20  H   LIG d   1     -10.955  75.573 118.619  0.00  0.00    -0.090 HD
ATOM     21  H   LIG d   1     -11.199  73.978 118.905  0.00  0.00    -0.090 HD
ENDBRANCH   5  18
BRANCH   3  22
ATOM     22  C   LIG d   1      -7.372  71.876 116.387  0.00  0.00     0.382 C 
ATOM     23  O   LIG d   1      -6.625  71.753 115.387  0.00  0.00    -0.241 OA
ATOM     24  O   LIG d   1      -7.796  70.858 116.966  0.00  0.00    -0.241 OA
ENDBRANCH   3  22
TORSDOF 7
ENDMDL
MODEL 8
REMARK VINA RESULT:      -4.9     16.148     18.488
REMARK  7 active torsions:
REMARK  status: ('A' for Active; 'I' for Inactive)
REMARK    1  A    between atoms: C_2  and  C_3 
REMARK    2  A    between atoms: C_3  and  O_6 
REMARK    3  A    between atoms: C_3  and  C_4 
REMARK    4  A    between atoms: C_7  and  O_6 
REMARK    5  A    between atoms: C_9  and  C_10 
REMARK    6  A    between atoms: N_15  and  C_14 
REMARK    7  A    between atoms: N_20  and  C_19 
REMARK       I    between atoms: C_22  and  N_20 
ROOT
ATOM      1  C   LIG d   1      -0.198  90.683 117.436  0.00  0.00     0.161 C 
ATOM      2  C   LIG d   1      -1.542  90.284 117.341  0.00  0.00     0.016 C 
ATOM      3  C   LIG d   1      -2.600  90.947 118.004  0.00  0.00     0.038 C 
ATOM      4  C   LIG d   1      -2.403  92.154 118.691  0.00  0.00     0.028 C 
ATOM      5  C   LIG d   1      -0.988  92.318 119.234  0.00  0.00    -0.047 C 
ATOM      6  C   LIG d   1       0.021  92.063 118.091  0.00  0.00     0.091 C 
ENDROOT
BRANCH   1   7
ATOM      7  O   LIG d   1       0.417  90.644 116.133  0.00  0.00    -0.368 OA
BRANCH   7   8
ATOM      8  C   LIG d   1       1.259  89.497 115.861  0.00  0.00     0.119 C 
BRANCH   8   9
ATOM      9  C   LIG d   1       1.666  88.889 117.217  0.00  0.00     0.028 C 
ATOM     10  C   LIG d   1       3.176  89.004 117.483  0.00  0.00     0.006 C 
ENDBRANCH   8   9
BRANCH   8  11
ATOM     11  C   LIG d   1       2.573  89.917 115.194  0.00  0.00     0.028 C 
ATOM     12  C   LIG d   1       2.364  90.543 113.807  0.00  0.00     0.006 C 
ENDBRANCH   8  11
ENDBRANCH   7   8
ENDBRANCH   1   7
BRANCH   6  13
ATOM     13  N   LIG d   1       1.431  92.121 118.556  0.00  0.00    -0.311 N 
ATOM     14  C   LIG d   1       2.411  92.689 117.855  0.00  0.00     0.210 C 
ATOM     15  C   LIG d   1       3.796  92.622 118.508  0.00  0.00     0.109 C 
ATOM     16  O   LIG d   1       2.260  93.270 116.770  0.00  0.00    -0.276 OA
ATOM     17  H   LIG d   1       1.637  91.701 119.441  0.00  0.00     0.149 HD
ENDBRANCH   6  13
BRANCH   5  18
ATOM     18  N   LIG d   1      -0.884  93.675 119.805  0.00  0.00     0.381 N 
ATOM     19  H   LIG d   1      -0.381  93.641 120.669  0.00  0.00    -0.090 HD
ATOM     20  H   LIG d   1      -1.809  94.020 119.991  0.00  0.00    -0.090 HD
ATOM     21  H   LIG d   1      -0.418  94.279 119.164  0.00  0.00    -0.090 HD
ENDBRANCH   5  18
BRANCH   3  22
ATOM     22  C   LIG d   1      -3.865  90.380 118.017  0.00  0.00     0.382 C 
ATOM     23  O   LIG d   1      -4.718  90.732 117.167  0.00  0.00    -0.241 OA
ATOM     24  O   LIG d   1      -4.179  89.554 118.895  0.00  0.00    -0.241 OA
ENDBRANCH   3  22
TORSDOF 7
ENDMDL
MODEL 9
REMARK VINA RESULT:      -4.8      2.393      4.008
REMARK  7 active torsions:
REMARK  status: ('A' for Active; 'I' for Inactive)
REMARK    1  A    between atoms: C_2  and  C_3 
REMARK    2  A    between atoms: C_3  and  O_6 
REMARK    3  A    between atoms: C_3  and  C_4 
REMARK    4  A    between atoms: C_7  and  O_6 
REMARK    5  A    between atoms: C_9  and  C_10 
REMARK    6  A    between atoms: N_15  and  C_14 
REMARK    7  A    between atoms: N_20  and  C_19 
REMARK       I    between atoms: C_22  and  N_20 
ROOT
ATOM      1  C   LIG d   1      -6.544  74.991 117.402  0.00  0.00     0.161 C 
ATOM      2  C   LIG d   1      -5.832  74.650 116.240  0.00  0.00     0.016 C 
ATOM      3  C   LIG d   1      -4.865  75.491 115.644  0.00  0.00     0.038 C 
ATOM      4  C   LIG d   1      -4.432  76.675 116.261  0.00  0.00     0.028 C 
ATOM      5  C   LIG d   1      -5.482  77.303 117.170  0.00  0.00    -0.047 C 
ATOM      6  C   LIG d   1      -6.005  76.228 118.150  0.00  0.00     0.091 C 
ENDROOT
BRANCH   1   7
ATOM      7  O   LIG d   1      -6.604  73.856 118.289  0.00  0.00    -0.368 OA
BRANCH   7   8
ATOM      8  C   LIG d   1      -7.905  73.237 118.445  0.00  0.00     0.119 C 
BRANCH   8   9
ATOM      9  C   LIG d   1      -7.739  71.732 118.159  0.00  0.00     0.028 C 
ATOM     10  C   LIG d   1      -7.642  71.428 116.654  0.00  0.00     0.006 C 
ENDBRANCH   8   9
BRANCH   8  11
ATOM     11  C   LIG d   1      -8.893  73.744 117.391  0.00  0.00     0.028 C 
ATOM     12  C   LIG d   1     -10.207  74.257 118.003  0.00  0.00     0.006 C 
ENDBRANCH   8  11
ENDBRANCH   7   8
ENDBRANCH   1   7
BRANCH   6  13
ATOM     13  N   LIG d   1      -7.097  76.738 119.020  0.00  0.00    -0.311 N 
ATOM     14  C   LIG d   1      -8.245  77.220 118.549  0.00  0.00     0.210 C 
ATOM     15  C   LIG d   1      -9.227  77.712 119.618  0.00  0.00     0.109 C 
ATOM     16  O   LIG d   1      -8.558  77.259 117.349  0.00  0.00    -0.276 OA
ATOM     17  H   LIG d   1      -6.940  76.715 120.009  0.00  0.00     0.149 HD
ENDBRANCH   6  13
BRANCH   5  18
ATOM     18  N   LIG d   1      -4.852  78.450 117.852  0.00  0.00     0.381 N 
ATOM     19  H   LIG d   1      -3.917  78.214 118.118  0.00  0.00    -0.090 HD
ATOM     20  H   LIG d   1      -5.374  78.659 118.686  0.00  0.00    -0.090 HD
ATOM     21  H   LIG d   1      -4.844  79.243 117.249  0.00  0.00    -0.090 HD
ENDBRANCH   5  18
BRANCH   3  22
ATOM     22  C   LIG d   1      -4.348  75.171 114.398  0.00  0.00     0.382 C 
ATOM     23  O   LIG d   1      -4.607  74.058 113.879  0.00  0.00    -0.241 OA
ATOM     24  O   LIG d   1      -3.591  75.963 113.805  0.00  0.00    -0.241 OA
ENDBRANCH   3  22
TORSDOF 7
ENDMDL
