MODEL 1
REMARK VINA RESULT:      -6.0      0.000      0.000
REMARK  7 active torsions:
REMARK  status: ('A' for Active; 'I' for Inactive)
REMARK    1  A    between atoms: C_2  and  C_3 
REMARK    2  A    between atoms: C_3  and  O_6 
REMARK    3  A    between atoms: C_3  and  C_4 
REMARK    4  A    between atoms: C_7  and  O_6 
REMARK    5  A    between atoms: C_9  and  C_10 
REMARK    6  A    between atoms: N_15  and  C_14 
REMARK    7  A    between atoms: N_20  and  C_19 
REMARK       I    between atoms: C_22  and  N_20 
ROOT
ATOM      1  C   LIG d   1      -7.980  76.019 117.881  0.00  0.00     0.161 C 
ATOM      2  C   LIG d   1      -9.070  76.786 118.323  0.00  0.00     0.016 C 
ATOM      3  C   LIG d   1      -9.039  78.196 118.425  0.00  0.00     0.038 C 
ATOM      4  C   LIG d   1      -7.957  78.950 117.945  0.00  0.00     0.028 C 
ATOM      5  C   LIG d   1      -6.635  78.191 117.958  0.00  0.00    -0.047 C 
ATOM      6  C   LIG d   1      -6.831  76.832 117.248  0.00  0.00     0.091 C 
ENDROOT
BRANCH   1   7
ATOM      7  O   LIG d   1      -8.437  75.002 116.967  0.00  0.00    -0.368 OA
BRANCH   7   8
ATOM      8  C   LIG d   1      -8.550  73.663 117.508  0.00  0.00     0.119 C 
BRANCH   8   9
ATOM      9  C   LIG d   1      -7.458  72.802 116.846  0.00  0.00     0.028 C 
ATOM     10  C   LIG d   1      -7.909  71.348 116.627  0.00  0.00     0.006 C 
ENDBRANCH   8   9
BRANCH   8  11
ATOM     11  C   LIG d   1      -9.878  73.012 117.109  0.00  0.00     0.028 C 
ATOM     12  C   LIG d   1     -10.858  74.004 116.463  0.00  0.00     0.006 C 
ENDBRANCH   8  11
ENDBRANCH   7   8
ENDBRANCH   1   7
BRANCH   6  13
ATOM     13  N   LIG d   1      -5.607  75.989 117.290  0.00  0.00    -0.311 N 
ATOM     14  C   LIG d   1      -4.929  75.626 116.202  0.00  0.00     0.210 C 
ATOM     15  C   LIG d   1      -3.708  74.740 116.467  0.00  0.00     0.109 C 
ATOM     16  O   LIG d   1      -5.204  75.981 115.046  0.00  0.00    -0.276 OA
ATOM     17  H   LIG d   1      -5.296  75.682 118.190  0.00  0.00     0.149 HD
ENDBRANCH   6  13
BRANCH   5  18
ATOM     18  N   LIG d   1      -5.624  79.044 117.306  0.00  0.00     0.381 N 
ATOM     19  H   LIG d   1      -5.881  80.006 117.401  0.00  0.00    -0.090 HD
ATOM     20  H   LIG d   1      -5.593  78.821 116.327  0.00  0.00    -0.090 HD
ATOM     21  H   LIG d   1      -4.731  78.889 117.718  0.00  0.00    -0.090 HD
ENDBRANCH   5  18
BRANCH   3  22
ATOM     22  C   LIG d   1     -10.081  78.863 119.050  0.00  0.00     0.382 C 
ATOM     23  O   LIG d   1     -11.228  78.355 119.069  0.00  0.00    -0.241 OA
ATOM     24  O   LIG d   1      -9.900  79.987 119.555  0.00  0.00    -0.241 OA
ENDBRANCH   3  22
TORSDOF 7
ENDMDL
MODEL 2
REMARK VINA RESULT:      -5.7      0.834      1.000
REMARK  7 active torsions:
REMARK  status: ('A' for Active; 'I' for Inactive)
REMARK    1  A    between atoms: C_2  and  C_3 
REMARK    2  A    between atoms: C_3  and  O_6 
REMARK    3  A    between atoms: C_3  and  C_4 
REMARK    4  A    between atoms: C_7  and  O_6 
REMARK    5  A    between atoms: C_9  and  C_10 
REMARK    6  A    between atoms: N_15  and  C_14 
REMARK    7  A    between atoms: N_20  and  C_19 
REMARK       I    between atoms: C_22  and  N_20 
ROOT
ATOM      1  C   LIG d   1      -7.722  76.544 117.897  0.00  0.00     0.161 C 
ATOM      2  C   LIG d   1      -8.928  77.166 118.260  0.00  0.00     0.016 C 
ATOM      3  C   LIG d   1      -9.073  78.567 118.388  0.00  0.00     0.038 C 
ATOM      4  C   LIG d   1      -8.055  79.455 118.013  0.00  0.00     0.028 C 
ATOM      5  C   LIG d   1      -6.657  78.856 118.123  0.00  0.00    -0.047 C 
ATOM      6  C   LIG d   1      -6.631  77.503 117.376  0.00  0.00     0.091 C 
ENDROOT
BRANCH   1   7
ATOM      7  O   LIG d   1      -7.979  75.505 116.932  0.00  0.00    -0.368 OA
BRANCH   7   8
ATOM      8  C   LIG d   1      -8.548  74.278 117.452  0.00  0.00     0.119 C 
BRANCH   8   9
ATOM      9  C   LIG d   1      -7.614  73.124 117.040  0.00  0.00     0.028 C 
ATOM     10  C   LIG d   1      -6.508  73.580 116.073  0.00  0.00     0.006 C 
ENDBRANCH   8   9
BRANCH   8  11
ATOM     11  C   LIG d   1      -9.894  73.966 116.793  0.00  0.00     0.028 C 
ATOM     12  C   LIG d   1     -10.393  72.545 117.100  0.00  0.00     0.006 C 
ENDBRANCH   8  11
ENDBRANCH   7   8
ENDBRANCH   1   7
BRANCH   6  13
ATOM     13  N   LIG d   1      -5.323  76.809 117.506  0.00  0.00    -0.311 N 
ATOM     14  C   LIG d   1      -4.496  76.605 116.482  0.00  0.00     0.210 C 
ATOM     15  C   LIG d   1      -3.209  75.852 116.831  0.00  0.00     0.109 C 
ATOM     16  O   LIG d   1      -4.692  77.005 115.325  0.00  0.00    -0.276 OA
ATOM     17  H   LIG d   1      -5.070  76.479 118.417  0.00  0.00     0.149 HD
ENDBRANCH   6  13
BRANCH   5  18
ATOM     18  N   LIG d   1      -5.705  79.839 117.572  0.00  0.00     0.381 N 
ATOM     19  H   LIG d   1      -4.795  79.681 117.955  0.00  0.00    -0.090 HD
ATOM     20  H   LIG d   1      -6.002  80.762 117.836  0.00  0.00    -0.090 HD
ATOM     21  H   LIG d   1      -5.674  79.763 116.579  0.00  0.00    -0.090 HD
ENDBRANCH   5  18
BRANCH   3  22
ATOM     22  C   LIG d   1     -10.235  79.090 118.935  0.00  0.00     0.382 C 
ATOM     23  O   LIG d   1     -11.283  78.401 118.957  0.00  0.00    -0.241 OA
ATOM     24  O   LIG d   1     -10.261  80.259 119.365  0.00  0.00    -0.241 OA
ENDBRANCH   3  22
TORSDOF 7
ENDMDL
MODEL 3
REMARK VINA RESULT:      -5.6      2.107      2.870
REMARK  7 active torsions:
REMARK  status: ('A' for Active; 'I' for Inactive)
REMARK    1  A    between atoms: C_2  and  C_3 
REMARK    2  A    between atoms: C_3  and  O_6 
REMARK    3  A    between atoms: C_3  and  C_4 
REMARK    4  A    between atoms: C_7  and  O_6 
REMARK    5  A    between atoms: C_9  and  C_10 
REMARK    6  A    between atoms: N_15  and  C_14 
REMARK    7  A    between atoms: N_20  and  C_19 
REMARK       I    between atoms: C_22  and  N_20 
ROOT
ATOM      1  C   LIG d   1      -6.917  78.077 117.839  0.00  0.00     0.161 C 
ATOM      2  C   LIG d   1      -8.299  78.056 118.088  0.00  0.00     0.016 C 
ATOM      3  C   LIG d   1      -9.053  79.212 118.395  0.00  0.00     0.038 C 
ATOM      4  C   LIG d   1      -8.498  80.499 118.324  0.00  0.00     0.028 C 
ATOM      5  C   LIG d   1      -6.994  80.524 118.571  0.00  0.00    -0.047 C 
ATOM      6  C   LIG d   1      -6.316  79.486 117.648  0.00  0.00     0.091 C 
ENDROOT
BRANCH   1   7
ATOM      7  O   LIG d   1      -6.612  77.244 116.703  0.00  0.00    -0.368 OA
BRANCH   7   8
ATOM      8  C   LIG d   1      -6.840  75.824 116.875  0.00  0.00     0.119 C 
BRANCH   8   9
ATOM      9  C   LIG d   1      -5.593  75.088 116.348  0.00  0.00     0.028 C 
ATOM     10  C   LIG d   1      -5.846  74.401 114.995  0.00  0.00     0.006 C 
ENDBRANCH   8   9
BRANCH   8  11
ATOM     11  C   LIG d   1      -7.999  75.336 116.001  0.00  0.00     0.028 C 
ATOM     12  C   LIG d   1      -9.185  74.808 116.825  0.00  0.00     0.006 C 
ENDBRANCH   8  11
ENDBRANCH   7   8
ENDBRANCH   1   7
BRANCH   6  13
ATOM     13  N   LIG d   1      -4.852  79.386 117.886  0.00  0.00    -0.311 N 
ATOM     14  C   LIG d   1      -3.939  79.640 116.951  0.00  0.00     0.210 C 
ATOM     15  C   LIG d   1      -2.486  79.458 117.400  0.00  0.00     0.109 C 
ATOM     16  O   LIG d   1      -4.193  80.030 115.801  0.00  0.00    -0.276 OA
ATOM     17  H   LIG d   1      -4.557  79.106 118.801  0.00  0.00     0.149 HD
ENDBRANCH   6  13
BRANCH   5  18
ATOM     18  N   LIG d   1      -6.526  81.903 118.331  0.00  0.00     0.381 N 
ATOM     19  H   LIG d   1      -5.775  82.119 118.956  0.00  0.00    -0.090 HD
ATOM     20  H   LIG d   1      -7.282  82.539 118.515  0.00  0.00    -0.090 HD
ATOM     21  H   LIG d   1      -6.222  82.000 117.388  0.00  0.00    -0.090 HD
ENDBRANCH   5  18
BRANCH   3  22
ATOM     22  C   LIG d   1     -10.368  79.084 118.816  0.00  0.00     0.382 C 
ATOM     23  O   LIG d   1     -11.020  78.051 118.529  0.00  0.00    -0.241 OA
ATOM     24  O   LIG d   1     -10.923  80.007 119.441  0.00  0.00    -0.241 OA
ENDBRANCH   3  22
TORSDOF 7
ENDMDL
MODEL 4
REMARK VINA RESULT:      -5.2     12.361     15.115
REMARK  7 active torsions:
REMARK  status: ('A' for Active; 'I' for Inactive)
REMARK    1  A    between atoms: C_2  and  C_3 
REMARK    2  A    between atoms: C_3  and  O_6 
REMARK    3  A    between atoms: C_3  and  C_4 
REMARK    4  A    between atoms: C_7  and  O_6 
REMARK    5  A    between atoms: C_9  and  C_10 
REMARK    6  A    between atoms: N_15  and  C_14 
REMARK    7  A    between atoms: N_20  and  C_19 
REMARK       I    between atoms: C_22  and  N_20 
ROOT
ATOM      1  C   LIG d   1     -16.752  64.527 115.612  0.00  0.00     0.161 C 
ATOM      2  C   LIG d   1     -16.678  65.853 115.152  0.00  0.00     0.016 C 
ATOM      3  C   LIG d   1     -16.076  66.899 115.889  0.00  0.00     0.038 C 
ATOM      4  C   LIG d   1     -15.369  66.659 117.076  0.00  0.00     0.028 C 
ATOM      5  C   LIG d   1     -15.851  65.423 117.829  0.00  0.00    -0.047 C 
ATOM      6  C   LIG d   1     -15.888  64.224 116.854  0.00  0.00     0.091 C 
ENDROOT
BRANCH   1   7
ATOM      7  O   LIG d   1     -16.425  63.620 114.540  0.00  0.00    -0.368 OA
BRANCH   7   8
ATOM      8  C   LIG d   1     -17.514  62.806 114.040  0.00  0.00     0.119 C 
BRANCH   8   9
ATOM      9  C   LIG d   1     -18.799  63.259 114.759  0.00  0.00     0.028 C 
ATOM     10  C   LIG d   1     -19.799  63.933 113.805  0.00  0.00     0.006 C 
ENDBRANCH   8   9
BRANCH   8  11
ATOM     11  C   LIG d   1     -17.331  61.335 114.423  0.00  0.00     0.028 C 
ATOM     12  C   LIG d   1     -18.515  60.455 113.990  0.00  0.00     0.006 C 
ENDBRANCH   8  11
ENDBRANCH   7   8
ENDBRANCH   1   7
BRANCH   6  13
ATOM     13  N   LIG d   1     -16.429  62.994 117.488  0.00  0.00    -0.311 N 
ATOM     14  C   LIG d   1     -15.662  61.996 117.924  0.00  0.00     0.210 C 
ATOM     15  C   LIG d   1     -16.423  60.812 118.528  0.00  0.00     0.109 C 
ATOM     16  O   LIG d   1     -14.422  61.993 117.896  0.00  0.00    -0.276 OA
ATOM     17  H   LIG d   1     -17.424  62.927 117.579  0.00  0.00     0.149 HD
ENDBRANCH   6  13
BRANCH   5  18
ATOM     18  N   LIG d   1     -14.940  65.213 118.970  0.00  0.00     0.381 N 
ATOM     19  H   LIG d   1     -14.222  64.564 118.715  0.00  0.00    -0.090 HD
ATOM     20  H   LIG d   1     -15.462  64.822 119.734  0.00  0.00    -0.090 HD
ATOM     21  H   LIG d   1     -14.533  66.079 119.245  0.00  0.00    -0.090 HD
ENDBRANCH   5  18
BRANCH   3  22
ATOM     22  C   LIG d   1     -16.214  68.210 115.458  0.00  0.00     0.382 C 
ATOM     23  O   LIG d   1     -16.508  69.112 116.278  0.00  0.00    -0.241 OA
ATOM     24  O   LIG d   1     -16.090  68.495 114.251  0.00  0.00    -0.241 OA
ENDBRANCH   3  22
TORSDOF 7
ENDMDL
MODEL 5
REMARK VINA RESULT:      -5.0      2.453      5.230
REMARK  7 active torsions:
REMARK  status: ('A' for Active; 'I' for Inactive)
REMARK    1  A    between atoms: C_2  and  C_3 
REMARK    2  A    between atoms: C_3  and  O_6 
REMARK    3  A    between atoms: C_3  and  C_4 
REMARK    4  A    between atoms: C_7  and  O_6 
REMARK    5  A    between atoms: C_9  and  C_10 
REMARK    6  A    between atoms: N_15  and  C_14 
REMARK    7  A    between atoms: N_20  and  C_19 
REMARK       I    between atoms: C_22  and  N_20 
ROOT
ATOM      1  C   LIG d   1      -5.824  74.539 116.930  0.00  0.00     0.161 C 
ATOM      2  C   LIG d   1      -6.669  73.428 116.766  0.00  0.00     0.016 C 
ATOM      3  C   LIG d   1      -8.046  73.444 117.087  0.00  0.00     0.038 C 
ATOM      4  C   LIG d   1      -8.708  74.625 117.454  0.00  0.00     0.028 C 
ATOM      5  C   LIG d   1      -7.794  75.650 118.118  0.00  0.00    -0.047 C 
ATOM      6  C   LIG d   1      -6.551  75.867 117.225  0.00  0.00     0.091 C 
ENDROOT
BRANCH   1   7
ATOM      7  O   LIG d   1      -4.972  74.679 115.776  0.00  0.00    -0.368 OA
BRANCH   7   8
ATOM      8  C   LIG d   1      -3.556  74.467 116.000  0.00  0.00     0.119 C 
BRANCH   8   9
ATOM      9  C   LIG d   1      -3.375  74.071 117.478  0.00  0.00     0.028 C 
ATOM     10  C   LIG d   1      -1.895  73.926 117.869  0.00  0.00     0.006 C 
ENDBRANCH   8   9
BRANCH   8  11
ATOM     11  C   LIG d   1      -2.764  75.766 115.827  0.00  0.00     0.028 C 
ATOM     12  C   LIG d   1      -3.406  76.725 114.813  0.00  0.00     0.006 C 
ENDBRANCH   8  11
ENDBRANCH   7   8
ENDBRANCH   1   7
BRANCH   6  13
ATOM     13  N   LIG d   1      -5.565  76.793 117.841  0.00  0.00    -0.311 N 
ATOM     14  C   LIG d   1      -5.524  78.098 117.581  0.00  0.00     0.210 C 
ATOM     15  C   LIG d   1      -4.416  78.867 118.308  0.00  0.00     0.109 C 
ATOM     16  O   LIG d   1      -6.319  78.698 116.843  0.00  0.00    -0.276 OA
ATOM     17  H   LIG d   1      -4.902  76.395 118.477  0.00  0.00     0.149 HD
ENDBRANCH   6  13
BRANCH   5  18
ATOM     18  N   LIG d   1      -8.581  76.881 118.323  0.00  0.00     0.381 N 
ATOM     19  H   LIG d   1      -8.083  77.667 117.954  0.00  0.00    -0.090 HD
ATOM     20  H   LIG d   1      -8.709  77.024 119.309  0.00  0.00    -0.090 HD
ATOM     21  H   LIG d   1      -9.466  76.799 117.874  0.00  0.00    -0.090 HD
ENDBRANCH   5  18
BRANCH   3  22
ATOM     22  C   LIG d   1      -8.767  72.260 117.079  0.00  0.00     0.382 C 
ATOM     23  O   LIG d   1      -8.227  71.200 116.680  0.00  0.00    -0.241 OA
ATOM     24  O   LIG d   1      -9.963  72.246 117.425  0.00  0.00    -0.241 OA
ENDBRANCH   3  22
TORSDOF 7
ENDMDL
MODEL 6
REMARK VINA RESULT:      -4.9     14.940     17.028
REMARK  7 active torsions:
REMARK  status: ('A' for Active; 'I' for Inactive)
REMARK    1  A    between atoms: C_2  and  C_3 
REMARK    2  A    between atoms: C_3  and  O_6 
REMARK    3  A    between atoms: C_3  and  C_4 
REMARK    4  A    between atoms: C_7  and  O_6 
REMARK    5  A    between atoms: C_9  and  C_10 
REMARK    6  A    between atoms: N_15  and  C_14 
REMARK    7  A    between atoms: N_20  and  C_19 
REMARK       I    between atoms: C_22  and  N_20 
ROOT
ATOM      1  C   LIG d   1      -5.678  92.318 119.947  0.00  0.00     0.161 C 
ATOM      2  C   LIG d   1      -7.013  92.728 119.791  0.00  0.00     0.016 C 
ATOM      3  C   LIG d   1      -7.384  94.010 119.324  0.00  0.00     0.038 C 
ATOM      4  C   LIG d   1      -6.438  94.923 118.835  0.00  0.00     0.028 C 
ATOM      5  C   LIG d   1      -5.052  94.743 119.443  0.00  0.00    -0.047 C 
ATOM      6  C   LIG d   1      -4.634  93.261 119.312  0.00  0.00     0.091 C 
ENDROOT
BRANCH   1   7
ATOM      7  O   LIG d   1      -5.517  90.978 119.440  0.00  0.00    -0.368 OA
BRANCH   7   8
ATOM      8  C   LIG d   1      -5.066  90.866 118.068  0.00  0.00     0.119 C 
BRANCH   8   9
ATOM      9  C   LIG d   1      -6.245  90.325 117.236  0.00  0.00     0.028 C 
ATOM     10  C   LIG d   1      -6.687  91.305 116.137  0.00  0.00     0.006 C 
ENDBRANCH   8   9
BRANCH   8  11
ATOM     11  C   LIG d   1      -3.958  89.818 117.930  0.00  0.00     0.028 C 
ATOM     12  C   LIG d   1      -3.331  89.432 119.279  0.00  0.00     0.006 C 
ENDBRANCH   8  11
ENDBRANCH   7   8
ENDBRANCH   1   7
BRANCH   6  13
ATOM     13  N   LIG d   1      -3.325  92.981 119.958  0.00  0.00    -0.311 N 
ATOM     14  C   LIG d   1      -2.172  92.947 119.293  0.00  0.00     0.210 C 
ATOM     15  C   LIG d   1      -0.942  92.621 120.146  0.00  0.00     0.109 C 
ATOM     16  O   LIG d   1      -2.046  93.187 118.082  0.00  0.00    -0.276 OA
ATOM     17  H   LIG d   1      -3.331  92.806 120.944  0.00  0.00     0.149 HD
ENDBRANCH   6  13
BRANCH   5  18
ATOM     18  N   LIG d   1      -4.136  95.665 118.745  0.00  0.00     0.381 N 
ATOM     19  H   LIG d   1      -3.712  96.287 119.405  0.00  0.00    -0.090 HD
ATOM     20  H   LIG d   1      -4.664  96.214 118.090  0.00  0.00    -0.090 HD
ATOM     21  H   LIG d   1      -3.432  95.149 118.265  0.00  0.00    -0.090 HD
ENDBRANCH   5  18
BRANCH   3  22
ATOM     22  C   LIG d   1      -8.712  94.404 119.382  0.00  0.00     0.382 C 
ATOM     23  O   LIG d   1      -9.002  95.624 119.431  0.00  0.00    -0.241 OA
ATOM     24  O   LIG d   1      -9.622  93.555 119.430  0.00  0.00    -0.241 OA
ENDBRANCH   3  22
TORSDOF 7
ENDMDL
MODEL 7
REMARK VINA RESULT:      -4.8      2.287      2.712
REMARK  7 active torsions:
REMARK  status: ('A' for Active; 'I' for Inactive)
REMARK    1  A    between atoms: C_2  and  C_3 
REMARK    2  A    between atoms: C_3  and  O_6 
REMARK    3  A    between atoms: C_3  and  C_4 
REMARK    4  A    between atoms: C_7  and  O_6 
REMARK    5  A    between atoms: C_9  and  C_10 
REMARK    6  A    between atoms: N_15  and  C_14 
REMARK    7  A    between atoms: N_20  and  C_19 
REMARK       I    between atoms: C_22  and  N_20 
ROOT
ATOM      1  C   LIG d   1      -5.766  76.970 117.508  0.00  0.00     0.161 C 
ATOM      2  C   LIG d   1      -6.555  78.110 117.732  0.00  0.00     0.016 C 
ATOM      3  C   LIG d   1      -6.062  79.431 117.628  0.00  0.00     0.038 C 
ATOM      4  C   LIG d   1      -4.775  79.706 117.142  0.00  0.00     0.028 C 
ATOM      5  C   LIG d   1      -3.781  78.575 117.386  0.00  0.00    -0.047 C 
ATOM      6  C   LIG d   1      -4.390  77.252 116.869  0.00  0.00     0.091 C 
ENDROOT
BRANCH   1   7
ATOM      7  O   LIG d   1      -6.500  76.015 116.716  0.00  0.00    -0.368 OA
BRANCH   7   8
ATOM      8  C   LIG d   1      -6.842  74.771 117.374  0.00  0.00     0.119 C 
BRANCH   8   9
ATOM      9  C   LIG d   1      -6.741  73.649 116.322  0.00  0.00     0.028 C 
ATOM     10  C   LIG d   1      -7.470  72.367 116.760  0.00  0.00     0.006 C 
ENDBRANCH   8   9
BRANCH   8  11
ATOM     11  C   LIG d   1      -8.303  74.766 117.833  0.00  0.00     0.028 C 
ATOM     12  C   LIG d   1      -9.231  75.532 116.877  0.00  0.00     0.006 C 
ENDBRANCH   8  11
ENDBRANCH   7   8
ENDBRANCH   1   7
BRANCH   6  13
ATOM     13  N   LIG d   1      -3.518  76.080 117.145  0.00  0.00    -0.311 N 
ATOM     14  C   LIG d   1      -3.252  75.136 116.244  0.00  0.00     0.210 C 
ATOM     15  C   LIG d   1      -2.346  74.005 116.741  0.00  0.00     0.109 C 
ATOM     16  O   LIG d   1      -3.654  75.144 115.071  0.00  0.00    -0.276 OA
ATOM     17  H   LIG d   1      -3.124  76.011 118.063  0.00  0.00     0.149 HD
ENDBRANCH   6  13
BRANCH   5  18
ATOM     18  N   LIG d   1      -2.521  78.935 116.709  0.00  0.00     0.381 N 
ATOM     19  H   LIG d   1      -1.772  78.948 117.373  0.00  0.00    -0.090 HD
ATOM     20  H   LIG d   1      -2.613  79.857 116.320  0.00  0.00    -0.090 HD
ATOM     21  H   LIG d   1      -2.322  78.279 115.986  0.00  0.00    -0.090 HD
ENDBRANCH   5  18
BRANCH   3  22
ATOM     22  C   LIG d   1      -6.846  80.493 118.051  0.00  0.00     0.382 C 
ATOM     23  O   LIG d   1      -7.479  81.179 117.211  0.00  0.00    -0.241 OA
ATOM     24  O   LIG d   1      -6.895  80.802 119.256  0.00  0.00    -0.241 OA
ENDBRANCH   3  22
TORSDOF 7
ENDMDL
MODEL 8
REMARK VINA RESULT:      -4.7      2.335      5.626
REMARK  7 active torsions:
REMARK  status: ('A' for Active; 'I' for Inactive)
REMARK    1  A    between atoms: C_2  and  C_3 
REMARK    2  A    between atoms: C_3  and  O_6 
REMARK    3  A    between atoms: C_3  and  C_4 
REMARK    4  A    between atoms: C_7  and  O_6 
REMARK    5  A    between atoms: C_9  and  C_10 
REMARK    6  A    between atoms: N_15  and  C_14 
REMARK    7  A    between atoms: N_20  and  C_19 
REMARK       I    between atoms: C_22  and  N_20 
ROOT
ATOM      1  C   LIG d   1      -6.072  77.070 117.312  0.00  0.00     0.161 C 
ATOM      2  C   LIG d   1      -6.530  75.768 117.048  0.00  0.00     0.016 C 
ATOM      3  C   LIG d   1      -7.870  75.361 117.239  0.00  0.00     0.038 C 
ATOM      4  C   LIG d   1      -8.883  76.275 117.566  0.00  0.00     0.028 C 
ATOM      5  C   LIG d   1      -8.376  77.493 118.332  0.00  0.00    -0.047 C 
ATOM      6  C   LIG d   1      -7.185  78.109 117.563  0.00  0.00     0.091 C 
ENDROOT
BRANCH   1   7
ATOM      7  O   LIG d   1      -5.208  77.510 116.245  0.00  0.00    -0.368 OA
BRANCH   7   8
ATOM      8  C   LIG d   1      -3.789  77.293 116.444  0.00  0.00     0.119 C 
BRANCH   8   9
ATOM      9  C   LIG d   1      -3.512  77.401 117.956  0.00  0.00     0.028 C 
ATOM     10  C   LIG d   1      -2.455  76.390 118.433  0.00  0.00     0.006 C 
ENDBRANCH   8   9
BRANCH   8  11
ATOM     11  C   LIG d   1      -2.959  78.407 115.799  0.00  0.00     0.028 C 
ATOM     12  C   LIG d   1      -3.533  79.807 116.064  0.00  0.00     0.006 C 
ENDBRANCH   8  11
ENDBRANCH   7   8
ENDBRANCH   1   7
BRANCH   6  13
ATOM     13  N   LIG d   1      -6.576  79.255 118.286  0.00  0.00    -0.311 N 
ATOM     14  C   LIG d   1      -6.888  80.526 118.041  0.00  0.00     0.210 C 
ATOM     15  C   LIG d   1      -6.128  81.554 118.886  0.00  0.00     0.109 C 
ATOM     16  O   LIG d   1      -7.747  80.899 117.227  0.00  0.00    -0.276 OA
ATOM     17  H   LIG d   1      -5.892  79.042 118.986  0.00  0.00     0.149 HD
ENDBRANCH   6  13
BRANCH   5  18
ATOM     18  N   LIG d   1      -9.509  78.425 118.486  0.00  0.00     0.381 N 
ATOM     19  H   LIG d   1     -10.242  78.175 117.853  0.00  0.00    -0.090 HD
ATOM     20  H   LIG d   1      -9.199  79.354 118.259  0.00  0.00    -0.090 HD
ATOM     21  H   LIG d   1      -9.846  78.400 119.423  0.00  0.00    -0.090 HD
ENDBRANCH   5  18
BRANCH   3  22
ATOM     22  C   LIG d   1      -8.201  74.018 117.142  0.00  0.00     0.382 C 
ATOM     23  O   LIG d   1      -7.313  73.171 116.881  0.00  0.00    -0.241 OA
ATOM     24  O   LIG d   1      -9.384  73.648 117.268  0.00  0.00    -0.241 OA
ENDBRANCH   3  22
TORSDOF 7
ENDMDL
MODEL 9
REMARK VINA RESULT:      -4.7     14.123     17.055
REMARK  7 active torsions:
REMARK  status: ('A' for Active; 'I' for Inactive)
REMARK    1  A    between atoms: C_2  and  C_3 
REMARK    2  A    between atoms: C_3  and  O_6 
REMARK    3  A    between atoms: C_3  and  C_4 
REMARK    4  A    between atoms: C_7  and  O_6 
REMARK    5  A    between atoms: C_9  and  C_10 
REMARK    6  A    between atoms: N_15  and  C_14 
REMARK    7  A    between atoms: N_20  and  C_19 
REMARK       I    between atoms: C_22  and  N_20 
ROOT
ATOM      1  C   LIG d   1      -6.155  92.509 118.109  0.00  0.00     0.161 C 
ATOM      2  C   LIG d   1      -6.762  91.946 116.973  0.00  0.00     0.016 C 
ATOM      3  C   LIG d   1      -6.408  90.681 116.449  0.00  0.00     0.038 C 
ATOM      4  C   LIG d   1      -5.524  89.822 117.118  0.00  0.00     0.028 C 
ATOM      5  C   LIG d   1      -4.512  90.556 117.993  0.00  0.00    -0.047 C 
ATOM      6  C   LIG d   1      -5.267  91.540 118.916  0.00  0.00     0.091 C 
ENDROOT
BRANCH   1   7
ATOM      7  O   LIG d   1      -7.161  93.095 118.960  0.00  0.00    -0.368 OA
BRANCH   7   8
ATOM      8  C   LIG d   1      -7.350  94.525 118.832  0.00  0.00     0.119 C 
BRANCH   8   9
ATOM      9  C   LIG d   1      -6.345  95.211 119.778  0.00  0.00     0.028 C 
ATOM     10  C   LIG d   1      -5.323  96.076 119.021  0.00  0.00     0.006 C 
ENDBRANCH   8   9
BRANCH   8  11
ATOM     11  C   LIG d   1      -8.734  94.951 119.332  0.00  0.00     0.028 C 
ATOM     12  C   LIG d   1      -9.441  93.850 120.137  0.00  0.00     0.006 C 
ENDBRANCH   8  11
ENDBRANCH   7   8
ENDBRANCH   1   7
BRANCH   6  13
ATOM     13  N   LIG d   1      -4.346  92.359 119.746  0.00  0.00    -0.311 N 
ATOM     14  C   LIG d   1      -3.162  92.793 119.316  0.00  0.00     0.210 C 
ATOM     15  C   LIG d   1      -2.361  93.605 120.338  0.00  0.00     0.109 C 
ATOM     16  O   LIG d   1      -2.714  92.611 118.174  0.00  0.00    -0.276 OA
ATOM     17  H   LIG d   1      -4.644  92.580 120.676  0.00  0.00     0.149 HD
ENDBRANCH   6  13
BRANCH   5  18
ATOM     18  N   LIG d   1      -3.745  89.538 118.736  0.00  0.00     0.381 N 
ATOM     19  H   LIG d   1      -3.423  89.923 119.602  0.00  0.00    -0.090 HD
ATOM     20  H   LIG d   1      -2.944  89.273 118.191  0.00  0.00    -0.090 HD
ATOM     21  H   LIG d   1      -4.317  88.741 118.911  0.00  0.00    -0.090 HD
ENDBRANCH   5  18
BRANCH   3  22
ATOM     22  C   LIG d   1      -6.913  90.281 115.221  0.00  0.00     0.382 C 
ATOM     23  O   LIG d   1      -7.585  91.083 114.528  0.00  0.00    -0.241 OA
ATOM     24  O   LIG d   1      -6.742  89.115 114.818  0.00  0.00    -0.241 OA
ENDBRANCH   3  22
TORSDOF 7
ENDMDL
