MODEL 1
REMARK VINA RESULT:      -5.1      0.000      0.000
REMARK  7 active torsions:
REMARK  status: ('A' for Active; 'I' for Inactive)
REMARK    1  A    between atoms: C_2  and  C_3 
REMARK    2  A    between atoms: C_3  and  O_6 
REMARK    3  A    between atoms: C_3  and  C_4 
REMARK    4  A    between atoms: C_7  and  O_6 
REMARK    5  A    between atoms: C_9  and  C_10 
REMARK    6  A    between atoms: N_15  and  C_14 
REMARK    7  A    between atoms: N_20  and  C_19 
REMARK       I    between atoms: C_22  and  N_20 
ROOT
ATOM      1  C   LIG d   1      -4.852  76.534 115.558  0.00  0.00     0.161 C 
ATOM      2  C   LIG d   1      -3.712  75.787 115.218  0.00  0.00     0.016 C 
ATOM      3  C   LIG d   1      -2.507  75.826 115.956  0.00  0.00     0.038 C 
ATOM      4  C   LIG d   1      -2.409  76.506 117.180  0.00  0.00     0.028 C 
ATOM      5  C   LIG d   1      -3.374  77.680 117.300  0.00  0.00    -0.047 C 
ATOM      6  C   LIG d   1      -4.800  77.195 116.951  0.00  0.00     0.091 C 
ENDROOT
BRANCH   1   7
ATOM      7  O   LIG d   1      -6.030  75.712 115.437  0.00  0.00    -0.368 OA
BRANCH   7   8
ATOM      8  C   LIG d   1      -6.097  74.562 116.315  0.00  0.00     0.119 C 
BRANCH   8   9
ATOM      9  C   LIG d   1      -6.399  73.329 115.440  0.00  0.00     0.028 C 
ATOM     10  C   LIG d   1      -7.053  72.189 116.239  0.00  0.00     0.006 C 
ENDBRANCH   8   9
BRANCH   8  11
ATOM     11  C   LIG d   1      -7.277  74.669 117.285  0.00  0.00     0.028 C 
ATOM     12  C   LIG d   1      -8.350  75.662 116.810  0.00  0.00     0.006 C 
ENDBRANCH   8  11
ENDBRANCH   7   8
ENDBRANCH   1   7
BRANCH   6  13
ATOM     13  N   LIG d   1      -5.794  78.300 116.962  0.00  0.00    -0.311 N 
ATOM     14  C   LIG d   1      -6.550  78.596 118.018  0.00  0.00     0.210 C 
ATOM     15  C   LIG d   1      -7.523  79.761 117.811  0.00  0.00     0.109 C 
ATOM     16  O   LIG d   1      -6.484  78.025 119.118  0.00  0.00    -0.276 OA
ATOM     17  H   LIG d   1      -5.890  78.835 116.122  0.00  0.00     0.149 HD
ENDBRANCH   6  13
BRANCH   5  18
ATOM     18  N   LIG d   1      -3.263  78.210 118.672  0.00  0.00     0.381 N 
ATOM     19  H   LIG d   1      -2.366  77.981 119.052  0.00  0.00    -0.090 HD
ATOM     20  H   LIG d   1      -3.968  77.780 119.245  0.00  0.00    -0.090 HD
ATOM     21  H   LIG d   1      -3.387  79.198 118.666  0.00  0.00    -0.090 HD
ENDBRANCH   5  18
BRANCH   3  22
ATOM     22  C   LIG d   1      -1.371  75.214 115.450  0.00  0.00     0.382 C 
ATOM     23  O   LIG d   1      -1.102  75.303 114.228  0.00  0.00    -0.241 OA
ATOM     24  O   LIG d   1      -0.635  74.535 116.192  0.00  0.00    -0.241 OA
ENDBRANCH   3  22
TORSDOF 7
ENDMDL
MODEL 2
REMARK VINA RESULT:      -5.0      2.114      4.852
REMARK  7 active torsions:
REMARK  status: ('A' for Active; 'I' for Inactive)
REMARK    1  A    between atoms: C_2  and  C_3 
REMARK    2  A    between atoms: C_3  and  O_6 
REMARK    3  A    between atoms: C_3  and  C_4 
REMARK    4  A    between atoms: C_7  and  O_6 
REMARK    5  A    between atoms: C_9  and  C_10 
REMARK    6  A    between atoms: N_15  and  C_14 
REMARK    7  A    between atoms: N_20  and  C_19 
REMARK       I    between atoms: C_22  and  N_20 
ROOT
ATOM      1  C   LIG d   1      -4.411  75.301 116.170  0.00  0.00     0.161 C 
ATOM      2  C   LIG d   1      -4.999  74.111 115.711  0.00  0.00     0.016 C 
ATOM      3  C   LIG d   1      -6.355  73.777 115.934  0.00  0.00     0.038 C 
ATOM      4  C   LIG d   1      -7.258  74.685 116.504  0.00  0.00     0.028 C 
ATOM      5  C   LIG d   1      -6.595  75.695 117.435  0.00  0.00    -0.047 C 
ATOM      6  C   LIG d   1      -5.408  76.354 116.697  0.00  0.00     0.091 C 
ENDROOT
BRANCH   1   7
ATOM      7  O   LIG d   1      -3.584  75.868 115.135  0.00  0.00    -0.368 OA
BRANCH   7   8
ATOM      8  C   LIG d   1      -2.184  75.496 115.161  0.00  0.00     0.119 C 
BRANCH   8   9
ATOM      9  C   LIG d   1      -1.718  75.550 116.629  0.00  0.00     0.028 C 
ATOM     10  C   LIG d   1      -0.893  74.316 117.029  0.00  0.00     0.006 C 
ENDBRANCH   8   9
BRANCH   8  11
ATOM     11  C   LIG d   1      -1.320  76.522 114.423  0.00  0.00     0.028 C 
ATOM     12  C   LIG d   1      -1.060  77.789 115.253  0.00  0.00     0.006 C 
ENDBRANCH   8  11
ENDBRANCH   7   8
ENDBRANCH   1   7
BRANCH   6  13
ATOM     13  N   LIG d   1      -4.652  77.294 117.565  0.00  0.00    -0.311 N 
ATOM     14  C   LIG d   1      -4.232  78.491 117.159  0.00  0.00     0.210 C 
ATOM     15  C   LIG d   1      -3.453  79.293 118.206  0.00  0.00     0.109 C 
ATOM     16  O   LIG d   1      -4.457  78.977 116.040  0.00  0.00    -0.276 OA
ATOM     17  H   LIG d   1      -4.452  76.992 118.499  0.00  0.00     0.149 HD
ENDBRANCH   6  13
BRANCH   5  18
ATOM     18  N   LIG d   1      -7.628  76.663 117.850  0.00  0.00     0.381 N 
ATOM     19  H   LIG d   1      -8.461  76.521 117.314  0.00  0.00    -0.090 HD
ATOM     20  H   LIG d   1      -7.292  77.593 117.670  0.00  0.00    -0.090 HD
ATOM     21  H   LIG d   1      -7.826  76.556 118.820  0.00  0.00    -0.090 HD
ENDBRANCH   5  18
BRANCH   3  22
ATOM     22  C   LIG d   1      -6.809  72.505 115.620  0.00  0.00     0.382 C 
ATOM     23  O   LIG d   1      -7.674  71.952 116.342  0.00  0.00    -0.241 OA
ATOM     24  O   LIG d   1      -6.334  71.885 114.650  0.00  0.00    -0.241 OA
ENDBRANCH   3  22
TORSDOF 7
ENDMDL
MODEL 3
REMARK VINA RESULT:      -4.9      2.842      6.137
REMARK  7 active torsions:
REMARK  status: ('A' for Active; 'I' for Inactive)
REMARK    1  A    between atoms: C_2  and  C_3 
REMARK    2  A    between atoms: C_3  and  O_6 
REMARK    3  A    between atoms: C_3  and  C_4 
REMARK    4  A    between atoms: C_7  and  O_6 
REMARK    5  A    between atoms: C_9  and  C_10 
REMARK    6  A    between atoms: N_15  and  C_14 
REMARK    7  A    between atoms: N_20  and  C_19 
REMARK       I    between atoms: C_22  and  N_20 
ROOT
ATOM      1  C   LIG d   1      -6.563  78.827 117.722  0.00  0.00     0.161 C 
ATOM      2  C   LIG d   1      -7.895  78.520 118.044  0.00  0.00     0.016 C 
ATOM      3  C   LIG d   1      -8.842  79.491 118.446  0.00  0.00     0.038 C 
ATOM      4  C   LIG d   1      -8.558  80.864 118.407  0.00  0.00     0.028 C 
ATOM      5  C   LIG d   1      -7.075  81.181 118.573  0.00  0.00    -0.047 C 
ATOM      6  C   LIG d   1      -6.265  80.333 117.567  0.00  0.00     0.091 C 
ENDROOT
BRANCH   1   7
ATOM      7  O   LIG d   1      -6.171  78.113 116.532  0.00  0.00    -0.368 OA
BRANCH   7   8
ATOM      8  C   LIG d   1      -6.032  76.678 116.667  0.00  0.00     0.119 C 
BRANCH   8   9
ATOM      9  C   LIG d   1      -4.547  76.333 116.443  0.00  0.00     0.028 C 
ATOM     10  C   LIG d   1      -3.752  77.513 115.859  0.00  0.00     0.006 C 
ENDBRANCH   8   9
BRANCH   8  11
ATOM     11  C   LIG d   1      -6.791  75.938 115.561  0.00  0.00     0.028 C 
ATOM     12  C   LIG d   1      -6.147  74.591 115.195  0.00  0.00     0.006 C 
ENDBRANCH   8  11
ENDBRANCH   7   8
ENDBRANCH   1   7
BRANCH   6  13
ATOM     13  N   LIG d   1      -4.798  80.520 117.719  0.00  0.00    -0.311 N 
ATOM     14  C   LIG d   1      -4.097  81.413 117.024  0.00  0.00     0.210 C 
ATOM     15  C   LIG d   1      -2.594  81.427 117.321  0.00  0.00     0.109 C 
ATOM     16  O   LIG d   1      -4.581  82.216 116.213  0.00  0.00    -0.276 OA
ATOM     17  H   LIG d   1      -4.330  79.930 118.380  0.00  0.00     0.149 HD
ENDBRANCH   6  13
BRANCH   5  18
ATOM     18  N   LIG d   1      -6.905  82.633 118.375  0.00  0.00     0.381 N 
ATOM     19  H   LIG d   1      -6.319  83.006 119.095  0.00  0.00    -0.090 HD
ATOM     20  H   LIG d   1      -7.804  83.077 118.438  0.00  0.00    -0.090 HD
ATOM     21  H   LIG d   1      -6.501  82.810 117.482  0.00  0.00    -0.090 HD
ENDBRANCH   5  18
BRANCH   3  22
ATOM     22  C   LIG d   1     -10.076  79.087 118.931  0.00  0.00     0.382 C 
ATOM     23  O   LIG d   1     -10.591  78.018 118.524  0.00  0.00    -0.241 OA
ATOM     24  O   LIG d   1     -10.702  79.800 119.738  0.00  0.00    -0.241 OA
ENDBRANCH   3  22
TORSDOF 7
ENDMDL
MODEL 4
REMARK VINA RESULT:      -4.6      2.328      4.548
REMARK  7 active torsions:
REMARK  status: ('A' for Active; 'I' for Inactive)
REMARK    1  A    between atoms: C_2  and  C_3 
REMARK    2  A    between atoms: C_3  and  O_6 
REMARK    3  A    between atoms: C_3  and  C_4 
REMARK    4  A    between atoms: C_7  and  O_6 
REMARK    5  A    between atoms: C_9  and  C_10 
REMARK    6  A    between atoms: N_15  and  C_14 
REMARK    7  A    between atoms: N_20  and  C_19 
REMARK       I    between atoms: C_22  and  N_20 
ROOT
ATOM      1  C   LIG d   1      -5.997  76.867 115.703  0.00  0.00     0.161 C 
ATOM      2  C   LIG d   1      -6.662  75.637 115.833  0.00  0.00     0.016 C 
ATOM      3  C   LIG d   1      -6.000  74.388 115.810  0.00  0.00     0.038 C 
ATOM      4  C   LIG d   1      -4.600  74.291 115.807  0.00  0.00     0.028 C 
ATOM      5  C   LIG d   1      -3.911  75.492 115.168  0.00  0.00    -0.047 C 
ATOM      6  C   LIG d   1      -4.460  76.786 115.811  0.00  0.00     0.091 C 
ENDROOT
BRANCH   1   7
ATOM      7  O   LIG d   1      -6.518  77.808 116.663  0.00  0.00    -0.368 OA
BRANCH   7   8
ATOM      8  C   LIG d   1      -6.037  77.663 118.022  0.00  0.00     0.119 C 
BRANCH   8   9
ATOM      9  C   LIG d   1      -7.261  77.402 118.921  0.00  0.00     0.028 C 
ATOM     10  C   LIG d   1      -8.581  77.818 118.250  0.00  0.00     0.006 C 
ENDBRANCH   8   9
BRANCH   8  11
ATOM     11  C   LIG d   1      -5.426  78.969 118.539  0.00  0.00     0.028 C 
ATOM     12  C   LIG d   1      -5.686  80.160 117.603  0.00  0.00     0.006 C 
ENDBRANCH   8  11
ENDBRANCH   7   8
ENDBRANCH   1   7
BRANCH   6  13
ATOM     13  N   LIG d   1      -3.900  78.012 115.184  0.00  0.00    -0.311 N 
ATOM     14  C   LIG d   1      -2.866  78.685 115.686  0.00  0.00     0.210 C 
ATOM     15  C   LIG d   1      -2.461  79.932 114.894  0.00  0.00     0.109 C 
ATOM     16  O   LIG d   1      -2.226  78.349 116.694  0.00  0.00    -0.276 OA
ATOM     17  H   LIG d   1      -4.340  78.337 114.346  0.00  0.00     0.149 HD
ENDBRANCH   6  13
BRANCH   5  18
ATOM     18  N   LIG d   1      -2.458  75.324 115.357  0.00  0.00     0.381 N 
ATOM     19  H   LIG d   1      -2.179  74.415 115.046  0.00  0.00    -0.090 HD
ATOM     20  H   LIG d   1      -2.246  75.402 116.336  0.00  0.00    -0.090 HD
ATOM     21  H   LIG d   1      -1.965  76.024 114.846  0.00  0.00    -0.090 HD
ENDBRANCH   5  18
BRANCH   3  22
ATOM     22  C   LIG d   1      -6.741  73.218 115.749  0.00  0.00     0.382 C 
ATOM     23  O   LIG d   1      -6.293  72.223 115.129  0.00  0.00    -0.241 OA
ATOM     24  O   LIG d   1      -7.872  73.158 116.269  0.00  0.00    -0.241 OA
ENDBRANCH   3  22
TORSDOF 7
ENDMDL
MODEL 5
REMARK VINA RESULT:      -4.6      2.374      6.036
REMARK  7 active torsions:
REMARK  status: ('A' for Active; 'I' for Inactive)
REMARK    1  A    between atoms: C_2  and  C_3 
REMARK    2  A    between atoms: C_3  and  O_6 
REMARK    3  A    between atoms: C_3  and  C_4 
REMARK    4  A    between atoms: C_7  and  O_6 
REMARK    5  A    between atoms: C_9  and  C_10 
REMARK    6  A    between atoms: N_15  and  C_14 
REMARK    7  A    between atoms: N_20  and  C_19 
REMARK       I    between atoms: C_22  and  N_20 
ROOT
ATOM      1  C   LIG d   1      -5.565  77.000 116.623  0.00  0.00     0.161 C 
ATOM      2  C   LIG d   1      -6.017  78.207 117.180  0.00  0.00     0.016 C 
ATOM      3  C   LIG d   1      -7.339  78.405 117.641  0.00  0.00     0.038 C 
ATOM      4  C   LIG d   1      -8.263  77.352 117.715  0.00  0.00     0.028 C 
ATOM      5  C   LIG d   1      -8.005  76.246 116.697  0.00  0.00    -0.047 C 
ATOM      6  C   LIG d   1      -6.527  75.806 116.799  0.00  0.00     0.091 C 
ENDROOT
BRANCH   1   7
ATOM      7  O   LIG d   1      -4.263  76.676 117.151  0.00  0.00    -0.368 OA
BRANCH   7   8
ATOM      8  C   LIG d   1      -3.129  77.145 116.382  0.00  0.00     0.119 C 
BRANCH   8   9
ATOM      9  C   LIG d   1      -2.916  76.156 115.220  0.00  0.00     0.028 C 
ATOM     10  C   LIG d   1      -3.310  76.755 113.860  0.00  0.00     0.006 C 
ENDBRANCH   8   9
BRANCH   8  11
ATOM     11  C   LIG d   1      -1.837  77.089 117.204  0.00  0.00     0.028 C 
ATOM     12  C   LIG d   1      -0.597  77.500 116.394  0.00  0.00     0.006 C 
ENDBRANCH   8  11
ENDBRANCH   7   8
ENDBRANCH   1   7
BRANCH   6  13
ATOM     13  N   LIG d   1      -6.168  74.786 115.779  0.00  0.00    -0.311 N 
ATOM     14  C   LIG d   1      -6.180  73.475 116.018  0.00  0.00     0.210 C 
ATOM     15  C   LIG d   1      -5.756  72.599 114.835  0.00  0.00     0.109 C 
ATOM     16  O   LIG d   1      -6.532  72.954 117.087  0.00  0.00    -0.276 OA
ATOM     17  H   LIG d   1      -5.900  75.119 114.874  0.00  0.00     0.149 HD
ENDBRANCH   6  13
BRANCH   5  18
ATOM     18  N   LIG d   1      -8.954  75.152 116.977  0.00  0.00     0.381 N 
ATOM     19  H   LIG d   1      -9.865  75.400 116.643  0.00  0.00    -0.090 HD
ATOM     20  H   LIG d   1      -9.009  75.015 117.971  0.00  0.00    -0.090 HD
ATOM     21  H   LIG d   1      -8.648  74.313 116.535  0.00  0.00    -0.090 HD
ENDBRANCH   5  18
BRANCH   3  22
ATOM     22  C   LIG d   1      -7.761  79.677 117.996  0.00  0.00     0.382 C 
ATOM     23  O   LIG d   1      -8.463  79.841 119.023  0.00  0.00    -0.241 OA
ATOM     24  O   LIG d   1      -7.485  80.657 117.279  0.00  0.00    -0.241 OA
ENDBRANCH   3  22
TORSDOF 7
ENDMDL
MODEL 6
REMARK VINA RESULT:      -4.6      2.581      5.227
REMARK  7 active torsions:
REMARK  status: ('A' for Active; 'I' for Inactive)
REMARK    1  A    between atoms: C_2  and  C_3 
REMARK    2  A    between atoms: C_3  and  O_6 
REMARK    3  A    between atoms: C_3  and  C_4 
REMARK    4  A    between atoms: C_7  and  O_6 
REMARK    5  A    between atoms: C_9  and  C_10 
REMARK    6  A    between atoms: N_15  and  C_14 
REMARK    7  A    between atoms: N_20  and  C_19 
REMARK       I    between atoms: C_22  and  N_20 
ROOT
ATOM      1  C   LIG d   1      -5.485  77.516 116.756  0.00  0.00     0.161 C 
ATOM      2  C   LIG d   1      -5.727  76.170 116.437  0.00  0.00     0.016 C 
ATOM      3  C   LIG d   1      -6.943  75.508 116.724  0.00  0.00     0.038 C 
ATOM      4  C   LIG d   1      -8.062  76.195 117.216  0.00  0.00     0.028 C 
ATOM      5  C   LIG d   1      -7.703  77.439 118.022  0.00  0.00    -0.047 C 
ATOM      6  C   LIG d   1      -6.733  78.311 117.193  0.00  0.00     0.091 C 
ENDROOT
BRANCH   1   7
ATOM      7  O   LIG d   1      -4.835  78.172 115.649  0.00  0.00    -0.368 OA
BRANCH   7   8
ATOM      8  C   LIG d   1      -3.423  78.452 115.814  0.00  0.00     0.119 C 
BRANCH   8   9
ATOM      9  C   LIG d   1      -3.256  79.983 115.844  0.00  0.00     0.028 C 
ATOM     10  C   LIG d   1      -2.932  80.511 117.252  0.00  0.00     0.006 C 
ENDBRANCH   8   9
BRANCH   8  11
ATOM     11  C   LIG d   1      -2.616  77.980 114.601  0.00  0.00     0.028 C 
ATOM     12  C   LIG d   1      -1.191  78.554 114.574  0.00  0.00     0.006 C 
ENDBRANCH   8  11
ENDBRANCH   7   8
ENDBRANCH   1   7
BRANCH   6  13
ATOM     13  N   LIG d   1      -6.266  79.507 117.941  0.00  0.00    -0.311 N 
ATOM     14  C   LIG d   1      -6.837  80.706 117.839  0.00  0.00     0.210 C 
ATOM     15  C   LIG d   1      -6.186  81.807 118.682  0.00  0.00     0.109 C 
ATOM     16  O   LIG d   1      -7.841  80.955 117.155  0.00  0.00    -0.276 OA
ATOM     17  H   LIG d   1      -5.475  79.388 118.544  0.00  0.00     0.149 HD
ENDBRANCH   6  13
BRANCH   5  18
ATOM     18  N   LIG d   1      -8.962  78.132 118.357  0.00  0.00     0.381 N 
ATOM     19  H   LIG d   1      -9.711  77.757 117.810  0.00  0.00    -0.090 HD
ATOM     20  H   LIG d   1      -8.866  79.107 118.133  0.00  0.00    -0.090 HD
ATOM     21  H   LIG d   1      -9.163  78.025 119.326  0.00  0.00    -0.090 HD
ENDBRANCH   5  18
BRANCH   3  22
ATOM     22  C   LIG d   1      -7.035  74.135 116.555  0.00  0.00     0.382 C 
ATOM     23  O   LIG d   1      -5.992  73.443 116.466  0.00  0.00    -0.241 OA
ATOM     24  O   LIG d   1      -8.147  73.585 116.445  0.00  0.00    -0.241 OA
ENDBRANCH   3  22
TORSDOF 7
ENDMDL
MODEL 7
REMARK VINA RESULT:      -4.5      2.085      4.960
REMARK  7 active torsions:
REMARK  status: ('A' for Active; 'I' for Inactive)
REMARK    1  A    between atoms: C_2  and  C_3 
REMARK    2  A    between atoms: C_3  and  O_6 
REMARK    3  A    between atoms: C_3  and  C_4 
REMARK    4  A    between atoms: C_7  and  O_6 
REMARK    5  A    between atoms: C_9  and  C_10 
REMARK    6  A    between atoms: N_15  and  C_14 
REMARK    7  A    between atoms: N_20  and  C_19 
REMARK       I    between atoms: C_22  and  N_20 
ROOT
ATOM      1  C   LIG d   1      -4.692  77.679 116.382  0.00  0.00     0.161 C 
ATOM      2  C   LIG d   1      -5.640  78.620 116.818  0.00  0.00     0.016 C 
ATOM      3  C   LIG d   1      -5.317  79.957 117.145  0.00  0.00     0.038 C 
ATOM      4  C   LIG d   1      -4.040  80.489 116.912  0.00  0.00     0.028 C 
ATOM      5  C   LIG d   1      -2.931  79.442 116.949  0.00  0.00    -0.047 C 
ATOM      6  C   LIG d   1      -3.315  78.271 116.015  0.00  0.00     0.091 C 
ENDROOT
BRANCH   1   7
ATOM      7  O   LIG d   1      -5.225  76.926 115.275  0.00  0.00    -0.368 OA
BRANCH   7   8
ATOM      8  C   LIG d   1      -5.397  75.504 115.495  0.00  0.00     0.119 C 
BRANCH   8   9
ATOM      9  C   LIG d   1      -5.062  74.787 114.173  0.00  0.00     0.028 C 
ATOM     10  C   LIG d   1      -5.393  73.286 114.220  0.00  0.00     0.006 C 
ENDBRANCH   8   9
BRANCH   8  11
ATOM     11  C   LIG d   1      -6.861  75.159 115.784  0.00  0.00     0.028 C 
ATOM     12  C   LIG d   1      -7.142  74.962 117.283  0.00  0.00     0.006 C 
ENDBRANCH   8  11
ENDBRANCH   7   8
ENDBRANCH   1   7
BRANCH   6  13
ATOM     13  N   LIG d   1      -2.324  77.164 116.057  0.00  0.00    -0.311 N 
ATOM     14  C   LIG d   1      -1.869  76.547 114.969  0.00  0.00     0.210 C 
ATOM     15  C   LIG d   1      -0.867  75.419 115.237  0.00  0.00     0.109 C 
ATOM     16  O   LIG d   1      -2.175  76.847 113.805  0.00  0.00    -0.276 OA
ATOM     17  H   LIG d   1      -1.998  76.878 116.960  0.00  0.00     0.149 HD
ENDBRANCH   6  13
BRANCH   5  18
ATOM     18  N   LIG d   1      -1.676  80.108 116.554  0.00  0.00     0.381 N 
ATOM     19  H   LIG d   1      -1.879  80.994 116.136  0.00  0.00    -0.090 HD
ATOM     20  H   LIG d   1      -1.206  79.539 115.873  0.00  0.00    -0.090 HD
ATOM     21  H   LIG d   1      -1.092  80.235 117.351  0.00  0.00    -0.090 HD
ENDBRANCH   5  18
BRANCH   3  22
ATOM     22  C   LIG d   1      -6.267  80.766 117.750  0.00  0.00     0.382 C 
ATOM     23  O   LIG d   1      -7.386  80.930 117.208  0.00  0.00    -0.241 OA
ATOM     24  O   LIG d   1      -6.003  81.368 118.807  0.00  0.00    -0.241 OA
ENDBRANCH   3  22
TORSDOF 7
ENDMDL
MODEL 8
REMARK VINA RESULT:      -4.5     13.127     15.321
REMARK  7 active torsions:
REMARK  status: ('A' for Active; 'I' for Inactive)
REMARK    1  A    between atoms: C_2  and  C_3 
REMARK    2  A    between atoms: C_3  and  O_6 
REMARK    3  A    between atoms: C_3  and  C_4 
REMARK    4  A    between atoms: C_7  and  O_6 
REMARK    5  A    between atoms: C_9  and  C_10 
REMARK    6  A    between atoms: N_15  and  C_14 
REMARK    7  A    between atoms: N_20  and  C_19 
REMARK       I    between atoms: C_22  and  N_20 
ROOT
ATOM      1  C   LIG d   1       2.558  88.482 116.372  0.00  0.00     0.161 C 
ATOM      2  C   LIG d   1       1.533  89.417 116.593  0.00  0.00     0.016 C 
ATOM      3  C   LIG d   1       1.766  90.734 117.049  0.00  0.00     0.038 C 
ATOM      4  C   LIG d   1       3.062  91.258 117.172  0.00  0.00     0.028 C 
ATOM      5  C   LIG d   1       4.121  90.195 117.445  0.00  0.00    -0.047 C 
ATOM      6  C   LIG d   1       3.985  89.069 116.395  0.00  0.00     0.091 C 
ENDROOT
BRANCH   1   7
ATOM      7  O   LIG d   1       2.323  87.782 115.134  0.00  0.00    -0.368 OA
BRANCH   7   8
ATOM      8  C   LIG d   1       2.166  86.345 115.234  0.00  0.00     0.119 C 
BRANCH   8   9
ATOM      9  C   LIG d   1       2.843  85.719 113.999  0.00  0.00     0.028 C 
ATOM     10  C   LIG d   1       3.787  84.563 114.371  0.00  0.00     0.006 C 
ENDBRANCH   8   9
BRANCH   8  11
ATOM     11  C   LIG d   1       0.693  85.938 115.139  0.00  0.00     0.028 C 
ATOM     12  C   LIG d   1       0.375  84.660 115.931  0.00  0.00     0.006 C 
ENDBRANCH   8  11
ENDBRANCH   7   8
ENDBRANCH   1   7
BRANCH   6  13
ATOM     13  N   LIG d   1       4.929  87.948 116.640  0.00  0.00    -0.311 N 
ATOM     14  C   LIG d   1       5.763  87.477 115.715  0.00  0.00     0.210 C 
ATOM     15  C   LIG d   1       6.637  86.304 116.170  0.00  0.00     0.109 C 
ATOM     16  O   LIG d   1       5.885  87.940 114.571  0.00  0.00    -0.276 OA
ATOM     17  H   LIG d   1       4.918  87.534 117.552  0.00  0.00     0.149 HD
ENDBRANCH   6  13
BRANCH   5  18
ATOM     18  N   LIG d   1       5.437  90.860 117.413  0.00  0.00     0.381 N 
ATOM     19  H   LIG d   1       5.554  91.420 118.233  0.00  0.00    -0.090 HD
ATOM     20  H   LIG d   1       5.478  91.463 116.610  0.00  0.00    -0.090 HD
ATOM     21  H   LIG d   1       6.162  90.178 117.362  0.00  0.00    -0.090 HD
ENDBRANCH   5  18
BRANCH   3  22
ATOM     22  C   LIG d   1       0.695  91.531 117.425  0.00  0.00     0.382 C 
ATOM     23  O   LIG d   1      -0.440  91.021 117.585  0.00  0.00    -0.241 OA
ATOM     24  O   LIG d   1       0.841  92.760 117.564  0.00  0.00    -0.241 OA
ENDBRANCH   3  22
TORSDOF 7
ENDMDL
MODEL 9
REMARK VINA RESULT:      -4.4      2.726      4.840
REMARK  7 active torsions:
REMARK  status: ('A' for Active; 'I' for Inactive)
REMARK    1  A    between atoms: C_2  and  C_3 
REMARK    2  A    between atoms: C_3  and  O_6 
REMARK    3  A    between atoms: C_3  and  C_4 
REMARK    4  A    between atoms: C_7  and  O_6 
REMARK    5  A    between atoms: C_9  and  C_10 
REMARK    6  A    between atoms: N_15  and  C_14 
REMARK    7  A    between atoms: N_20  and  C_19 
REMARK       I    between atoms: C_22  and  N_20 
ROOT
ATOM      1  C   LIG d   1      -5.328  78.196 116.873  0.00  0.00     0.161 C 
ATOM      2  C   LIG d   1      -4.521  79.316 116.616  0.00  0.00     0.016 C 
ATOM      3  C   LIG d   1      -3.391  79.283 115.767  0.00  0.00     0.038 C 
ATOM      4  C   LIG d   1      -3.077  78.155 114.994  0.00  0.00     0.028 C 
ATOM      5  C   LIG d   1      -3.567  76.846 115.605  0.00  0.00    -0.047 C 
ATOM      6  C   LIG d   1      -5.067  76.985 115.953  0.00  0.00     0.091 C 
ENDROOT
BRANCH   1   7
ATOM      7  O   LIG d   1      -6.718  78.573 116.823  0.00  0.00    -0.368 OA
BRANCH   7   8
ATOM      8  C   LIG d   1      -7.298  79.037 118.067  0.00  0.00     0.119 C 
BRANCH   8   9
ATOM      9  C   LIG d   1      -8.330  77.985 118.518  0.00  0.00     0.028 C 
ATOM     10  C   LIG d   1      -9.740  78.578 118.677  0.00  0.00     0.006 C 
ENDBRANCH   8   9
BRANCH   8  11
ATOM     11  C   LIG d   1      -8.097  80.328 117.862  0.00  0.00     0.028 C 
ATOM     12  C   LIG d   1      -7.204  81.575 117.776  0.00  0.00     0.006 C 
ENDBRANCH   8  11
ENDBRANCH   7   8
ENDBRANCH   1   7
BRANCH   6  13
ATOM     13  N   LIG d   1      -5.606  75.779 116.632  0.00  0.00    -0.311 N 
ATOM     14  C   LIG d   1      -6.178  74.766 115.984  0.00  0.00     0.210 C 
ATOM     15  C   LIG d   1      -6.684  73.629 116.877  0.00  0.00     0.109 C 
ATOM     16  O   LIG d   1      -6.286  74.686 114.751  0.00  0.00    -0.276 OA
ATOM     17  H   LIG d   1      -5.532  75.746 117.630  0.00  0.00     0.149 HD
ENDBRANCH   6  13
BRANCH   5  18
ATOM     18  N   LIG d   1      -3.296  75.771 114.633  0.00  0.00     0.381 N 
ATOM     19  H   LIG d   1      -4.147  75.501 114.181  0.00  0.00    -0.090 HD
ATOM     20  H   LIG d   1      -2.933  74.973 115.123  0.00  0.00    -0.090 HD
ATOM     21  H   LIG d   1      -2.636  76.083 113.955  0.00  0.00    -0.090 HD
ENDBRANCH   5  18
BRANCH   3  22
ATOM     22  C   LIG d   1      -2.537  80.374 115.716  0.00  0.00     0.382 C 
ATOM     23  O   LIG d   1      -1.596  80.473 116.540  0.00  0.00    -0.241 OA
ATOM     24  O   LIG d   1      -2.722  81.283 114.885  0.00  0.00    -0.241 OA
ENDBRANCH   3  22
TORSDOF 7
ENDMDL
