MODEL 1
REMARK VINA RESULT:      -6.2      0.000      0.000
REMARK  7 active torsions:
REMARK  status: ('A' for Active; 'I' for Inactive)
REMARK    1  A    between atoms: C_2  and  C_3 
REMARK    2  A    between atoms: C_3  and  O_6 
REMARK    3  A    between atoms: C_3  and  C_4 
REMARK    4  A    between atoms: C_7  and  O_6 
REMARK    5  A    between atoms: C_9  and  C_10 
REMARK    6  A    between atoms: N_15  and  C_14 
REMARK    7  A    between atoms: N_20  and  C_19 
REMARK       I    between atoms: C_22  and  N_20 
ROOT
ATOM      1  C   LIG d   1      -7.536  77.167 117.792  0.00  0.00     0.161 C 
ATOM      2  C   LIG d   1      -8.649  77.995 118.014  0.00  0.00     0.016 C 
ATOM      3  C   LIG d   1      -8.559  79.398 118.160  0.00  0.00     0.038 C 
ATOM      4  C   LIG d   1      -7.359  80.091 117.942  0.00  0.00     0.028 C 
ATOM      5  C   LIG d   1      -6.116  79.249 118.213  0.00  0.00    -0.047 C 
ATOM      6  C   LIG d   1      -6.233  77.916 117.440  0.00  0.00     0.091 C 
ENDROOT
BRANCH   1   7
ATOM      7  O   LIG d   1      -7.845  76.195 116.773  0.00  0.00    -0.368 OA
BRANCH   7   8
ATOM      8  C   LIG d   1      -8.118  74.850 117.238  0.00  0.00     0.119 C 
BRANCH   8   9
ATOM      9  C   LIG d   1      -7.190  73.895 116.464  0.00  0.00     0.028 C 
ATOM     10  C   LIG d   1      -6.419  74.609 115.340  0.00  0.00     0.006 C 
ENDBRANCH   8   9
BRANCH   8  11
ATOM     11  C   LIG d   1      -9.541  74.414 116.877  0.00  0.00     0.028 C 
ATOM     12  C   LIG d   1      -9.641  72.914 116.556  0.00  0.00     0.006 C 
ENDBRANCH   8  11
ENDBRANCH   7   8
ENDBRANCH   1   7
BRANCH   6  13
ATOM     13  N   LIG d   1      -5.098  76.998 117.716  0.00  0.00    -0.311 N 
ATOM     14  C   LIG d   1      -4.011  76.924 116.950  0.00  0.00     0.210 C 
ATOM     15  C   LIG d   1      -2.969  75.898 117.403  0.00  0.00     0.109 C 
ATOM     16  O   LIG d   1      -3.797  77.635 115.956  0.00  0.00    -0.276 OA
ATOM     17  H   LIG d   1      -5.174  76.408 118.521  0.00  0.00     0.149 HD
ENDBRANCH   6  13
BRANCH   5  18
ATOM     18  N   LIG d   1      -4.941  80.048 117.814  0.00  0.00     0.381 N 
ATOM     19  H   LIG d   1      -4.841  80.028 116.819  0.00  0.00    -0.090 HD
ATOM     20  H   LIG d   1      -4.118  79.641 118.223  0.00  0.00    -0.090 HD
ATOM     21  H   LIG d   1      -5.046  80.988 118.127  0.00  0.00    -0.090 HD
ENDBRANCH   5  18
BRANCH   3  22
ATOM     22  C   LIG d   1      -9.671  80.119 118.568  0.00  0.00     0.382 C 
ATOM     23  O   LIG d   1     -10.196  80.954 117.792  0.00  0.00    -0.241 OA
ATOM     24  O   LIG d   1     -10.128  79.979 119.718  0.00  0.00    -0.241 OA
ENDBRANCH   3  22
TORSDOF 7
ENDMDL
MODEL 2
REMARK VINA RESULT:      -5.9      2.101      5.497
REMARK  7 active torsions:
REMARK  status: ('A' for Active; 'I' for Inactive)
REMARK    1  A    between atoms: C_2  and  C_3 
REMARK    2  A    between atoms: C_3  and  O_6 
REMARK    3  A    between atoms: C_3  and  C_4 
REMARK    4  A    between atoms: C_7  and  O_6 
REMARK    5  A    between atoms: C_9  and  C_10 
REMARK    6  A    between atoms: N_15  and  C_14 
REMARK    7  A    between atoms: N_20  and  C_19 
REMARK       I    between atoms: C_22  and  N_20 
ROOT
ATOM      1  C   LIG d   1      -5.567  75.838 116.549  0.00  0.00     0.161 C 
ATOM      2  C   LIG d   1      -6.194  74.638 116.171  0.00  0.00     0.016 C 
ATOM      3  C   LIG d   1      -7.562  74.368 116.407  0.00  0.00     0.038 C 
ATOM      4  C   LIG d   1      -8.436  75.346 116.904  0.00  0.00     0.028 C 
ATOM      5  C   LIG d   1      -7.744  76.396 117.766  0.00  0.00    -0.047 C 
ATOM      6  C   LIG d   1      -6.530  76.959 116.992  0.00  0.00     0.091 C 
ENDROOT
BRANCH   1   7
ATOM      7  O   LIG d   1      -4.715  76.301 115.482  0.00  0.00    -0.368 OA
BRANCH   7   8
ATOM      8  C   LIG d   1      -3.312  75.956 115.592  0.00  0.00     0.119 C 
BRANCH   8   9
ATOM      9  C   LIG d   1      -2.989  75.803 117.091  0.00  0.00     0.028 C 
ATOM     10  C   LIG d   1      -1.728  74.958 117.336  0.00  0.00     0.006 C 
ENDBRANCH   8   9
BRANCH   8  11
ATOM     11  C   LIG d   1      -2.418  77.098 115.099  0.00  0.00     0.028 C 
ATOM     12  C   LIG d   1      -2.691  78.425 115.826  0.00  0.00     0.006 C 
ENDBRANCH   8  11
ENDBRANCH   7   8
ENDBRANCH   1   7
BRANCH   6  13
ATOM     13  N   LIG d   1      -5.747  77.933 117.797  0.00  0.00    -0.311 N 
ATOM     14  C   LIG d   1      -6.027  79.233 117.850  0.00  0.00     0.210 C 
ATOM     15  C   LIG d   1      -5.082  80.063 118.724  0.00  0.00     0.109 C 
ATOM     16  O   LIG d   1      -6.988  79.774 117.282  0.00  0.00    -0.276 OA
ATOM     17  H   LIG d   1      -4.968  77.574 118.314  0.00  0.00     0.149 HD
ENDBRANCH   6  13
BRANCH   5  18
ATOM     18  N   LIG d   1      -8.744  77.426 118.102  0.00  0.00     0.381 N 
ATOM     19  H   LIG d   1      -8.412  77.986 118.862  0.00  0.00    -0.090 HD
ATOM     20  H   LIG d   1      -9.593  76.973 118.391  0.00  0.00    -0.090 HD
ATOM     21  H   LIG d   1      -8.920  78.003 117.308  0.00  0.00    -0.090 HD
ENDBRANCH   5  18
BRANCH   3  22
ATOM     22  C   LIG d   1      -8.059  73.093 116.181  0.00  0.00     0.382 C 
ATOM     23  O   LIG d   1      -9.266  72.841 116.413  0.00  0.00    -0.241 OA
ATOM     24  O   LIG d   1      -7.305  72.181 115.790  0.00  0.00    -0.241 OA
ENDBRANCH   3  22
TORSDOF 7
ENDMDL
MODEL 3
REMARK VINA RESULT:      -5.6      1.753      4.962
REMARK  7 active torsions:
REMARK  status: ('A' for Active; 'I' for Inactive)
REMARK    1  A    between atoms: C_2  and  C_3 
REMARK    2  A    between atoms: C_3  and  O_6 
REMARK    3  A    between atoms: C_3  and  C_4 
REMARK    4  A    between atoms: C_7  and  O_6 
REMARK    5  A    between atoms: C_9  and  C_10 
REMARK    6  A    between atoms: N_15  and  C_14 
REMARK    7  A    between atoms: N_20  and  C_19 
REMARK       I    between atoms: C_22  and  N_20 
ROOT
ATOM      1  C   LIG d   1      -6.908  76.351 116.913  0.00  0.00     0.161 C 
ATOM      2  C   LIG d   1      -5.726  75.821 116.369  0.00  0.00     0.016 C 
ATOM      3  C   LIG d   1      -4.453  76.408 116.552  0.00  0.00     0.038 C 
ATOM      4  C   LIG d   1      -4.254  77.488 117.425  0.00  0.00     0.028 C 
ATOM      5  C   LIG d   1      -5.490  78.363 117.598  0.00  0.00    -0.047 C 
ATOM      6  C   LIG d   1      -6.695  77.465 117.959  0.00  0.00     0.091 C 
ENDROOT
BRANCH   1   7
ATOM      7  O   LIG d   1      -7.709  75.289 117.468  0.00  0.00    -0.368 OA
BRANCH   7   8
ATOM      8  C   LIG d   1      -8.227  74.320 116.523  0.00  0.00     0.119 C 
BRANCH   8   9
ATOM      9  C   LIG d   1      -9.757  74.277 116.697  0.00  0.00     0.028 C 
ATOM     10  C   LIG d   1     -10.318  75.579 117.293  0.00  0.00     0.006 C 
ENDBRANCH   8   9
BRANCH   8  11
ATOM     11  C   LIG d   1      -7.741  72.906 116.852  0.00  0.00     0.028 C 
ATOM     12  C   LIG d   1      -6.813  72.328 115.772  0.00  0.00     0.006 C 
ENDBRANCH   8  11
ENDBRANCH   7   8
ENDBRANCH   1   7
BRANCH   6  13
ATOM     13  N   LIG d   1      -7.963  78.232 118.064  0.00  0.00    -0.311 N 
ATOM     14  C   LIG d   1      -8.481  78.639 119.222  0.00  0.00     0.210 C 
ATOM     15  C   LIG d   1      -9.806  79.399 119.106  0.00  0.00     0.109 C 
ATOM     16  O   LIG d   1      -7.951  78.472 120.331  0.00  0.00    -0.276 OA
ATOM     17  H   LIG d   1      -8.443  78.439 117.210  0.00  0.00     0.149 HD
ENDBRANCH   6  13
BRANCH   5  18
ATOM     18  N   LIG d   1      -5.185  79.366 118.636  0.00  0.00     0.381 N 
ATOM     19  H   LIG d   1      -5.571  80.252 118.375  0.00  0.00    -0.090 HD
ATOM     20  H   LIG d   1      -4.188  79.466 118.707  0.00  0.00    -0.090 HD
ATOM     21  H   LIG d   1      -5.561  79.076 119.511  0.00  0.00    -0.090 HD
ENDBRANCH   5  18
BRANCH   3  22
ATOM     22  C   LIG d   1      -3.369  75.938 115.827  0.00  0.00     0.382 C 
ATOM     23  O   LIG d   1      -2.382  75.444 116.424  0.00  0.00    -0.241 OA
ATOM     24  O   LIG d   1      -3.346  76.042 114.586  0.00  0.00    -0.241 OA
ENDBRANCH   3  22
TORSDOF 7
ENDMDL
MODEL 4
REMARK VINA RESULT:      -5.6      0.953      1.809
REMARK  7 active torsions:
REMARK  status: ('A' for Active; 'I' for Inactive)
REMARK    1  A    between atoms: C_2  and  C_3 
REMARK    2  A    between atoms: C_3  and  O_6 
REMARK    3  A    between atoms: C_3  and  C_4 
REMARK    4  A    between atoms: C_7  and  O_6 
REMARK    5  A    between atoms: C_9  and  C_10 
REMARK    6  A    between atoms: N_15  and  C_14 
REMARK    7  A    between atoms: N_20  and  C_19 
REMARK       I    between atoms: C_22  and  N_20 
ROOT
ATOM      1  C   LIG d   1      -6.766  76.863 118.221  0.00  0.00     0.161 C 
ATOM      2  C   LIG d   1      -8.055  77.404 118.359  0.00  0.00     0.016 C 
ATOM      3  C   LIG d   1      -8.336  78.785 118.247  0.00  0.00     0.038 C 
ATOM      4  C   LIG d   1      -7.363  79.708 117.835  0.00  0.00     0.028 C 
ATOM      5  C   LIG d   1      -5.940  79.280 118.176  0.00  0.00    -0.047 C 
ATOM      6  C   LIG d   1      -5.711  77.841 117.662  0.00  0.00     0.091 C 
ENDROOT
BRANCH   1   7
ATOM      7  O   LIG d   1      -6.821  75.670 117.414  0.00  0.00    -0.368 OA
BRANCH   7   8
ATOM      8  C   LIG d   1      -7.764  75.687 116.314  0.00  0.00     0.119 C 
BRANCH   8   9
ATOM      9  C   LIG d   1      -8.668  74.447 116.461  0.00  0.00     0.028 C 
ATOM     10  C   LIG d   1      -7.875  73.184 116.835  0.00  0.00     0.006 C 
ENDBRANCH   8   9
BRANCH   8  11
ATOM     11  C   LIG d   1      -7.054  75.515 114.968  0.00  0.00     0.028 C 
ATOM     12  C   LIG d   1      -5.561  75.182 115.120  0.00  0.00     0.006 C 
ENDBRANCH   8  11
ENDBRANCH   7   8
ENDBRANCH   1   7
BRANCH   6  13
ATOM     13  N   LIG d   1      -4.371  77.314 118.028  0.00  0.00    -0.311 N 
ATOM     14  C   LIG d   1      -3.317  77.359 117.214  0.00  0.00     0.210 C 
ATOM     15  C   LIG d   1      -2.035  76.742 117.781  0.00  0.00     0.109 C 
ATOM     16  O   LIG d   1      -3.315  77.881 116.089  0.00  0.00    -0.276 OA
ATOM     17  H   LIG d   1      -4.275  76.901 118.936  0.00  0.00     0.149 HD
ENDBRANCH   6  13
BRANCH   5  18
ATOM     18  N   LIG d   1      -5.022  80.263 117.570  0.00  0.00     0.381 N 
ATOM     19  H   LIG d   1      -5.146  81.156 118.005  0.00  0.00    -0.090 HD
ATOM     20  H   LIG d   1      -5.242  80.355 116.594  0.00  0.00    -0.090 HD
ATOM     21  H   LIG d   1      -4.079  79.961 117.678  0.00  0.00    -0.090 HD
ENDBRANCH   5  18
BRANCH   3  22
ATOM     22  C   LIG d   1      -9.593  79.260 118.586  0.00  0.00     0.382 C 
ATOM     23  O   LIG d   1     -10.215  78.755 119.552  0.00  0.00    -0.241 OA
ATOM     24  O   LIG d   1     -10.133  80.158 117.912  0.00  0.00    -0.241 OA
ENDBRANCH   3  22
TORSDOF 7
ENDMDL
MODEL 5
REMARK VINA RESULT:      -5.2      2.088      5.145
REMARK  7 active torsions:
REMARK  status: ('A' for Active; 'I' for Inactive)
REMARK    1  A    between atoms: C_2  and  C_3 
REMARK    2  A    between atoms: C_3  and  O_6 
REMARK    3  A    between atoms: C_3  and  C_4 
REMARK    4  A    between atoms: C_7  and  O_6 
REMARK    5  A    between atoms: C_9  and  C_10 
REMARK    6  A    between atoms: N_15  and  C_14 
REMARK    7  A    between atoms: N_20  and  C_19 
REMARK       I    between atoms: C_22  and  N_20 
ROOT
ATOM      1  C   LIG d   1      -7.116  76.754 117.867  0.00  0.00     0.161 C 
ATOM      2  C   LIG d   1      -7.919  75.619 117.665  0.00  0.00     0.016 C 
ATOM      3  C   LIG d   1      -7.566  74.562 116.795  0.00  0.00     0.038 C 
ATOM      4  C   LIG d   1      -6.308  74.498 116.178  0.00  0.00     0.028 C 
ATOM      5  C   LIG d   1      -5.671  75.866 115.957  0.00  0.00    -0.047 C 
ATOM      6  C   LIG d   1      -5.690  76.649 117.289  0.00  0.00     0.091 C 
ENDROOT
BRANCH   1   7
ATOM      7  O   LIG d   1      -7.065  77.072 119.272  0.00  0.00    -0.368 OA
BRANCH   7   8
ATOM      8  C   LIG d   1      -7.716  78.304 119.671  0.00  0.00     0.119 C 
BRANCH   8   9
ATOM      9  C   LIG d   1      -8.259  78.975 118.394  0.00  0.00     0.028 C 
ATOM     10  C   LIG d   1      -9.759  79.301 118.495  0.00  0.00     0.006 C 
ENDBRANCH   8   9
BRANCH   8  11
ATOM     11  C   LIG d   1      -6.712  79.301 120.257  0.00  0.00     0.028 C 
ATOM     12  C   LIG d   1      -6.515  80.539 119.369  0.00  0.00     0.006 C 
ENDBRANCH   8  11
ENDBRANCH   7   8
ENDBRANCH   1   7
BRANCH   6  13
ATOM     13  N   LIG d   1      -5.162  78.031 117.141  0.00  0.00    -0.311 N 
ATOM     14  C   LIG d   1      -3.894  78.361 117.382  0.00  0.00     0.210 C 
ATOM     15  C   LIG d   1      -3.564  79.844 117.188  0.00  0.00     0.109 C 
ATOM     16  O   LIG d   1      -3.004  77.560 117.706  0.00  0.00    -0.276 OA
ATOM     17  H   LIG d   1      -5.809  78.738 116.852  0.00  0.00     0.149 HD
ENDBRANCH   6  13
BRANCH   5  18
ATOM     18  N   LIG d   1      -4.309  75.644 115.435  0.00  0.00     0.381 N 
ATOM     19  H   LIG d   1      -4.316  74.889 114.779  0.00  0.00    -0.090 HD
ATOM     20  H   LIG d   1      -3.706  75.394 116.198  0.00  0.00    -0.090 HD
ATOM     21  H   LIG d   1      -3.974  76.473 114.995  0.00  0.00    -0.090 HD
ENDBRANCH   5  18
BRANCH   3  22
ATOM     22  C   LIG d   1      -8.494  73.574 116.502  0.00  0.00     0.382 C 
ATOM     23  O   LIG d   1      -9.716  73.787 116.687  0.00  0.00    -0.241 OA
ATOM     24  O   LIG d   1      -8.120  72.456 116.098  0.00  0.00    -0.241 OA
ENDBRANCH   3  22
TORSDOF 7
ENDMDL
MODEL 6
REMARK VINA RESULT:      -5.1      1.944      5.271
REMARK  7 active torsions:
REMARK  status: ('A' for Active; 'I' for Inactive)
REMARK    1  A    between atoms: C_2  and  C_3 
REMARK    2  A    between atoms: C_3  and  O_6 
REMARK    3  A    between atoms: C_3  and  C_4 
REMARK    4  A    between atoms: C_7  and  O_6 
REMARK    5  A    between atoms: C_9  and  C_10 
REMARK    6  A    between atoms: N_15  and  C_14 
REMARK    7  A    between atoms: N_20  and  C_19 
REMARK       I    between atoms: C_22  and  N_20 
ROOT
ATOM      1  C   LIG d   1      -4.986  77.147 116.566  0.00  0.00     0.161 C 
ATOM      2  C   LIG d   1      -3.974  76.173 116.536  0.00  0.00     0.016 C 
ATOM      3  C   LIG d   1      -3.043  75.986 117.584  0.00  0.00     0.038 C 
ATOM      4  C   LIG d   1      -3.157  76.663 118.807  0.00  0.00     0.028 C 
ATOM      5  C   LIG d   1      -3.857  78.013 118.689  0.00  0.00    -0.047 C 
ATOM      6  C   LIG d   1      -5.195  77.821 117.939  0.00  0.00     0.091 C 
ENDROOT
BRANCH   1   7
ATOM      7  O   LIG d   1      -6.223  76.581 116.093  0.00  0.00    -0.368 OA
BRANCH   7   8
ATOM      8  C   LIG d   1      -6.693  75.401 116.792  0.00  0.00     0.119 C 
BRANCH   8   9
ATOM      9  C   LIG d   1      -7.213  74.411 115.731  0.00  0.00     0.028 C 
ATOM     10  C   LIG d   1      -6.694  72.982 115.959  0.00  0.00     0.006 C 
ENDBRANCH   8   9
BRANCH   8  11
ATOM     11  C   LIG d   1      -7.903  75.722 117.675  0.00  0.00     0.028 C 
ATOM     12  C   LIG d   1      -9.242  75.441 116.975  0.00  0.00     0.006 C 
ENDBRANCH   8  11
ENDBRANCH   7   8
ENDBRANCH   1   7
BRANCH   6  13
ATOM     13  N   LIG d   1      -5.903  79.106 117.705  0.00  0.00    -0.311 N 
ATOM     14  C   LIG d   1      -6.906  79.539 118.467  0.00  0.00     0.210 C 
ATOM     15  C   LIG d   1      -7.510  80.881 118.040  0.00  0.00     0.109 C 
ATOM     16  O   LIG d   1      -7.331  78.956 119.476  0.00  0.00    -0.276 OA
ATOM     17  H   LIG d   1      -5.602  79.659 116.927  0.00  0.00     0.149 HD
ENDBRANCH   6  13
BRANCH   5  18
ATOM     18  N   LIG d   1      -4.030  78.547 120.053  0.00  0.00     0.381 N 
ATOM     19  H   LIG d   1      -4.924  78.277 120.411  0.00  0.00    -0.090 HD
ATOM     20  H   LIG d   1      -3.995  79.550 120.016  0.00  0.00    -0.090 HD
ATOM     21  H   LIG d   1      -3.308  78.204 120.648  0.00  0.00    -0.090 HD
ENDBRANCH   5  18
BRANCH   3  22
ATOM     22  C   LIG d   1      -1.961  75.139 117.399  0.00  0.00     0.382 C 
ATOM     23  O   LIG d   1      -1.877  74.075 118.057  0.00  0.00    -0.241 OA
ATOM     24  O   LIG d   1      -1.045  75.449 116.613  0.00  0.00    -0.241 OA
ENDBRANCH   3  22
TORSDOF 7
ENDMDL
MODEL 7
REMARK VINA RESULT:      -5.1     12.293     14.370
REMARK  7 active torsions:
REMARK  status: ('A' for Active; 'I' for Inactive)
REMARK    1  A    between atoms: C_2  and  C_3 
REMARK    2  A    between atoms: C_3  and  O_6 
REMARK    3  A    between atoms: C_3  and  C_4 
REMARK    4  A    between atoms: C_7  and  O_6 
REMARK    5  A    between atoms: C_9  and  C_10 
REMARK    6  A    between atoms: N_15  and  C_14 
REMARK    7  A    between atoms: N_20  and  C_19 
REMARK       I    between atoms: C_22  and  N_20 
ROOT
ATOM      1  C   LIG d   1      -4.505  90.181 117.191  0.00  0.00     0.161 C 
ATOM      2  C   LIG d   1      -3.377  89.345 117.133  0.00  0.00     0.016 C 
ATOM      3  C   LIG d   1      -2.214  89.552 117.910  0.00  0.00     0.038 C 
ATOM      4  C   LIG d   1      -2.159  90.529 118.915  0.00  0.00     0.028 C 
ATOM      5  C   LIG d   1      -3.084  91.714 118.660  0.00  0.00    -0.047 C 
ATOM      6  C   LIG d   1      -4.505  91.186 118.362  0.00  0.00     0.091 C 
ENDROOT
BRANCH   1   7
ATOM      7  O   LIG d   1      -5.705  89.383 117.216  0.00  0.00    -0.368 OA
BRANCH   7   8
ATOM      8  C   LIG d   1      -6.429  89.281 115.965  0.00  0.00     0.119 C 
BRANCH   8   9
ATOM      9  C   LIG d   1      -5.729  90.204 114.949  0.00  0.00     0.028 C 
ATOM     10  C   LIG d   1      -6.624  91.373 114.504  0.00  0.00     0.006 C 
ENDBRANCH   8   9
BRANCH   8  11
ATOM     11  C   LIG d   1      -7.852  89.832 116.099  0.00  0.00     0.028 C 
ATOM     12  C   LIG d   1      -8.899  88.728 116.318  0.00  0.00     0.006 C 
ENDBRANCH   8  11
ENDBRANCH   7   8
ENDBRANCH   1   7
BRANCH   6  13
ATOM     13  N   LIG d   1      -5.455  92.277 118.018  0.00  0.00    -0.311 N 
ATOM     14  C   LIG d   1      -6.091  93.009 118.931  0.00  0.00     0.210 C 
ATOM     15  C   LIG d   1      -7.041  94.068 118.362  0.00  0.00     0.109 C 
ATOM     16  O   LIG d   1      -5.935  92.904 120.156  0.00  0.00    -0.276 OA
ATOM     17  H   LIG d   1      -5.616  92.451 117.046  0.00  0.00     0.149 HD
ENDBRANCH   6  13
BRANCH   5  18
ATOM     18  N   LIG d   1      -3.028  92.587 119.848  0.00  0.00     0.381 N 
ATOM     19  H   LIG d   1      -2.639  92.083 120.620  0.00  0.00    -0.090 HD
ATOM     20  H   LIG d   1      -3.963  92.863 120.092  0.00  0.00    -0.090 HD
ATOM     21  H   LIG d   1      -2.475  93.392 119.655  0.00  0.00    -0.090 HD
ENDBRANCH   5  18
BRANCH   3  22
ATOM     22  C   LIG d   1      -1.076  88.802 117.657  0.00  0.00     0.382 C 
ATOM     23  O   LIG d   1      -0.448  88.960 116.582  0.00  0.00    -0.241 OA
ATOM     24  O   LIG d   1      -0.695  87.938 118.469  0.00  0.00    -0.241 OA
ENDBRANCH   3  22
TORSDOF 7
ENDMDL
MODEL 8
REMARK VINA RESULT:      -5.0      3.723      6.013
REMARK  7 active torsions:
REMARK  status: ('A' for Active; 'I' for Inactive)
REMARK    1  A    between atoms: C_2  and  C_3 
REMARK    2  A    between atoms: C_3  and  O_6 
REMARK    3  A    between atoms: C_3  and  C_4 
REMARK    4  A    between atoms: C_7  and  O_6 
REMARK    5  A    between atoms: C_9  and  C_10 
REMARK    6  A    between atoms: N_15  and  C_14 
REMARK    7  A    between atoms: N_20  and  C_19 
REMARK       I    between atoms: C_22  and  N_20 
ROOT
ATOM      1  C   LIG d   1      -2.959  76.410 116.911  0.00  0.00     0.161 C 
ATOM      2  C   LIG d   1      -2.939  77.386 115.901  0.00  0.00     0.016 C 
ATOM      3  C   LIG d   1      -1.748  77.911 115.349  0.00  0.00     0.038 C 
ATOM      4  C   LIG d   1      -0.488  77.381 115.665  0.00  0.00     0.028 C 
ATOM      5  C   LIG d   1      -0.429  76.743 117.049  0.00  0.00    -0.047 C 
ATOM      6  C   LIG d   1      -1.597  75.740 117.189  0.00  0.00     0.091 C 
ENDROOT
BRANCH   1   7
ATOM      7  O   LIG d   1      -3.955  75.413 116.607  0.00  0.00    -0.368 OA
BRANCH   7   8
ATOM      8  C   LIG d   1      -5.183  75.900 116.013  0.00  0.00     0.119 C 
BRANCH   8   9
ATOM      9  C   LIG d   1      -6.190  76.132 117.157  0.00  0.00     0.028 C 
ATOM     10  C   LIG d   1      -6.510  77.623 117.362  0.00  0.00     0.006 C 
ENDBRANCH   8   9
BRANCH   8  11
ATOM     11  C   LIG d   1      -5.828  74.838 115.117  0.00  0.00     0.028 C 
ATOM     12  C   LIG d   1      -6.808  73.931 115.877  0.00  0.00     0.006 C 
ENDBRANCH   8  11
ENDBRANCH   7   8
ENDBRANCH   1   7
BRANCH   6  13
ATOM     13  N   LIG d   1      -1.663  75.133 118.544  0.00  0.00    -0.311 N 
ATOM     14  C   LIG d   1      -1.019  74.016 118.879  0.00  0.00     0.210 C 
ATOM     15  C   LIG d   1      -1.239  73.552 120.322  0.00  0.00     0.109 C 
ATOM     16  O   LIG d   1      -0.261  73.384 118.128  0.00  0.00    -0.276 OA
ATOM     17  H   LIG d   1      -2.231  75.598 119.225  0.00  0.00     0.149 HD
ENDBRANCH   6  13
BRANCH   5  18
ATOM     18  N   LIG d   1       0.896  76.112 117.192  0.00  0.00     0.381 N 
ATOM     19  H   LIG d   1       1.457  76.317 116.390  0.00  0.00    -0.090 HD
ATOM     20  H   LIG d   1       0.777  75.116 117.248  0.00  0.00    -0.090 HD
ATOM     21  H   LIG d   1       1.346  76.447 118.016  0.00  0.00    -0.090 HD
ENDBRANCH   5  18
BRANCH   3  22
ATOM     22  C   LIG d   1      -1.808  79.005 114.499  0.00  0.00     0.382 C 
ATOM     23  O   LIG d   1      -2.912  79.549 114.255  0.00  0.00    -0.241 OA
ATOM     24  O   LIG d   1      -0.779  79.426 113.938  0.00  0.00    -0.241 OA
ENDBRANCH   3  22
TORSDOF 7
ENDMDL
MODEL 9
REMARK VINA RESULT:      -4.9      2.610      6.732
REMARK  7 active torsions:
REMARK  status: ('A' for Active; 'I' for Inactive)
REMARK    1  A    between atoms: C_2  and  C_3 
REMARK    2  A    between atoms: C_3  and  O_6 
REMARK    3  A    between atoms: C_3  and  C_4 
REMARK    4  A    between atoms: C_7  and  O_6 
REMARK    5  A    between atoms: C_9  and  C_10 
REMARK    6  A    between atoms: N_15  and  C_14 
REMARK    7  A    between atoms: N_20  and  C_19 
REMARK       I    between atoms: C_22  and  N_20 
ROOT
ATOM      1  C   LIG d   1      -5.019  77.459 118.517  0.00  0.00     0.161 C 
ATOM      2  C   LIG d   1      -3.773  76.879 118.222  0.00  0.00     0.016 C 
ATOM      3  C   LIG d   1      -3.558  76.012 117.126  0.00  0.00     0.038 C 
ATOM      4  C   LIG d   1      -4.546  75.785 116.156  0.00  0.00     0.028 C 
ATOM      5  C   LIG d   1      -5.966  75.947 116.688  0.00  0.00    -0.047 C 
ATOM      6  C   LIG d   1      -6.080  77.310 117.407  0.00  0.00     0.091 C 
ENDROOT
BRANCH   1   7
ATOM      7  O   LIG d   1      -4.843  78.848 118.859  0.00  0.00    -0.368 OA
BRANCH   7   8
ATOM      8  C   LIG d   1      -3.558  79.428 118.526  0.00  0.00     0.119 C 
BRANCH   8   9
ATOM      9  C   LIG d   1      -3.154  80.357 119.687  0.00  0.00     0.028 C 
ATOM     10  C   LIG d   1      -1.650  80.678 119.687  0.00  0.00     0.006 C 
ENDBRANCH   8   9
BRANCH   8  11
ATOM     11  C   LIG d   1      -3.658  80.336 117.297  0.00  0.00     0.028 C 
ATOM     12  C   LIG d   1      -2.829  79.825 116.109  0.00  0.00     0.006 C 
ENDBRANCH   8  11
ENDBRANCH   7   8
ENDBRANCH   1   7
BRANCH   6  13
ATOM     13  N   LIG d   1      -7.414  77.513 118.030  0.00  0.00    -0.311 N 
ATOM     14  C   LIG d   1      -8.061  78.677 118.014  0.00  0.00     0.210 C 
ATOM     15  C   LIG d   1      -9.415  78.673 118.732  0.00  0.00     0.109 C 
ATOM     16  O   LIG d   1      -7.658  79.703 117.446  0.00  0.00    -0.276 OA
ATOM     17  H   LIG d   1      -7.829  76.724 118.485  0.00  0.00     0.149 HD
ENDBRANCH   6  13
BRANCH   5  18
ATOM     18  N   LIG d   1      -6.887  75.818 115.543  0.00  0.00     0.381 N 
ATOM     19  H   LIG d   1      -6.385  75.503 114.737  0.00  0.00    -0.090 HD
ATOM     20  H   LIG d   1      -7.280  76.720 115.338  0.00  0.00    -0.090 HD
ATOM     21  H   LIG d   1      -7.615  75.173 115.762  0.00  0.00    -0.090 HD
ENDBRANCH   5  18
BRANCH   3  22
ATOM     22  C   LIG d   1      -2.356  75.331 117.014  0.00  0.00     0.382 C 
ATOM     23  O   LIG d   1      -2.094  74.388 117.800  0.00  0.00    -0.241 OA
ATOM     24  O   LIG d   1      -1.511  75.676 116.167  0.00  0.00    -0.241 OA
ENDBRANCH   3  22
TORSDOF 7
ENDMDL
