MODEL 1
REMARK VINA RESULT:      -5.5      0.000      0.000
REMARK  7 active torsions:
REMARK  status: ('A' for Active; 'I' for Inactive)
REMARK    1  A    between atoms: C_2  and  C_3 
REMARK    2  A    between atoms: C_3  and  O_6 
REMARK    3  A    between atoms: C_3  and  C_4 
REMARK    4  A    between atoms: C_7  and  O_6 
REMARK    5  A    between atoms: C_9  and  C_10 
REMARK    6  A    between atoms: N_15  and  C_14 
REMARK    7  A    between atoms: N_20  and  C_19 
REMARK       I    between atoms: C_22  and  N_20 
ROOT
ATOM      1  C   LIG d   1      -4.309  90.796 117.705  0.00  0.00     0.161 C 
ATOM      2  C   LIG d   1      -5.223  90.121 116.878  0.00  0.00     0.016 C 
ATOM      3  C   LIG d   1      -6.466  90.668 116.484  0.00  0.00     0.038 C 
ATOM      4  C   LIG d   1      -6.816  91.996 116.768  0.00  0.00     0.028 C 
ATOM      5  C   LIG d   1      -6.147  92.543 118.025  0.00  0.00    -0.047 C 
ATOM      6  C   LIG d   1      -4.625  92.289 117.934  0.00  0.00     0.091 C 
ENDROOT
BRANCH   1   7
ATOM      7  O   LIG d   1      -2.973  90.640 117.187  0.00  0.00    -0.368 OA
BRANCH   7   8
ATOM      8  C   LIG d   1      -2.031  89.956 118.049  0.00  0.00     0.119 C 
BRANCH   8   9
ATOM      9  C   LIG d   1      -0.623  90.176 117.463  0.00  0.00     0.028 C 
ATOM     10  C   LIG d   1       0.221  91.142 118.309  0.00  0.00     0.006 C 
ENDBRANCH   8   9
BRANCH   8  11
ATOM     11  C   LIG d   1      -2.250  88.441 118.023  0.00  0.00     0.028 C 
ATOM     12  C   LIG d   1      -2.602  87.865 119.404  0.00  0.00     0.006 C 
ENDBRANCH   8  11
ENDBRANCH   7   8
ENDBRANCH   1   7
BRANCH   6  13
ATOM     13  N   LIG d   1      -3.904  92.719 119.161  0.00  0.00    -0.311 N 
ATOM     14  C   LIG d   1      -2.748  93.378 119.139  0.00  0.00     0.210 C 
ATOM     15  C   LIG d   1      -2.165  93.708 120.517  0.00  0.00     0.109 C 
ATOM     16  O   LIG d   1      -2.165  93.750 118.109  0.00  0.00    -0.276 OA
ATOM     17  H   LIG d   1      -4.322  92.485 120.040  0.00  0.00     0.149 HD
ENDBRANCH   6  13
BRANCH   5  18
ATOM     18  N   LIG d   1      -6.490  93.974 118.125  0.00  0.00     0.381 N 
ATOM     19  H   LIG d   1      -5.843  94.436 118.733  0.00  0.00    -0.090 HD
ATOM     20  H   LIG d   1      -7.410  94.061 118.519  0.00  0.00    -0.090 HD
ATOM     21  H   LIG d   1      -6.466  94.395 117.222  0.00  0.00    -0.090 HD
ENDBRANCH   5  18
BRANCH   3  22
ATOM     22  C   LIG d   1      -7.391  89.868 115.830  0.00  0.00     0.382 C 
ATOM     23  O   LIG d   1      -8.137  89.105 116.490  0.00  0.00    -0.241 OA
ATOM     24  O   LIG d   1      -7.459  89.868 114.586  0.00  0.00    -0.241 OA
ENDBRANCH   3  22
TORSDOF 7
ENDMDL
MODEL 2
REMARK VINA RESULT:      -5.4     14.262     16.465
REMARK  7 active torsions:
REMARK  status: ('A' for Active; 'I' for Inactive)
REMARK    1  A    between atoms: C_2  and  C_3 
REMARK    2  A    between atoms: C_3  and  O_6 
REMARK    3  A    between atoms: C_3  and  C_4 
REMARK    4  A    between atoms: C_7  and  O_6 
REMARK    5  A    between atoms: C_9  and  C_10 
REMARK    6  A    between atoms: N_15  and  C_14 
REMARK    7  A    between atoms: N_20  and  C_19 
REMARK       I    between atoms: C_22  and  N_20 
ROOT
ATOM      1  C   LIG d   1      -7.528  75.290 117.792  0.00  0.00     0.161 C 
ATOM      2  C   LIG d   1      -8.813  75.852 117.867  0.00  0.00     0.016 C 
ATOM      3  C   LIG d   1      -9.056  77.245 117.855  0.00  0.00     0.038 C 
ATOM      4  C   LIG d   1      -8.033  78.174 117.612  0.00  0.00     0.028 C 
ATOM      5  C   LIG d   1      -6.653  77.679 118.034  0.00  0.00    -0.047 C 
ATOM      6  C   LIG d   1      -6.409  76.284 117.415  0.00  0.00     0.091 C 
ENDROOT
BRANCH   1   7
ATOM      7  O   LIG d   1      -7.535  74.174 116.880  0.00  0.00    -0.368 OA
BRANCH   7   8
ATOM      8  C   LIG d   1      -7.796  72.875 117.465  0.00  0.00     0.119 C 
BRANCH   8   9
ATOM      9  C   LIG d   1      -6.644  71.940 117.047  0.00  0.00     0.028 C 
ATOM     10  C   LIG d   1      -6.164  72.205 115.611  0.00  0.00     0.006 C 
ENDBRANCH   8   9
BRANCH   8  11
ATOM     11  C   LIG d   1      -9.062  72.244 116.879  0.00  0.00     0.028 C 
ATOM     12  C   LIG d   1      -9.121  70.722 117.087  0.00  0.00     0.006 C 
ENDBRANCH   8  11
ENDBRANCH   7   8
ENDBRANCH   1   7
BRANCH   6  13
ATOM     13  N   LIG d   1      -5.117  75.691 117.846  0.00  0.00    -0.311 N 
ATOM     14  C   LIG d   1      -4.183  75.269 116.995  0.00  0.00     0.210 C 
ATOM     15  C   LIG d   1      -2.934  74.671 117.649  0.00  0.00     0.109 C 
ATOM     16  O   LIG d   1      -4.258  75.362 115.760  0.00  0.00    -0.276 OA
ATOM     17  H   LIG d   1      -4.960  75.606 118.831  0.00  0.00     0.149 HD
ENDBRANCH   6  13
BRANCH   5  18
ATOM     18  N   LIG d   1      -5.667  78.686 117.599  0.00  0.00     0.381 N 
ATOM     19  H   LIG d   1      -5.121  78.321 116.844  0.00  0.00    -0.090 HD
ATOM     20  H   LIG d   1      -5.049  78.887 118.365  0.00  0.00    -0.090 HD
ATOM     21  H   LIG d   1      -6.133  79.517 117.311  0.00  0.00    -0.090 HD
ENDBRANCH   5  18
BRANCH   3  22
ATOM     22  C   LIG d   1     -10.328  77.724 118.127  0.00  0.00     0.382 C 
ATOM     23  O   LIG d   1     -11.273  76.920 118.316  0.00  0.00    -0.241 OA
ATOM     24  O   LIG d   1     -10.553  78.949 118.142  0.00  0.00    -0.241 OA
ENDBRANCH   3  22
TORSDOF 7
ENDMDL
MODEL 3
REMARK VINA RESULT:      -5.0     14.039     16.299
REMARK  7 active torsions:
REMARK  status: ('A' for Active; 'I' for Inactive)
REMARK    1  A    between atoms: C_2  and  C_3 
REMARK    2  A    between atoms: C_3  and  O_6 
REMARK    3  A    between atoms: C_3  and  C_4 
REMARK    4  A    between atoms: C_7  and  O_6 
REMARK    5  A    between atoms: C_9  and  C_10 
REMARK    6  A    between atoms: N_15  and  C_14 
REMARK    7  A    between atoms: N_20  and  C_19 
REMARK       I    between atoms: C_22  and  N_20 
ROOT
ATOM      1  C   LIG d   1      -7.498  75.750 117.489  0.00  0.00     0.161 C 
ATOM      2  C   LIG d   1      -8.145  74.504 117.438  0.00  0.00     0.016 C 
ATOM      3  C   LIG d   1      -7.457  73.271 117.387  0.00  0.00     0.038 C 
ATOM      4  C   LIG d   1      -6.064  73.193 117.536  0.00  0.00     0.028 C 
ATOM      5  C   LIG d   1      -5.334  74.453 117.083  0.00  0.00    -0.047 C 
ATOM      6  C   LIG d   1      -5.981  75.680 117.765  0.00  0.00     0.091 C 
ENDROOT
BRANCH   1   7
ATOM      7  O   LIG d   1      -8.145  76.598 118.458  0.00  0.00    -0.368 OA
BRANCH   7   8
ATOM      8  C   LIG d   1      -8.894  77.718 117.927  0.00  0.00     0.119 C 
BRANCH   8   9
ATOM      9  C   LIG d   1      -8.048  78.987 118.147  0.00  0.00     0.028 C 
ATOM     10  C   LIG d   1      -8.816  80.272 117.794  0.00  0.00     0.006 C 
ENDBRANCH   8   9
BRANCH   8  11
ATOM     11  C   LIG d   1     -10.186  77.949 118.716  0.00  0.00     0.028 C 
ATOM     12  C   LIG d   1     -11.162  76.766 118.622  0.00  0.00     0.006 C 
ENDBRANCH   8  11
ENDBRANCH   7   8
ENDBRANCH   1   7
BRANCH   6  13
ATOM     13  N   LIG d   1      -5.382  76.962 117.311  0.00  0.00    -0.311 N 
ATOM     14  C   LIG d   1      -4.397  77.581 117.960  0.00  0.00     0.210 C 
ATOM     15  C   LIG d   1      -3.939  78.901 117.332  0.00  0.00     0.109 C 
ATOM     16  O   LIG d   1      -3.838  77.146 118.978  0.00  0.00    -0.276 OA
ATOM     17  H   LIG d   1      -5.755  77.369 116.476  0.00  0.00     0.149 HD
ENDBRANCH   6  13
BRANCH   5  18
ATOM     18  N   LIG d   1      -3.908  74.288 117.421  0.00  0.00     0.381 N 
ATOM     19  H   LIG d   1      -3.375  75.029 117.012  0.00  0.00    -0.090 HD
ATOM     20  H   LIG d   1      -3.582  73.418 117.040  0.00  0.00    -0.090 HD
ATOM     21  H   LIG d   1      -3.790  74.291 118.411  0.00  0.00    -0.090 HD
ENDBRANCH   5  18
BRANCH   3  22
ATOM     22  C   LIG d   1      -8.160  72.101 117.144  0.00  0.00     0.382 C 
ATOM     23  O   LIG d   1      -7.567  70.995 117.173  0.00  0.00    -0.241 OA
ATOM     24  O   LIG d   1      -9.370  72.140 116.853  0.00  0.00    -0.241 OA
ENDBRANCH   3  22
TORSDOF 7
ENDMDL
MODEL 4
REMARK VINA RESULT:      -4.8     13.436     15.977
REMARK  7 active torsions:
REMARK  status: ('A' for Active; 'I' for Inactive)
REMARK    1  A    between atoms: C_2  and  C_3 
REMARK    2  A    between atoms: C_3  and  O_6 
REMARK    3  A    between atoms: C_3  and  C_4 
REMARK    4  A    between atoms: C_7  and  O_6 
REMARK    5  A    between atoms: C_9  and  C_10 
REMARK    6  A    between atoms: N_15  and  C_14 
REMARK    7  A    between atoms: N_20  and  C_19 
REMARK       I    between atoms: C_22  and  N_20 
ROOT
ATOM      1  C   LIG d   1      -4.467  76.169 116.279  0.00  0.00     0.161 C 
ATOM      2  C   LIG d   1      -3.312  75.376 116.171  0.00  0.00     0.016 C 
ATOM      3  C   LIG d   1      -2.177  75.538 116.999  0.00  0.00     0.038 C 
ATOM      4  C   LIG d   1      -2.180  76.409 118.098  0.00  0.00     0.028 C 
ATOM      5  C   LIG d   1      -3.135  77.586 117.936  0.00  0.00    -0.047 C 
ATOM      6  C   LIG d   1      -4.531  77.050 117.544  0.00  0.00     0.091 C 
ENDROOT
BRANCH   1   7
ATOM      7  O   LIG d   1      -5.640  75.337 116.187  0.00  0.00    -0.368 OA
BRANCH   7   8
ATOM      8  C   LIG d   1      -5.696  74.212 117.099  0.00  0.00     0.119 C 
BRANCH   8   9
ATOM      9  C   LIG d   1      -6.129  72.977 116.284  0.00  0.00     0.028 C 
ATOM     10  C   LIG d   1      -6.500  71.783 117.180  0.00  0.00     0.006 C 
ENDBRANCH   8   9
BRANCH   8  11
ATOM     11  C   LIG d   1      -6.789  74.404 118.154  0.00  0.00     0.028 C 
ATOM     12  C   LIG d   1      -7.918  75.332 117.681  0.00  0.00     0.006 C 
ENDBRANCH   8  11
ENDBRANCH   7   8
ENDBRANCH   1   7
BRANCH   6  13
ATOM     13  N   LIG d   1      -5.505  78.141 117.283  0.00  0.00    -0.311 N 
ATOM     14  C   LIG d   1      -6.340  78.615 118.206  0.00  0.00     0.210 C 
ATOM     15  C   LIG d   1      -7.276  79.727 117.722  0.00  0.00     0.109 C 
ATOM     16  O   LIG d   1      -6.373  78.242 119.388  0.00  0.00    -0.276 OA
ATOM     17  H   LIG d   1      -5.525  78.523 116.358  0.00  0.00     0.149 HD
ENDBRANCH   6  13
BRANCH   5  18
ATOM     18  N   LIG d   1      -3.140  78.335 119.206  0.00  0.00     0.381 N 
ATOM     19  H   LIG d   1      -4.063  78.668 119.400  0.00  0.00    -0.090 HD
ATOM     20  H   LIG d   1      -2.531  79.130 119.118  0.00  0.00    -0.090 HD
ATOM     21  H   LIG d   1      -2.827  77.749 119.949  0.00  0.00    -0.090 HD
ENDBRANCH   5  18
BRANCH   3  22
ATOM     22  C   LIG d   1      -1.009  74.850 116.706  0.00  0.00     0.382 C 
ATOM     23  O   LIG d   1      -0.476  74.974 115.577  0.00  0.00    -0.241 OA
ATOM     24  O   LIG d   1      -0.506  74.075 117.541  0.00  0.00    -0.241 OA
ENDBRANCH   3  22
TORSDOF 7
ENDMDL
MODEL 5
REMARK VINA RESULT:      -4.6      1.448      2.368
REMARK  7 active torsions:
REMARK  status: ('A' for Active; 'I' for Inactive)
REMARK    1  A    between atoms: C_2  and  C_3 
REMARK    2  A    between atoms: C_3  and  O_6 
REMARK    3  A    between atoms: C_3  and  C_4 
REMARK    4  A    between atoms: C_7  and  O_6 
REMARK    5  A    between atoms: C_9  and  C_10 
REMARK    6  A    between atoms: N_15  and  C_14 
REMARK    7  A    between atoms: N_20  and  C_19 
REMARK       I    between atoms: C_22  and  N_20 
ROOT
ATOM      1  C   LIG d   1      -2.789  90.490 117.945  0.00  0.00     0.161 C 
ATOM      2  C   LIG d   1      -3.926  89.987 117.289  0.00  0.00     0.016 C 
ATOM      3  C   LIG d   1      -5.144  90.698 117.189  0.00  0.00     0.038 C 
ATOM      4  C   LIG d   1      -5.262  92.031 117.610  0.00  0.00     0.028 C 
ATOM      5  C   LIG d   1      -4.294  92.400 118.729  0.00  0.00    -0.047 C 
ATOM      6  C   LIG d   1      -2.864  91.986 118.313  0.00  0.00     0.091 C 
ENDROOT
BRANCH   1   7
ATOM      7  O   LIG d   1      -1.613  90.226 117.156  0.00  0.00    -0.368 OA
BRANCH   7   8
ATOM      8  C   LIG d   1      -0.713  89.214 117.671  0.00  0.00     0.119 C 
BRANCH   8   9
ATOM      9  C   LIG d   1      -1.301  88.706 119.002  0.00  0.00     0.028 C 
ATOM     10  C   LIG d   1      -1.167  87.182 119.158  0.00  0.00     0.006 C 
ENDBRANCH   8   9
BRANCH   8  11
ATOM     11  C   LIG d   1       0.650  89.813 118.032  0.00  0.00     0.028 C 
ATOM     12  C   LIG d   1       1.153  90.822 116.988  0.00  0.00     0.006 C 
ENDBRANCH   8  11
ENDBRANCH   7   8
ENDBRANCH   1   7
BRANCH   6  13
ATOM     13  N   LIG d   1      -1.867  92.235 119.387  0.00  0.00    -0.311 N 
ATOM     14  C   LIG d   1      -0.814  93.037 119.238  0.00  0.00     0.210 C 
ATOM     15  C   LIG d   1       0.100  93.138 120.463  0.00  0.00     0.109 C 
ATOM     16  O   LIG d   1      -0.568  93.699 118.219  0.00  0.00    -0.276 OA
ATOM     17  H   LIG d   1      -2.007  91.763 120.258  0.00  0.00     0.149 HD
ENDBRANCH   6  13
BRANCH   5  18
ATOM     18  N   LIG d   1      -4.429  93.849 118.974  0.00  0.00     0.381 N 
ATOM     19  H   LIG d   1      -5.299  94.176 118.604  0.00  0.00    -0.090 HD
ATOM     20  H   LIG d   1      -3.684  94.329 118.500  0.00  0.00    -0.090 HD
ATOM     21  H   LIG d   1      -4.384  94.034 119.952  0.00  0.00    -0.090 HD
ENDBRANCH   5  18
BRANCH   3  22
ATOM     22  C   LIG d   1      -6.273  90.060 116.698  0.00  0.00     0.382 C 
ATOM     23  O   LIG d   1      -7.332  90.055 117.370  0.00  0.00    -0.241 OA
ATOM     24  O   LIG d   1      -6.233  89.452 115.611  0.00  0.00    -0.241 OA
ENDBRANCH   3  22
TORSDOF 7
ENDMDL
MODEL 6
REMARK VINA RESULT:      -4.5      2.408      4.498
REMARK  7 active torsions:
REMARK  status: ('A' for Active; 'I' for Inactive)
REMARK    1  A    between atoms: C_2  and  C_3 
REMARK    2  A    between atoms: C_3  and  O_6 
REMARK    3  A    between atoms: C_3  and  C_4 
REMARK    4  A    between atoms: C_7  and  O_6 
REMARK    5  A    between atoms: C_9  and  C_10 
REMARK    6  A    between atoms: N_15  and  C_14 
REMARK    7  A    between atoms: N_20  and  C_19 
REMARK       I    between atoms: C_22  and  N_20 
ROOT
ATOM      1  C   LIG d   1      -4.838  91.974 118.403  0.00  0.00     0.161 C 
ATOM      2  C   LIG d   1      -5.077  93.051 119.272  0.00  0.00     0.016 C 
ATOM      3  C   LIG d   1      -6.179  93.928 119.140  0.00  0.00     0.038 C 
ATOM      4  C   LIG d   1      -7.206  93.693 118.214  0.00  0.00     0.028 C 
ATOM      5  C   LIG d   1      -6.750  92.909 116.989  0.00  0.00    -0.047 C 
ATOM      6  C   LIG d   1      -6.008  91.636 117.455  0.00  0.00     0.091 C 
ENDROOT
BRANCH   1   7
ATOM      7  O   LIG d   1      -4.456  90.810 119.162  0.00  0.00    -0.368 OA
BRANCH   7   8
ATOM      8  C   LIG d   1      -3.094  90.351 118.982  0.00  0.00     0.119 C 
BRANCH   8   9
ATOM      9  C   LIG d   1      -2.379  91.367 118.071  0.00  0.00     0.028 C 
ATOM     10  C   LIG d   1      -0.853  91.359 118.265  0.00  0.00     0.006 C 
ENDBRANCH   8   9
BRANCH   8  11
ATOM     11  C   LIG d   1      -3.049  89.022 118.222  0.00  0.00     0.028 C 
ATOM     12  C   LIG d   1      -2.278  87.928 118.978  0.00  0.00     0.006 C 
ENDBRANCH   8  11
ENDBRANCH   7   8
ENDBRANCH   1   7
BRANCH   6  13
ATOM     13  N   LIG d   1      -5.454  90.854 116.319  0.00  0.00    -0.311 N 
ATOM     14  C   LIG d   1      -6.090  89.828 115.757  0.00  0.00     0.210 C 
ATOM     15  C   LIG d   1      -5.333  89.147 114.612  0.00  0.00     0.109 C 
ATOM     16  O   LIG d   1      -7.223  89.436 116.076  0.00  0.00    -0.276 OA
ATOM     17  H   LIG d   1      -4.553  91.123 115.976  0.00  0.00     0.149 HD
ENDBRANCH   6  13
BRANCH   5  18
ATOM     18  N   LIG d   1      -7.945  92.617 116.176  0.00  0.00     0.381 N 
ATOM     19  H   LIG d   1      -8.760  92.982 116.628  0.00  0.00    -0.090 HD
ATOM     20  H   LIG d   1      -8.048  91.621 116.096  0.00  0.00    -0.090 HD
ATOM     21  H   LIG d   1      -7.850  93.022 115.271  0.00  0.00    -0.090 HD
ENDBRANCH   5  18
BRANCH   3  22
ATOM     22  C   LIG d   1      -6.239  95.076 119.915  0.00  0.00     0.382 C 
ATOM     23  O   LIG d   1      -5.209  95.498 120.492  0.00  0.00    -0.241 OA
ATOM     24  O   LIG d   1      -7.322  95.671 120.079  0.00  0.00    -0.241 OA
ENDBRANCH   3  22
TORSDOF 7
ENDMDL
MODEL 7
REMARK VINA RESULT:      -4.5     16.406     19.110
REMARK  7 active torsions:
REMARK  status: ('A' for Active; 'I' for Inactive)
REMARK    1  A    between atoms: C_2  and  C_3 
REMARK    2  A    between atoms: C_3  and  O_6 
REMARK    3  A    between atoms: C_3  and  C_4 
REMARK    4  A    between atoms: C_7  and  O_6 
REMARK    5  A    between atoms: C_9  and  C_10 
REMARK    6  A    between atoms: N_15  and  C_14 
REMARK    7  A    between atoms: N_20  and  C_19 
REMARK       I    between atoms: C_22  and  N_20 
ROOT
ATOM      1  C   LIG d   1       9.227  78.887 114.973  0.00  0.00     0.161 C 
ATOM      2  C   LIG d   1       9.465  77.507 114.873  0.00  0.00     0.016 C 
ATOM      3  C   LIG d   1      10.605  76.872 115.419  0.00  0.00     0.038 C 
ATOM      4  C   LIG d   1      11.513  77.558 116.239  0.00  0.00     0.028 C 
ATOM      5  C   LIG d   1      11.583  79.053 115.948  0.00  0.00    -0.047 C 
ATOM      6  C   LIG d   1      10.150  79.634 115.958  0.00  0.00     0.091 C 
ENDROOT
BRANCH   1   7
ATOM      7  O   LIG d   1       7.844  79.121 115.306  0.00  0.00    -0.368 OA
BRANCH   7   8
ATOM      8  C   LIG d   1       7.166  78.047 116.003  0.00  0.00     0.119 C 
BRANCH   8   9
ATOM      9  C   LIG d   1       5.738  77.955 115.433  0.00  0.00     0.028 C 
ATOM     10  C   LIG d   1       4.696  77.616 116.512  0.00  0.00     0.006 C 
ENDBRANCH   8   9
BRANCH   8  11
ATOM     11  C   LIG d   1       6.989  78.372 117.490  0.00  0.00     0.028 C 
ATOM     12  C   LIG d   1       8.033  77.679 118.379  0.00  0.00     0.006 C 
ENDBRANCH   8  11
ENDBRANCH   7   8
ENDBRANCH   1   7
BRANCH   6  13
ATOM     13  N   LIG d   1      10.120  81.076 115.599  0.00  0.00    -0.311 N 
ATOM     14  C   LIG d   1       9.354  81.970 116.221  0.00  0.00     0.210 C 
ATOM     15  C   LIG d   1       9.460  83.399 115.680  0.00  0.00     0.109 C 
ATOM     16  O   LIG d   1       8.621  81.722 117.191  0.00  0.00    -0.276 OA
ATOM     17  H   LIG d   1      10.707  81.370 114.844  0.00  0.00     0.149 HD
ENDBRANCH   6  13
BRANCH   5  18
ATOM     18  N   LIG d   1      12.462  79.665 116.962  0.00  0.00     0.381 N 
ATOM     19  H   LIG d   1      11.962  79.774 117.822  0.00  0.00    -0.090 HD
ATOM     20  H   LIG d   1      12.743  80.575 116.643  0.00  0.00    -0.090 HD
ATOM     21  H   LIG d   1      13.265  79.093 117.107  0.00  0.00    -0.090 HD
ENDBRANCH   5  18
BRANCH   3  22
ATOM     22  C   LIG d   1      10.865  75.545 115.114  0.00  0.00     0.382 C 
ATOM     23  O   LIG d   1       9.917  74.733 114.989  0.00  0.00    -0.241 OA
ATOM     24  O   LIG d   1      12.038  75.140 115.005  0.00  0.00    -0.241 OA
ENDBRANCH   3  22
TORSDOF 7
ENDMDL
MODEL 8
REMARK VINA RESULT:      -4.4      2.236      4.274
REMARK  7 active torsions:
REMARK  status: ('A' for Active; 'I' for Inactive)
REMARK    1  A    between atoms: C_2  and  C_3 
REMARK    2  A    between atoms: C_3  and  O_6 
REMARK    3  A    between atoms: C_3  and  C_4 
REMARK    4  A    between atoms: C_7  and  O_6 
REMARK    5  A    between atoms: C_9  and  C_10 
REMARK    6  A    between atoms: N_15  and  C_14 
REMARK    7  A    between atoms: N_20  and  C_19 
REMARK       I    between atoms: C_22  and  N_20 
ROOT
ATOM      1  C   LIG d   1      -4.725  91.969 118.459  0.00  0.00     0.161 C 
ATOM      2  C   LIG d   1      -5.552  92.071 117.328  0.00  0.00     0.016 C 
ATOM      3  C   LIG d   1      -5.526  91.146 116.259  0.00  0.00     0.038 C 
ATOM      4  C   LIG d   1      -4.773  89.964 116.321  0.00  0.00     0.028 C 
ATOM      5  C   LIG d   1      -3.545  90.073 117.218  0.00  0.00    -0.047 C 
ATOM      6  C   LIG d   1      -3.977  90.626 118.595  0.00  0.00     0.091 C 
ENDROOT
BRANCH   1   7
ATOM      7  O   LIG d   1      -5.491  92.239 119.650  0.00  0.00    -0.368 OA
BRANCH   7   8
ATOM      8  C   LIG d   1      -5.121  93.427 120.391  0.00  0.00     0.119 C 
BRANCH   8   9
ATOM      9  C   LIG d   1      -6.353  94.352 120.428  0.00  0.00     0.028 C 
ATOM     10  C   LIG d   1      -6.277  95.473 119.378  0.00  0.00     0.006 C 
ENDBRANCH   8   9
BRANCH   8  11
ATOM     11  C   LIG d   1      -4.037  94.225 119.659  0.00  0.00     0.028 C 
ATOM     12  C   LIG d   1      -2.832  94.553 120.555  0.00  0.00     0.006 C 
ENDBRANCH   8  11
ENDBRANCH   7   8
ENDBRANCH   1   7
BRANCH   6  13
ATOM     13  N   LIG d   1      -2.823  90.844 119.506  0.00  0.00    -0.311 N 
ATOM     14  C   LIG d   1      -1.661  91.359 119.107  0.00  0.00     0.210 C 
ATOM     15  C   LIG d   1      -0.598  91.480 120.203  0.00  0.00     0.109 C 
ATOM     16  O   LIG d   1      -1.422  91.757 117.957  0.00  0.00    -0.276 OA
ATOM     17  H   LIG d   1      -2.942  90.578 120.464  0.00  0.00     0.149 HD
ENDBRANCH   6  13
BRANCH   5  18
ATOM     18  N   LIG d   1      -2.931  88.734 117.299  0.00  0.00     0.381 N 
ATOM     19  H   LIG d   1      -3.206  88.187 116.508  0.00  0.00    -0.090 HD
ATOM     20  H   LIG d   1      -3.262  88.275 118.129  0.00  0.00    -0.090 HD
ATOM     21  H   LIG d   1      -1.939  88.815 117.328  0.00  0.00    -0.090 HD
ENDBRANCH   5  18
BRANCH   3  22
ATOM     22  C   LIG d   1      -6.229  91.419 115.096  0.00  0.00     0.382 C 
ATOM     23  O   LIG d   1      -6.844  90.500 114.505  0.00  0.00    -0.241 OA
ATOM     24  O   LIG d   1      -6.220  92.565 114.607  0.00  0.00    -0.241 OA
ENDBRANCH   3  22
TORSDOF 7
ENDMDL
MODEL 9
REMARK VINA RESULT:      -4.4     17.909     20.427
REMARK  7 active torsions:
REMARK  status: ('A' for Active; 'I' for Inactive)
REMARK    1  A    between atoms: C_2  and  C_3 
REMARK    2  A    between atoms: C_3  and  O_6 
REMARK    3  A    between atoms: C_3  and  C_4 
REMARK    4  A    between atoms: C_7  and  O_6 
REMARK    5  A    between atoms: C_9  and  C_10 
REMARK    6  A    between atoms: N_15  and  C_14 
REMARK    7  A    between atoms: N_20  and  C_19 
REMARK       I    between atoms: C_22  and  N_20 
ROOT
ATOM      1  C   LIG d   1      10.194  76.908 114.906  0.00  0.00     0.161 C 
ATOM      2  C   LIG d   1       8.931  77.517 114.835  0.00  0.00     0.016 C 
ATOM      3  C   LIG d   1       8.088  77.695 115.956  0.00  0.00     0.038 C 
ATOM      4  C   LIG d   1       8.518  77.409 117.260  0.00  0.00     0.028 C 
ATOM      5  C   LIG d   1       9.590  76.326 117.320  0.00  0.00    -0.047 C 
ATOM      6  C   LIG d   1      10.727  76.690 116.338  0.00  0.00     0.091 C 
ENDROOT
BRANCH   1   7
ATOM      7  O   LIG d   1      11.145  77.661 114.127  0.00  0.00    -0.368 OA
BRANCH   7   8
ATOM      8  C   LIG d   1      11.584  78.918 114.699  0.00  0.00     0.119 C 
BRANCH   8   9
ATOM      9  C   LIG d   1      11.038  80.048 113.806  0.00  0.00     0.028 C 
ATOM     10  C   LIG d   1      10.149  81.033 114.584  0.00  0.00     0.006 C 
ENDBRANCH   8   9
BRANCH   8  11
ATOM     11  C   LIG d   1      13.108  79.054 114.639  0.00  0.00     0.028 C 
ATOM     12  C   LIG d   1      13.781  77.897 113.883  0.00  0.00     0.006 C 
ENDBRANCH   8  11
ENDBRANCH   7   8
ENDBRANCH   1   7
BRANCH   6  13
ATOM     13  N   LIG d   1      11.777  75.641 116.272  0.00  0.00    -0.311 N 
ATOM     14  C   LIG d   1      13.006  75.802 116.759  0.00  0.00     0.210 C 
ATOM     15  C   LIG d   1      13.940  74.602 116.569  0.00  0.00     0.109 C 
ATOM     16  O   LIG d   1      13.403  76.813 117.358  0.00  0.00    -0.276 OA
ATOM     17  H   LIG d   1      11.531  74.776 115.830  0.00  0.00     0.149 HD
ENDBRANCH   6  13
BRANCH   5  18
ATOM     18  N   LIG d   1      10.045  76.226 118.720  0.00  0.00     0.381 N 
ATOM     19  H   LIG d   1       9.300  76.481 119.337  0.00  0.00    -0.090 HD
ATOM     20  H   LIG d   1      10.805  76.867 118.861  0.00  0.00    -0.090 HD
ATOM     21  H   LIG d   1      10.344  75.296 118.916  0.00  0.00    -0.090 HD
ENDBRANCH   5  18
BRANCH   3  22
ATOM     22  C   LIG d   1       6.783  78.127 115.773  0.00  0.00     0.382 C 
ATOM     23  O   LIG d   1       6.143  77.774 114.753  0.00  0.00    -0.241 OA
ATOM     24  O   LIG d   1       6.253  78.900 116.593  0.00  0.00    -0.241 OA
ENDBRANCH   3  22
TORSDOF 7
ENDMDL
