MODEL 1
REMARK VINA RESULT:      -5.4      0.000      0.000
REMARK  7 active torsions:
REMARK  status: ('A' for Active; 'I' for Inactive)
REMARK    1  A    between atoms: C_2  and  C_3 
REMARK    2  A    between atoms: C_3  and  O_6 
REMARK    3  A    between atoms: C_3  and  C_4 
REMARK    4  A    between atoms: C_7  and  O_6 
REMARK    5  A    between atoms: C_9  and  C_10 
REMARK    6  A    between atoms: N_15  and  C_14 
REMARK    7  A    between atoms: N_20  and  C_19 
REMARK       I    between atoms: C_22  and  N_20 
ROOT
ATOM      1  C   LIG d   1      -7.490  74.812 118.091  0.00  0.00     0.161 C 
ATOM      2  C   LIG d   1      -7.607  73.522 117.547  0.00  0.00     0.016 C 
ATOM      3  C   LIG d   1      -8.848  72.907 117.262  0.00  0.00     0.038 C 
ATOM      4  C   LIG d   1     -10.061  73.604 117.363  0.00  0.00     0.028 C 
ATOM      5  C   LIG d   1     -10.027  74.735 118.385  0.00  0.00    -0.047 C 
ATOM      6  C   LIG d   1      -8.799  75.630 118.103  0.00  0.00     0.091 C 
ENDROOT
BRANCH   1   7
ATOM      7  O   LIG d   1      -6.451  75.539 117.406  0.00  0.00    -0.368 OA
BRANCH   7   8
ATOM      8  C   LIG d   1      -5.888  74.896 116.236  0.00  0.00     0.119 C 
BRANCH   8   9
ATOM      9  C   LIG d   1      -4.360  74.838 116.430  0.00  0.00     0.028 C 
ATOM     10  C   LIG d   1      -3.899  75.602 117.683  0.00  0.00     0.006 C 
ENDBRANCH   8   9
BRANCH   8  11
ATOM     11  C   LIG d   1      -6.106  75.739 114.977  0.00  0.00     0.028 C 
ATOM     12  C   LIG d   1      -5.211  75.304 113.806  0.00  0.00     0.006 C 
ENDBRANCH   8  11
ENDBRANCH   7   8
ENDBRANCH   1   7
BRANCH   6  13
ATOM     13  N   LIG d   1      -8.643  76.712 119.110  0.00  0.00    -0.311 N 
ATOM     14  C   LIG d   1      -9.233  77.902 119.004  0.00  0.00     0.210 C 
ATOM     15  C   LIG d   1      -8.924  78.880 120.141  0.00  0.00     0.109 C 
ATOM     16  O   LIG d   1     -10.009  78.228 118.093  0.00  0.00    -0.276 OA
ATOM     17  H   LIG d   1      -8.055  76.522 119.897  0.00  0.00     0.149 HD
ENDBRANCH   6  13
BRANCH   5  18
ATOM     18  N   LIG d   1     -11.307  75.462 118.288  0.00  0.00     0.381 N 
ATOM     19  H   LIG d   1     -11.662  75.646 119.205  0.00  0.00    -0.090 HD
ATOM     20  H   LIG d   1     -11.972  74.887 117.802  0.00  0.00    -0.090 HD
ATOM     21  H   LIG d   1     -11.176  76.319 117.797  0.00  0.00    -0.090 HD
ENDBRANCH   5  18
BRANCH   3  22
ATOM     22  C   LIG d   1      -8.885  71.567 116.910  0.00  0.00     0.382 C 
ATOM     23  O   LIG d   1      -9.621  70.772 117.545  0.00  0.00    -0.241 OA
ATOM     24  O   LIG d   1      -8.160  71.133 115.995  0.00  0.00    -0.241 OA
ENDBRANCH   3  22
TORSDOF 7
ENDMDL
MODEL 2
REMARK VINA RESULT:      -5.4      2.203      4.982
REMARK  7 active torsions:
REMARK  status: ('A' for Active; 'I' for Inactive)
REMARK    1  A    between atoms: C_2  and  C_3 
REMARK    2  A    between atoms: C_3  and  O_6 
REMARK    3  A    between atoms: C_3  and  C_4 
REMARK    4  A    between atoms: C_7  and  O_6 
REMARK    5  A    between atoms: C_9  and  C_10 
REMARK    6  A    between atoms: N_15  and  C_14 
REMARK    7  A    between atoms: N_20  and  C_19 
REMARK       I    between atoms: C_22  and  N_20 
ROOT
ATOM      1  C   LIG d   1      -6.748  75.265 116.832  0.00  0.00     0.161 C 
ATOM      2  C   LIG d   1      -5.596  74.731 116.230  0.00  0.00     0.016 C 
ATOM      3  C   LIG d   1      -4.423  75.482 115.991  0.00  0.00     0.038 C 
ATOM      4  C   LIG d   1      -4.267  76.789 116.478  0.00  0.00     0.028 C 
ATOM      5  C   LIG d   1      -5.587  77.534 116.645  0.00  0.00    -0.047 C 
ATOM      6  C   LIG d   1      -6.557  76.657 117.470  0.00  0.00     0.091 C 
ENDROOT
BRANCH   1   7
ATOM      7  O   LIG d   1      -7.268  74.336 117.803  0.00  0.00    -0.368 OA
BRANCH   7   8
ATOM      8  C   LIG d   1      -8.496  73.657 117.441  0.00  0.00     0.119 C 
BRANCH   8   9
ATOM      9  C   LIG d   1      -9.603  74.171 118.382  0.00  0.00     0.028 C 
ATOM     10  C   LIG d   1     -10.808  74.739 117.614  0.00  0.00     0.006 C 
ENDBRANCH   8   9
BRANCH   8  11
ATOM     11  C   LIG d   1      -8.400  72.152 117.711  0.00  0.00     0.028 C 
ATOM     12  C   LIG d   1      -9.147  71.311 116.664  0.00  0.00     0.006 C 
ENDBRANCH   8  11
ENDBRANCH   7   8
ENDBRANCH   1   7
BRANCH   6  13
ATOM     13  N   LIG d   1      -7.901  77.276 117.609  0.00  0.00    -0.311 N 
ATOM     14  C   LIG d   1      -8.425  77.636 118.780  0.00  0.00     0.210 C 
ATOM     15  C   LIG d   1      -9.831  78.237 118.701  0.00  0.00     0.109 C 
ATOM     16  O   LIG d   1      -7.845  77.543 119.872  0.00  0.00    -0.276 OA
ATOM     17  H   LIG d   1      -8.428  77.417 116.769  0.00  0.00     0.149 HD
ENDBRANCH   6  13
BRANCH   5  18
ATOM     18  N   LIG d   1      -5.289  78.828 117.288  0.00  0.00     0.381 N 
ATOM     19  H   LIG d   1      -4.338  79.083 117.111  0.00  0.00    -0.090 HD
ATOM     20  H   LIG d   1      -5.411  78.734 118.281  0.00  0.00    -0.090 HD
ATOM     21  H   LIG d   1      -5.900  79.532 116.936  0.00  0.00    -0.090 HD
ENDBRANCH   5  18
BRANCH   3  22
ATOM     22  C   LIG d   1      -3.404  74.940 115.222  0.00  0.00     0.382 C 
ATOM     23  O   LIG d   1      -3.485  74.960 113.970  0.00  0.00    -0.241 OA
ATOM     24  O   LIG d   1      -2.427  74.391 115.765  0.00  0.00    -0.241 OA
ENDBRANCH   3  22
TORSDOF 7
ENDMDL
MODEL 3
REMARK VINA RESULT:      -5.3      1.104      1.536
REMARK  7 active torsions:
REMARK  status: ('A' for Active; 'I' for Inactive)
REMARK    1  A    between atoms: C_2  and  C_3 
REMARK    2  A    between atoms: C_3  and  O_6 
REMARK    3  A    between atoms: C_3  and  C_4 
REMARK    4  A    between atoms: C_7  and  O_6 
REMARK    5  A    between atoms: C_9  and  C_10 
REMARK    6  A    between atoms: N_15  and  C_14 
REMARK    7  A    between atoms: N_20  and  C_19 
REMARK       I    between atoms: C_22  and  N_20 
ROOT
ATOM      1  C   LIG d   1      -7.969  74.691 118.592  0.00  0.00     0.161 C 
ATOM      2  C   LIG d   1      -7.995  73.426 117.982  0.00  0.00     0.016 C 
ATOM      3  C   LIG d   1      -9.146  72.883 117.365  0.00  0.00     0.038 C 
ATOM      4  C   LIG d   1     -10.315  73.637 117.184  0.00  0.00     0.028 C 
ATOM      5  C   LIG d   1     -10.497  74.733 118.229  0.00  0.00    -0.047 C 
ATOM      6  C   LIG d   1      -9.202  75.573 118.306  0.00  0.00     0.091 C 
ENDROOT
BRANCH   1   7
ATOM      7  O   LIG d   1      -6.760  75.386 118.224  0.00  0.00    -0.368 OA
BRANCH   7   8
ATOM      8  C   LIG d   1      -6.768  76.037 116.930  0.00  0.00     0.119 C 
BRANCH   8   9
ATOM      9  C   LIG d   1      -5.789  75.269 116.020  0.00  0.00     0.028 C 
ATOM     10  C   LIG d   1      -4.546  74.776 116.780  0.00  0.00     0.006 C 
ENDBRANCH   8   9
BRANCH   8  11
ATOM     11  C   LIG d   1      -6.208  77.460 117.018  0.00  0.00     0.028 C 
ATOM     12  C   LIG d   1      -5.968  77.917 118.466  0.00  0.00     0.006 C 
ENDBRANCH   8  11
ENDBRANCH   7   8
ENDBRANCH   1   7
BRANCH   6  13
ATOM     13  N   LIG d   1      -9.265  76.615 119.364  0.00  0.00    -0.311 N 
ATOM     14  C   LIG d   1      -9.664  77.866 119.139  0.00  0.00     0.210 C 
ATOM     15  C   LIG d   1      -9.634  78.785 120.364  0.00  0.00     0.109 C 
ATOM     16  O   LIG d   1     -10.069  78.293 118.047  0.00  0.00    -0.276 OA
ATOM     17  H   LIG d   1      -8.983  76.346 120.287  0.00  0.00     0.149 HD
ENDBRANCH   6  13
BRANCH   5  18
ATOM     18  N   LIG d   1     -11.679  75.526 117.841  0.00  0.00     0.381 N 
ATOM     19  H   LIG d   1     -11.904  76.176 118.568  0.00  0.00    -0.090 HD
ATOM     20  H   LIG d   1     -12.461  74.907 117.718  0.00  0.00    -0.090 HD
ATOM     21  H   LIG d   1     -11.497  76.016 116.992  0.00  0.00    -0.090 HD
ENDBRANCH   5  18
BRANCH   3  22
ATOM     22  C   LIG d   1      -9.147  71.558 116.958  0.00  0.00     0.382 C 
ATOM     23  O   LIG d   1      -9.813  70.707 117.595  0.00  0.00    -0.241 OA
ATOM     24  O   LIG d   1      -8.454  71.194 115.989  0.00  0.00    -0.241 OA
ENDBRANCH   3  22
TORSDOF 7
ENDMDL
MODEL 4
REMARK VINA RESULT:      -5.2      1.375      2.137
REMARK  7 active torsions:
REMARK  status: ('A' for Active; 'I' for Inactive)
REMARK    1  A    between atoms: C_2  and  C_3 
REMARK    2  A    between atoms: C_3  and  O_6 
REMARK    3  A    between atoms: C_3  and  C_4 
REMARK    4  A    between atoms: C_7  and  O_6 
REMARK    5  A    between atoms: C_9  and  C_10 
REMARK    6  A    between atoms: N_15  and  C_14 
REMARK    7  A    between atoms: N_20  and  C_19 
REMARK       I    between atoms: C_22  and  N_20 
ROOT
ATOM      1  C   LIG d   1      -6.630  74.845 117.280  0.00  0.00     0.161 C 
ATOM      2  C   LIG d   1      -6.981  73.573 116.798  0.00  0.00     0.016 C 
ATOM      3  C   LIG d   1      -8.158  72.892 117.185  0.00  0.00     0.038 C 
ATOM      4  C   LIG d   1      -9.146  73.506 117.969  0.00  0.00     0.028 C 
ATOM      5  C   LIG d   1      -8.601  74.595 118.887  0.00  0.00    -0.047 C 
ATOM      6  C   LIG d   1      -7.749  75.577 118.050  0.00  0.00     0.091 C 
ENDROOT
BRANCH   1   7
ATOM      7  O   LIG d   1      -6.151  75.664 116.195  0.00  0.00    -0.368 OA
BRANCH   7   8
ATOM      8  C   LIG d   1      -4.740  75.992 116.218  0.00  0.00     0.119 C 
BRANCH   8   9
ATOM      9  C   LIG d   1      -4.074  75.260 115.037  0.00  0.00     0.028 C 
ATOM     10  C   LIG d   1      -4.995  75.170 113.808  0.00  0.00     0.006 C 
ENDBRANCH   8   9
BRANCH   8  11
ATOM     11  C   LIG d   1      -4.060  75.437 117.474  0.00  0.00     0.028 C 
ATOM     12  C   LIG d   1      -2.729  74.732 117.169  0.00  0.00     0.006 C 
ENDBRANCH   8  11
ENDBRANCH   7   8
ENDBRANCH   1   7
BRANCH   6  13
ATOM     13  N   LIG d   1      -7.109  76.626 118.885  0.00  0.00    -0.311 N 
ATOM     14  C   LIG d   1      -7.156  77.925 118.594  0.00  0.00     0.210 C 
ATOM     15  C   LIG d   1      -6.412  78.835 119.576  0.00  0.00     0.109 C 
ATOM     16  O   LIG d   1      -7.769  78.412 117.632  0.00  0.00    -0.276 OA
ATOM     17  H   LIG d   1      -6.616  76.321 119.702  0.00  0.00     0.149 HD
ENDBRANCH   6  13
BRANCH   5  18
ATOM     18  N   LIG d   1      -9.752  75.243 119.543  0.00  0.00     0.381 N 
ATOM     19  H   LIG d   1     -10.563  75.161 118.963  0.00  0.00    -0.090 HD
ATOM     20  H   LIG d   1      -9.549  76.219 119.665  0.00  0.00    -0.090 HD
ATOM     21  H   LIG d   1      -9.924  74.818 120.428  0.00  0.00    -0.090 HD
ENDBRANCH   5  18
BRANCH   3  22
ATOM     22  C   LIG d   1      -8.338  71.567 116.818  0.00  0.00     0.382 C 
ATOM     23  O   LIG d   1      -7.723  71.102 115.828  0.00  0.00    -0.241 OA
ATOM     24  O   LIG d   1      -9.140  70.843 117.437  0.00  0.00    -0.241 OA
ENDBRANCH   3  22
TORSDOF 7
ENDMDL
MODEL 5
REMARK VINA RESULT:      -5.1     16.955     19.238
REMARK  7 active torsions:
REMARK  status: ('A' for Active; 'I' for Inactive)
REMARK    1  A    between atoms: C_2  and  C_3 
REMARK    2  A    between atoms: C_3  and  O_6 
REMARK    3  A    between atoms: C_3  and  C_4 
REMARK    4  A    between atoms: C_7  and  O_6 
REMARK    5  A    between atoms: C_9  and  C_10 
REMARK    6  A    between atoms: N_15  and  C_14 
REMARK    7  A    between atoms: N_20  and  C_19 
REMARK       I    between atoms: C_22  and  N_20 
ROOT
ATOM      1  C   LIG d   1      -0.145  57.548 119.079  0.00  0.00     0.161 C 
ATOM      2  C   LIG d   1      -1.499  57.343 118.767  0.00  0.00     0.016 C 
ATOM      3  C   LIG d   1      -2.335  58.348 118.227  0.00  0.00     0.038 C 
ATOM      4  C   LIG d   1      -1.830  59.591 117.819  0.00  0.00     0.028 C 
ATOM      5  C   LIG d   1      -0.578  60.016 118.580  0.00  0.00    -0.047 C 
ATOM      6  C   LIG d   1       0.451  58.864 118.537  0.00  0.00     0.091 C 
ENDROOT
BRANCH   1   7
ATOM      7  O   LIG d   1       0.636  56.422 118.630  0.00  0.00    -0.368 OA
BRANCH   7   8
ATOM      8  C   LIG d   1       0.095  55.112 118.930  0.00  0.00     0.119 C 
BRANCH   8   9
ATOM      9  C   LIG d   1       0.894  54.543 120.120  0.00  0.00     0.028 C 
ATOM     10  C   LIG d   1       2.247  55.249 120.309  0.00  0.00     0.006 C 
ENDBRANCH   8   9
BRANCH   8  11
ATOM     11  C   LIG d   1       0.334  54.133 117.777  0.00  0.00     0.028 C 
ATOM     12  C   LIG d   1      -0.259  54.624 116.447  0.00  0.00     0.006 C 
ENDBRANCH   8  11
ENDBRANCH   7   8
ENDBRANCH   1   7
BRANCH   6  13
ATOM     13  N   LIG d   1       1.672  59.164 119.329  0.00  0.00    -0.311 N 
ATOM     14  C   LIG d   1       2.732  59.798 118.830  0.00  0.00     0.210 C 
ATOM     15  C   LIG d   1       3.893  59.988 119.812  0.00  0.00     0.109 C 
ATOM     16  O   LIG d   1       2.809  60.248 117.677  0.00  0.00    -0.276 OA
ATOM     17  H   LIG d   1       1.683  58.862 120.283  0.00  0.00     0.149 HD
ENDBRANCH   6  13
BRANCH   5  18
ATOM     18  N   LIG d   1      -0.081  61.259 117.961  0.00  0.00     0.381 N 
ATOM     19  H   LIG d   1      -0.605  62.041 118.302  0.00  0.00    -0.090 HD
ATOM     20  H   LIG d   1      -0.212  61.202 116.966  0.00  0.00    -0.090 HD
ATOM     21  H   LIG d   1       0.886  61.381 118.170  0.00  0.00    -0.090 HD
ENDBRANCH   5  18
BRANCH   3  22
ATOM     22  C   LIG d   1      -3.700  58.127 118.129  0.00  0.00     0.382 C 
ATOM     23  O   LIG d   1      -4.421  58.934 117.494  0.00  0.00    -0.241 OA
ATOM     24  O   LIG d   1      -4.226  57.154 118.703  0.00  0.00    -0.241 OA
ENDBRANCH   3  22
TORSDOF 7
ENDMDL
MODEL 6
REMARK VINA RESULT:      -4.9      2.057      4.479
REMARK  7 active torsions:
REMARK  status: ('A' for Active; 'I' for Inactive)
REMARK    1  A    between atoms: C_2  and  C_3 
REMARK    2  A    between atoms: C_3  and  O_6 
REMARK    3  A    between atoms: C_3  and  C_4 
REMARK    4  A    between atoms: C_7  and  O_6 
REMARK    5  A    between atoms: C_9  and  C_10 
REMARK    6  A    between atoms: N_15  and  C_14 
REMARK    7  A    between atoms: N_20  and  C_19 
REMARK       I    between atoms: C_22  and  N_20 
ROOT
ATOM      1  C   LIG d   1      -8.728  75.082 118.274  0.00  0.00     0.161 C 
ATOM      2  C   LIG d   1      -8.924  73.710 118.044  0.00  0.00     0.016 C 
ATOM      3  C   LIG d   1      -8.020  72.907 117.310  0.00  0.00     0.038 C 
ATOM      4  C   LIG d   1      -6.775  73.392 116.884  0.00  0.00     0.028 C 
ATOM      5  C   LIG d   1      -6.758  74.900 116.656  0.00  0.00    -0.047 C 
ATOM      6  C   LIG d   1      -7.321  75.604 117.912  0.00  0.00     0.091 C 
ENDROOT
BRANCH   1   7
ATOM      7  O   LIG d   1      -9.041  75.396 119.646  0.00  0.00    -0.368 OA
BRANCH   7   8
ATOM      8  C   LIG d   1     -10.262  76.145 119.865  0.00  0.00     0.119 C 
BRANCH   8   9
ATOM      9  C   LIG d   1     -10.835  76.511 118.482  0.00  0.00     0.028 C 
ATOM     10  C   LIG d   1     -12.197  75.849 118.217  0.00  0.00     0.006 C 
ENDBRANCH   8   9
BRANCH   8  11
ATOM     11  C   LIG d   1      -9.979  77.483 120.555  0.00  0.00     0.028 C 
ATOM     12  C   LIG d   1     -10.441  78.690 119.724  0.00  0.00     0.006 C 
ENDBRANCH   8  11
ENDBRANCH   7   8
ENDBRANCH   1   7
BRANCH   6  13
ATOM     13  N   LIG d   1      -7.418  77.077 117.741  0.00  0.00    -0.311 N 
ATOM     14  C   LIG d   1      -6.842  77.950 118.565  0.00  0.00     0.210 C 
ATOM     15  C   LIG d   1      -7.084  79.423 118.219  0.00  0.00     0.109 C 
ATOM     16  O   LIG d   1      -6.126  77.645 119.531  0.00  0.00    -0.276 OA
ATOM     17  H   LIG d   1      -7.954  77.412 116.965  0.00  0.00     0.149 HD
ENDBRANCH   6  13
BRANCH   5  18
ATOM     18  N   LIG d   1      -5.369  75.289 116.349  0.00  0.00     0.381 N 
ATOM     19  H   LIG d   1      -4.784  74.478 116.343  0.00  0.00    -0.090 HD
ATOM     20  H   LIG d   1      -5.039  75.910 117.067  0.00  0.00    -0.090 HD
ATOM     21  H   LIG d   1      -5.329  75.743 115.463  0.00  0.00    -0.090 HD
ENDBRANCH   5  18
BRANCH   3  22
ATOM     22  C   LIG d   1      -8.377  71.613 116.962  0.00  0.00     0.382 C 
ATOM     23  O   LIG d   1      -7.928  71.101 115.909  0.00  0.00    -0.241 OA
ATOM     24  O   LIG d   1      -9.178  70.968 117.664  0.00  0.00    -0.241 OA
ENDBRANCH   3  22
TORSDOF 7
ENDMDL
MODEL 7
REMARK VINA RESULT:      -4.9      1.625      4.927
REMARK  7 active torsions:
REMARK  status: ('A' for Active; 'I' for Inactive)
REMARK    1  A    between atoms: C_2  and  C_3 
REMARK    2  A    between atoms: C_3  and  O_6 
REMARK    3  A    between atoms: C_3  and  C_4 
REMARK    4  A    between atoms: C_7  and  O_6 
REMARK    5  A    between atoms: C_9  and  C_10 
REMARK    6  A    between atoms: N_15  and  C_14 
REMARK    7  A    between atoms: N_20  and  C_19 
REMARK       I    between atoms: C_22  and  N_20 
ROOT
ATOM      1  C   LIG d   1      -7.085  75.928 117.378  0.00  0.00     0.161 C 
ATOM      2  C   LIG d   1      -7.410  77.262 117.672  0.00  0.00     0.016 C 
ATOM      3  C   LIG d   1      -8.711  77.687 118.026  0.00  0.00     0.038 C 
ATOM      4  C   LIG d   1      -9.751  76.775 118.258  0.00  0.00     0.028 C 
ATOM      5  C   LIG d   1      -9.597  75.470 117.484  0.00  0.00    -0.047 C 
ATOM      6  C   LIG d   1      -8.181  74.902 117.734  0.00  0.00     0.091 C 
ENDROOT
BRANCH   1   7
ATOM      7  O   LIG d   1      -5.842  75.575 118.016  0.00  0.00    -0.368 OA
BRANCH   7   8
ATOM      8  C   LIG d   1      -4.663  75.603 117.175  0.00  0.00     0.119 C 
BRANCH   8   9
ATOM      9  C   LIG d   1      -5.085  75.129 115.771  0.00  0.00     0.028 C 
ATOM     10  C   LIG d   1      -4.554  76.047 114.657  0.00  0.00     0.006 C 
ENDBRANCH   8   9
BRANCH   8  11
ATOM     11  C   LIG d   1      -3.617  74.589 117.648  0.00  0.00     0.028 C 
ATOM     12  C   LIG d   1      -2.180  75.008 117.297  0.00  0.00     0.006 C 
ENDBRANCH   8  11
ENDBRANCH   7   8
ENDBRANCH   1   7
BRANCH   6  13
ATOM     13  N   LIG d   1      -7.918  73.670 116.946  0.00  0.00    -0.311 N 
ATOM     14  C   LIG d   1      -8.128  72.441 117.415  0.00  0.00     0.210 C 
ATOM     15  C   LIG d   1      -7.771  71.309 116.446  0.00  0.00     0.109 C 
ATOM     16  O   LIG d   1      -8.605  72.181 118.530  0.00  0.00    -0.276 OA
ATOM     17  H   LIG d   1      -7.558  73.789 116.019  0.00  0.00     0.149 HD
ENDBRANCH   6  13
BRANCH   5  18
ATOM     18  N   LIG d   1     -10.672  74.561 117.924  0.00  0.00     0.381 N 
ATOM     19  H   LIG d   1     -10.361  74.025 118.710  0.00  0.00    -0.090 HD
ATOM     20  H   LIG d   1     -10.888  73.927 117.175  0.00  0.00    -0.090 HD
ATOM     21  H   LIG d   1     -11.482  75.085 118.170  0.00  0.00    -0.090 HD
ENDBRANCH   5  18
BRANCH   3  22
ATOM     22  C   LIG d   1      -8.992  79.042 118.112  0.00  0.00     0.382 C 
ATOM     23  O   LIG d   1      -8.083  79.884 117.917  0.00  0.00    -0.241 OA
ATOM     24  O   LIG d   1     -10.133  79.432 118.425  0.00  0.00    -0.241 OA
ENDBRANCH   3  22
TORSDOF 7
ENDMDL
MODEL 8
REMARK VINA RESULT:      -4.8      2.630      4.723
REMARK  7 active torsions:
REMARK  status: ('A' for Active; 'I' for Inactive)
REMARK    1  A    between atoms: C_2  and  C_3 
REMARK    2  A    between atoms: C_3  and  O_6 
REMARK    3  A    between atoms: C_3  and  C_4 
REMARK    4  A    between atoms: C_7  and  O_6 
REMARK    5  A    between atoms: C_9  and  C_10 
REMARK    6  A    between atoms: N_15  and  C_14 
REMARK    7  A    between atoms: N_20  and  C_19 
REMARK       I    between atoms: C_22  and  N_20 
ROOT
ATOM      1  C   LIG d   1      -7.348  76.525 117.291  0.00  0.00     0.161 C 
ATOM      2  C   LIG d   1      -8.709  76.492 117.638  0.00  0.00     0.016 C 
ATOM      3  C   LIG d   1      -9.451  75.295 117.765  0.00  0.00     0.038 C 
ATOM      4  C   LIG d   1      -8.840  74.034 117.700  0.00  0.00     0.028 C 
ATOM      5  C   LIG d   1      -7.572  74.017 116.853  0.00  0.00    -0.047 C 
ATOM      6  C   LIG d   1      -6.638  75.155 117.326  0.00  0.00     0.091 C 
ENDROOT
BRANCH   1   7
ATOM      7  O   LIG d   1      -6.653  77.470 118.128  0.00  0.00    -0.368 OA
BRANCH   7   8
ATOM      8  C   LIG d   1      -6.019  78.580 117.445  0.00  0.00     0.119 C 
BRANCH   8   9
ATOM      9  C   LIG d   1      -4.509  78.507 117.747  0.00  0.00     0.028 C 
ATOM     10  C   LIG d   1      -4.202  77.688 119.012  0.00  0.00     0.006 C 
ENDBRANCH   8   9
BRANCH   8  11
ATOM     11  C   LIG d   1      -6.482  79.923 118.016  0.00  0.00     0.028 C 
ATOM     12  C   LIG d   1      -7.526  79.768 119.133  0.00  0.00     0.006 C 
ENDBRANCH   8  11
ENDBRANCH   7   8
ENDBRANCH   1   7
BRANCH   6  13
ATOM     13  N   LIG d   1      -5.411  75.263 116.494  0.00  0.00    -0.311 N 
ATOM     14  C   LIG d   1      -4.263  74.660 116.800  0.00  0.00     0.210 C 
ATOM     15  C   LIG d   1      -3.116  74.919 115.819  0.00  0.00     0.109 C 
ATOM     16  O   LIG d   1      -4.095  73.910 117.774  0.00  0.00    -0.276 OA
ATOM     17  H   LIG d   1      -5.467  75.827 115.669  0.00  0.00     0.149 HD
ENDBRANCH   6  13
BRANCH   5  18
ATOM     18  N   LIG d   1      -6.966  72.679 116.985  0.00  0.00     0.381 N 
ATOM     19  H   LIG d   1      -7.591  71.987 116.623  0.00  0.00    -0.090 HD
ATOM     20  H   LIG d   1      -6.812  72.486 117.959  0.00  0.00    -0.090 HD
ATOM     21  H   LIG d   1      -6.101  72.646 116.492  0.00  0.00    -0.090 HD
ENDBRANCH   5  18
BRANCH   3  22
ATOM     22  C   LIG d   1     -10.827  75.353 117.919  0.00  0.00     0.382 C 
ATOM     23  O   LIG d   1     -11.532  74.351 117.648  0.00  0.00    -0.241 OA
ATOM     24  O   LIG d   1     -11.378  76.410 118.284  0.00  0.00    -0.241 OA
ENDBRANCH   3  22
TORSDOF 7
ENDMDL
MODEL 9
REMARK VINA RESULT:      -4.7      2.400      5.082
REMARK  7 active torsions:
REMARK  status: ('A' for Active; 'I' for Inactive)
REMARK    1  A    between atoms: C_2  and  C_3 
REMARK    2  A    between atoms: C_3  and  O_6 
REMARK    3  A    between atoms: C_3  and  C_4 
REMARK    4  A    between atoms: C_7  and  O_6 
REMARK    5  A    between atoms: C_9  and  C_10 
REMARK    6  A    between atoms: N_15  and  C_14 
REMARK    7  A    between atoms: N_20  and  C_19 
REMARK       I    between atoms: C_22  and  N_20 
ROOT
ATOM      1  C   LIG d   1      -7.046  76.839 117.359  0.00  0.00     0.161 C 
ATOM      2  C   LIG d   1      -6.360  78.061 117.451  0.00  0.00     0.016 C 
ATOM      3  C   LIG d   1      -6.920  79.227 118.022  0.00  0.00     0.038 C 
ATOM      4  C   LIG d   1      -8.158  79.208 118.681  0.00  0.00     0.028 C 
ATOM      5  C   LIG d   1      -9.101  78.124 118.169  0.00  0.00    -0.047 C 
ATOM      6  C   LIG d   1      -8.356  76.770 118.172  0.00  0.00     0.091 C 
ENDROOT
BRANCH   1   7
ATOM      7  O   LIG d   1      -6.169  75.757 117.730  0.00  0.00    -0.368 OA
BRANCH   7   8
ATOM      8  C   LIG d   1      -5.787  74.852 116.664  0.00  0.00     0.119 C 
BRANCH   8   9
ATOM      9  C   LIG d   1      -4.247  74.817 116.616  0.00  0.00     0.028 C 
ATOM     10  C   LIG d   1      -3.616  74.822 118.018  0.00  0.00     0.006 C 
ENDBRANCH   8   9
BRANCH   8  11
ATOM     11  C   LIG d   1      -6.224  75.386 115.297  0.00  0.00     0.028 C 
ATOM     12  C   LIG d   1      -5.136  75.232 114.222  0.00  0.00     0.006 C 
ENDBRANCH   8  11
ENDBRANCH   7   8
ENDBRANCH   1   7
BRANCH   6  13
ATOM     13  N   LIG d   1      -9.178  75.669 117.606  0.00  0.00    -0.311 N 
ATOM     14  C   LIG d   1      -9.372  74.506 118.225  0.00  0.00     0.210 C 
ATOM     15  C   LIG d   1     -10.237  73.501 117.458  0.00  0.00     0.109 C 
ATOM     16  O   LIG d   1      -8.936  74.223 119.351  0.00  0.00    -0.276 OA
ATOM     17  H   LIG d   1      -9.595  75.826 116.710  0.00  0.00     0.149 HD
ENDBRANCH   6  13
BRANCH   5  18
ATOM     18  N   LIG d   1     -10.296  78.128 119.033  0.00  0.00     0.381 N 
ATOM     19  H   LIG d   1     -11.054  77.672 118.565  0.00  0.00    -0.090 HD
ATOM     20  H   LIG d   1     -10.564  79.080 119.212  0.00  0.00    -0.090 HD
ATOM     21  H   LIG d   1     -10.098  77.664 119.891  0.00  0.00    -0.090 HD
ENDBRANCH   5  18
BRANCH   3  22
ATOM     22  C   LIG d   1      -6.256  80.438 117.902  0.00  0.00     0.382 C 
ATOM     23  O   LIG d   1      -6.756  81.362 117.216  0.00  0.00    -0.241 OA
ATOM     24  O   LIG d   1      -5.142  80.604 118.434  0.00  0.00    -0.241 OA
ENDBRANCH   3  22
TORSDOF 7
ENDMDL
