MODEL 1
REMARK VINA RESULT:      -5.5      0.000      0.000
REMARK  7 active torsions:
REMARK  status: ('A' for Active; 'I' for Inactive)
REMARK    1  A    between atoms: C_2  and  C_3 
REMARK    2  A    between atoms: C_3  and  O_6 
REMARK    3  A    between atoms: C_3  and  C_4 
REMARK    4  A    between atoms: C_7  and  O_6 
REMARK    5  A    between atoms: C_9  and  C_10 
REMARK    6  A    between atoms: N_15  and  C_14 
REMARK    7  A    between atoms: N_20  and  C_19 
REMARK       I    between atoms: C_22  and  N_20 
ROOT
ATOM      1  C   LIG d   1      -5.094  92.344 117.342  0.00  0.00     0.161 C 
ATOM      2  C   LIG d   1      -5.570  91.341 116.481  0.00  0.00     0.016 C 
ATOM      3  C   LIG d   1      -6.882  91.324 115.955  0.00  0.00     0.038 C 
ATOM      4  C   LIG d   1      -7.766  92.397 116.135  0.00  0.00     0.028 C 
ATOM      5  C   LIG d   1      -7.504  93.192 117.410  0.00  0.00    -0.047 C 
ATOM      6  C   LIG d   1      -6.009  93.582 117.459  0.00  0.00     0.091 C 
ENDROOT
BRANCH   1   7
ATOM      7  O   LIG d   1      -3.766  92.739 116.945  0.00  0.00    -0.368 OA
BRANCH   7   8
ATOM      8  C   LIG d   1      -2.701  92.416 117.873  0.00  0.00     0.119 C 
BRANCH   8   9
ATOM      9  C   LIG d   1      -1.625  93.510 117.742  0.00  0.00     0.028 C 
ATOM     10  C   LIG d   1      -2.208  94.927 117.880  0.00  0.00     0.006 C 
ENDBRANCH   8   9
BRANCH   8  11
ATOM     11  C   LIG d   1      -2.001  91.110 117.485  0.00  0.00     0.028 C 
ATOM     12  C   LIG d   1      -2.492  89.905 118.302  0.00  0.00     0.006 C 
ENDBRANCH   8  11
ENDBRANCH   7   8
ENDBRANCH   1   7
BRANCH   6  13
ATOM     13  N   LIG d   1      -5.649  94.289 118.716  0.00  0.00    -0.311 N 
ATOM     14  C   LIG d   1      -5.738  95.610 118.865  0.00  0.00     0.210 C 
ATOM     15  C   LIG d   1      -5.298  96.137 120.234  0.00  0.00     0.109 C 
ATOM     16  O   LIG d   1      -6.170  96.391 118.004  0.00  0.00    -0.276 OA
ATOM     17  H   LIG d   1      -5.318  93.728 119.476  0.00  0.00     0.149 HD
ENDBRANCH   6  13
BRANCH   5  18
ATOM     18  N   LIG d   1      -8.406  94.359 117.401  0.00  0.00     0.381 N 
ATOM     19  H   LIG d   1      -7.974  95.117 116.911  0.00  0.00    -0.090 HD
ATOM     20  H   LIG d   1      -8.571  94.650 118.349  0.00  0.00    -0.090 HD
ATOM     21  H   LIG d   1      -9.269  94.120 116.964  0.00  0.00    -0.090 HD
ENDBRANCH   5  18
BRANCH   3  22
ATOM     22  C   LIG d   1      -7.334  90.204 115.273  0.00  0.00     0.382 C 
ATOM     23  O   LIG d   1      -8.211  89.469 115.788  0.00  0.00    -0.241 OA
ATOM     24  O   LIG d   1      -6.845  89.896 114.170  0.00  0.00    -0.241 OA
ENDBRANCH   3  22
TORSDOF 7
ENDMDL
MODEL 2
REMARK VINA RESULT:      -5.5      1.803      2.563
REMARK  7 active torsions:
REMARK  status: ('A' for Active; 'I' for Inactive)
REMARK    1  A    between atoms: C_2  and  C_3 
REMARK    2  A    between atoms: C_3  and  O_6 
REMARK    3  A    between atoms: C_3  and  C_4 
REMARK    4  A    between atoms: C_7  and  O_6 
REMARK    5  A    between atoms: C_9  and  C_10 
REMARK    6  A    between atoms: N_15  and  C_14 
REMARK    7  A    between atoms: N_20  and  C_19 
REMARK       I    between atoms: C_22  and  N_20 
ROOT
ATOM      1  C   LIG d   1      -4.455  91.718 117.209  0.00  0.00     0.161 C 
ATOM      2  C   LIG d   1      -5.304  91.027 116.328  0.00  0.00     0.016 C 
ATOM      3  C   LIG d   1      -6.411  91.626 115.684  0.00  0.00     0.038 C 
ATOM      4  C   LIG d   1      -6.657  93.005 115.761  0.00  0.00     0.028 C 
ATOM      5  C   LIG d   1      -6.125  93.644 117.039  0.00  0.00    -0.047 C 
ATOM      6  C   LIG d   1      -4.642  93.250 117.218  0.00  0.00     0.091 C 
ENDROOT
BRANCH   1   7
ATOM      7  O   LIG d   1      -3.082  91.382 116.928  0.00  0.00    -0.368 OA
BRANCH   7   8
ATOM      8  C   LIG d   1      -2.542  90.249 117.651  0.00  0.00     0.119 C 
BRANCH   8   9
ATOM      9  C   LIG d   1      -2.916  90.427 119.136  0.00  0.00     0.028 C 
ATOM     10  C   LIG d   1      -3.286  89.095 119.812  0.00  0.00     0.006 C 
ENDBRANCH   8   9
BRANCH   8  11
ATOM     11  C   LIG d   1      -1.011  90.243 117.616  0.00  0.00     0.028 C 
ATOM     12  C   LIG d   1      -0.410  91.657 117.594  0.00  0.00     0.006 C 
ENDBRANCH   8  11
ENDBRANCH   7   8
ENDBRANCH   1   7
BRANCH   6  13
ATOM     13  N   LIG d   1      -4.067  93.765 118.488  0.00  0.00    -0.311 N 
ATOM     14  C   LIG d   1      -2.915  94.430 118.555  0.00  0.00     0.210 C 
ATOM     15  C   LIG d   1      -2.495  94.855 119.965  0.00  0.00     0.109 C 
ATOM     16  O   LIG d   1      -2.217  94.736 117.576  0.00  0.00    -0.276 OA
ATOM     17  H   LIG d   1      -4.584  93.588 119.327  0.00  0.00     0.149 HD
ENDBRANCH   6  13
BRANCH   5  18
ATOM     18  N   LIG d   1      -6.326  95.101 116.925  0.00  0.00     0.381 N 
ATOM     19  H   LIG d   1      -6.426  95.355 115.962  0.00  0.00    -0.090 HD
ATOM     20  H   LIG d   1      -5.518  95.571 117.293  0.00  0.00    -0.090 HD
ATOM     21  H   LIG d   1      -7.138  95.374 117.433  0.00  0.00    -0.090 HD
ENDBRANCH   5  18
BRANCH   3  22
ATOM     22  C   LIG d   1      -7.310  90.834 114.985  0.00  0.00     0.382 C 
ATOM     23  O   LIG d   1      -6.892  89.890 114.273  0.00  0.00    -0.241 OA
ATOM     24  O   LIG d   1      -8.531  91.080 115.023  0.00  0.00    -0.241 OA
ENDBRANCH   3  22
TORSDOF 7
ENDMDL
MODEL 3
REMARK VINA RESULT:      -5.5      2.148      4.471
REMARK  7 active torsions:
REMARK  status: ('A' for Active; 'I' for Inactive)
REMARK    1  A    between atoms: C_2  and  C_3 
REMARK    2  A    between atoms: C_3  and  O_6 
REMARK    3  A    between atoms: C_3  and  C_4 
REMARK    4  A    between atoms: C_7  and  O_6 
REMARK    5  A    between atoms: C_9  and  C_10 
REMARK    6  A    between atoms: N_15  and  C_14 
REMARK    7  A    between atoms: N_20  and  C_19 
REMARK       I    between atoms: C_22  and  N_20 
ROOT
ATOM      1  C   LIG d   1      -5.295  93.735 116.984  0.00  0.00     0.161 C 
ATOM      2  C   LIG d   1      -6.451  93.011 116.647  0.00  0.00     0.016 C 
ATOM      3  C   LIG d   1      -6.449  91.625 116.371  0.00  0.00     0.038 C 
ATOM      4  C   LIG d   1      -5.307  90.833 116.563  0.00  0.00     0.028 C 
ATOM      5  C   LIG d   1      -4.001  91.606 116.413  0.00  0.00    -0.047 C 
ATOM      6  C   LIG d   1      -4.060  92.867 117.306  0.00  0.00     0.091 C 
ENDROOT
BRANCH   1   7
ATOM      7  O   LIG d   1      -5.579  94.628 118.079  0.00  0.00    -0.368 OA
BRANCH   7   8
ATOM      8  C   LIG d   1      -6.882  95.261 118.064  0.00  0.00     0.119 C 
BRANCH   8   9
ATOM      9  C   LIG d   1      -6.657  96.780 117.939  0.00  0.00     0.028 C 
ATOM     10  C   LIG d   1      -7.409  97.575 119.021  0.00  0.00     0.006 C 
ENDBRANCH   8   9
BRANCH   8  11
ATOM     11  C   LIG d   1      -7.611  95.066 119.396  0.00  0.00     0.028 C 
ATOM     12  C   LIG d   1      -8.814  94.116 119.284  0.00  0.00     0.006 C 
ENDBRANCH   8  11
ENDBRANCH   7   8
ENDBRANCH   1   7
BRANCH   6  13
ATOM     13  N   LIG d   1      -2.856  93.725 117.155  0.00  0.00    -0.311 N 
ATOM     14  C   LIG d   1      -1.771  93.606 117.919  0.00  0.00     0.210 C 
ATOM     15  C   LIG d   1      -0.650  94.604 117.609  0.00  0.00     0.109 C 
ATOM     16  O   LIG d   1      -1.618  92.749 118.802  0.00  0.00    -0.276 OA
ATOM     17  H   LIG d   1      -2.882  94.426 116.441  0.00  0.00     0.149 HD
ENDBRANCH   6  13
BRANCH   5  18
ATOM     18  N   LIG d   1      -2.899  90.694 116.773  0.00  0.00     0.381 N 
ATOM     19  H   LIG d   1      -3.016  90.377 117.715  0.00  0.00    -0.090 HD
ATOM     20  H   LIG d   1      -2.030  91.195 116.714  0.00  0.00    -0.090 HD
ATOM     21  H   LIG d   1      -2.885  89.915 116.152  0.00  0.00    -0.090 HD
ENDBRANCH   5  18
BRANCH   3  22
ATOM     22  C   LIG d   1      -7.589  91.024 115.860  0.00  0.00     0.382 C 
ATOM     23  O   LIG d   1      -8.587  91.724 115.562  0.00  0.00    -0.241 OA
ATOM     24  O   LIG d   1      -7.649  89.786 115.735  0.00  0.00    -0.241 OA
ENDBRANCH   3  22
TORSDOF 7
ENDMDL
MODEL 4
REMARK VINA RESULT:      -5.5     15.561     18.146
REMARK  7 active torsions:
REMARK  status: ('A' for Active; 'I' for Inactive)
REMARK    1  A    between atoms: C_2  and  C_3 
REMARK    2  A    between atoms: C_3  and  O_6 
REMARK    3  A    between atoms: C_3  and  C_4 
REMARK    4  A    between atoms: C_7  and  O_6 
REMARK    5  A    between atoms: C_9  and  C_10 
REMARK    6  A    between atoms: N_15  and  C_14 
REMARK    7  A    between atoms: N_20  and  C_19 
REMARK       I    between atoms: C_22  and  N_20 
ROOT
ATOM      1  C   LIG d   1      -6.350  75.128 117.109  0.00  0.00     0.161 C 
ATOM      2  C   LIG d   1      -5.160  74.469 116.759  0.00  0.00     0.016 C 
ATOM      3  C   LIG d   1      -3.874  74.967 117.072  0.00  0.00     0.038 C 
ATOM      4  C   LIG d   1      -3.694  76.090 117.893  0.00  0.00     0.028 C 
ATOM      5  C   LIG d   1      -4.861  77.069 117.845  0.00  0.00    -0.047 C 
ATOM      6  C   LIG d   1      -6.175  76.297 118.101  0.00  0.00     0.091 C 
ENDROOT
BRANCH   1   7
ATOM      7  O   LIG d   1      -7.304  74.176 117.619  0.00  0.00    -0.368 OA
BRANCH   7   8
ATOM      8  C   LIG d   1      -8.010  73.387 116.630  0.00  0.00     0.119 C 
BRANCH   8   9
ATOM      9  C   LIG d   1      -9.511  73.707 116.768  0.00  0.00     0.028 C 
ATOM     10  C   LIG d   1      -9.855  75.127 116.288  0.00  0.00     0.006 C 
ENDBRANCH   8   9
BRANCH   8  11
ATOM     11  C   LIG d   1      -7.886  71.889 116.920  0.00  0.00     0.028 C 
ATOM     12  C   LIG d   1      -9.173  71.111 116.598  0.00  0.00     0.006 C 
ENDBRANCH   8  11
ENDBRANCH   7   8
ENDBRANCH   1   7
BRANCH   6  13
ATOM     13  N   LIG d   1      -7.375  77.166 117.988  0.00  0.00    -0.311 N 
ATOM     14  C   LIG d   1      -7.953  77.757 119.033  0.00  0.00     0.210 C 
ATOM     15  C   LIG d   1      -9.192  78.594 118.698  0.00  0.00     0.109 C 
ATOM     16  O   LIG d   1      -7.539  77.693 120.200  0.00  0.00    -0.276 OA
ATOM     17  H   LIG d   1      -7.759  77.298 117.073  0.00  0.00     0.149 HD
ENDBRANCH   6  13
BRANCH   5  18
ATOM     18  N   LIG d   1      -4.603  78.120 118.849  0.00  0.00     0.381 N 
ATOM     19  H   LIG d   1      -4.308  78.959 118.392  0.00  0.00    -0.090 HD
ATOM     20  H   LIG d   1      -3.864  77.814 119.456  0.00  0.00    -0.090 HD
ATOM     21  H   LIG d   1      -5.428  78.294 119.379  0.00  0.00    -0.090 HD
ENDBRANCH   5  18
BRANCH   3  22
ATOM     22  C   LIG d   1      -2.752  74.362 116.527  0.00  0.00     0.382 C 
ATOM     23  O   LIG d   1      -2.423  74.603 115.340  0.00  0.00    -0.241 OA
ATOM     24  O   LIG d   1      -2.089  73.544 117.193  0.00  0.00    -0.241 OA
ENDBRANCH   3  22
TORSDOF 7
ENDMDL
MODEL 5
REMARK VINA RESULT:      -5.4      1.864      4.907
REMARK  7 active torsions:
REMARK  status: ('A' for Active; 'I' for Inactive)
REMARK    1  A    between atoms: C_2  and  C_3 
REMARK    2  A    between atoms: C_3  and  O_6 
REMARK    3  A    between atoms: C_3  and  C_4 
REMARK    4  A    between atoms: C_7  and  O_6 
REMARK    5  A    between atoms: C_9  and  C_10 
REMARK    6  A    between atoms: N_15  and  C_14 
REMARK    7  A    between atoms: N_20  and  C_19 
REMARK       I    between atoms: C_22  and  N_20 
ROOT
ATOM      1  C   LIG d   1      -4.333  92.537 116.803  0.00  0.00     0.161 C 
ATOM      2  C   LIG d   1      -3.414  93.408 117.411  0.00  0.00     0.016 C 
ATOM      3  C   LIG d   1      -3.788  94.620 118.036  0.00  0.00     0.038 C 
ATOM      4  C   LIG d   1      -5.132  94.971 118.230  0.00  0.00     0.028 C 
ATOM      5  C   LIG d   1      -6.071  94.370 117.189  0.00  0.00    -0.047 C 
ATOM      6  C   LIG d   1      -5.815  92.849 117.101  0.00  0.00     0.091 C 
ENDROOT
BRANCH   1   7
ATOM      7  O   LIG d   1      -4.026  91.175 117.161  0.00  0.00    -0.368 OA
BRANCH   7   8
ATOM      8  C   LIG d   1      -3.365  90.985 118.436  0.00  0.00     0.119 C 
BRANCH   8   9
ATOM      9  C   LIG d   1      -2.261  89.930 118.232  0.00  0.00     0.028 C 
ATOM     10  C   LIG d   1      -1.029  90.500 117.509  0.00  0.00     0.006 C 
ENDBRANCH   8   9
BRANCH   8  11
ATOM     11  C   LIG d   1      -4.317  90.381 119.472  0.00  0.00     0.028 C 
ATOM     12  C   LIG d   1      -4.914  91.435 120.419  0.00  0.00     0.006 C 
ENDBRANCH   8  11
ENDBRANCH   7   8
ENDBRANCH   1   7
BRANCH   6  13
ATOM     13  N   LIG d   1      -6.633  92.196 116.046  0.00  0.00    -0.311 N 
ATOM     14  C   LIG d   1      -7.466  91.185 116.284  0.00  0.00     0.210 C 
ATOM     15  C   LIG d   1      -8.198  90.645 115.052  0.00  0.00     0.109 C 
ATOM     16  O   LIG d   1      -7.692  90.704 117.405  0.00  0.00    -0.276 OA
ATOM     17  H   LIG d   1      -6.534  92.544 115.112  0.00  0.00     0.149 HD
ENDBRANCH   6  13
BRANCH   5  18
ATOM     18  N   LIG d   1      -7.451  94.703 117.589  0.00  0.00     0.381 N 
ATOM     19  H   LIG d   1      -8.084  94.020 117.221  0.00  0.00    -0.090 HD
ATOM     20  H   LIG d   1      -7.695  95.598 117.204  0.00  0.00    -0.090 HD
ATOM     21  H   LIG d   1      -7.521  94.730 118.582  0.00  0.00    -0.090 HD
ENDBRANCH   5  18
BRANCH   3  22
ATOM     22  C   LIG d   1      -2.809  95.515 118.441  0.00  0.00     0.382 C 
ATOM     23  O   LIG d   1      -3.135  96.598 118.983  0.00  0.00    -0.241 OA
ATOM     24  O   LIG d   1      -1.605  95.272 118.231  0.00  0.00    -0.241 OA
ENDBRANCH   3  22
TORSDOF 7
ENDMDL
MODEL 6
REMARK VINA RESULT:      -5.3     34.257     35.822
REMARK  7 active torsions:
REMARK  status: ('A' for Active; 'I' for Inactive)
REMARK    1  A    between atoms: C_2  and  C_3 
REMARK    2  A    between atoms: C_3  and  O_6 
REMARK    3  A    between atoms: C_3  and  C_4 
REMARK    4  A    between atoms: C_7  and  O_6 
REMARK    5  A    between atoms: C_9  and  C_10 
REMARK    6  A    between atoms: N_15  and  C_14 
REMARK    7  A    between atoms: N_20  and  C_19 
REMARK       I    between atoms: C_22  and  N_20 
ROOT
ATOM      1  C   LIG d   1      -0.492  58.158 118.097  0.00  0.00     0.161 C 
ATOM      2  C   LIG d   1      -1.507  58.025 117.134  0.00  0.00     0.016 C 
ATOM      3  C   LIG d   1      -1.321  58.313 115.762  0.00  0.00     0.038 C 
ATOM      4  C   LIG d   1      -0.056  58.609 115.232  0.00  0.00     0.028 C 
ATOM      5  C   LIG d   1       0.891  59.246 116.244  0.00  0.00    -0.047 C 
ATOM      6  C   LIG d   1       0.922  58.373 117.520  0.00  0.00     0.091 C 
ENDROOT
BRANCH   1   7
ATOM      7  O   LIG d   1      -0.505  57.019 118.980  0.00  0.00    -0.368 OA
BRANCH   7   8
ATOM      8  C   LIG d   1      -0.934  55.764 118.396  0.00  0.00     0.119 C 
BRANCH   8   9
ATOM      9  C   LIG d   1      -1.551  54.915 119.524  0.00  0.00     0.028 C 
ATOM     10  C   LIG d   1      -0.594  53.821 120.026  0.00  0.00     0.006 C 
ENDBRANCH   8   9
BRANCH   8  11
ATOM     11  C   LIG d   1       0.259  54.952 117.884  0.00  0.00     0.028 C 
ATOM     12  C   LIG d   1       0.307  54.866 116.350  0.00  0.00     0.006 C 
ENDBRANCH   8  11
ENDBRANCH   7   8
ENDBRANCH   1   7
BRANCH   6  13
ATOM     13  N   LIG d   1       1.760  58.969 118.593  0.00  0.00    -0.311 N 
ATOM     14  C   LIG d   1       3.061  58.719 118.731  0.00  0.00     0.210 C 
ATOM     15  C   LIG d   1       3.732  59.420 119.917  0.00  0.00     0.109 C 
ATOM     16  O   LIG d   1       3.730  58.009 117.965  0.00  0.00    -0.276 OA
ATOM     17  H   LIG d   1       1.304  59.581 119.240  0.00  0.00     0.149 HD
ENDBRANCH   6  13
BRANCH   5  18
ATOM     18  N   LIG d   1       2.211  59.375 115.599  0.00  0.00     0.381 N 
ATOM     19  H   LIG d   1       2.849  59.828 116.222  0.00  0.00    -0.090 HD
ATOM     20  H   LIG d   1       2.116  59.943 114.775  0.00  0.00    -0.090 HD
ATOM     21  H   LIG d   1       2.559  58.475 115.352  0.00  0.00    -0.090 HD
ENDBRANCH   5  18
BRANCH   3  22
ATOM     22  C   LIG d   1      -2.415  58.344 114.912  0.00  0.00     0.382 C 
ATOM     23  O   LIG d   1      -2.334  58.931 113.806  0.00  0.00    -0.241 OA
ATOM     24  O   LIG d   1      -3.497  57.829 115.255  0.00  0.00    -0.241 OA
ENDBRANCH   3  22
TORSDOF 7
ENDMDL
MODEL 7
REMARK VINA RESULT:      -5.1     13.424     16.103
REMARK  7 active torsions:
REMARK  status: ('A' for Active; 'I' for Inactive)
REMARK    1  A    between atoms: C_2  and  C_3 
REMARK    2  A    between atoms: C_3  and  O_6 
REMARK    3  A    between atoms: C_3  and  C_4 
REMARK    4  A    between atoms: C_7  and  O_6 
REMARK    5  A    between atoms: C_9  and  C_10 
REMARK    6  A    between atoms: N_15  and  C_14 
REMARK    7  A    between atoms: N_20  and  C_19 
REMARK       I    between atoms: C_22  and  N_20 
ROOT
ATOM      1  C   LIG d   1      -7.365  77.181 118.003  0.00  0.00     0.161 C 
ATOM      2  C   LIG d   1      -8.617  77.727 118.329  0.00  0.00     0.016 C 
ATOM      3  C   LIG d   1      -8.823  79.102 118.589  0.00  0.00     0.038 C 
ATOM      4  C   LIG d   1      -7.811  80.053 118.391  0.00  0.00     0.028 C 
ATOM      5  C   LIG d   1      -6.405  79.485 118.551  0.00  0.00    -0.047 C 
ATOM      6  C   LIG d   1      -6.272  78.220 117.673  0.00  0.00     0.091 C 
ENDROOT
BRANCH   1   7
ATOM      7  O   LIG d   1      -7.508  76.243 116.918  0.00  0.00    -0.368 OA
BRANCH   7   8
ATOM      8  C   LIG d   1      -7.407  74.841 117.269  0.00  0.00     0.119 C 
BRANCH   8   9
ATOM      9  C   LIG d   1      -6.184  74.266 116.529  0.00  0.00     0.028 C 
ATOM     10  C   LIG d   1      -6.045  74.824 115.103  0.00  0.00     0.006 C 
ENDBRANCH   8   9
BRANCH   8  11
ATOM     11  C   LIG d   1      -8.608  74.048 116.745  0.00  0.00     0.028 C 
ATOM     12  C   LIG d   1      -9.788  74.947 116.346  0.00  0.00     0.006 C 
ENDBRANCH   8  11
ENDBRANCH   7   8
ENDBRANCH   1   7
BRANCH   6  13
ATOM     13  N   LIG d   1      -4.954  77.553 117.836  0.00  0.00    -0.311 N 
ATOM     14  C   LIG d   1      -4.062  77.443 116.853  0.00  0.00     0.210 C 
ATOM     15  C   LIG d   1      -2.775  76.701 117.228  0.00  0.00     0.109 C 
ATOM     16  O   LIG d   1      -4.200  77.917 115.716  0.00  0.00    -0.276 OA
ATOM     17  H   LIG d   1      -4.746  77.167 118.736  0.00  0.00     0.149 HD
ENDBRANCH   6  13
BRANCH   5  18
ATOM     18  N   LIG d   1      -5.450  80.547 118.183  0.00  0.00     0.381 N 
ATOM     19  H   LIG d   1      -4.617  80.139 117.809  0.00  0.00    -0.090 HD
ATOM     20  H   LIG d   1      -5.204  81.064 119.009  0.00  0.00    -0.090 HD
ATOM     21  H   LIG d   1      -5.861  81.157 117.511  0.00  0.00    -0.090 HD
ENDBRANCH   5  18
BRANCH   3  22
ATOM     22  C   LIG d   1     -10.042  79.531 119.091  0.00  0.00     0.382 C 
ATOM     23  O   LIG d   1     -11.026  78.753 119.099  0.00  0.00    -0.241 OA
ATOM     24  O   LIG d   1     -10.181  80.701 119.496  0.00  0.00    -0.241 OA
ENDBRANCH   3  22
TORSDOF 7
ENDMDL
MODEL 8
REMARK VINA RESULT:      -5.0      1.603      4.995
REMARK  7 active torsions:
REMARK  status: ('A' for Active; 'I' for Inactive)
REMARK    1  A    between atoms: C_2  and  C_3 
REMARK    2  A    between atoms: C_3  and  O_6 
REMARK    3  A    between atoms: C_3  and  C_4 
REMARK    4  A    between atoms: C_7  and  O_6 
REMARK    5  A    between atoms: C_9  and  C_10 
REMARK    6  A    between atoms: N_15  and  C_14 
REMARK    7  A    between atoms: N_20  and  C_19 
REMARK       I    between atoms: C_22  and  N_20 
ROOT
ATOM      1  C   LIG d   1      -4.499  93.463 117.587  0.00  0.00     0.161 C 
ATOM      2  C   LIG d   1      -4.313  94.657 118.304  0.00  0.00     0.016 C 
ATOM      3  C   LIG d   1      -5.351  95.583 118.555  0.00  0.00     0.038 C 
ATOM      4  C   LIG d   1      -6.688  95.304 118.235  0.00  0.00     0.028 C 
ATOM      5  C   LIG d   1      -6.841  94.340 117.063  0.00  0.00    -0.047 C 
ATOM      6  C   LIG d   1      -5.973  93.088 117.326  0.00  0.00     0.091 C 
ENDROOT
BRANCH   1   7
ATOM      7  O   LIG d   1      -3.817  92.382 118.254  0.00  0.00    -0.368 OA
BRANCH   7   8
ATOM      8  C   LIG d   1      -2.917  91.595 117.435  0.00  0.00     0.119 C 
BRANCH   8   9
ATOM      9  C   LIG d   1      -3.301  90.114 117.618  0.00  0.00     0.028 C 
ATOM     10  C   LIG d   1      -3.705  89.787 119.066  0.00  0.00     0.006 C 
ENDBRANCH   8   9
BRANCH   8  11
ATOM     11  C   LIG d   1      -1.473  91.703 117.932  0.00  0.00     0.028 C 
ATOM     12  C   LIG d   1      -0.512  90.771 117.178  0.00  0.00     0.006 C 
ENDBRANCH   8  11
ENDBRANCH   7   8
ENDBRANCH   1   7
BRANCH   6  13
ATOM     13  N   LIG d   1      -5.999  92.131 116.190  0.00  0.00    -0.311 N 
ATOM     14  C   LIG d   1      -6.799  91.067 116.145  0.00  0.00     0.210 C 
ATOM     15  C   LIG d   1      -6.653  90.199 114.892  0.00  0.00     0.109 C 
ATOM     16  O   LIG d   1      -7.639  90.778 117.011  0.00  0.00    -0.276 OA
ATOM     17  H   LIG d   1      -5.371  92.307 115.430  0.00  0.00     0.149 HD
ENDBRANCH   6  13
BRANCH   5  18
ATOM     18  N   LIG d   1      -8.276  94.029 116.927  0.00  0.00     0.381 N 
ATOM     19  H   LIG d   1      -8.762  94.296 117.760  0.00  0.00    -0.090 HD
ATOM     20  H   LIG d   1      -8.384  93.038 116.803  0.00  0.00    -0.090 HD
ATOM     21  H   LIG d   1      -8.657  94.512 116.143  0.00  0.00    -0.090 HD
ENDBRANCH   5  18
BRANCH   3  22
ATOM     22  C   LIG d   1      -5.049  96.823 119.098  0.00  0.00     0.382 C 
ATOM     23  O   LIG d   1      -3.923  97.338 118.896  0.00  0.00    -0.241 OA
ATOM     24  O   LIG d   1      -5.872  97.412 119.824  0.00  0.00    -0.241 OA
ENDBRANCH   3  22
TORSDOF 7
ENDMDL
MODEL 9
REMARK VINA RESULT:      -4.9     14.389     17.198
REMARK  7 active torsions:
REMARK  status: ('A' for Active; 'I' for Inactive)
REMARK    1  A    between atoms: C_2  and  C_3 
REMARK    2  A    between atoms: C_3  and  O_6 
REMARK    3  A    between atoms: C_3  and  C_4 
REMARK    4  A    between atoms: C_7  and  O_6 
REMARK    5  A    between atoms: C_9  and  C_10 
REMARK    6  A    between atoms: N_15  and  C_14 
REMARK    7  A    between atoms: N_20  and  C_19 
REMARK       I    between atoms: C_22  and  N_20 
ROOT
ATOM      1  C   LIG d   1      -6.527  76.390 117.531  0.00  0.00     0.161 C 
ATOM      2  C   LIG d   1      -7.497  77.275 118.031  0.00  0.00     0.016 C 
ATOM      3  C   LIG d   1      -7.288  78.667 118.160  0.00  0.00     0.038 C 
ATOM      4  C   LIG d   1      -6.139  79.295 117.653  0.00  0.00     0.028 C 
ATOM      5  C   LIG d   1      -4.922  78.378 117.600  0.00  0.00    -0.047 C 
ATOM      6  C   LIG d   1      -5.310  77.071 116.871  0.00  0.00     0.091 C 
ENDROOT
BRANCH   1   7
ATOM      7  O   LIG d   1      -7.139  75.460 116.616  0.00  0.00    -0.368 OA
BRANCH   7   8
ATOM      8  C   LIG d   1      -7.556  74.192 117.179  0.00  0.00     0.119 C 
BRANCH   8   9
ATOM      9  C   LIG d   1      -6.544  73.126 116.718  0.00  0.00     0.028 C 
ATOM     10  C   LIG d   1      -7.201  71.755 116.485  0.00  0.00     0.006 C 
ENDBRANCH   8   9
BRANCH   8  11
ATOM     11  C   LIG d   1      -8.905  73.745 116.608  0.00  0.00     0.028 C 
ATOM     12  C   LIG d   1      -9.873  74.917 116.380  0.00  0.00     0.006 C 
ENDBRANCH   8  11
ENDBRANCH   7   8
ENDBRANCH   1   7
BRANCH   6  13
ATOM     13  N   LIG d   1      -4.199  76.083 116.849  0.00  0.00    -0.311 N 
ATOM     14  C   LIG d   1      -3.730  75.532 115.730  0.00  0.00     0.210 C 
ATOM     15  C   LIG d   1      -2.596  74.523 115.933  0.00  0.00     0.109 C 
ATOM     16  O   LIG d   1      -4.124  75.808 114.587  0.00  0.00    -0.276 OA
ATOM     17  H   LIG d   1      -3.800  75.826 117.730  0.00  0.00     0.149 HD
ENDBRANCH   6  13
BRANCH   5  18
ATOM     18  N   LIG d   1      -3.837  79.116 116.926  0.00  0.00     0.381 N 
ATOM     19  H   LIG d   1      -3.150  79.395 117.597  0.00  0.00    -0.090 HD
ATOM     20  H   LIG d   1      -4.220  79.943 116.504  0.00  0.00    -0.090 HD
ATOM     21  H   LIG d   1      -3.417  78.542 116.229  0.00  0.00    -0.090 HD
ENDBRANCH   5  18
BRANCH   3  22
ATOM     22  C   LIG d   1      -8.216  79.442 118.838  0.00  0.00     0.382 C 
ATOM     23  O   LIG d   1      -8.343  80.658 118.556  0.00  0.00    -0.241 OA
ATOM     24  O   LIG d   1      -8.898  78.951 119.757  0.00  0.00    -0.241 OA
ENDBRANCH   3  22
TORSDOF 7
ENDMDL
