MODEL 1
REMARK VINA RESULT:      -5.4      0.000      0.000
REMARK  7 active torsions:
REMARK  status: ('A' for Active; 'I' for Inactive)
REMARK    1  A    between atoms: C_2  and  C_3 
REMARK    2  A    between atoms: C_3  and  O_6 
REMARK    3  A    between atoms: C_3  and  C_4 
REMARK    4  A    between atoms: C_7  and  O_6 
REMARK    5  A    between atoms: C_9  and  C_10 
REMARK    6  A    between atoms: N_15  and  C_14 
REMARK    7  A    between atoms: N_20  and  C_19 
REMARK       I    between atoms: C_22  and  N_20 
ROOT
ATOM      1  C   LIG d   1      -4.716  92.739 117.596  0.00  0.00     0.161 C 
ATOM      2  C   LIG d   1      -4.702  91.599 116.775  0.00  0.00     0.016 C 
ATOM      3  C   LIG d   1      -5.835  91.135 116.068  0.00  0.00     0.038 C 
ATOM      4  C   LIG d   1      -7.028  91.870 116.015  0.00  0.00     0.028 C 
ATOM      5  C   LIG d   1      -7.246  92.761 117.233  0.00  0.00    -0.047 C 
ATOM      6  C   LIG d   1      -5.979  93.616 117.462  0.00  0.00     0.091 C 
ENDROOT
BRANCH   1   7
ATOM      7  O   LIG d   1      -3.532  93.526 117.360  0.00  0.00    -0.368 OA
BRANCH   7   8
ATOM      8  C   LIG d   1      -2.437  93.324 118.288  0.00  0.00     0.119 C 
BRANCH   8   9
ATOM      9  C   LIG d   1      -2.612  94.336 119.437  0.00  0.00     0.028 C 
ATOM     10  C   LIG d   1      -2.676  95.788 118.936  0.00  0.00     0.006 C 
ENDBRANCH   8   9
BRANCH   8  11
ATOM     11  C   LIG d   1      -1.091  93.669 117.645  0.00  0.00     0.028 C 
ATOM     12  C   LIG d   1      -0.144  92.461 117.562  0.00  0.00     0.006 C 
ENDBRANCH   8  11
ENDBRANCH   7   8
ENDBRANCH   1   7
BRANCH   6  13
ATOM     13  N   LIG d   1      -6.075  94.456 118.685  0.00  0.00    -0.311 N 
ATOM     14  C   LIG d   1      -6.578  95.689 118.689  0.00  0.00     0.210 C 
ATOM     15  C   LIG d   1      -6.565  96.387 120.053  0.00  0.00     0.109 C 
ATOM     16  O   LIG d   1      -7.062  96.259 117.700  0.00  0.00    -0.276 OA
ATOM     17  H   LIG d   1      -5.733  94.059 119.538  0.00  0.00     0.149 HD
ENDBRANCH   6  13
BRANCH   5  18
ATOM     18  N   LIG d   1      -8.453  93.570 116.984  0.00  0.00     0.381 N 
ATOM     19  H   LIG d   1      -8.746  93.458 116.034  0.00  0.00    -0.090 HD
ATOM     20  H   LIG d   1      -8.231  94.539 117.133  0.00  0.00    -0.090 HD
ATOM     21  H   LIG d   1      -9.184  93.291 117.600  0.00  0.00    -0.090 HD
ENDBRANCH   5  18
BRANCH   3  22
ATOM     22  C   LIG d   1      -5.792  89.901 115.437  0.00  0.00     0.382 C 
ATOM     23  O   LIG d   1      -6.666  89.601 114.587  0.00  0.00    -0.241 OA
ATOM     24  O   LIG d   1      -4.918  89.067 115.738  0.00  0.00    -0.241 OA
ENDBRANCH   3  22
TORSDOF 7
ENDMDL
MODEL 2
REMARK VINA RESULT:      -5.3      1.797      4.839
REMARK  7 active torsions:
REMARK  status: ('A' for Active; 'I' for Inactive)
REMARK    1  A    between atoms: C_2  and  C_3 
REMARK    2  A    between atoms: C_3  and  O_6 
REMARK    3  A    between atoms: C_3  and  C_4 
REMARK    4  A    between atoms: C_7  and  O_6 
REMARK    5  A    between atoms: C_9  and  C_10 
REMARK    6  A    between atoms: N_15  and  C_14 
REMARK    7  A    between atoms: N_20  and  C_19 
REMARK       I    between atoms: C_22  and  N_20 
ROOT
ATOM      1  C   LIG d   1      -5.504  93.111 117.769  0.00  0.00     0.161 C 
ATOM      2  C   LIG d   1      -6.076  94.273 118.312  0.00  0.00     0.016 C 
ATOM      3  C   LIG d   1      -7.381  94.717 117.999  0.00  0.00     0.038 C 
ATOM      4  C   LIG d   1      -8.264  93.943 117.232  0.00  0.00     0.028 C 
ATOM      5  C   LIG d   1      -7.558  93.011 116.253  0.00  0.00    -0.047 C 
ATOM      6  C   LIG d   1      -6.491  92.194 117.018  0.00  0.00     0.091 C 
ENDROOT
BRANCH   1   7
ATOM      7  O   LIG d   1      -4.822  92.372 118.803  0.00  0.00    -0.368 OA
BRANCH   7   8
ATOM      8  C   LIG d   1      -3.396  92.602 118.916  0.00  0.00     0.119 C 
BRANCH   8   9
ATOM      9  C   LIG d   1      -2.908  93.158 117.564  0.00  0.00     0.028 C 
ATOM     10  C   LIG d   1      -1.538  93.846 117.673  0.00  0.00     0.006 C 
ENDBRANCH   8   9
BRANCH   8  11
ATOM     11  C   LIG d   1      -2.634  91.288 119.113  0.00  0.00     0.028 C 
ATOM     12  C   LIG d   1      -3.448  90.057 118.684  0.00  0.00     0.006 C 
ENDBRANCH   8  11
ENDBRANCH   7   8
ENDBRANCH   1   7
BRANCH   6  13
ATOM     13  N   LIG d   1      -5.696  91.317 116.119  0.00  0.00    -0.311 N 
ATOM     14  C   LIG d   1      -5.980  90.033 115.908  0.00  0.00     0.210 C 
ATOM     15  C   LIG d   1      -5.021  89.306 114.960  0.00  0.00     0.109 C 
ATOM     16  O   LIG d   1      -6.953  89.435 116.392  0.00  0.00    -0.276 OA
ATOM     17  H   LIG d   1      -4.907  91.729 115.661  0.00  0.00     0.149 HD
ENDBRANCH   6  13
BRANCH   5  18
ATOM     18  N   LIG d   1      -8.588  92.166 115.619  0.00  0.00     0.381 N 
ATOM     19  H   LIG d   1      -8.472  91.216 115.908  0.00  0.00    -0.090 HD
ATOM     20  H   LIG d   1      -8.475  92.209 114.622  0.00  0.00    -0.090 HD
ATOM     21  H   LIG d   1      -9.496  92.489 115.872  0.00  0.00    -0.090 HD
ENDBRANCH   5  18
BRANCH   3  22
ATOM     22  C   LIG d   1      -7.800  95.969 118.422  0.00  0.00     0.382 C 
ATOM     23  O   LIG d   1      -8.509  96.078 119.451  0.00  0.00    -0.241 OA
ATOM     24  O   LIG d   1      -7.516  96.987 117.762  0.00  0.00    -0.241 OA
ENDBRANCH   3  22
TORSDOF 7
ENDMDL
MODEL 3
REMARK VINA RESULT:      -5.3      1.987      4.428
REMARK  7 active torsions:
REMARK  status: ('A' for Active; 'I' for Inactive)
REMARK    1  A    between atoms: C_2  and  C_3 
REMARK    2  A    between atoms: C_3  and  O_6 
REMARK    3  A    between atoms: C_3  and  C_4 
REMARK    4  A    between atoms: C_7  and  O_6 
REMARK    5  A    between atoms: C_9  and  C_10 
REMARK    6  A    between atoms: N_15  and  C_14 
REMARK    7  A    between atoms: N_20  and  C_19 
REMARK       I    between atoms: C_22  and  N_20 
ROOT
ATOM      1  C   LIG d   1      -6.292  93.094 117.557  0.00  0.00     0.161 C 
ATOM      2  C   LIG d   1      -7.029  92.011 117.050  0.00  0.00     0.016 C 
ATOM      3  C   LIG d   1      -6.438  90.799 116.624  0.00  0.00     0.038 C 
ATOM      4  C   LIG d   1      -5.075  90.531 116.818  0.00  0.00     0.028 C 
ATOM      5  C   LIG d   1      -4.210  91.786 116.861  0.00  0.00    -0.047 C 
ATOM      6  C   LIG d   1      -4.816  92.778 117.880  0.00  0.00     0.091 C 
ENDROOT
BRANCH   1   7
ATOM      7  O   LIG d   1      -6.954  93.635 118.718  0.00  0.00    -0.368 OA
BRANCH   7   8
ATOM      8  C   LIG d   1      -7.953  94.654 118.465  0.00  0.00     0.119 C 
BRANCH   8   9
ATOM      9  C   LIG d   1      -7.210  95.935 118.040  0.00  0.00     0.028 C 
ATOM     10  C   LIG d   1      -6.389  96.546 119.188  0.00  0.00     0.006 C 
ENDBRANCH   8   9
BRANCH   8  11
ATOM     11  C   LIG d   1      -8.705  95.027 119.746  0.00  0.00     0.028 C 
ATOM     12  C   LIG d   1      -9.472  93.842 120.353  0.00  0.00     0.006 C 
ENDBRANCH   8  11
ENDBRANCH   7   8
ENDBRANCH   1   7
BRANCH   6  13
ATOM     13  N   LIG d   1      -4.079  94.068 117.923  0.00  0.00    -0.311 N 
ATOM     14  C   LIG d   1      -3.126  94.338 118.813  0.00  0.00     0.210 C 
ATOM     15  C   LIG d   1      -2.507  95.734 118.694  0.00  0.00     0.109 C 
ATOM     16  O   LIG d   1      -2.712  93.542 119.670  0.00  0.00    -0.276 OA
ATOM     17  H   LIG d   1      -4.329  94.759 117.244  0.00  0.00     0.149 HD
ENDBRANCH   6  13
BRANCH   5  18
ATOM     18  N   LIG d   1      -2.838  91.370 117.206  0.00  0.00     0.381 N 
ATOM     19  H   LIG d   1      -2.867  90.586 117.827  0.00  0.00    -0.090 HD
ATOM     20  H   LIG d   1      -2.377  92.128 117.677  0.00  0.00    -0.090 HD
ATOM     21  H   LIG d   1      -2.337  91.129 116.379  0.00  0.00    -0.090 HD
ENDBRANCH   5  18
BRANCH   3  22
ATOM     22  C   LIG d   1      -7.207  89.857 115.959  0.00  0.00     0.382 C 
ATOM     23  O   LIG d   1      -8.144  89.276 116.559  0.00  0.00    -0.241 OA
ATOM     24  O   LIG d   1      -6.948  89.547 114.781  0.00  0.00    -0.241 OA
ENDBRANCH   3  22
TORSDOF 7
ENDMDL
MODEL 4
REMARK VINA RESULT:      -5.3      1.547      2.388
REMARK  7 active torsions:
REMARK  status: ('A' for Active; 'I' for Inactive)
REMARK    1  A    between atoms: C_2  and  C_3 
REMARK    2  A    between atoms: C_3  and  O_6 
REMARK    3  A    between atoms: C_3  and  C_4 
REMARK    4  A    between atoms: C_7  and  O_6 
REMARK    5  A    between atoms: C_9  and  C_10 
REMARK    6  A    between atoms: N_15  and  C_14 
REMARK    7  A    between atoms: N_20  and  C_19 
REMARK       I    between atoms: C_22  and  N_20 
ROOT
ATOM      1  C   LIG d   1      -6.011  91.859 118.315  0.00  0.00     0.161 C 
ATOM      2  C   LIG d   1      -5.401  90.908 117.481  0.00  0.00     0.016 C 
ATOM      3  C   LIG d   1      -5.839  90.632 116.165  0.00  0.00     0.038 C 
ATOM      4  C   LIG d   1      -6.829  91.401 115.537  0.00  0.00     0.028 C 
ATOM      5  C   LIG d   1      -7.814  92.036 116.513  0.00  0.00    -0.047 C 
ATOM      6  C   LIG d   1      -7.022  92.786 117.608  0.00  0.00     0.091 C 
ENDROOT
BRANCH   1   7
ATOM      7  O   LIG d   1      -5.002  92.639 118.987  0.00  0.00    -0.368 OA
BRANCH   7   8
ATOM      8  C   LIG d   1      -4.468  93.764 118.247  0.00  0.00     0.119 C 
BRANCH   8   9
ATOM      9  C   LIG d   1      -3.003  93.438 117.900  0.00  0.00     0.028 C 
ATOM     10  C   LIG d   1      -2.340  92.529 118.949  0.00  0.00     0.006 C 
ENDBRANCH   8   9
BRANCH   8  11
ATOM     11  C   LIG d   1      -4.408  95.024 119.116  0.00  0.00     0.028 C 
ATOM     12  C   LIG d   1      -4.889  94.779 120.555  0.00  0.00     0.006 C 
ENDBRANCH   8  11
ENDBRANCH   7   8
ENDBRANCH   1   7
BRANCH   6  13
ATOM     13  N   LIG d   1      -7.907  93.366 118.652  0.00  0.00    -0.311 N 
ATOM     14  C   LIG d   1      -8.144  94.671 118.770  0.00  0.00     0.210 C 
ATOM     15  C   LIG d   1      -9.071  95.058 119.926  0.00  0.00     0.109 C 
ATOM     16  O   LIG d   1      -7.700  95.542 118.007  0.00  0.00    -0.276 OA
ATOM     17  H   LIG d   1      -8.334  92.727 119.294  0.00  0.00     0.149 HD
ENDBRANCH   6  13
BRANCH   5  18
ATOM     18  N   LIG d   1      -8.705  92.918 115.737  0.00  0.00     0.381 N 
ATOM     19  H   LIG d   1      -9.272  92.370 115.121  0.00  0.00    -0.090 HD
ATOM     20  H   LIG d   1      -8.144  93.539 115.180  0.00  0.00    -0.090 HD
ATOM     21  H   LIG d   1      -9.285  93.445 116.353  0.00  0.00    -0.090 HD
ENDBRANCH   5  18
BRANCH   3  22
ATOM     22  C   LIG d   1      -5.311  89.549 115.478  0.00  0.00     0.382 C 
ATOM     23  O   LIG d   1      -4.406  88.856 116.001  0.00  0.00    -0.241 OA
ATOM     24  O   LIG d   1      -5.697  89.284 114.324  0.00  0.00    -0.241 OA
ENDBRANCH   3  22
TORSDOF 7
ENDMDL
MODEL 5
REMARK VINA RESULT:      -5.3      2.064      4.379
REMARK  7 active torsions:
REMARK  status: ('A' for Active; 'I' for Inactive)
REMARK    1  A    between atoms: C_2  and  C_3 
REMARK    2  A    between atoms: C_3  and  O_6 
REMARK    3  A    between atoms: C_3  and  C_4 
REMARK    4  A    between atoms: C_7  and  O_6 
REMARK    5  A    between atoms: C_9  and  C_10 
REMARK    6  A    between atoms: N_15  and  C_14 
REMARK    7  A    between atoms: N_20  and  C_19 
REMARK       I    between atoms: C_22  and  N_20 
ROOT
ATOM      1  C   LIG d   1      -6.258  93.557 117.989  0.00  0.00     0.161 C 
ATOM      2  C   LIG d   1      -6.942  92.447 117.465  0.00  0.00     0.016 C 
ATOM      3  C   LIG d   1      -6.290  91.327 116.901  0.00  0.00     0.038 C 
ATOM      4  C   LIG d   1      -4.897  91.171 116.960  0.00  0.00     0.028 C 
ATOM      5  C   LIG d   1      -4.143  92.495 117.026  0.00  0.00    -0.047 C 
ATOM      6  C   LIG d   1      -4.738  93.356 118.163  0.00  0.00     0.091 C 
ENDROOT
BRANCH   1   7
ATOM      7  O   LIG d   1      -6.857  93.955 119.238  0.00  0.00    -0.368 OA
BRANCH   7   8
ATOM      8  C   LIG d   1      -7.227  95.351 119.350  0.00  0.00     0.119 C 
BRANCH   8   9
ATOM      9  C   LIG d   1      -8.608  95.410 120.032  0.00  0.00     0.028 C 
ATOM     10  C   LIG d   1      -9.350  94.064 119.972  0.00  0.00     0.006 C 
ENDBRANCH   8   9
BRANCH   8  11
ATOM     11  C   LIG d   1      -7.428  95.987 117.972  0.00  0.00     0.028 C 
ATOM     12  C   LIG d   1      -7.043  97.475 117.940  0.00  0.00     0.006 C 
ENDBRANCH   8  11
ENDBRANCH   7   8
ENDBRANCH   1   7
BRANCH   6  13
ATOM     13  N   LIG d   1      -4.112  94.702 118.242  0.00  0.00    -0.311 N 
ATOM     14  C   LIG d   1      -3.100  94.993 119.057  0.00  0.00     0.210 C 
ATOM     15  C   LIG d   1      -2.618  96.446 118.995  0.00  0.00     0.109 C 
ATOM     16  O   LIG d   1      -2.536  94.179 119.803  0.00  0.00    -0.276 OA
ATOM     17  H   LIG d   1      -4.488  95.415 117.648  0.00  0.00     0.149 HD
ENDBRANCH   6  13
BRANCH   5  18
ATOM     18  N   LIG d   1      -2.714  92.184 117.223  0.00  0.00     0.381 N 
ATOM     19  H   LIG d   1      -2.244  92.979 117.608  0.00  0.00    -0.090 HD
ATOM     20  H   LIG d   1      -2.301  91.974 116.331  0.00  0.00    -0.090 HD
ATOM     21  H   LIG d   1      -2.616  91.403 117.834  0.00  0.00    -0.090 HD
ENDBRANCH   5  18
BRANCH   3  22
ATOM     22  C   LIG d   1      -7.032  90.364 116.233  0.00  0.00     0.382 C 
ATOM     23  O   LIG d   1      -8.155  90.658 115.756  0.00  0.00    -0.241 OA
ATOM     24  O   LIG d   1      -6.613  89.195 116.140  0.00  0.00    -0.241 OA
ENDBRANCH   3  22
TORSDOF 7
ENDMDL
MODEL 6
REMARK VINA RESULT:      -5.3      2.513      4.312
REMARK  7 active torsions:
REMARK  status: ('A' for Active; 'I' for Inactive)
REMARK    1  A    between atoms: C_2  and  C_3 
REMARK    2  A    between atoms: C_3  and  O_6 
REMARK    3  A    between atoms: C_3  and  C_4 
REMARK    4  A    between atoms: C_7  and  O_6 
REMARK    5  A    between atoms: C_9  and  C_10 
REMARK    6  A    between atoms: N_15  and  C_14 
REMARK    7  A    between atoms: N_20  and  C_19 
REMARK       I    between atoms: C_22  and  N_20 
ROOT
ATOM      1  C   LIG d   1      -4.329  92.633 117.709  0.00  0.00     0.161 C 
ATOM      2  C   LIG d   1      -5.650  93.113 117.695  0.00  0.00     0.016 C 
ATOM      3  C   LIG d   1      -6.686  92.518 116.940  0.00  0.00     0.038 C 
ATOM      4  C   LIG d   1      -6.506  91.304 116.261  0.00  0.00     0.028 C 
ATOM      5  C   LIG d   1      -5.062  91.056 115.837  0.00  0.00    -0.047 C 
ATOM      6  C   LIG d   1      -4.139  91.245 117.062  0.00  0.00     0.091 C 
ENDROOT
BRANCH   1   7
ATOM      7  O   LIG d   1      -3.824  92.631 119.059  0.00  0.00    -0.368 OA
BRANCH   7   8
ATOM      8  C   LIG d   1      -2.825  93.633 119.367  0.00  0.00     0.119 C 
BRANCH   8   9
ATOM      9  C   LIG d   1      -3.530  94.770 120.132  0.00  0.00     0.028 C 
ATOM     10  C   LIG d   1      -3.719  96.029 119.268  0.00  0.00     0.006 C 
ENDBRANCH   8   9
BRANCH   8  11
ATOM     11  C   LIG d   1      -2.274  94.281 118.094  0.00  0.00     0.028 C 
ATOM     12  C   LIG d   1      -0.759  94.082 117.931  0.00  0.00     0.006 C 
ENDBRANCH   8  11
ENDBRANCH   7   8
ENDBRANCH   1   7
BRANCH   6  13
ATOM     13  N   LIG d   1      -2.701  91.104 116.716  0.00  0.00    -0.311 N 
ATOM     14  C   LIG d   1      -1.832  90.417 117.456  0.00  0.00     0.210 C 
ATOM     15  C   LIG d   1      -0.394  90.414 116.930  0.00  0.00     0.109 C 
ATOM     16  O   LIG d   1      -2.123  89.784 118.482  0.00  0.00    -0.276 OA
ATOM     17  H   LIG d   1      -2.385  91.560 115.882  0.00  0.00     0.149 HD
ENDBRANCH   6  13
BRANCH   5  18
ATOM     18  N   LIG d   1      -4.993  89.698 115.264  0.00  0.00     0.381 N 
ATOM     19  H   LIG d   1      -5.589  89.638 114.463  0.00  0.00    -0.090 HD
ATOM     20  H   LIG d   1      -5.318  89.040 115.950  0.00  0.00    -0.090 HD
ATOM     21  H   LIG d   1      -4.054  89.485 115.006  0.00  0.00    -0.090 HD
ENDBRANCH   5  18
BRANCH   3  22
ATOM     22  C   LIG d   1      -7.910  93.160 116.827  0.00  0.00     0.382 C 
ATOM     23  O   LIG d   1      -8.759  92.751 115.999  0.00  0.00    -0.241 OA
ATOM     24  O   LIG d   1      -8.158  94.171 117.511  0.00  0.00    -0.241 OA
ENDBRANCH   3  22
TORSDOF 7
ENDMDL
MODEL 7
REMARK VINA RESULT:      -5.1      3.387      5.598
REMARK  7 active torsions:
REMARK  status: ('A' for Active; 'I' for Inactive)
REMARK    1  A    between atoms: C_2  and  C_3 
REMARK    2  A    between atoms: C_3  and  O_6 
REMARK    3  A    between atoms: C_3  and  C_4 
REMARK    4  A    between atoms: C_7  and  O_6 
REMARK    5  A    between atoms: C_9  and  C_10 
REMARK    6  A    between atoms: N_15  and  C_14 
REMARK    7  A    between atoms: N_20  and  C_19 
REMARK       I    between atoms: C_22  and  N_20 
ROOT
ATOM      1  C   LIG d   1      -3.257  90.351 117.254  0.00  0.00     0.161 C 
ATOM      2  C   LIG d   1      -2.087  91.066 117.561  0.00  0.00     0.016 C 
ATOM      3  C   LIG d   1      -2.051  92.473 117.703  0.00  0.00     0.038 C 
ATOM      4  C   LIG d   1      -3.219  93.249 117.698  0.00  0.00     0.028 C 
ATOM      5  C   LIG d   1      -4.355  92.629 116.890  0.00  0.00    -0.047 C 
ATOM      6  C   LIG d   1      -4.561  91.169 117.354  0.00  0.00     0.091 C 
ENDROOT
BRANCH   1   7
ATOM      7  O   LIG d   1      -3.339  89.173 118.081  0.00  0.00    -0.368 OA
BRANCH   7   8
ATOM      8  C   LIG d   1      -2.078  88.625 118.538  0.00  0.00     0.119 C 
BRANCH   8   9
ATOM      9  C   LIG d   1      -1.786  87.369 117.694  0.00  0.00     0.028 C 
ATOM     10  C   LIG d   1      -0.583  87.561 116.754  0.00  0.00     0.006 C 
ENDBRANCH   8   9
BRANCH   8  11
ATOM     11  C   LIG d   1      -2.178  88.128 119.983  0.00  0.00     0.028 C 
ATOM     12  C   LIG d   1      -2.099  86.597 120.093  0.00  0.00     0.006 C 
ENDBRANCH   8  11
ENDBRANCH   7   8
ENDBRANCH   1   7
BRANCH   6  13
ATOM     13  N   LIG d   1      -5.597  90.462 116.557  0.00  0.00    -0.311 N 
ATOM     14  C   LIG d   1      -6.885  90.426 116.897  0.00  0.00     0.210 C 
ATOM     15  C   LIG d   1      -7.781  89.625 115.947  0.00  0.00     0.109 C 
ATOM     16  O   LIG d   1      -7.374  91.007 117.877  0.00  0.00    -0.276 OA
ATOM     17  H   LIG d   1      -5.292  89.990 115.729  0.00  0.00     0.149 HD
ENDBRANCH   6  13
BRANCH   5  18
ATOM     18  N   LIG d   1      -5.550  93.471 117.083  0.00  0.00     0.381 N 
ATOM     19  H   LIG d   1      -5.550  94.217 116.416  0.00  0.00    -0.090 HD
ATOM     20  H   LIG d   1      -5.520  93.872 118.004  0.00  0.00    -0.090 HD
ATOM     21  H   LIG d   1      -6.375  92.922 116.978  0.00  0.00    -0.090 HD
ENDBRANCH   5  18
BRANCH   3  22
ATOM     22  C   LIG d   1      -0.830  93.121 117.814  0.00  0.00     0.382 C 
ATOM     23  O   LIG d   1      -0.792  94.341 118.103  0.00  0.00    -0.241 OA
ATOM     24  O   LIG d   1       0.232  92.511 117.586  0.00  0.00    -0.241 OA
ENDBRANCH   3  22
TORSDOF 7
ENDMDL
MODEL 8
REMARK VINA RESULT:      -5.1      2.230      3.519
REMARK  7 active torsions:
REMARK  status: ('A' for Active; 'I' for Inactive)
REMARK    1  A    between atoms: C_2  and  C_3 
REMARK    2  A    between atoms: C_3  and  O_6 
REMARK    3  A    between atoms: C_3  and  C_4 
REMARK    4  A    between atoms: C_7  and  O_6 
REMARK    5  A    between atoms: C_9  and  C_10 
REMARK    6  A    between atoms: N_15  and  C_14 
REMARK    7  A    between atoms: N_20  and  C_19 
REMARK       I    between atoms: C_22  and  N_20 
ROOT
ATOM      1  C   LIG d   1      -4.600  91.429 117.623  0.00  0.00     0.161 C 
ATOM      2  C   LIG d   1      -5.512  90.600 116.950  0.00  0.00     0.016 C 
ATOM      3  C   LIG d   1      -6.728  91.066 116.399  0.00  0.00     0.038 C 
ATOM      4  C   LIG d   1      -7.045  92.431 116.353  0.00  0.00     0.028 C 
ATOM      5  C   LIG d   1      -6.392  93.243 117.467  0.00  0.00    -0.047 C 
ATOM      6  C   LIG d   1      -4.876  92.941 117.485  0.00  0.00     0.091 C 
ENDROOT
BRANCH   1   7
ATOM      7  O   LIG d   1      -3.256  91.125 117.198  0.00  0.00    -0.368 OA
BRANCH   7   8
ATOM      8  C   LIG d   1      -2.465  90.326 118.111  0.00  0.00     0.119 C 
BRANCH   8   9
ATOM      9  C   LIG d   1      -2.482  88.875 117.591  0.00  0.00     0.028 C 
ATOM     10  C   LIG d   1      -1.997  87.867 118.646  0.00  0.00     0.006 C 
ENDBRANCH   8   9
BRANCH   8  11
ATOM     11  C   LIG d   1      -3.106  90.266 119.500  0.00  0.00     0.028 C 
ATOM     12  C   LIG d   1      -2.333  91.081 120.549  0.00  0.00     0.006 C 
ENDBRANCH   8  11
ENDBRANCH   7   8
ENDBRANCH   1   7
BRANCH   6  13
ATOM     13  N   LIG d   1      -4.175  93.630 118.599  0.00  0.00    -0.311 N 
ATOM     14  C   LIG d   1      -2.965  94.175 118.479  0.00  0.00     0.210 C 
ATOM     15  C   LIG d   1      -2.415  94.819 119.755  0.00  0.00     0.109 C 
ATOM     16  O   LIG d   1      -2.309  94.215 117.427  0.00  0.00    -0.276 OA
ATOM     17  H   LIG d   1      -4.648  93.672 119.481  0.00  0.00     0.149 HD
ENDBRANCH   6  13
BRANCH   5  18
ATOM     18  N   LIG d   1      -6.695  94.665 117.218  0.00  0.00     0.381 N 
ATOM     19  H   LIG d   1      -6.262  94.960 116.365  0.00  0.00    -0.090 HD
ATOM     20  H   LIG d   1      -6.317  95.215 117.970  0.00  0.00    -0.090 HD
ATOM     21  H   LIG d   1      -7.681  94.799 117.161  0.00  0.00    -0.090 HD
ENDBRANCH   5  18
BRANCH   3  22
ATOM     22  C   LIG d   1      -7.660  90.156 115.923  0.00  0.00     0.382 C 
ATOM     23  O   LIG d   1      -7.594  88.952 116.269  0.00  0.00    -0.241 OA
ATOM     24  O   LIG d   1      -8.539  90.516 115.117  0.00  0.00    -0.241 OA
ENDBRANCH   3  22
TORSDOF 7
ENDMDL
MODEL 9
REMARK VINA RESULT:      -5.0      2.098      2.913
REMARK  7 active torsions:
REMARK  status: ('A' for Active; 'I' for Inactive)
REMARK    1  A    between atoms: C_2  and  C_3 
REMARK    2  A    between atoms: C_3  and  O_6 
REMARK    3  A    between atoms: C_3  and  C_4 
REMARK    4  A    between atoms: C_7  and  O_6 
REMARK    5  A    between atoms: C_9  and  C_10 
REMARK    6  A    between atoms: N_15  and  C_14 
REMARK    7  A    between atoms: N_20  and  C_19 
REMARK       I    between atoms: C_22  and  N_20 
ROOT
ATOM      1  C   LIG d   1      -4.729  91.585 117.970  0.00  0.00     0.161 C 
ATOM      2  C   LIG d   1      -5.564  90.720 117.243  0.00  0.00     0.016 C 
ATOM      3  C   LIG d   1      -6.723  91.150 116.558  0.00  0.00     0.038 C 
ATOM      4  C   LIG d   1      -7.046  92.509 116.428  0.00  0.00     0.028 C 
ATOM      5  C   LIG d   1      -6.512  93.370 117.568  0.00  0.00    -0.047 C 
ATOM      6  C   LIG d   1      -5.003  93.087 117.747  0.00  0.00     0.091 C 
ENDROOT
BRANCH   1   7
ATOM      7  O   LIG d   1      -3.348  91.281 117.690  0.00  0.00    -0.368 OA
BRANCH   7   8
ATOM      8  C   LIG d   1      -2.735  90.272 118.530  0.00  0.00     0.119 C 
BRANCH   8   9
ATOM      9  C   LIG d   1      -1.999  91.003 119.670  0.00  0.00     0.028 C 
ATOM     10  C   LIG d   1      -0.711  91.693 119.189  0.00  0.00     0.006 C 
ENDBRANCH   8   9
BRANCH   8  11
ATOM     11  C   LIG d   1      -1.648  89.503 117.773  0.00  0.00     0.028 C 
ATOM     12  C   LIG d   1      -2.028  88.036 117.513  0.00  0.00     0.006 C 
ENDBRANCH   8  11
ENDBRANCH   7   8
ENDBRANCH   1   7
BRANCH   6  13
ATOM     13  N   LIG d   1      -4.420  93.826 118.897  0.00  0.00    -0.311 N 
ATOM     14  C   LIG d   1      -3.243  94.448 118.848  0.00  0.00     0.210 C 
ATOM     15  C   LIG d   1      -2.819  95.132 120.151  0.00  0.00     0.109 C 
ATOM     16  O   LIG d   1      -2.525  94.524 117.840  0.00  0.00    -0.276 OA
ATOM     17  H   LIG d   1      -4.951  93.842 119.746  0.00  0.00     0.149 HD
ENDBRANCH   6  13
BRANCH   5  18
ATOM     18  N   LIG d   1      -6.801  94.778 117.236  0.00  0.00     0.381 N 
ATOM     19  H   LIG d   1      -7.627  94.831 116.674  0.00  0.00    -0.090 HD
ATOM     20  H   LIG d   1      -6.034  95.151 116.705  0.00  0.00    -0.090 HD
ATOM     21  H   LIG d   1      -6.924  95.307 118.071  0.00  0.00    -0.090 HD
ENDBRANCH   5  18
BRANCH   3  22
ATOM     22  C   LIG d   1      -7.596  90.213 116.028  0.00  0.00     0.382 C 
ATOM     23  O   LIG d   1      -8.586  90.588 115.355  0.00  0.00    -0.241 OA
ATOM     24  O   LIG d   1      -7.432  88.998 116.253  0.00  0.00    -0.241 OA
ENDBRANCH   3  22
TORSDOF 7
ENDMDL
