MODEL 1
REMARK VINA RESULT:      -5.3      0.000      0.000
REMARK  7 active torsions:
REMARK  status: ('A' for Active; 'I' for Inactive)
REMARK    1  A    between atoms: C_2  and  C_3 
REMARK    2  A    between atoms: C_3  and  O_6 
REMARK    3  A    between atoms: C_3  and  C_4 
REMARK    4  A    between atoms: C_7  and  O_6 
REMARK    5  A    between atoms: C_9  and  C_10 
REMARK    6  A    between atoms: N_15  and  C_14 
REMARK    7  A    between atoms: N_20  and  C_19 
REMARK       I    between atoms: C_22  and  N_20 
ROOT
ATOM      1  C   LIG d   1      -4.019  90.962 117.238  0.00  0.00     0.161 C 
ATOM      2  C   LIG d   1      -5.128  91.516 116.577  0.00  0.00     0.016 C 
ATOM      3  C   LIG d   1      -5.779  90.889 115.490  0.00  0.00     0.038 C 
ATOM      4  C   LIG d   1      -5.456  89.586 115.084  0.00  0.00     0.028 C 
ATOM      5  C   LIG d   1      -4.015  89.195 115.392  0.00  0.00    -0.047 C 
ATOM      6  C   LIG d   1      -3.722  89.491 116.881  0.00  0.00     0.091 C 
ENDROOT
BRANCH   1   7
ATOM      7  O   LIG d   1      -4.174  91.111 118.663  0.00  0.00    -0.368 OA
BRANCH   7   8
ATOM      8  C   LIG d   1      -5.005  92.214 119.102  0.00  0.00     0.119 C 
BRANCH   8   9
ATOM      9  C   LIG d   1      -4.092  93.218 119.832  0.00  0.00     0.028 C 
ATOM     10  C   LIG d   1      -3.994  94.565 119.095  0.00  0.00     0.006 C 
ENDBRANCH   8   9
BRANCH   8  11
ATOM     11  C   LIG d   1      -6.027  91.760 120.148  0.00  0.00     0.028 C 
ATOM     12  C   LIG d   1      -7.323  92.585 120.112  0.00  0.00     0.006 C 
ENDBRANCH   8  11
ENDBRANCH   7   8
ENDBRANCH   1   7
BRANCH   6  13
ATOM     13  N   LIG d   1      -2.308  89.216 117.246  0.00  0.00    -0.311 N 
ATOM     14  C   LIG d   1      -1.905  88.080 117.813  0.00  0.00     0.210 C 
ATOM     15  C   LIG d   1      -0.407  88.009 118.126  0.00  0.00     0.109 C 
ATOM     16  O   LIG d   1      -2.640  87.112 118.058  0.00  0.00    -0.276 OA
ATOM     17  H   LIG d   1      -1.639  89.935 117.054  0.00  0.00     0.149 HD
ENDBRANCH   6  13
BRANCH   5  18
ATOM     18  N   LIG d   1      -3.855  87.771 115.043  0.00  0.00     0.381 N 
ATOM     19  H   LIG d   1      -2.891  87.512 115.109  0.00  0.00    -0.090 HD
ATOM     20  H   LIG d   1      -4.155  87.633 114.094  0.00  0.00    -0.090 HD
ATOM     21  H   LIG d   1      -4.401  87.206 115.657  0.00  0.00    -0.090 HD
ENDBRANCH   5  18
BRANCH   3  22
ATOM     22  C   LIG d   1      -6.739  91.585 114.771  0.00  0.00     0.382 C 
ATOM     23  O   LIG d   1      -7.840  91.043 114.508  0.00  0.00    -0.241 OA
ATOM     24  O   LIG d   1      -6.502  92.730 114.343  0.00  0.00    -0.241 OA
ENDBRANCH   3  22
TORSDOF 7
ENDMDL
MODEL 2
REMARK VINA RESULT:      -5.3      0.849      1.872
REMARK  7 active torsions:
REMARK  status: ('A' for Active; 'I' for Inactive)
REMARK    1  A    between atoms: C_2  and  C_3 
REMARK    2  A    between atoms: C_3  and  O_6 
REMARK    3  A    between atoms: C_3  and  C_4 
REMARK    4  A    between atoms: C_7  and  O_6 
REMARK    5  A    between atoms: C_9  and  C_10 
REMARK    6  A    between atoms: N_15  and  C_14 
REMARK    7  A    between atoms: N_20  and  C_19 
REMARK       I    between atoms: C_22  and  N_20 
ROOT
ATOM      1  C   LIG d   1      -4.016  91.032 117.124  0.00  0.00     0.161 C 
ATOM      2  C   LIG d   1      -5.135  91.565 116.462  0.00  0.00     0.016 C 
ATOM      3  C   LIG d   1      -5.807  90.900 115.411  0.00  0.00     0.038 C 
ATOM      4  C   LIG d   1      -5.496  89.580 115.050  0.00  0.00     0.028 C 
ATOM      5  C   LIG d   1      -4.051  89.195 115.349  0.00  0.00    -0.047 C 
ATOM      6  C   LIG d   1      -3.732  89.546 116.820  0.00  0.00     0.091 C 
ENDROOT
BRANCH   1   7
ATOM      7  O   LIG d   1      -4.147  91.236 118.545  0.00  0.00    -0.368 OA
BRANCH   7   8
ATOM      8  C   LIG d   1      -3.208  92.162 119.145  0.00  0.00     0.119 C 
BRANCH   8   9
ATOM      9  C   LIG d   1      -4.023  93.325 119.743  0.00  0.00     0.028 C 
ATOM     10  C   LIG d   1      -5.490  92.942 120.000  0.00  0.00     0.006 C 
ENDBRANCH   8   9
BRANCH   8  11
ATOM     11  C   LIG d   1      -2.304  92.802 118.087  0.00  0.00     0.028 C 
ATOM     12  C   LIG d   1      -2.252  94.335 118.196  0.00  0.00     0.006 C 
ENDBRANCH   8  11
ENDBRANCH   7   8
ENDBRANCH   1   7
BRANCH   6  13
ATOM     13  N   LIG d   1      -2.313  89.279 117.171  0.00  0.00    -0.311 N 
ATOM     14  C   LIG d   1      -1.904  88.163 117.772  0.00  0.00     0.210 C 
ATOM     15  C   LIG d   1      -0.401  88.098 118.062  0.00  0.00     0.109 C 
ATOM     16  O   LIG d   1      -2.638  87.207 118.063  0.00  0.00    -0.276 OA
ATOM     17  H   LIG d   1      -1.645  89.989 116.942  0.00  0.00     0.149 HD
ENDBRANCH   6  13
BRANCH   5  18
ATOM     18  N   LIG d   1      -3.903  87.757 115.053  0.00  0.00     0.381 N 
ATOM     19  H   LIG d   1      -2.967  87.465 115.252  0.00  0.00    -0.090 HD
ATOM     20  H   LIG d   1      -4.079  87.607 114.075  0.00  0.00    -0.090 HD
ATOM     21  H   LIG d   1      -4.547  87.228 115.598  0.00  0.00    -0.090 HD
ENDBRANCH   5  18
BRANCH   3  22
ATOM     22  C   LIG d   1      -6.776  91.571 114.681  0.00  0.00     0.382 C 
ATOM     23  O   LIG d   1      -6.547  92.726 114.248  0.00  0.00    -0.241 OA
ATOM     24  O   LIG d   1      -7.893  91.054 114.489  0.00  0.00    -0.241 OA
ENDBRANCH   3  22
TORSDOF 7
ENDMDL
MODEL 3
REMARK VINA RESULT:      -5.2      2.291      3.144
REMARK  7 active torsions:
REMARK  status: ('A' for Active; 'I' for Inactive)
REMARK    1  A    between atoms: C_2  and  C_3 
REMARK    2  A    between atoms: C_3  and  O_6 
REMARK    3  A    between atoms: C_3  and  C_4 
REMARK    4  A    between atoms: C_7  and  O_6 
REMARK    5  A    between atoms: C_9  and  C_10 
REMARK    6  A    between atoms: N_15  and  C_14 
REMARK    7  A    between atoms: N_20  and  C_19 
REMARK       I    between atoms: C_22  and  N_20 
ROOT
ATOM      1  C   LIG d   1      -4.612  92.467 117.158  0.00  0.00     0.161 C 
ATOM      2  C   LIG d   1      -5.729  91.746 116.702  0.00  0.00     0.016 C 
ATOM      3  C   LIG d   1      -5.709  90.354 116.457  0.00  0.00     0.038 C 
ATOM      4  C   LIG d   1      -4.607  89.556 116.798  0.00  0.00     0.028 C 
ATOM      5  C   LIG d   1      -3.284  90.315 116.789  0.00  0.00    -0.047 C 
ATOM      6  C   LIG d   1      -3.434  91.595 117.642  0.00  0.00     0.091 C 
ENDROOT
BRANCH   1   7
ATOM      7  O   LIG d   1      -5.013  93.386 118.193  0.00  0.00    -0.368 OA
BRANCH   7   8
ATOM      8  C   LIG d   1      -6.438  93.488 118.437  0.00  0.00     0.119 C 
BRANCH   8   9
ATOM      9  C   LIG d   1      -6.850  94.948 118.166  0.00  0.00     0.028 C 
ATOM     10  C   LIG d   1      -8.325  95.215 118.509  0.00  0.00     0.006 C 
ENDBRANCH   8   9
BRANCH   8  11
ATOM     11  C   LIG d   1      -6.770  93.240 119.912  0.00  0.00     0.028 C 
ATOM     12  C   LIG d   1      -6.326  91.851 120.397  0.00  0.00     0.006 C 
ENDBRANCH   8  11
ENDBRANCH   7   8
ENDBRANCH   1   7
BRANCH   6  13
ATOM     13  N   LIG d   1      -2.211  92.439 117.617  0.00  0.00    -0.311 N 
ATOM     14  C   LIG d   1      -1.524  92.767 118.710  0.00  0.00     0.210 C 
ATOM     15  C   LIG d   1      -0.306  93.662 118.464  0.00  0.00     0.109 C 
ATOM     16  O   LIG d   1      -1.790  92.375 119.857  0.00  0.00    -0.276 OA
ATOM     17  H   LIG d   1      -1.906  92.774 116.724  0.00  0.00     0.149 HD
ENDBRANCH   6  13
BRANCH   5  18
ATOM     18  N   LIG d   1      -2.243  89.401 117.295  0.00  0.00     0.381 N 
ATOM     19  H   LIG d   1      -2.302  88.523 116.819  0.00  0.00    -0.090 HD
ATOM     20  H   LIG d   1      -2.400  89.240 118.275  0.00  0.00    -0.090 HD
ATOM     21  H   LIG d   1      -1.341  89.802 117.158  0.00  0.00    -0.090 HD
ENDBRANCH   5  18
BRANCH   3  22
ATOM     22  C   LIG d   1      -6.788  89.752 115.827  0.00  0.00     0.382 C 
ATOM     23  O   LIG d   1      -7.542  90.431 115.088  0.00  0.00    -0.241 OA
ATOM     24  O   LIG d   1      -7.043  88.549 116.022  0.00  0.00    -0.241 OA
ENDBRANCH   3  22
TORSDOF 7
ENDMDL
MODEL 4
REMARK VINA RESULT:      -5.1      2.487      4.639
REMARK  7 active torsions:
REMARK  status: ('A' for Active; 'I' for Inactive)
REMARK    1  A    between atoms: C_2  and  C_3 
REMARK    2  A    between atoms: C_3  and  O_6 
REMARK    3  A    between atoms: C_3  and  C_4 
REMARK    4  A    between atoms: C_7  and  O_6 
REMARK    5  A    between atoms: C_9  and  C_10 
REMARK    6  A    between atoms: N_15  and  C_14 
REMARK    7  A    between atoms: N_20  and  C_19 
REMARK       I    between atoms: C_22  and  N_20 
ROOT
ATOM      1  C   LIG d   1      -4.337  90.103 117.288  0.00  0.00     0.161 C 
ATOM      2  C   LIG d   1      -3.795  89.104 116.462  0.00  0.00     0.016 C 
ATOM      3  C   LIG d   1      -4.474  88.567 115.344  0.00  0.00     0.038 C 
ATOM      4  C   LIG d   1      -5.686  89.103 114.884  0.00  0.00     0.028 C 
ATOM      5  C   LIG d   1      -6.508  89.771 115.981  0.00  0.00    -0.047 C 
ATOM      6  C   LIG d   1      -5.611  90.777 116.737  0.00  0.00     0.091 C 
ENDROOT
BRANCH   1   7
ATOM      7  O   LIG d   1      -3.332  91.093 117.581  0.00  0.00    -0.368 OA
BRANCH   7   8
ATOM      8  C   LIG d   1      -2.987  91.258 118.978  0.00  0.00     0.119 C 
BRANCH   8   9
ATOM      9  C   LIG d   1      -2.851  92.769 119.247  0.00  0.00     0.028 C 
ATOM     10  C   LIG d   1      -2.894  93.601 117.954  0.00  0.00     0.006 C 
ENDBRANCH   8   9
BRANCH   8  11
ATOM     11  C   LIG d   1      -1.608  90.666 119.285  0.00  0.00     0.028 C 
ATOM     12  C   LIG d   1      -0.664  90.696 118.073  0.00  0.00     0.006 C 
ENDBRANCH   8  11
ENDBRANCH   7   8
ENDBRANCH   1   7
BRANCH   6  13
ATOM     13  N   LIG d   1      -6.314  91.414 117.882  0.00  0.00    -0.311 N 
ATOM     14  C   LIG d   1      -6.560  92.721 117.956  0.00  0.00     0.210 C 
ATOM     15  C   LIG d   1      -7.278  93.172 119.231  0.00  0.00     0.109 C 
ATOM     16  O   LIG d   1      -6.280  93.544 117.072  0.00  0.00    -0.276 OA
ATOM     17  H   LIG d   1      -6.604  90.815 118.630  0.00  0.00     0.149 HD
ENDBRANCH   6  13
BRANCH   5  18
ATOM     18  N   LIG d   1      -7.676  90.404 115.341  0.00  0.00     0.381 N 
ATOM     19  H   LIG d   1      -8.474  89.808 115.427  0.00  0.00    -0.090 HD
ATOM     20  H   LIG d   1      -7.481  90.531 114.363  0.00  0.00    -0.090 HD
ATOM     21  H   LIG d   1      -7.862  91.285 115.767  0.00  0.00    -0.090 HD
ENDBRANCH   5  18
BRANCH   3  22
ATOM     22  C   LIG d   1      -3.958  87.455 114.696  0.00  0.00     0.382 C 
ATOM     23  O   LIG d   1      -4.629  86.880 113.806  0.00  0.00    -0.241 OA
ATOM     24  O   LIG d   1      -2.848  86.992 115.022  0.00  0.00    -0.241 OA
ENDBRANCH   3  22
TORSDOF 7
ENDMDL
MODEL 5
REMARK VINA RESULT:      -5.1      3.155      5.366
REMARK  7 active torsions:
REMARK  status: ('A' for Active; 'I' for Inactive)
REMARK    1  A    between atoms: C_2  and  C_3 
REMARK    2  A    between atoms: C_3  and  O_6 
REMARK    3  A    between atoms: C_3  and  C_4 
REMARK    4  A    between atoms: C_7  and  O_6 
REMARK    5  A    between atoms: C_9  and  C_10 
REMARK    6  A    between atoms: N_15  and  C_14 
REMARK    7  A    between atoms: N_20  and  C_19 
REMARK       I    between atoms: C_22  and  N_20 
ROOT
ATOM      1  C   LIG d   1      -5.247  92.669 117.729  0.00  0.00     0.161 C 
ATOM      2  C   LIG d   1      -6.505  93.289 117.799  0.00  0.00     0.016 C 
ATOM      3  C   LIG d   1      -6.733  94.514 118.466  0.00  0.00     0.038 C 
ATOM      4  C   LIG d   1      -5.680  95.284 118.983  0.00  0.00     0.028 C 
ATOM      5  C   LIG d   1      -4.462  94.456 119.378  0.00  0.00    -0.047 C 
ATOM      6  C   LIG d   1      -4.066  93.548 118.191  0.00  0.00     0.091 C 
ENDROOT
BRANCH   1   7
ATOM      7  O   LIG d   1      -5.016  92.182 116.392  0.00  0.00    -0.368 OA
BRANCH   7   8
ATOM      8  C   LIG d   1      -5.556  90.873 116.088  0.00  0.00     0.119 C 
BRANCH   8   9
ATOM      9  C   LIG d   1      -4.388  89.869 116.126  0.00  0.00     0.028 C 
ATOM     10  C   LIG d   1      -4.591  88.694 115.154  0.00  0.00     0.006 C 
ENDBRANCH   8   9
BRANCH   8  11
ATOM     11  C   LIG d   1      -6.097  90.812 114.656  0.00  0.00     0.028 C 
ATOM     12  C   LIG d   1      -6.851  92.088 114.250  0.00  0.00     0.006 C 
ENDBRANCH   8  11
ENDBRANCH   7   8
ENDBRANCH   1   7
BRANCH   6  13
ATOM     13  N   LIG d   1      -2.934  92.644 118.522  0.00  0.00    -0.311 N 
ATOM     14  C   LIG d   1      -1.669  92.903 118.196  0.00  0.00     0.210 C 
ATOM     15  C   LIG d   1      -0.661  91.828 118.615  0.00  0.00     0.109 C 
ATOM     16  O   LIG d   1      -1.282  93.935 117.628  0.00  0.00    -0.276 OA
ATOM     17  H   LIG d   1      -3.154  91.797 119.010  0.00  0.00     0.149 HD
ENDBRANCH   6  13
BRANCH   5  18
ATOM     18  N   LIG d   1      -3.393  95.394 119.770  0.00  0.00     0.381 N 
ATOM     19  H   LIG d   1      -2.606  95.284 119.162  0.00  0.00    -0.090 HD
ATOM     20  H   LIG d   1      -3.101  95.181 120.707  0.00  0.00    -0.090 HD
ATOM     21  H   LIG d   1      -3.729  96.331 119.724  0.00  0.00    -0.090 HD
ENDBRANCH   5  18
BRANCH   3  22
ATOM     22  C   LIG d   1      -8.031  94.962 118.656  0.00  0.00     0.382 C 
ATOM     23  O   LIG d   1      -8.941  94.146 118.941  0.00  0.00    -0.241 OA
ATOM     24  O   LIG d   1      -8.313  96.166 118.504  0.00  0.00    -0.241 OA
ENDBRANCH   3  22
TORSDOF 7
ENDMDL
MODEL 6
REMARK VINA RESULT:      -5.0      2.638      4.648
REMARK  7 active torsions:
REMARK  status: ('A' for Active; 'I' for Inactive)
REMARK    1  A    between atoms: C_2  and  C_3 
REMARK    2  A    between atoms: C_3  and  O_6 
REMARK    3  A    between atoms: C_3  and  C_4 
REMARK    4  A    between atoms: C_7  and  O_6 
REMARK    5  A    between atoms: C_9  and  C_10 
REMARK    6  A    between atoms: N_15  and  C_14 
REMARK    7  A    between atoms: N_20  and  C_19 
REMARK       I    between atoms: C_22  and  N_20 
ROOT
ATOM      1  C   LIG d   1      -3.736  90.638 117.553  0.00  0.00     0.161 C 
ATOM      2  C   LIG d   1      -4.432  89.713 116.757  0.00  0.00     0.016 C 
ATOM      3  C   LIG d   1      -5.619  90.027 116.056  0.00  0.00     0.038 C 
ATOM      4  C   LIG d   1      -6.111  91.338 115.981  0.00  0.00     0.028 C 
ATOM      5  C   LIG d   1      -5.724  92.199 117.179  0.00  0.00    -0.047 C 
ATOM      6  C   LIG d   1      -4.197  92.102 117.394  0.00  0.00     0.091 C 
ENDROOT
BRANCH   1   7
ATOM      7  O   LIG d   1      -2.321  90.528 117.306  0.00  0.00    -0.368 OA
BRANCH   7   8
ATOM      8  C   LIG d   1      -1.537  89.905 118.353  0.00  0.00     0.119 C 
BRANCH   8   9
ATOM      9  C   LIG d   1      -0.349  90.837 118.660  0.00  0.00     0.028 C 
ATOM     10  C   LIG d   1       0.363  91.319 117.385  0.00  0.00     0.006 C 
ENDBRANCH   8   9
BRANCH   8  11
ATOM     11  C   LIG d   1      -0.910  88.592 117.874  0.00  0.00     0.028 C 
ATOM     12  C   LIG d   1      -1.862  87.393 118.006  0.00  0.00     0.006 C 
ENDBRANCH   8  11
ENDBRANCH   7   8
ENDBRANCH   1   7
BRANCH   6  13
ATOM     13  N   LIG d   1      -3.746  92.849 118.598  0.00  0.00    -0.311 N 
ATOM     14  C   LIG d   1      -2.699  93.672 118.600  0.00  0.00     0.210 C 
ATOM     15  C   LIG d   1      -2.393  94.326 119.952  0.00  0.00     0.109 C 
ATOM     16  O   LIG d   1      -2.014  93.948 117.604  0.00  0.00    -0.276 OA
ATOM     17  H   LIG d   1      -4.264  92.708 119.443  0.00  0.00     0.149 HD
ENDBRANCH   6  13
BRANCH   5  18
ATOM     18  N   LIG d   1      -6.183  93.574 116.906  0.00  0.00     0.381 N 
ATOM     19  H   LIG d   1      -7.163  93.648 117.094  0.00  0.00    -0.090 HD
ATOM     20  H   LIG d   1      -6.033  93.780 115.934  0.00  0.00    -0.090 HD
ATOM     21  H   LIG d   1      -5.679  94.221 117.472  0.00  0.00    -0.090 HD
ENDBRANCH   5  18
BRANCH   3  22
ATOM     22  C   LIG d   1      -6.348  89.014 115.452  0.00  0.00     0.382 C 
ATOM     23  O   LIG d   1      -7.281  88.455 116.077  0.00  0.00    -0.241 OA
ATOM     24  O   LIG d   1      -6.056  88.622 114.306  0.00  0.00    -0.241 OA
ENDBRANCH   3  22
TORSDOF 7
ENDMDL
MODEL 7
REMARK VINA RESULT:      -4.7     17.023     19.322
REMARK  7 active torsions:
REMARK  status: ('A' for Active; 'I' for Inactive)
REMARK    1  A    between atoms: C_2  and  C_3 
REMARK    2  A    between atoms: C_3  and  O_6 
REMARK    3  A    between atoms: C_3  and  C_4 
REMARK    4  A    between atoms: C_7  and  O_6 
REMARK    5  A    between atoms: C_9  and  C_10 
REMARK    6  A    between atoms: N_15  and  C_14 
REMARK    7  A    between atoms: N_20  and  C_19 
REMARK       I    between atoms: C_22  and  N_20 
ROOT
ATOM      1  C   LIG d   1      11.019  79.891 114.964  0.00  0.00     0.161 C 
ATOM      2  C   LIG d   1       9.653  80.040 115.254  0.00  0.00     0.016 C 
ATOM      3  C   LIG d   1       8.752  78.953 115.334  0.00  0.00     0.038 C 
ATOM      4  C   LIG d   1       9.189  77.621 115.280  0.00  0.00     0.028 C 
ATOM      5  C   LIG d   1      10.479  77.440 114.486  0.00  0.00    -0.047 C 
ATOM      6  C   LIG d   1      11.536  78.438 115.011  0.00  0.00     0.091 C 
ENDROOT
BRANCH   1   7
ATOM      7  O   LIG d   1      11.799  80.729 115.841  0.00  0.00    -0.368 OA
BRANCH   7   8
ATOM      8  C   LIG d   1      11.293  80.883 117.190  0.00  0.00     0.119 C 
BRANCH   8   9
ATOM      9  C   LIG d   1      11.501  82.355 117.596  0.00  0.00     0.028 C 
ATOM     10  C   LIG d   1      10.188  83.156 117.593  0.00  0.00     0.006 C 
ENDBRANCH   8   9
BRANCH   8  11
ATOM     11  C   LIG d   1      12.117  80.066 118.190  0.00  0.00     0.028 C 
ATOM     12  C   LIG d   1      11.360  78.839 118.723  0.00  0.00     0.006 C 
ENDBRANCH   8  11
ENDBRANCH   7   8
ENDBRANCH   1   7
BRANCH   6  13
ATOM     13  N   LIG d   1      12.801  78.385 114.233  0.00  0.00    -0.311 N 
ATOM     14  C   LIG d   1      13.991  78.151 114.784  0.00  0.00     0.210 C 
ATOM     15  C   LIG d   1      15.169  78.159 113.805  0.00  0.00     0.109 C 
ATOM     16  O   LIG d   1      14.179  77.906 115.985  0.00  0.00    -0.276 OA
ATOM     17  H   LIG d   1      12.737  78.542 113.247  0.00  0.00     0.149 HD
ENDBRANCH   6  13
BRANCH   5  18
ATOM     18  N   LIG d   1      10.894  76.031 114.627  0.00  0.00     0.381 N 
ATOM     19  H   LIG d   1      11.056  75.820 115.591  0.00  0.00    -0.090 HD
ATOM     20  H   LIG d   1      11.753  75.894 114.125  0.00  0.00    -0.090 HD
ATOM     21  H   LIG d   1      10.188  75.430 114.262  0.00  0.00    -0.090 HD
ENDBRANCH   5  18
BRANCH   3  22
ATOM     22  C   LIG d   1       7.390  79.196 115.432  0.00  0.00     0.382 C 
ATOM     23  O   LIG d   1       6.630  78.897 114.480  0.00  0.00    -0.241 OA
ATOM     24  O   LIG d   1       6.918  79.750 116.443  0.00  0.00    -0.241 OA
ENDBRANCH   3  22
TORSDOF 7
ENDMDL
MODEL 8
REMARK VINA RESULT:      -4.6      2.475      4.821
REMARK  7 active torsions:
REMARK  status: ('A' for Active; 'I' for Inactive)
REMARK    1  A    between atoms: C_2  and  C_3 
REMARK    2  A    between atoms: C_3  and  O_6 
REMARK    3  A    between atoms: C_3  and  C_4 
REMARK    4  A    between atoms: C_7  and  O_6 
REMARK    5  A    between atoms: C_9  and  C_10 
REMARK    6  A    between atoms: N_15  and  C_14 
REMARK    7  A    between atoms: N_20  and  C_19 
REMARK       I    between atoms: C_22  and  N_20 
ROOT
ATOM      1  C   LIG d   1      -3.056  90.022 117.806  0.00  0.00     0.161 C 
ATOM      2  C   LIG d   1      -4.123  89.541 117.029  0.00  0.00     0.016 C 
ATOM      3  C   LIG d   1      -5.169  90.363 116.550  0.00  0.00     0.038 C 
ATOM      4  C   LIG d   1      -5.139  91.758 116.691  0.00  0.00     0.028 C 
ATOM      5  C   LIG d   1      -4.342  92.228 117.902  0.00  0.00    -0.047 C 
ATOM      6  C   LIG d   1      -2.948  91.560 117.876  0.00  0.00     0.091 C 
ENDROOT
BRANCH   1   7
ATOM      7  O   LIG d   1      -1.816  89.454 117.340  0.00  0.00    -0.368 OA
BRANCH   7   8
ATOM      8  C   LIG d   1      -1.315  88.318 118.087  0.00  0.00     0.119 C 
BRANCH   8   9
ATOM      9  C   LIG d   1      -0.110  88.805 118.916  0.00  0.00     0.028 C 
ATOM     10  C   LIG d   1      -0.434  88.910 120.416  0.00  0.00     0.006 C 
ENDBRANCH   8   9
BRANCH   8  11
ATOM     11  C   LIG d   1      -0.757  87.240 117.154  0.00  0.00     0.028 C 
ATOM     12  C   LIG d   1      -1.858  86.462 116.416  0.00  0.00     0.006 C 
ENDBRANCH   8  11
ENDBRANCH   7   8
ENDBRANCH   1   7
BRANCH   6  13
ATOM     13  N   LIG d   1      -2.133  91.900 119.071  0.00  0.00    -0.311 N 
ATOM     14  C   LIG d   1      -0.926  92.458 119.001  0.00  0.00     0.210 C 
ATOM     15  C   LIG d   1      -0.249  92.708 120.352  0.00  0.00     0.109 C 
ATOM     16  O   LIG d   1      -0.365  92.800 117.949  0.00  0.00    -0.276 OA
ATOM     17  H   LIG d   1      -2.526  91.685 119.967  0.00  0.00     0.149 HD
ENDBRANCH   6  13
BRANCH   5  18
ATOM     18  N   LIG d   1      -4.278  93.701 117.850  0.00  0.00     0.381 N 
ATOM     19  H   LIG d   1      -4.867  94.040 117.116  0.00  0.00    -0.090 HD
ATOM     20  H   LIG d   1      -3.333  93.978 117.649  0.00  0.00    -0.090 HD
ATOM     21  H   LIG d   1      -4.566  94.086 118.722  0.00  0.00    -0.090 HD
ENDBRANCH   5  18
BRANCH   3  22
ATOM     22  C   LIG d   1      -6.281  89.784 115.957  0.00  0.00     0.382 C 
ATOM     23  O   LIG d   1      -7.243  90.503 115.594  0.00  0.00    -0.241 OA
ATOM     24  O   LIG d   1      -6.353  88.548 115.822  0.00  0.00    -0.241 OA
ENDBRANCH   3  22
TORSDOF 7
ENDMDL
MODEL 9
REMARK VINA RESULT:      -4.4      2.692      4.983
REMARK  7 active torsions:
REMARK  status: ('A' for Active; 'I' for Inactive)
REMARK    1  A    between atoms: C_2  and  C_3 
REMARK    2  A    between atoms: C_3  and  O_6 
REMARK    3  A    between atoms: C_3  and  C_4 
REMARK    4  A    between atoms: C_7  and  O_6 
REMARK    5  A    between atoms: C_9  and  C_10 
REMARK    6  A    between atoms: N_15  and  C_14 
REMARK    7  A    between atoms: N_20  and  C_19 
REMARK       I    between atoms: C_22  and  N_20 
ROOT
ATOM      1  C   LIG d   1      -2.444  89.312 117.744  0.00  0.00     0.161 C 
ATOM      2  C   LIG d   1      -3.684  89.039 117.142  0.00  0.00     0.016 C 
ATOM      3  C   LIG d   1      -4.591  90.045 116.736  0.00  0.00     0.038 C 
ATOM      4  C   LIG d   1      -4.251  91.406 116.767  0.00  0.00     0.028 C 
ATOM      5  C   LIG d   1      -3.215  91.747 117.833  0.00  0.00    -0.047 C 
ATOM      6  C   LIG d   1      -2.009  90.792 117.684  0.00  0.00     0.091 C 
ENDROOT
BRANCH   1   7
ATOM      7  O   LIG d   1      -1.427  88.467 117.172  0.00  0.00    -0.368 OA
BRANCH   7   8
ATOM      8  C   LIG d   1      -0.906  87.425 118.033  0.00  0.00     0.119 C 
BRANCH   8   9
ATOM      9  C   LIG d   1      -1.346  86.072 117.441  0.00  0.00     0.028 C 
ATOM     10  C   LIG d   1      -1.622  86.154 115.930  0.00  0.00     0.006 C 
ENDBRANCH   8   9
BRANCH   8  11
ATOM     11  C   LIG d   1      -1.540  87.484 119.426  0.00  0.00     0.028 C 
ATOM     12  C   LIG d   1      -2.147  86.141 119.861  0.00  0.00     0.006 C 
ENDBRANCH   8  11
ENDBRANCH   7   8
ENDBRANCH   1   7
BRANCH   6  13
ATOM     13  N   LIG d   1      -0.986  91.002 118.741  0.00  0.00    -0.311 N 
ATOM     14  C   LIG d   1       0.262  91.393 118.486  0.00  0.00     0.210 C 
ATOM     15  C   LIG d   1       1.161  91.530 119.719  0.00  0.00     0.109 C 
ATOM     16  O   LIG d   1       0.700  91.671 117.359  0.00  0.00    -0.276 OA
ATOM     17  H   LIG d   1      -1.265  90.830 119.687  0.00  0.00     0.149 HD
ENDBRANCH   6  13
BRANCH   5  18
ATOM     18  N   LIG d   1      -2.852  93.167 117.663  0.00  0.00     0.381 N 
ATOM     19  H   LIG d   1      -1.928  93.238 117.288  0.00  0.00    -0.090 HD
ATOM     20  H   LIG d   1      -2.863  93.615 118.562  0.00  0.00    -0.090 HD
ATOM     21  H   LIG d   1      -3.501  93.614 117.053  0.00  0.00    -0.090 HD
ENDBRANCH   5  18
BRANCH   3  22
ATOM     22  C   LIG d   1      -5.870  89.694 116.330  0.00  0.00     0.382 C 
ATOM     23  O   LIG d   1      -6.077  88.569 115.815  0.00  0.00    -0.241 OA
ATOM     24  O   LIG d   1      -6.809  90.505 116.432  0.00  0.00    -0.241 OA
ENDBRANCH   3  22
TORSDOF 7
ENDMDL
