MODEL 1
REMARK VINA RESULT:      -5.7      0.000      0.000
REMARK  7 active torsions:
REMARK  status: ('A' for Active; 'I' for Inactive)
REMARK    1  A    between atoms: C_2  and  C_3 
REMARK    2  A    between atoms: C_3  and  O_6 
REMARK    3  A    between atoms: C_3  and  C_4 
REMARK    4  A    between atoms: C_7  and  O_6 
REMARK    5  A    between atoms: C_9  and  C_10 
REMARK    6  A    between atoms: N_15  and  C_14 
REMARK    7  A    between atoms: N_20  and  C_19 
REMARK       I    between atoms: C_22  and  N_20 
ROOT
ATOM      1  C   LIG d   1      -9.717  76.346 117.670  0.00  0.00     0.161 C 
ATOM      2  C   LIG d   1     -10.515  77.356 118.233  0.00  0.00     0.016 C 
ATOM      3  C   LIG d   1     -10.037  78.655 118.522  0.00  0.00     0.038 C 
ATOM      4  C   LIG d   1      -8.761  79.081 118.124  0.00  0.00     0.028 C 
ATOM      5  C   LIG d   1      -7.752  77.943 118.008  0.00  0.00    -0.047 C 
ATOM      6  C   LIG d   1      -8.355  76.825 117.127  0.00  0.00     0.091 C 
ENDROOT
BRANCH   1   7
ATOM      7  O   LIG d   1     -10.454  75.659 116.639  0.00  0.00    -0.368 OA
BRANCH   7   8
ATOM      8  C   LIG d   1     -11.000  74.367 116.999  0.00  0.00     0.119 C 
BRANCH   8   9
ATOM      9  C   LIG d   1     -12.375  74.611 117.652  0.00  0.00     0.028 C 
ATOM     10  C   LIG d   1     -12.441  74.084 119.095  0.00  0.00     0.006 C 
ENDBRANCH   8   9
BRANCH   8  11
ATOM     11  C   LIG d   1     -10.154  73.685 118.078  0.00  0.00     0.028 C 
ATOM     12  C   LIG d   1      -9.292  72.539 117.525  0.00  0.00     0.006 C 
ENDBRANCH   8  11
ENDBRANCH   7   8
ENDBRANCH   1   7
BRANCH   6  13
ATOM     13  N   LIG d   1      -7.466  75.638 117.031  0.00  0.00    -0.311 N 
ATOM     14  C   LIG d   1      -6.986  75.173 115.879  0.00  0.00     0.210 C 
ATOM     15  C   LIG d   1      -6.104  73.926 116.002  0.00  0.00     0.109 C 
ATOM     16  O   LIG d   1      -7.181  75.693 114.770  0.00  0.00    -0.276 OA
ATOM     17  H   LIG d   1      -7.231  75.173 117.887  0.00  0.00     0.149 HD
ENDBRANCH   6  13
BRANCH   5  18
ATOM     18  N   LIG d   1      -6.507  78.508 117.454  0.00  0.00     0.381 N 
ATOM     19  H   LIG d   1      -6.073  79.102 118.133  0.00  0.00    -0.090 HD
ATOM     20  H   LIG d   1      -6.732  79.062 116.647  0.00  0.00    -0.090 HD
ATOM     21  H   LIG d   1      -5.884  77.773 117.199  0.00  0.00    -0.090 HD
ENDBRANCH   5  18
BRANCH   3  22
ATOM     22  C   LIG d   1     -10.826  79.531 119.251  0.00  0.00     0.382 C 
ATOM     23  O   LIG d   1     -10.877  80.743 118.933  0.00  0.00    -0.241 OA
ATOM     24  O   LIG d   1     -11.454  79.133 120.251  0.00  0.00    -0.241 OA
ENDBRANCH   3  22
TORSDOF 7
ENDMDL
MODEL 2
REMARK VINA RESULT:      -5.6      2.561      5.952
REMARK  7 active torsions:
REMARK  status: ('A' for Active; 'I' for Inactive)
REMARK    1  A    between atoms: C_2  and  C_3 
REMARK    2  A    between atoms: C_3  and  O_6 
REMARK    3  A    between atoms: C_3  and  C_4 
REMARK    4  A    between atoms: C_7  and  O_6 
REMARK    5  A    between atoms: C_9  and  C_10 
REMARK    6  A    between atoms: N_15  and  C_14 
REMARK    7  A    between atoms: N_20  and  C_19 
REMARK       I    between atoms: C_22  and  N_20 
ROOT
ATOM      1  C   LIG d   1      -8.173  75.077 117.452  0.00  0.00     0.161 C 
ATOM      2  C   LIG d   1      -6.941  75.219 116.791  0.00  0.00     0.016 C 
ATOM      3  C   LIG d   1      -6.268  74.146 116.162  0.00  0.00     0.038 C 
ATOM      4  C   LIG d   1      -6.858  72.882 116.020  0.00  0.00     0.028 C 
ATOM      5  C   LIG d   1      -7.876  72.562 117.110  0.00  0.00    -0.047 C 
ATOM      6  C   LIG d   1      -8.885  73.730 117.212  0.00  0.00     0.091 C 
ENDROOT
BRANCH   1   7
ATOM      7  O   LIG d   1      -9.043  76.172 117.105  0.00  0.00    -0.368 OA
BRANCH   7   8
ATOM      8  C   LIG d   1      -9.285  77.149 118.147  0.00  0.00     0.119 C 
BRANCH   8   9
ATOM      9  C   LIG d   1      -8.396  78.372 117.851  0.00  0.00     0.028 C 
ATOM     10  C   LIG d   1      -9.072  79.698 118.241  0.00  0.00     0.006 C 
ENDBRANCH   8   9
BRANCH   8  11
ATOM     11  C   LIG d   1      -8.824  76.633 119.513  0.00  0.00     0.028 C 
ATOM     12  C   LIG d   1      -9.953  76.614 120.555  0.00  0.00     0.006 C 
ENDBRANCH   8  11
ENDBRANCH   7   8
ENDBRANCH   1   7
BRANCH   6  13
ATOM     13  N   LIG d   1      -9.865  73.536 118.311  0.00  0.00    -0.311 N 
ATOM     14  C   LIG d   1     -11.159  73.835 118.201  0.00  0.00     0.210 C 
ATOM     15  C   LIG d   1     -11.992  73.578 119.461  0.00  0.00     0.109 C 
ATOM     16  O   LIG d   1     -11.701  74.259 117.169  0.00  0.00    -0.276 OA
ATOM     17  H   LIG d   1      -9.516  73.168 119.174  0.00  0.00     0.149 HD
ENDBRANCH   6  13
BRANCH   5  18
ATOM     18  N   LIG d   1      -8.512  71.277 116.763  0.00  0.00     0.381 N 
ATOM     19  H   LIG d   1      -8.730  71.260 115.786  0.00  0.00    -0.090 HD
ATOM     20  H   LIG d   1      -9.370  71.189 117.279  0.00  0.00    -0.090 HD
ATOM     21  H   LIG d   1      -7.901  70.523 116.988  0.00  0.00    -0.090 HD
ENDBRANCH   5  18
BRANCH   3  22
ATOM     22  C   LIG d   1      -4.972  74.324 115.702  0.00  0.00     0.382 C 
ATOM     23  O   LIG d   1      -4.747  74.380 114.469  0.00  0.00    -0.241 OA
ATOM     24  O   LIG d   1      -4.020  74.384 116.502  0.00  0.00    -0.241 OA
ENDBRANCH   3  22
TORSDOF 7
ENDMDL
MODEL 3
REMARK VINA RESULT:      -5.6      1.862      4.990
REMARK  7 active torsions:
REMARK  status: ('A' for Active; 'I' for Inactive)
REMARK    1  A    between atoms: C_2  and  C_3 
REMARK    2  A    between atoms: C_3  and  O_6 
REMARK    3  A    between atoms: C_3  and  C_4 
REMARK    4  A    between atoms: C_7  and  O_6 
REMARK    5  A    between atoms: C_9  and  C_10 
REMARK    6  A    between atoms: N_15  and  C_14 
REMARK    7  A    between atoms: N_20  and  C_19 
REMARK       I    between atoms: C_22  and  N_20 
ROOT
ATOM      1  C   LIG d   1      -8.128  75.218 117.052  0.00  0.00     0.161 C 
ATOM      2  C   LIG d   1      -7.035  74.602 116.420  0.00  0.00     0.016 C 
ATOM      3  C   LIG d   1      -5.811  75.261 116.166  0.00  0.00     0.038 C 
ATOM      4  C   LIG d   1      -5.541  76.543 116.666  0.00  0.00     0.028 C 
ATOM      5  C   LIG d   1      -6.793  77.389 116.871  0.00  0.00    -0.047 C 
ATOM      6  C   LIG d   1      -7.814  76.581 117.704  0.00  0.00     0.091 C 
ENDROOT
BRANCH   1   7
ATOM      7  O   LIG d   1      -8.702  74.320 118.022  0.00  0.00    -0.368 OA
BRANCH   7   8
ATOM      8  C   LIG d   1      -9.637  73.340 117.509  0.00  0.00     0.119 C 
BRANCH   8   9
ATOM      9  C   LIG d   1     -11.006  73.622 118.156  0.00  0.00     0.028 C 
ATOM     10  C   LIG d   1     -11.827  74.655 117.366  0.00  0.00     0.006 C 
ENDBRANCH   8   9
BRANCH   8  11
ATOM     11  C   LIG d   1      -9.262  71.923 117.955  0.00  0.00     0.028 C 
ATOM     12  C   LIG d   1      -8.350  71.203 116.949  0.00  0.00     0.006 C 
ENDBRANCH   8  11
ENDBRANCH   7   8
ENDBRANCH   1   7
BRANCH   6  13
ATOM     13  N   LIG d   1      -9.101  77.303 117.879  0.00  0.00    -0.311 N 
ATOM     14  C   LIG d   1      -9.711  77.438 119.055  0.00  0.00     0.210 C 
ATOM     15  C   LIG d   1     -11.039  78.202 119.011  0.00  0.00     0.109 C 
ATOM     16  O   LIG d   1      -9.264  77.026 120.136  0.00  0.00    -0.276 OA
ATOM     17  H   LIG d   1      -9.519  77.697 117.059  0.00  0.00     0.149 HD
ENDBRANCH   6  13
BRANCH   5  18
ATOM     18  N   LIG d   1      -6.380  78.646 117.523  0.00  0.00     0.381 N 
ATOM     19  H   LIG d   1      -5.452  78.551 117.885  0.00  0.00    -0.090 HD
ATOM     20  H   LIG d   1      -7.001  78.833 118.291  0.00  0.00    -0.090 HD
ATOM     21  H   LIG d   1      -6.413  79.397 116.869  0.00  0.00    -0.090 HD
ENDBRANCH   5  18
BRANCH   3  22
ATOM     22  C   LIG d   1      -4.854  74.650 115.369  0.00  0.00     0.382 C 
ATOM     23  O   LIG d   1      -3.664  74.582 115.759  0.00  0.00    -0.241 OA
ATOM     24  O   LIG d   1      -5.158  74.206 114.246  0.00  0.00    -0.241 OA
ENDBRANCH   3  22
TORSDOF 7
ENDMDL
MODEL 4
REMARK VINA RESULT:      -5.1     11.351     13.762
REMARK  7 active torsions:
REMARK  status: ('A' for Active; 'I' for Inactive)
REMARK    1  A    between atoms: C_2  and  C_3 
REMARK    2  A    between atoms: C_3  and  O_6 
REMARK    3  A    between atoms: C_3  and  C_4 
REMARK    4  A    between atoms: C_7  and  O_6 
REMARK    5  A    between atoms: C_9  and  C_10 
REMARK    6  A    between atoms: N_15  and  C_14 
REMARK    7  A    between atoms: N_20  and  C_19 
REMARK       I    between atoms: C_22  and  N_20 
ROOT
ATOM      1  C   LIG d   1     -16.048  64.684 116.652  0.00  0.00     0.161 C 
ATOM      2  C   LIG d   1     -16.096  65.930 116.005  0.00  0.00     0.016 C 
ATOM      3  C   LIG d   1     -15.431  67.082 116.484  0.00  0.00     0.038 C 
ATOM      4  C   LIG d   1     -14.544  67.028 117.570  0.00  0.00     0.028 C 
ATOM      5  C   LIG d   1     -14.859  65.907 118.555  0.00  0.00    -0.047 C 
ATOM      6  C   LIG d   1     -14.996  64.579 117.776  0.00  0.00     0.091 C 
ENDROOT
BRANCH   1   7
ATOM      7  O   LIG d   1     -15.851  63.636 115.682  0.00  0.00    -0.368 OA
BRANCH   7   8
ATOM      8  C   LIG d   1     -16.991  62.777 115.432  0.00  0.00     0.119 C 
BRANCH   8   9
ATOM      9  C   LIG d   1     -18.209  63.408 116.132  0.00  0.00     0.028 C 
ATOM     10  C   LIG d   1     -19.282  63.876 115.134  0.00  0.00     0.006 C 
ENDBRANCH   8   9
BRANCH   8  11
ATOM     11  C   LIG d   1     -16.810  61.406 116.090  0.00  0.00     0.028 C 
ATOM     12  C   LIG d   1     -17.840  61.137 117.198  0.00  0.00     0.006 C 
ENDBRANCH   8  11
ENDBRANCH   7   8
ENDBRANCH   1   7
BRANCH   6  13
ATOM     13  N   LIG d   1     -15.387  63.445 118.654  0.00  0.00    -0.311 N 
ATOM     14  C   LIG d   1     -14.584  62.418 118.927  0.00  0.00     0.210 C 
ATOM     15  C   LIG d   1     -15.191  61.347 119.838  0.00  0.00     0.109 C 
ATOM     16  O   LIG d   1     -13.415  62.310 118.528  0.00  0.00    -0.276 OA
ATOM     17  H   LIG d   1     -16.308  63.468 119.045  0.00  0.00     0.149 HD
ENDBRANCH   6  13
BRANCH   5  18
ATOM     18  N   LIG d   1     -13.780  65.880 119.559  0.00  0.00     0.381 N 
ATOM     19  H   LIG d   1     -13.060  65.250 119.266  0.00  0.00    -0.090 HD
ATOM     20  H   LIG d   1     -14.155  65.547 120.430  0.00  0.00    -0.090 HD
ATOM     21  H   LIG d   1     -13.402  66.794 119.679  0.00  0.00    -0.090 HD
ENDBRANCH   5  18
BRANCH   3  22
ATOM     22  C   LIG d   1     -15.682  68.314 115.900  0.00  0.00     0.382 C 
ATOM     23  O   LIG d   1     -15.001  68.692 114.917  0.00  0.00    -0.241 OA
ATOM     24  O   LIG d   1     -16.553  69.070 116.370  0.00  0.00    -0.241 OA
ENDBRANCH   3  22
TORSDOF 7
ENDMDL
MODEL 5
REMARK VINA RESULT:      -5.1      2.145      4.167
REMARK  7 active torsions:
REMARK  status: ('A' for Active; 'I' for Inactive)
REMARK    1  A    between atoms: C_2  and  C_3 
REMARK    2  A    between atoms: C_3  and  O_6 
REMARK    3  A    between atoms: C_3  and  C_4 
REMARK    4  A    between atoms: C_7  and  O_6 
REMARK    5  A    between atoms: C_9  and  C_10 
REMARK    6  A    between atoms: N_15  and  C_14 
REMARK    7  A    between atoms: N_20  and  C_19 
REMARK       I    between atoms: C_22  and  N_20 
ROOT
ATOM      1  C   LIG d   1      -8.846  75.780 117.653  0.00  0.00     0.161 C 
ATOM      2  C   LIG d   1      -9.340  77.018 118.097  0.00  0.00     0.016 C 
ATOM      3  C   LIG d   1     -10.491  77.150 118.908  0.00  0.00     0.038 C 
ATOM      4  C   LIG d   1     -11.142  76.037 119.459  0.00  0.00     0.028 C 
ATOM      5  C   LIG d   1     -10.979  74.768 118.628  0.00  0.00    -0.047 C 
ATOM      6  C   LIG d   1      -9.478  74.549 118.335  0.00  0.00     0.091 C 
ENDROOT
BRANCH   1   7
ATOM      7  O   LIG d   1      -7.411  75.749 117.792  0.00  0.00    -0.368 OA
BRANCH   7   8
ATOM      8  C   LIG d   1      -6.649  75.976 116.581  0.00  0.00     0.119 C 
BRANCH   8   9
ATOM      9  C   LIG d   1      -7.584  75.705 115.387  0.00  0.00     0.028 C 
ATOM     10  C   LIG d   1      -6.988  76.186 114.053  0.00  0.00     0.006 C 
ENDBRANCH   8   9
BRANCH   8  11
ATOM     11  C   LIG d   1      -5.508  74.963 116.442  0.00  0.00     0.028 C 
ATOM     12  C   LIG d   1      -6.001  73.562 116.049  0.00  0.00     0.006 C 
ENDBRANCH   8  11
ENDBRANCH   7   8
ENDBRANCH   1   7
BRANCH   6  13
ATOM     13  N   LIG d   1      -9.237  73.375 117.456  0.00  0.00    -0.311 N 
ATOM     14  C   LIG d   1      -8.982  72.152 117.919  0.00  0.00     0.210 C 
ATOM     15  C   LIG d   1      -8.744  71.090 116.841  0.00  0.00     0.109 C 
ATOM     16  O   LIG d   1      -8.962  71.841 119.119  0.00  0.00    -0.276 OA
ATOM     17  H   LIG d   1      -9.266  73.532 116.467  0.00  0.00     0.149 HD
ENDBRANCH   6  13
BRANCH   5  18
ATOM     18  N   LIG d   1     -11.588  73.658 119.386  0.00  0.00     0.381 N 
ATOM     19  H   LIG d   1     -10.936  73.310 120.060  0.00  0.00    -0.090 HD
ATOM     20  H   LIG d   1     -11.811  72.914 118.749  0.00  0.00    -0.090 HD
ATOM     21  H   LIG d   1     -12.415  73.972 119.844  0.00  0.00    -0.090 HD
ENDBRANCH   5  18
BRANCH   3  22
ATOM     22  C   LIG d   1     -11.025  78.408 119.143  0.00  0.00     0.382 C 
ATOM     23  O   LIG d   1     -10.921  79.306 118.273  0.00  0.00    -0.241 OA
ATOM     24  O   LIG d   1     -11.570  78.670 120.232  0.00  0.00    -0.241 OA
ENDBRANCH   3  22
TORSDOF 7
ENDMDL
MODEL 6
REMARK VINA RESULT:      -5.1      2.577      4.318
REMARK  7 active torsions:
REMARK  status: ('A' for Active; 'I' for Inactive)
REMARK    1  A    between atoms: C_2  and  C_3 
REMARK    2  A    between atoms: C_3  and  O_6 
REMARK    3  A    between atoms: C_3  and  C_4 
REMARK    4  A    between atoms: C_7  and  O_6 
REMARK    5  A    between atoms: C_9  and  C_10 
REMARK    6  A    between atoms: N_15  and  C_14 
REMARK    7  A    between atoms: N_20  and  C_19 
REMARK       I    between atoms: C_22  and  N_20 
ROOT
ATOM      1  C   LIG d   1      -9.355  77.859 117.929  0.00  0.00     0.161 C 
ATOM      2  C   LIG d   1      -8.386  78.876 117.901  0.00  0.00     0.016 C 
ATOM      3  C   LIG d   1      -8.466  80.049 118.686  0.00  0.00     0.038 C 
ATOM      4  C   LIG d   1      -9.449  80.215 119.672  0.00  0.00     0.028 C 
ATOM      5  C   LIG d   1     -10.733  79.445 119.384  0.00  0.00    -0.047 C 
ATOM      6  C   LIG d   1     -10.377  77.972 119.080  0.00  0.00     0.091 C 
ENDROOT
BRANCH   1   7
ATOM      7  O   LIG d   1      -8.709  76.570 117.957  0.00  0.00    -0.368 OA
BRANCH   7   8
ATOM      8  C   LIG d   1      -8.892  75.741 116.783  0.00  0.00     0.119 C 
BRANCH   8   9
ATOM      9  C   LIG d   1      -8.846  74.271 117.242  0.00  0.00     0.028 C 
ATOM     10  C   LIG d   1     -10.248  73.654 117.378  0.00  0.00     0.006 C 
ENDBRANCH   8   9
BRANCH   8  11
ATOM     11  C   LIG d   1      -7.724  75.897 115.804  0.00  0.00     0.028 C 
ATOM     12  C   LIG d   1      -6.770  74.693 115.819  0.00  0.00     0.006 C 
ENDBRANCH   8  11
ENDBRANCH   7   8
ENDBRANCH   1   7
BRANCH   6  13
ATOM     13  N   LIG d   1     -11.568  77.166 118.704  0.00  0.00    -0.311 N 
ATOM     14  C   LIG d   1     -12.002  76.125 119.413  0.00  0.00     0.210 C 
ATOM     15  C   LIG d   1     -13.235  75.421 118.838  0.00  0.00     0.109 C 
ATOM     16  O   LIG d   1     -11.502  75.738 120.480  0.00  0.00    -0.276 OA
ATOM     17  H   LIG d   1     -12.052  77.430 117.869  0.00  0.00     0.149 HD
ENDBRANCH   6  13
BRANCH   5  18
ATOM     18  N   LIG d   1     -11.617  79.596 120.555  0.00  0.00     0.381 N 
ATOM     19  H   LIG d   1     -12.561  79.394 120.295  0.00  0.00    -0.090 HD
ATOM     20  H   LIG d   1     -11.574  80.548 120.873  0.00  0.00    -0.090 HD
ATOM     21  H   LIG d   1     -11.326  78.982 121.283  0.00  0.00    -0.090 HD
ENDBRANCH   5  18
BRANCH   3  22
ATOM     22  C   LIG d   1      -7.577  81.089 118.460  0.00  0.00     0.382 C 
ATOM     23  O   LIG d   1      -7.281  81.875 119.393  0.00  0.00    -0.241 OA
ATOM     24  O   LIG d   1      -7.101  81.278 117.325  0.00  0.00    -0.241 OA
ENDBRANCH   3  22
TORSDOF 7
ENDMDL
MODEL 7
REMARK VINA RESULT:      -4.8      2.427      4.383
REMARK  7 active torsions:
REMARK  status: ('A' for Active; 'I' for Inactive)
REMARK    1  A    between atoms: C_2  and  C_3 
REMARK    2  A    between atoms: C_3  and  O_6 
REMARK    3  A    between atoms: C_3  and  C_4 
REMARK    4  A    between atoms: C_7  and  O_6 
REMARK    5  A    between atoms: C_9  and  C_10 
REMARK    6  A    between atoms: N_15  and  C_14 
REMARK    7  A    between atoms: N_20  and  C_19 
REMARK       I    between atoms: C_22  and  N_20 
ROOT
ATOM      1  C   LIG d   1      -8.145  77.468 117.591  0.00  0.00     0.161 C 
ATOM      2  C   LIG d   1      -7.614  78.762 117.716  0.00  0.00     0.016 C 
ATOM      3  C   LIG d   1      -8.295  79.824 118.356  0.00  0.00     0.038 C 
ATOM      4  C   LIG d   1      -9.496  79.622 119.052  0.00  0.00     0.028 C 
ATOM      5  C   LIG d   1     -10.313  78.449 118.522  0.00  0.00    -0.047 C 
ATOM      6  C   LIG d   1      -9.405  77.200 118.441  0.00  0.00     0.091 C 
ENDROOT
BRANCH   1   7
ATOM      7  O   LIG d   1      -7.127  76.491 117.885  0.00  0.00    -0.368 OA
BRANCH   7   8
ATOM      8  C   LIG d   1      -6.441  75.922 116.743  0.00  0.00     0.119 C 
BRANCH   8   9
ATOM      9  C   LIG d   1      -7.057  74.535 116.477  0.00  0.00     0.028 C 
ATOM     10  C   LIG d   1      -6.144  73.641 115.622  0.00  0.00     0.006 C 
ENDBRANCH   8   9
BRANCH   8  11
ATOM     11  C   LIG d   1      -4.965  75.657 117.054  0.00  0.00     0.028 C 
ATOM     12  C   LIG d   1      -4.330  76.762 117.913  0.00  0.00     0.006 C 
ENDBRANCH   8  11
ENDBRANCH   7   8
ENDBRANCH   1   7
BRANCH   6  13
ATOM     13  N   LIG d   1     -10.104  76.028 117.852  0.00  0.00    -0.311 N 
ATOM     14  C   LIG d   1     -10.172  74.840 118.449  0.00  0.00     0.210 C 
ATOM     15  C   LIG d   1     -10.924  73.762 117.661  0.00  0.00     0.109 C 
ATOM     16  O   LIG d   1      -9.709  74.584 119.571  0.00  0.00    -0.276 OA
ATOM     17  H   LIG d   1     -10.535  76.156 116.958  0.00  0.00     0.149 HD
ENDBRANCH   6  13
BRANCH   5  18
ATOM     18  N   LIG d   1     -11.467  78.267 119.422  0.00  0.00     0.381 N 
ATOM     19  H   LIG d   1     -11.295  78.731 120.292  0.00  0.00    -0.090 HD
ATOM     20  H   LIG d   1     -11.585  77.286 119.606  0.00  0.00    -0.090 HD
ATOM     21  H   LIG d   1     -12.291  78.634 118.999  0.00  0.00    -0.090 HD
ENDBRANCH   5  18
BRANCH   3  22
ATOM     22  C   LIG d   1      -7.792  81.113 118.269  0.00  0.00     0.382 C 
ATOM     23  O   LIG d   1      -7.062  81.438 117.302  0.00  0.00    -0.241 OA
ATOM     24  O   LIG d   1      -8.023  81.943 119.169  0.00  0.00    -0.241 OA
ENDBRANCH   3  22
TORSDOF 7
ENDMDL
MODEL 8
REMARK VINA RESULT:      -4.6      4.970      7.174
REMARK  7 active torsions:
REMARK  status: ('A' for Active; 'I' for Inactive)
REMARK    1  A    between atoms: C_2  and  C_3 
REMARK    2  A    between atoms: C_3  and  O_6 
REMARK    3  A    between atoms: C_3  and  C_4 
REMARK    4  A    between atoms: C_7  and  O_6 
REMARK    5  A    between atoms: C_9  and  C_10 
REMARK    6  A    between atoms: N_15  and  C_14 
REMARK    7  A    between atoms: N_20  and  C_19 
REMARK       I    between atoms: C_22  and  N_20 
ROOT
ATOM      1  C   LIG d   1      -3.218  76.856 117.040  0.00  0.00     0.161 C 
ATOM      2  C   LIG d   1      -3.321  77.942 116.155  0.00  0.00     0.016 C 
ATOM      3  C   LIG d   1      -2.296  78.312 115.254  0.00  0.00     0.038 C 
ATOM      4  C   LIG d   1      -1.151  77.523 115.070  0.00  0.00     0.028 C 
ATOM      5  C   LIG d   1      -0.777  76.702 116.299  0.00  0.00    -0.047 C 
ATOM      6  C   LIG d   1      -2.021  75.918 116.776  0.00  0.00     0.091 C 
ENDROOT
BRANCH   1   7
ATOM      7  O   LIG d   1      -4.450  76.108 117.043  0.00  0.00    -0.368 OA
BRANCH   7   8
ATOM      8  C   LIG d   1      -5.188  76.093 115.796  0.00  0.00     0.119 C 
BRANCH   8   9
ATOM      9  C   LIG d   1      -6.687  76.176 116.145  0.00  0.00     0.028 C 
ATOM     10  C   LIG d   1      -6.928  76.657 117.586  0.00  0.00     0.006 C 
ENDBRANCH   8   9
BRANCH   8  11
ATOM     11  C   LIG d   1      -5.016  74.760 115.063  0.00  0.00     0.028 C 
ATOM     12  C   LIG d   1      -6.028  73.695 115.515  0.00  0.00     0.006 C 
ENDBRANCH   8  11
ENDBRANCH   7   8
ENDBRANCH   1   7
BRANCH   6  13
ATOM     13  N   LIG d   1      -1.765  75.153 118.024  0.00  0.00    -0.311 N 
ATOM     14  C   LIG d   1      -2.123  73.881 118.191  0.00  0.00     0.210 C 
ATOM     15  C   LIG d   1      -1.783  73.288 119.562  0.00  0.00     0.109 C 
ATOM     16  O   LIG d   1      -2.662  73.179 117.323  0.00  0.00    -0.276 OA
ATOM     17  H   LIG d   1      -1.304  75.637 118.770  0.00  0.00     0.149 HD
ENDBRANCH   6  13
BRANCH   5  18
ATOM     18  N   LIG d   1       0.349  75.826 115.924  0.00  0.00     0.381 N 
ATOM     19  H   LIG d   1       0.006  74.918 115.683  0.00  0.00    -0.090 HD
ATOM     20  H   LIG d   1       0.964  75.732 116.713  0.00  0.00    -0.090 HD
ATOM     21  H   LIG d   1       0.844  76.218 115.153  0.00  0.00    -0.090 HD
ENDBRANCH   5  18
BRANCH   3  22
ATOM     22  C   LIG d   1      -2.395  79.504 114.553  0.00  0.00     0.382 C 
ATOM     23  O   LIG d   1      -1.359  80.157 114.279  0.00  0.00    -0.241 OA
ATOM     24  O   LIG d   1      -3.509  79.958 114.232  0.00  0.00    -0.241 OA
ENDBRANCH   3  22
TORSDOF 7
ENDMDL
MODEL 9
REMARK VINA RESULT:      -4.6      2.258      4.306
REMARK  7 active torsions:
REMARK  status: ('A' for Active; 'I' for Inactive)
REMARK    1  A    between atoms: C_2  and  C_3 
REMARK    2  A    between atoms: C_3  and  O_6 
REMARK    3  A    between atoms: C_3  and  C_4 
REMARK    4  A    between atoms: C_7  and  O_6 
REMARK    5  A    between atoms: C_9  and  C_10 
REMARK    6  A    between atoms: N_15  and  C_14 
REMARK    7  A    between atoms: N_20  and  C_19 
REMARK       I    between atoms: C_22  and  N_20 
ROOT
ATOM      1  C   LIG d   1      -8.489  77.098 117.959  0.00  0.00     0.161 C 
ATOM      2  C   LIG d   1      -8.567  78.500 117.982  0.00  0.00     0.016 C 
ATOM      3  C   LIG d   1      -9.730  79.209 118.363  0.00  0.00     0.038 C 
ATOM      4  C   LIG d   1     -10.852  78.559 118.897  0.00  0.00     0.028 C 
ATOM      5  C   LIG d   1     -11.002  77.119 118.419  0.00  0.00    -0.047 C 
ATOM      6  C   LIG d   1      -9.667  76.374 118.644  0.00  0.00     0.091 C 
ENDROOT
BRANCH   1   7
ATOM      7  O   LIG d   1      -7.237  76.669 118.530  0.00  0.00    -0.368 OA
BRANCH   7   8
ATOM      8  C   LIG d   1      -6.238  76.197 117.593  0.00  0.00     0.119 C 
BRANCH   8   9
ATOM      9  C   LIG d   1      -5.333  77.393 117.239  0.00  0.00     0.028 C 
ATOM     10  C   LIG d   1      -4.696  78.036 118.482  0.00  0.00     0.006 C 
ENDBRANCH   8   9
BRANCH   8  11
ATOM     11  C   LIG d   1      -6.876  75.764 116.270  0.00  0.00     0.028 C 
ATOM     12  C   LIG d   1      -6.762  74.252 116.020  0.00  0.00     0.006 C 
ENDBRANCH   8  11
ENDBRANCH   7   8
ENDBRANCH   1   7
BRANCH   6  13
ATOM     13  N   LIG d   1      -9.701  74.981 118.126  0.00  0.00    -0.311 N 
ATOM     14  C   LIG d   1      -9.464  73.911 118.883  0.00  0.00     0.210 C 
ATOM     15  C   LIG d   1      -9.529  72.570 118.146  0.00  0.00     0.109 C 
ATOM     16  O   LIG d   1      -9.237  73.944 120.102  0.00  0.00    -0.276 OA
ATOM     17  H   LIG d   1      -9.907  74.861 117.154  0.00  0.00     0.149 HD
ENDBRANCH   6  13
BRANCH   5  18
ATOM     18  N   LIG d   1     -12.130  76.519 119.157  0.00  0.00     0.381 N 
ATOM     19  H   LIG d   1     -12.331  77.066 119.971  0.00  0.00    -0.090 HD
ATOM     20  H   LIG d   1     -11.870  75.595 119.454  0.00  0.00    -0.090 HD
ATOM     21  H   LIG d   1     -12.935  76.473 118.572  0.00  0.00    -0.090 HD
ENDBRANCH   5  18
BRANCH   3  22
ATOM     22  C   LIG d   1      -9.791  80.581 118.175  0.00  0.00     0.382 C 
ATOM     23  O   LIG d   1     -10.783  81.228 118.591  0.00  0.00    -0.241 OA
ATOM     24  O   LIG d   1      -8.888  81.175 117.556  0.00  0.00    -0.241 OA
ENDBRANCH   3  22
TORSDOF 7
ENDMDL
