MODEL 1
REMARK VINA RESULT:      -5.8      0.000      0.000
REMARK  7 active torsions:
REMARK  status: ('A' for Active; 'I' for Inactive)
REMARK    1  A    between atoms: C_2  and  C_3 
REMARK    2  A    between atoms: C_3  and  O_6 
REMARK    3  A    between atoms: C_3  and  C_4 
REMARK    4  A    between atoms: C_7  and  O_6 
REMARK    5  A    between atoms: C_9  and  C_10 
REMARK    6  A    between atoms: N_15  and  C_14 
REMARK    7  A    between atoms: N_20  and  C_19 
REMARK       I    between atoms: C_22  and  N_20 
ROOT
ATOM      1  C   LIG d   1      -7.583  74.964 118.522  0.00  0.00     0.161 C 
ATOM      2  C   LIG d   1      -7.452  73.710 117.903  0.00  0.00     0.016 C 
ATOM      3  C   LIG d   1      -8.462  73.127 117.103  0.00  0.00     0.038 C 
ATOM      4  C   LIG d   1      -9.620  73.832 116.742  0.00  0.00     0.028 C 
ATOM      5  C   LIG d   1     -10.019  74.900 117.754  0.00  0.00    -0.047 C 
ATOM      6  C   LIG d   1      -8.793  75.795 118.049  0.00  0.00     0.091 C 
ENDROOT
BRANCH   1   7
ATOM      7  O   LIG d   1      -6.364  75.717 118.362  0.00  0.00    -0.368 OA
BRANCH   7   8
ATOM      8  C   LIG d   1      -5.530  75.349 117.236  0.00  0.00     0.119 C 
BRANCH   8   9
ATOM      9  C   LIG d   1      -4.064  75.422 117.703  0.00  0.00     0.028 C 
ATOM     10  C   LIG d   1      -3.333  74.077 117.557  0.00  0.00     0.006 C 
ENDBRANCH   8   9
BRANCH   8  11
ATOM     11  C   LIG d   1      -5.646  76.369 116.100  0.00  0.00     0.028 C 
ATOM     12  C   LIG d   1      -6.620  75.925 114.997  0.00  0.00     0.006 C 
ENDBRANCH   8  11
ENDBRANCH   7   8
ENDBRANCH   1   7
BRANCH   6  13
ATOM     13  N   LIG d   1      -9.074  76.815 119.093  0.00  0.00    -0.311 N 
ATOM     14  C   LIG d   1      -8.830  78.114 118.933  0.00  0.00     0.210 C 
ATOM     15  C   LIG d   1      -9.175  78.991 120.141  0.00  0.00     0.109 C 
ATOM     16  O   LIG d   1      -8.391  78.629 117.893  0.00  0.00    -0.276 OA
ATOM     17  H   LIG d   1      -9.461  76.489 119.957  0.00  0.00     0.149 HD
ENDBRANCH   6  13
BRANCH   5  18
ATOM     18  N   LIG d   1     -11.158  75.647 117.188  0.00  0.00     0.381 N 
ATOM     19  H   LIG d   1     -10.834  76.503 116.782  0.00  0.00    -0.090 HD
ATOM     20  H   LIG d   1     -11.799  75.872 117.928  0.00  0.00    -0.090 HD
ATOM     21  H   LIG d   1     -11.617  75.097 116.496  0.00  0.00    -0.090 HD
ENDBRANCH   5  18
BRANCH   3  22
ATOM     22  C   LIG d   1      -8.336  71.810 116.688  0.00  0.00     0.382 C 
ATOM     23  O   LIG d   1      -7.368  71.470 115.966  0.00  0.00    -0.241 OA
ATOM     24  O   LIG d   1      -9.201  70.967 116.990  0.00  0.00    -0.241 OA
ENDBRANCH   3  22
TORSDOF 7
ENDMDL
MODEL 2
REMARK VINA RESULT:      -5.6      1.642      5.005
REMARK  7 active torsions:
REMARK  status: ('A' for Active; 'I' for Inactive)
REMARK    1  A    between atoms: C_2  and  C_3 
REMARK    2  A    between atoms: C_3  and  O_6 
REMARK    3  A    between atoms: C_3  and  C_4 
REMARK    4  A    between atoms: C_7  and  O_6 
REMARK    5  A    between atoms: C_9  and  C_10 
REMARK    6  A    between atoms: N_15  and  C_14 
REMARK    7  A    between atoms: N_20  and  C_19 
REMARK       I    between atoms: C_22  and  N_20 
ROOT
ATOM      1  C   LIG d   1      -7.064  76.269 117.218  0.00  0.00     0.161 C 
ATOM      2  C   LIG d   1      -7.227  77.636 117.496  0.00  0.00     0.016 C 
ATOM      3  C   LIG d   1      -8.453  78.205 117.911  0.00  0.00     0.038 C 
ATOM      4  C   LIG d   1      -9.569  77.415 118.223  0.00  0.00     0.028 C 
ATOM      5  C   LIG d   1      -9.600  76.087 117.474  0.00  0.00    -0.047 C 
ATOM      6  C   LIG d   1      -8.241  75.374 117.660  0.00  0.00     0.091 C 
ENDROOT
BRANCH   1   7
ATOM      7  O   LIG d   1      -5.831  75.796 117.796  0.00  0.00    -0.368 OA
BRANCH   7   8
ATOM      8  C   LIG d   1      -4.742  75.561 116.869  0.00  0.00     0.119 C 
BRANCH   8   9
ATOM      9  C   LIG d   1      -5.317  75.663 115.443  0.00  0.00     0.028 C 
ATOM     10  C   LIG d   1      -5.236  74.329 114.682  0.00  0.00     0.006 C 
ENDBRANCH   8   9
BRANCH   8  11
ATOM     11  C   LIG d   1      -4.207  74.131 116.990  0.00  0.00     0.028 C 
ATOM     12  C   LIG d   1      -2.769  74.077 117.529  0.00  0.00     0.006 C 
ENDBRANCH   8  11
ENDBRANCH   7   8
ENDBRANCH   1   7
BRANCH   6  13
ATOM     13  N   LIG d   1      -8.156  74.106 116.890  0.00  0.00    -0.311 N 
ATOM     14  C   LIG d   1      -7.612  72.990 117.373  0.00  0.00     0.210 C 
ATOM     15  C   LIG d   1      -7.608  71.802 116.406  0.00  0.00     0.109 C 
ATOM     16  O   LIG d   1      -7.161  72.862 118.521  0.00  0.00    -0.276 OA
ATOM     17  H   LIG d   1      -8.526  74.111 115.960  0.00  0.00     0.149 HD
ENDBRANCH   6  13
BRANCH   5  18
ATOM     18  N   LIG d   1     -10.738  75.307 117.996  0.00  0.00     0.381 N 
ATOM     19  H   LIG d   1     -10.413  74.430 118.351  0.00  0.00    -0.090 HD
ATOM     20  H   LIG d   1     -11.379  75.125 117.244  0.00  0.00    -0.090 HD
ATOM     21  H   LIG d   1     -11.198  75.816 118.718  0.00  0.00    -0.090 HD
ENDBRANCH   5  18
BRANCH   3  22
ATOM     22  C   LIG d   1      -8.582  79.584 117.978  0.00  0.00     0.382 C 
ATOM     23  O   LIG d   1      -9.621  80.093 118.465  0.00  0.00    -0.241 OA
ATOM     24  O   LIG d   1      -7.694  80.325 117.518  0.00  0.00    -0.241 OA
ENDBRANCH   3  22
TORSDOF 7
ENDMDL
MODEL 3
REMARK VINA RESULT:      -5.6      2.111      4.606
REMARK  7 active torsions:
REMARK  status: ('A' for Active; 'I' for Inactive)
REMARK    1  A    between atoms: C_2  and  C_3 
REMARK    2  A    between atoms: C_3  and  O_6 
REMARK    3  A    between atoms: C_3  and  C_4 
REMARK    4  A    between atoms: C_7  and  O_6 
REMARK    5  A    between atoms: C_9  and  C_10 
REMARK    6  A    between atoms: N_15  and  C_14 
REMARK    7  A    between atoms: N_20  and  C_19 
REMARK       I    between atoms: C_22  and  N_20 
ROOT
ATOM      1  C   LIG d   1      -7.182  75.497 116.945  0.00  0.00     0.161 C 
ATOM      2  C   LIG d   1      -6.048  74.727 116.636  0.00  0.00     0.016 C 
ATOM      3  C   LIG d   1      -4.728  75.125 116.949  0.00  0.00     0.038 C 
ATOM      4  C   LIG d   1      -4.461  76.257 117.734  0.00  0.00     0.028 C 
ATOM      5  C   LIG d   1      -5.540  77.330 117.635  0.00  0.00    -0.047 C 
ATOM      6  C   LIG d   1      -6.918  76.681 117.899  0.00  0.00     0.091 C 
ENDROOT
BRANCH   1   7
ATOM      7  O   LIG d   1      -8.219  74.648 117.475  0.00  0.00    -0.368 OA
BRANCH   7   8
ATOM      8  C   LIG d   1      -9.132  74.077 116.505  0.00  0.00     0.119 C 
BRANCH   8   9
ATOM      9  C   LIG d   1     -10.439  74.890 116.564  0.00  0.00     0.028 C 
ATOM     10  C   LIG d   1     -10.779  75.353 117.991  0.00  0.00     0.006 C 
ENDBRANCH   8   9
BRANCH   8  11
ATOM     11  C   LIG d   1      -9.526  72.647 116.887  0.00  0.00     0.028 C 
ATOM     12  C   LIG d   1      -8.356  71.657 116.779  0.00  0.00     0.006 C 
ENDBRANCH   8  11
ENDBRANCH   7   8
ENDBRANCH   1   7
BRANCH   6  13
ATOM     13  N   LIG d   1      -8.038  77.645 117.739  0.00  0.00    -0.311 N 
ATOM     14  C   LIG d   1      -8.564  78.333 118.751  0.00  0.00     0.210 C 
ATOM     15  C   LIG d   1      -9.724  79.258 118.371  0.00  0.00     0.109 C 
ATOM     16  O   LIG d   1      -8.158  78.289 119.922  0.00  0.00    -0.276 OA
ATOM     17  H   LIG d   1      -8.408  77.766 116.817  0.00  0.00     0.149 HD
ENDBRANCH   6  13
BRANCH   5  18
ATOM     18  N   LIG d   1      -5.205  78.389 118.605  0.00  0.00     0.381 N 
ATOM     19  H   LIG d   1      -4.485  78.069 119.222  0.00  0.00    -0.090 HD
ATOM     20  H   LIG d   1      -6.021  78.598 119.154  0.00  0.00    -0.090 HD
ATOM     21  H   LIG d   1      -4.901  79.208 118.125  0.00  0.00    -0.090 HD
ENDBRANCH   5  18
BRANCH   3  22
ATOM     22  C   LIG d   1      -3.655  74.408 116.442  0.00  0.00     0.382 C 
ATOM     23  O   LIG d   1      -3.026  73.614 117.182  0.00  0.00    -0.241 OA
ATOM     24  O   LIG d   1      -3.282  74.577 115.266  0.00  0.00    -0.241 OA
ENDBRANCH   3  22
TORSDOF 7
ENDMDL
MODEL 4
REMARK VINA RESULT:      -5.6      1.761      1.944
REMARK  7 active torsions:
REMARK  status: ('A' for Active; 'I' for Inactive)
REMARK    1  A    between atoms: C_2  and  C_3 
REMARK    2  A    between atoms: C_3  and  O_6 
REMARK    3  A    between atoms: C_3  and  C_4 
REMARK    4  A    between atoms: C_7  and  O_6 
REMARK    5  A    between atoms: C_9  and  C_10 
REMARK    6  A    between atoms: N_15  and  C_14 
REMARK    7  A    between atoms: N_20  and  C_19 
REMARK       I    between atoms: C_22  and  N_20 
ROOT
ATOM      1  C   LIG d   1      -5.869  74.989 117.958  0.00  0.00     0.161 C 
ATOM      2  C   LIG d   1      -6.288  73.748 117.449  0.00  0.00     0.016 C 
ATOM      3  C   LIG d   1      -7.590  73.511 116.952  0.00  0.00     0.038 C 
ATOM      4  C   LIG d   1      -8.522  74.546 116.789  0.00  0.00     0.028 C 
ATOM      5  C   LIG d   1      -8.313  75.707 117.756  0.00  0.00    -0.047 C 
ATOM      6  C   LIG d   1      -6.837  76.159 117.686  0.00  0.00     0.091 C 
ENDROOT
BRANCH   1   7
ATOM      7  O   LIG d   1      -4.553  75.301 117.461  0.00  0.00    -0.368 OA
BRANCH   7   8
ATOM      8  C   LIG d   1      -4.185  74.687 116.201  0.00  0.00     0.119 C 
BRANCH   8   9
ATOM      9  C   LIG d   1      -2.678  74.370 116.264  0.00  0.00     0.028 C 
ATOM     10  C   LIG d   1      -2.218  73.980 117.679  0.00  0.00     0.006 C 
ENDBRANCH   8   9
BRANCH   8  11
ATOM     11  C   LIG d   1      -4.345  75.666 115.035  0.00  0.00     0.028 C 
ATOM     12  C   LIG d   1      -5.530  75.315 114.121  0.00  0.00     0.006 C 
ENDBRANCH   8  11
ENDBRANCH   7   8
ENDBRANCH   1   7
BRANCH   6  13
ATOM     13  N   LIG d   1      -6.527  77.236 118.663  0.00  0.00    -0.311 N 
ATOM     14  C   LIG d   1      -6.014  78.415 118.316  0.00  0.00     0.210 C 
ATOM     15  C   LIG d   1      -5.752  79.374 119.481  0.00  0.00     0.109 C 
ATOM     16  O   LIG d   1      -5.782  78.770 117.150  0.00  0.00    -0.276 OA
ATOM     17  H   LIG d   1      -6.714  77.044 119.627  0.00  0.00     0.149 HD
ENDBRANCH   6  13
BRANCH   5  18
ATOM     18  N   LIG d   1      -9.264  76.772 117.386  0.00  0.00     0.381 N 
ATOM     19  H   LIG d   1      -9.514  77.301 118.198  0.00  0.00    -0.090 HD
ATOM     20  H   LIG d   1     -10.097  76.351 117.015  0.00  0.00    -0.090 HD
ATOM     21  H   LIG d   1      -8.854  77.372 116.704  0.00  0.00    -0.090 HD
ENDBRANCH   5  18
BRANCH   3  22
ATOM     22  C   LIG d   1      -7.985  72.216 116.648  0.00  0.00     0.382 C 
ATOM     23  O   LIG d   1      -7.214  71.460 116.010  0.00  0.00    -0.241 OA
ATOM     24  O   LIG d   1      -9.118  71.810 116.966  0.00  0.00    -0.241 OA
ENDBRANCH   3  22
TORSDOF 7
ENDMDL
MODEL 5
REMARK VINA RESULT:      -5.3      2.247      4.520
REMARK  7 active torsions:
REMARK  status: ('A' for Active; 'I' for Inactive)
REMARK    1  A    between atoms: C_2  and  C_3 
REMARK    2  A    between atoms: C_3  and  O_6 
REMARK    3  A    between atoms: C_3  and  C_4 
REMARK    4  A    between atoms: C_7  and  O_6 
REMARK    5  A    between atoms: C_9  and  C_10 
REMARK    6  A    between atoms: N_15  and  C_14 
REMARK    7  A    between atoms: N_20  and  C_19 
REMARK       I    between atoms: C_22  and  N_20 
ROOT
ATOM      1  C   LIG d   1      -6.405  75.524 116.528  0.00  0.00     0.161 C 
ATOM      2  C   LIG d   1      -5.215  74.915 116.095  0.00  0.00     0.016 C 
ATOM      3  C   LIG d   1      -4.060  74.801 116.903  0.00  0.00     0.038 C 
ATOM      4  C   LIG d   1      -4.067  75.157 118.260  0.00  0.00     0.028 C 
ATOM      5  C   LIG d   1      -5.087  76.238 118.598  0.00  0.00    -0.047 C 
ATOM      6  C   LIG d   1      -6.467  75.818 118.041  0.00  0.00     0.091 C 
ENDROOT
BRANCH   1   7
ATOM      7  O   LIG d   1      -7.536  74.727 116.125  0.00  0.00    -0.368 OA
BRANCH   7   8
ATOM      8  C   LIG d   1      -8.058  73.813 117.121  0.00  0.00     0.119 C 
BRANCH   8   9
ATOM      9  C   LIG d   1      -7.601  72.394 116.732  0.00  0.00     0.028 C 
ATOM     10  C   LIG d   1      -8.721  71.352 116.890  0.00  0.00     0.006 C 
ENDBRANCH   8   9
BRANCH   8  11
ATOM     11  C   LIG d   1      -9.589  73.769 117.088  0.00  0.00     0.028 C 
ATOM     12  C   LIG d   1     -10.208  75.028 116.461  0.00  0.00     0.006 C 
ENDBRANCH   8  11
ENDBRANCH   7   8
ENDBRANCH   1   7
BRANCH   6  13
ATOM     13  N   LIG d   1      -7.506  76.859 118.255  0.00  0.00    -0.311 N 
ATOM     14  C   LIG d   1      -7.443  78.077 117.720  0.00  0.00     0.210 C 
ATOM     15  C   LIG d   1      -8.608  79.003 118.084  0.00  0.00     0.109 C 
ATOM     16  O   LIG d   1      -6.550  78.468 116.954  0.00  0.00    -0.276 OA
ATOM     17  H   LIG d   1      -8.282  76.616 118.839  0.00  0.00     0.149 HD
ENDBRANCH   6  13
BRANCH   5  18
ATOM     18  N   LIG d   1      -5.083  76.413 120.062  0.00  0.00     0.381 N 
ATOM     19  H   LIG d   1      -4.975  77.382 120.288  0.00  0.00    -0.090 HD
ATOM     20  H   LIG d   1      -4.303  75.910 120.448  0.00  0.00    -0.090 HD
ATOM     21  H   LIG d   1      -5.934  76.068 120.449  0.00  0.00    -0.090 HD
ENDBRANCH   5  18
BRANCH   3  22
ATOM     22  C   LIG d   1      -2.870  74.364 116.342  0.00  0.00     0.382 C 
ATOM     23  O   LIG d   1      -2.591  74.656 115.155  0.00  0.00    -0.241 OA
ATOM     24  O   LIG d   1      -2.091  73.643 116.995  0.00  0.00    -0.241 OA
ENDBRANCH   3  22
TORSDOF 7
ENDMDL
MODEL 6
REMARK VINA RESULT:      -5.2      2.542      4.638
REMARK  7 active torsions:
REMARK  status: ('A' for Active; 'I' for Inactive)
REMARK    1  A    between atoms: C_2  and  C_3 
REMARK    2  A    between atoms: C_3  and  O_6 
REMARK    3  A    between atoms: C_3  and  C_4 
REMARK    4  A    between atoms: C_7  and  O_6 
REMARK    5  A    between atoms: C_9  and  C_10 
REMARK    6  A    between atoms: N_15  and  C_14 
REMARK    7  A    between atoms: N_20  and  C_19 
REMARK       I    between atoms: C_22  and  N_20 
ROOT
ATOM      1  C   LIG d   1      -7.964  75.835 117.999  0.00  0.00     0.161 C 
ATOM      2  C   LIG d   1      -9.344  75.976 118.220  0.00  0.00     0.016 C 
ATOM      3  C   LIG d   1      -9.970  77.219 118.469  0.00  0.00     0.038 C 
ATOM      4  C   LIG d   1      -9.274  78.433 118.363  0.00  0.00     0.028 C 
ATOM      5  C   LIG d   1      -7.781  78.302 118.640  0.00  0.00    -0.047 C 
ATOM      6  C   LIG d   1      -7.207  77.160 117.770  0.00  0.00     0.091 C 
ENDROOT
BRANCH   1   7
ATOM      7  O   LIG d   1      -7.734  74.931 116.900  0.00  0.00    -0.368 OA
BRANCH   7   8
ATOM      8  C   LIG d   1      -6.906  73.777 117.187  0.00  0.00     0.119 C 
BRANCH   8   9
ATOM      9  C   LIG d   1      -6.224  73.359 115.870  0.00  0.00     0.028 C 
ATOM     10  C   LIG d   1      -5.191  74.392 115.390  0.00  0.00     0.006 C 
ENDBRANCH   8   9
BRANCH   8  11
ATOM     11  C   LIG d   1      -7.754  72.572 117.605  0.00  0.00     0.028 C 
ATOM     12  C   LIG d   1      -9.072  72.470 116.819  0.00  0.00     0.006 C 
ENDBRANCH   8  11
ENDBRANCH   7   8
ENDBRANCH   1   7
BRANCH   6  13
ATOM     13  N   LIG d   1      -5.768  76.909 118.041  0.00  0.00    -0.311 N 
ATOM     14  C   LIG d   1      -4.781  77.488 117.359  0.00  0.00     0.210 C 
ATOM     15  C   LIG d   1      -3.370  77.074 117.787  0.00  0.00     0.109 C 
ATOM     16  O   LIG d   1      -4.940  78.329 116.461  0.00  0.00    -0.276 OA
ATOM     17  H   LIG d   1      -5.548  76.264 118.774  0.00  0.00     0.149 HD
ENDBRANCH   6  13
BRANCH   5  18
ATOM     18  N   LIG d   1      -7.159  79.610 118.361  0.00  0.00     0.381 N 
ATOM     19  H   LIG d   1      -7.329  79.870 117.410  0.00  0.00    -0.090 HD
ATOM     20  H   LIG d   1      -6.166  79.533 118.494  0.00  0.00    -0.090 HD
ATOM     21  H   LIG d   1      -7.531  80.302 118.974  0.00  0.00    -0.090 HD
ENDBRANCH   5  18
BRANCH   3  22
ATOM     22  C   LIG d   1     -11.297  77.253 118.867  0.00  0.00     0.382 C 
ATOM     23  O   LIG d   1     -12.190  76.801 118.110  0.00  0.00    -0.241 OA
ATOM     24  O   LIG d   1     -11.618  77.770 119.954  0.00  0.00    -0.241 OA
ENDBRANCH   3  22
TORSDOF 7
ENDMDL
MODEL 7
REMARK VINA RESULT:      -4.7      3.004      5.296
REMARK  7 active torsions:
REMARK  status: ('A' for Active; 'I' for Inactive)
REMARK    1  A    between atoms: C_2  and  C_3 
REMARK    2  A    between atoms: C_3  and  O_6 
REMARK    3  A    between atoms: C_3  and  C_4 
REMARK    4  A    between atoms: C_7  and  O_6 
REMARK    5  A    between atoms: C_9  and  C_10 
REMARK    6  A    between atoms: N_15  and  C_14 
REMARK    7  A    between atoms: N_20  and  C_19 
REMARK       I    between atoms: C_22  and  N_20 
ROOT
ATOM      1  C   LIG d   1      -5.361  76.125 116.743  0.00  0.00     0.161 C 
ATOM      2  C   LIG d   1      -4.421  75.121 116.459  0.00  0.00     0.016 C 
ATOM      3  C   LIG d   1      -3.042  75.243 116.746  0.00  0.00     0.038 C 
ATOM      4  C   LIG d   1      -2.530  76.324 117.480  0.00  0.00     0.028 C 
ATOM      5  C   LIG d   1      -3.360  77.596 117.344  0.00  0.00    -0.047 C 
ATOM      6  C   LIG d   1      -4.840  77.264 117.644  0.00  0.00     0.091 C 
ENDROOT
BRANCH   1   7
ATOM      7  O   LIG d   1      -6.546  75.536 117.315  0.00  0.00    -0.368 OA
BRANCH   7   8
ATOM      8  C   LIG d   1      -7.408  74.818 116.398  0.00  0.00     0.119 C 
BRANCH   8   9
ATOM      9  C   LIG d   1      -8.758  75.559 116.356  0.00  0.00     0.028 C 
ATOM     10  C   LIG d   1      -8.895  76.595 117.484  0.00  0.00     0.006 C 
ENDBRANCH   8   9
BRANCH   8  11
ATOM     11  C   LIG d   1      -7.731  73.415 116.920  0.00  0.00     0.028 C 
ATOM     12  C   LIG d   1      -7.078  73.120 118.279  0.00  0.00     0.006 C 
ENDBRANCH   8  11
ENDBRANCH   7   8
ENDBRANCH   1   7
BRANCH   6  13
ATOM     13  N   LIG d   1      -5.734  78.435 117.451  0.00  0.00    -0.311 N 
ATOM     14  C   LIG d   1      -6.111  79.240 118.443  0.00  0.00     0.210 C 
ATOM     15  C   LIG d   1      -7.052  80.377 118.031  0.00  0.00     0.109 C 
ATOM     16  O   LIG d   1      -5.730  79.140 119.619  0.00  0.00    -0.276 OA
ATOM     17  H   LIG d   1      -6.065  78.609 116.523  0.00  0.00     0.149 HD
ENDBRANCH   6  13
BRANCH   5  18
ATOM     18  N   LIG d   1      -2.794  78.598 118.266  0.00  0.00     0.381 N 
ATOM     19  H   LIG d   1      -3.178  79.500 118.064  0.00  0.00    -0.090 HD
ATOM     20  H   LIG d   1      -1.799  78.642 118.128  0.00  0.00    -0.090 HD
ATOM     21  H   LIG d   1      -2.995  78.347 119.209  0.00  0.00    -0.090 HD
ENDBRANCH   5  18
BRANCH   3  22
ATOM     22  C   LIG d   1      -2.152  74.296 116.262  0.00  0.00     0.382 C 
ATOM     23  O   LIG d   1      -1.616  73.480 117.049  0.00  0.00    -0.241 OA
ATOM     24  O   LIG d   1      -1.846  74.275 115.055  0.00  0.00    -0.241 OA
ENDBRANCH   3  22
TORSDOF 7
ENDMDL
MODEL 8
REMARK VINA RESULT:      -4.5      2.251      5.458
REMARK  7 active torsions:
REMARK  status: ('A' for Active; 'I' for Inactive)
REMARK    1  A    between atoms: C_2  and  C_3 
REMARK    2  A    between atoms: C_3  and  O_6 
REMARK    3  A    between atoms: C_3  and  C_4 
REMARK    4  A    between atoms: C_7  and  O_6 
REMARK    5  A    between atoms: C_9  and  C_10 
REMARK    6  A    between atoms: N_15  and  C_14 
REMARK    7  A    between atoms: N_20  and  C_19 
REMARK       I    between atoms: C_22  and  N_20 
ROOT
ATOM      1  C   LIG d   1      -6.617  77.503 117.351  0.00  0.00     0.161 C 
ATOM      2  C   LIG d   1      -6.743  78.891 117.531  0.00  0.00     0.016 C 
ATOM      3  C   LIG d   1      -7.933  79.513 117.973  0.00  0.00     0.038 C 
ATOM      4  C   LIG d   1      -9.039  78.771 118.414  0.00  0.00     0.028 C 
ATOM      5  C   LIG d   1      -9.135  77.390 117.774  0.00  0.00    -0.047 C 
ATOM      6  C   LIG d   1      -7.777  76.668 117.932  0.00  0.00     0.091 C 
ENDROOT
BRANCH   1   7
ATOM      7  O   LIG d   1      -5.358  77.053 117.887  0.00  0.00    -0.368 OA
BRANCH   7   8
ATOM      8  C   LIG d   1      -4.187  77.801 117.478  0.00  0.00     0.119 C 
BRANCH   8   9
ATOM      9  C   LIG d   1      -3.466  76.976 116.394  0.00  0.00     0.028 C 
ATOM     10  C   LIG d   1      -3.582  75.461 116.636  0.00  0.00     0.006 C 
ENDBRANCH   8   9
BRANCH   8  11
ATOM     11  C   LIG d   1      -3.180  77.932 118.624  0.00  0.00     0.028 C 
ATOM     12  C   LIG d   1      -3.475  79.128 119.543  0.00  0.00     0.006 C 
ENDBRANCH   8  11
ENDBRANCH   7   8
ENDBRANCH   1   7
BRANCH   6  13
ATOM     13  N   LIG d   1      -7.759  75.343 117.259  0.00  0.00    -0.311 N 
ATOM     14  C   LIG d   1      -7.313  74.231 117.842  0.00  0.00     0.210 C 
ATOM     15  C   LIG d   1      -7.363  72.977 116.965  0.00  0.00     0.109 C 
ATOM     16  O   LIG d   1      -6.911  74.159 119.013  0.00  0.00    -0.276 OA
ATOM     17  H   LIG d   1      -8.096  75.305 116.317  0.00  0.00     0.149 HD
ENDBRANCH   6  13
BRANCH   5  18
ATOM     18  N   LIG d   1     -10.250  76.675 118.423  0.00  0.00     0.381 N 
ATOM     19  H   LIG d   1     -10.973  77.322 118.664  0.00  0.00    -0.090 HD
ATOM     20  H   LIG d   1      -9.914  76.248 119.268  0.00  0.00    -0.090 HD
ATOM     21  H   LIG d   1     -10.610  75.977 117.810  0.00  0.00    -0.090 HD
ENDBRANCH   5  18
BRANCH   3  22
ATOM     22  C   LIG d   1      -8.038  80.896 117.941  0.00  0.00     0.382 C 
ATOM     23  O   LIG d   1      -7.532  81.585 118.859  0.00  0.00    -0.241 OA
ATOM     24  O   LIG d   1      -8.671  81.460 117.028  0.00  0.00    -0.241 OA
ENDBRANCH   3  22
TORSDOF 7
ENDMDL
MODEL 9
REMARK VINA RESULT:      -4.3     16.617     19.206
REMARK  7 active torsions:
REMARK  status: ('A' for Active; 'I' for Inactive)
REMARK    1  A    between atoms: C_2  and  C_3 
REMARK    2  A    between atoms: C_3  and  O_6 
REMARK    3  A    between atoms: C_3  and  C_4 
REMARK    4  A    between atoms: C_7  and  O_6 
REMARK    5  A    between atoms: C_9  and  C_10 
REMARK    6  A    between atoms: N_15  and  C_14 
REMARK    7  A    between atoms: N_20  and  C_19 
REMARK       I    between atoms: C_22  and  N_20 
ROOT
ATOM      1  C   LIG d   1      10.969  79.343 115.216  0.00  0.00     0.161 C 
ATOM      2  C   LIG d   1      10.653  78.034 114.817  0.00  0.00     0.016 C 
ATOM      3  C   LIG d   1       9.360  77.474 114.940  0.00  0.00     0.038 C 
ATOM      4  C   LIG d   1       8.254  78.242 115.334  0.00  0.00     0.028 C 
ATOM      5  C   LIG d   1       8.623  79.423 116.226  0.00  0.00    -0.047 C 
ATOM      6  C   LIG d   1       9.751  80.231 115.545  0.00  0.00     0.091 C 
ENDROOT
BRANCH   1   7
ATOM      7  O   LIG d   1      11.793  79.974 114.216  0.00  0.00    -0.368 OA
BRANCH   7   8
ATOM      8  C   LIG d   1      13.192  80.140 114.554  0.00  0.00     0.119 C 
BRANCH   8   9
ATOM      9  C   LIG d   1      13.983  79.050 113.805  0.00  0.00     0.028 C 
ATOM     10  C   LIG d   1      14.945  78.284 114.728  0.00  0.00     0.006 C 
ENDBRANCH   8   9
BRANCH   8  11
ATOM     11  C   LIG d   1      13.441  79.872 116.041  0.00  0.00     0.028 C 
ATOM     12  C   LIG d   1      13.805  81.144 116.824  0.00  0.00     0.006 C 
ENDBRANCH   8  11
ENDBRANCH   7   8
ENDBRANCH   1   7
BRANCH   6  13
ATOM     13  N   LIG d   1      10.230  81.357 116.390  0.00  0.00    -0.311 N 
ATOM     14  C   LIG d   1      10.323  82.612 115.955  0.00  0.00     0.210 C 
ATOM     15  C   LIG d   1      10.860  83.614 116.981  0.00  0.00     0.109 C 
ATOM     16  O   LIG d   1       9.981  82.996 114.826  0.00  0.00    -0.276 OA
ATOM     17  H   LIG d   1      10.499  81.140 117.329  0.00  0.00     0.149 HD
ENDBRANCH   6  13
BRANCH   5  18
ATOM     18  N   LIG d   1       7.398  80.213 116.448  0.00  0.00     0.381 N 
ATOM     19  H   LIG d   1       7.600  80.991 117.043  0.00  0.00    -0.090 HD
ATOM     20  H   LIG d   1       6.716  79.635 116.906  0.00  0.00    -0.090 HD
ATOM     21  H   LIG d   1       7.038  80.537 115.577  0.00  0.00    -0.090 HD
ENDBRANCH   5  18
BRANCH   3  22
ATOM     22  C   LIG d   1       9.172  76.121 114.705  0.00  0.00     0.382 C 
ATOM     23  O   LIG d   1      10.062  75.298 115.031  0.00  0.00    -0.241 OA
ATOM     24  O   LIG d   1       8.144  75.716 114.130  0.00  0.00    -0.241 OA
ENDBRANCH   3  22
TORSDOF 7
ENDMDL
