MODEL 1
REMARK VINA RESULT:      -5.3      0.000      0.000
REMARK  7 active torsions:
REMARK  status: ('A' for Active; 'I' for Inactive)
REMARK    1  A    between atoms: C_2  and  C_3 
REMARK    2  A    between atoms: C_3  and  O_6 
REMARK    3  A    between atoms: C_3  and  C_4 
REMARK    4  A    between atoms: C_7  and  O_6 
REMARK    5  A    between atoms: C_9  and  C_10 
REMARK    6  A    between atoms: N_15  and  C_14 
REMARK    7  A    between atoms: N_20  and  C_19 
REMARK       I    between atoms: C_22  and  N_20 
ROOT
ATOM      1  C   LIG d   1      -6.146  77.440 116.980  0.00  0.00     0.161 C 
ATOM      2  C   LIG d   1      -7.460  76.957 117.094  0.00  0.00     0.016 C 
ATOM      3  C   LIG d   1      -8.458  77.593 117.868  0.00  0.00     0.038 C 
ATOM      4  C   LIG d   1      -8.249  78.847 118.462  0.00  0.00     0.028 C 
ATOM      5  C   LIG d   1      -6.786  79.125 118.791  0.00  0.00    -0.047 C 
ATOM      6  C   LIG d   1      -5.930  78.865 117.530  0.00  0.00     0.091 C 
ENDROOT
BRANCH   1   7
ATOM      7  O   LIG d   1      -5.715  77.363 115.607  0.00  0.00    -0.368 OA
BRANCH   7   8
ATOM      8  C   LIG d   1      -4.823  76.269 115.279  0.00  0.00     0.119 C 
BRANCH   8   9
ATOM      9  C   LIG d   1      -3.703  76.837 114.386  0.00  0.00     0.028 C 
ATOM     10  C   LIG d   1      -2.307  76.649 115.004  0.00  0.00     0.006 C 
ENDBRANCH   8   9
BRANCH   8  11
ATOM     11  C   LIG d   1      -5.528  75.213 114.423  0.00  0.00     0.028 C 
ATOM     12  C   LIG d   1      -6.159  74.090 115.262  0.00  0.00     0.006 C 
ENDBRANCH   8  11
ENDBRANCH   7   8
ENDBRANCH   1   7
BRANCH   6  13
ATOM     13  N   LIG d   1      -4.476  79.033 117.788  0.00  0.00    -0.311 N 
ATOM     14  C   LIG d   1      -3.644  79.628 116.935  0.00  0.00     0.210 C 
ATOM     15  C   LIG d   1      -2.181  79.677 117.387  0.00  0.00     0.109 C 
ATOM     16  O   LIG d   1      -3.984  80.148 115.862  0.00  0.00    -0.276 OA
ATOM     17  H   LIG d   1      -4.121  78.668 118.650  0.00  0.00     0.149 HD
ENDBRANCH   6  13
BRANCH   5  18
ATOM     18  N   LIG d   1      -6.695  80.515 119.276  0.00  0.00     0.381 N 
ATOM     19  H   LIG d   1      -6.714  81.146 118.500  0.00  0.00    -0.090 HD
ATOM     20  H   LIG d   1      -5.822  80.635 119.758  0.00  0.00    -0.090 HD
ATOM     21  H   LIG d   1      -7.453  80.712 119.892  0.00  0.00    -0.090 HD
ENDBRANCH   5  18
BRANCH   3  22
ATOM     22  C   LIG d   1      -9.669  76.954 118.086  0.00  0.00     0.382 C 
ATOM     23  O   LIG d   1      -9.875  75.817 117.598  0.00  0.00    -0.241 OA
ATOM     24  O   LIG d   1     -10.575  77.520 118.728  0.00  0.00    -0.241 OA
ENDBRANCH   3  22
TORSDOF 7
ENDMDL
MODEL 2
REMARK VINA RESULT:      -5.2      1.684      2.412
REMARK  7 active torsions:
REMARK  status: ('A' for Active; 'I' for Inactive)
REMARK    1  A    between atoms: C_2  and  C_3 
REMARK    2  A    between atoms: C_3  and  O_6 
REMARK    3  A    between atoms: C_3  and  C_4 
REMARK    4  A    between atoms: C_7  and  O_6 
REMARK    5  A    between atoms: C_9  and  C_10 
REMARK    6  A    between atoms: N_15  and  C_14 
REMARK    7  A    between atoms: N_20  and  C_19 
REMARK       I    between atoms: C_22  and  N_20 
ROOT
ATOM      1  C   LIG d   1      -6.691  77.551 117.490  0.00  0.00     0.161 C 
ATOM      2  C   LIG d   1      -7.458  76.401 117.241  0.00  0.00     0.016 C 
ATOM      3  C   LIG d   1      -8.821  76.281 117.599  0.00  0.00     0.038 C 
ATOM      4  C   LIG d   1      -9.554  77.368 118.098  0.00  0.00     0.028 C 
ATOM      5  C   LIG d   1      -8.696  78.392 118.833  0.00  0.00    -0.047 C 
ATOM      6  C   LIG d   1      -7.504  78.786 117.932  0.00  0.00     0.091 C 
ENDROOT
BRANCH   1   7
ATOM      7  O   LIG d   1      -5.892  77.865 116.333  0.00  0.00    -0.368 OA
BRANCH   7   8
ATOM      8  C   LIG d   1      -4.740  77.016 116.104  0.00  0.00     0.119 C 
BRANCH   8   9
ATOM      9  C   LIG d   1      -3.484  77.835 116.459  0.00  0.00     0.028 C 
ATOM     10  C   LIG d   1      -3.711  79.350 116.317  0.00  0.00     0.006 C 
ENDBRANCH   8   9
BRANCH   8  11
ATOM     11  C   LIG d   1      -4.591  76.667 114.620  0.00  0.00     0.028 C 
ATOM     12  C   LIG d   1      -5.453  75.467 114.201  0.00  0.00     0.006 C 
ENDBRANCH   8  11
ENDBRANCH   7   8
ENDBRANCH   1   7
BRANCH   6  13
ATOM     13  N   LIG d   1      -6.567  79.722 118.608  0.00  0.00    -0.311 N 
ATOM     14  C   LIG d   1      -6.375  80.979 118.214  0.00  0.00     0.210 C 
ATOM     15  C   LIG d   1      -5.351  81.766 119.038  0.00  0.00     0.109 C 
ATOM     16  O   LIG d   1      -6.979  81.528 117.280  0.00  0.00    -0.276 OA
ATOM     17  H   LIG d   1      -6.059  79.368 119.395  0.00  0.00     0.149 HD
ENDBRANCH   6  13
BRANCH   5  18
ATOM     18  N   LIG d   1      -9.563  79.534 119.178  0.00  0.00     0.381 N 
ATOM     19  H   LIG d   1      -9.303  79.899 120.072  0.00  0.00    -0.090 HD
ATOM     20  H   LIG d   1     -10.515  79.216 119.231  0.00  0.00    -0.090 HD
ATOM     21  H   LIG d   1      -9.482  80.246 118.485  0.00  0.00    -0.090 HD
ENDBRANCH   5  18
BRANCH   3  22
ATOM     22  C   LIG d   1      -9.453  75.051 117.496  0.00  0.00     0.382 C 
ATOM     23  O   LIG d   1     -10.687  74.997 117.279  0.00  0.00    -0.241 OA
ATOM     24  O   LIG d   1      -8.812  73.996 117.662  0.00  0.00    -0.241 OA
ENDBRANCH   3  22
TORSDOF 7
ENDMDL
MODEL 3
REMARK VINA RESULT:      -5.2     14.040     16.234
REMARK  7 active torsions:
REMARK  status: ('A' for Active; 'I' for Inactive)
REMARK    1  A    between atoms: C_2  and  C_3 
REMARK    2  A    between atoms: C_3  and  O_6 
REMARK    3  A    between atoms: C_3  and  C_4 
REMARK    4  A    between atoms: C_7  and  O_6 
REMARK    5  A    between atoms: C_9  and  C_10 
REMARK    6  A    between atoms: N_15  and  C_14 
REMARK    7  A    between atoms: N_20  and  C_19 
REMARK       I    between atoms: C_22  and  N_20 
ROOT
ATOM      1  C   LIG d   1      -5.066  93.481 118.682  0.00  0.00     0.161 C 
ATOM      2  C   LIG d   1      -5.244  94.629 119.471  0.00  0.00     0.016 C 
ATOM      3  C   LIG d   1      -6.405  95.435 119.421  0.00  0.00     0.038 C 
ATOM      4  C   LIG d   1      -7.537  95.059 118.683  0.00  0.00     0.028 C 
ATOM      5  C   LIG d   1      -7.212  94.176 117.483  0.00  0.00    -0.047 C 
ATOM      6  C   LIG d   1      -6.335  92.993 117.953  0.00  0.00     0.091 C 
ENDROOT
BRANCH   1   7
ATOM      7  O   LIG d   1      -4.509  92.419 119.483  0.00  0.00    -0.368 OA
BRANCH   7   8
ATOM      8  C   LIG d   1      -3.074  92.243 119.399  0.00  0.00     0.119 C 
BRANCH   8   9
ATOM      9  C   LIG d   1      -2.619  92.790 118.031  0.00  0.00     0.028 C 
ATOM     10  C   LIG d   1      -1.272  93.526 118.112  0.00  0.00     0.006 C 
ENDBRANCH   8   9
BRANCH   8  11
ATOM     11  C   LIG d   1      -2.694  90.759 119.389  0.00  0.00     0.028 C 
ATOM     12  C   LIG d   1      -3.295  89.999 118.196  0.00  0.00     0.006 C 
ENDBRANCH   8  11
ENDBRANCH   7   8
ENDBRANCH   1   7
BRANCH   6  13
ATOM     13  N   LIG d   1      -5.902  92.126 116.826  0.00  0.00    -0.311 N 
ATOM     14  C   LIG d   1      -6.549  91.021 116.461  0.00  0.00     0.210 C 
ATOM     15  C   LIG d   1      -5.922  90.263 115.287  0.00  0.00     0.109 C 
ATOM     16  O   LIG d   1      -7.601  90.614 116.977  0.00  0.00    -0.276 OA
ATOM     17  H   LIG d   1      -5.075  92.400 116.332  0.00  0.00     0.149 HD
ENDBRANCH   6  13
BRANCH   5  18
ATOM     18  N   LIG d   1      -8.491  93.747 116.886  0.00  0.00     0.381 N 
ATOM     19  H   LIG d   1      -9.120  94.524 116.836  0.00  0.00    -0.090 HD
ATOM     20  H   LIG d   1      -8.904  93.044 117.474  0.00  0.00    -0.090 HD
ATOM     21  H   LIG d   1      -8.335  93.378 115.974  0.00  0.00    -0.090 HD
ENDBRANCH   5  18
BRANCH   3  22
ATOM     22  C   LIG d   1      -6.426  96.653 120.084  0.00  0.00     0.382 C 
ATOM     23  O   LIG d   1      -7.497  97.298 120.177  0.00  0.00    -0.241 OA
ATOM     24  O   LIG d   1      -5.377  97.135 120.552  0.00  0.00    -0.241 OA
ENDBRANCH   3  22
TORSDOF 7
ENDMDL
MODEL 4
REMARK VINA RESULT:      -5.1      1.452      1.988
REMARK  7 active torsions:
REMARK  status: ('A' for Active; 'I' for Inactive)
REMARK    1  A    between atoms: C_2  and  C_3 
REMARK    2  A    between atoms: C_3  and  O_6 
REMARK    3  A    between atoms: C_3  and  C_4 
REMARK    4  A    between atoms: C_7  and  O_6 
REMARK    5  A    between atoms: C_9  and  C_10 
REMARK    6  A    between atoms: N_15  and  C_14 
REMARK    7  A    between atoms: N_20  and  C_19 
REMARK       I    between atoms: C_22  and  N_20 
ROOT
ATOM      1  C   LIG d   1      -6.245  77.323 117.045  0.00  0.00     0.161 C 
ATOM      2  C   LIG d   1      -7.290  76.389 116.941  0.00  0.00     0.016 C 
ATOM      3  C   LIG d   1      -8.542  76.548 117.578  0.00  0.00     0.038 C 
ATOM      4  C   LIG d   1      -8.890  77.733 118.244  0.00  0.00     0.028 C 
ATOM      5  C   LIG d   1      -7.689  78.490 118.801  0.00  0.00    -0.047 C 
ATOM      6  C   LIG d   1      -6.645  78.673 117.676  0.00  0.00     0.091 C 
ENDROOT
BRANCH   1   7
ATOM      7  O   LIG d   1      -5.646  77.532 115.751  0.00  0.00    -0.368 OA
BRANCH   7   8
ATOM      8  C   LIG d   1      -4.309  77.003 115.575  0.00  0.00     0.119 C 
BRANCH   8   9
ATOM      9  C   LIG d   1      -4.250  76.348 114.182  0.00  0.00     0.028 C 
ATOM     10  C   LIG d   1      -5.368  75.313 113.972  0.00  0.00     0.006 C 
ENDBRANCH   8   9
BRANCH   8  11
ATOM     11  C   LIG d   1      -4.022  75.873 116.567  0.00  0.00     0.028 C 
ATOM     12  C   LIG d   1      -2.780  76.141 117.433  0.00  0.00     0.006 C 
ENDBRANCH   8  11
ENDBRANCH   7   8
ENDBRANCH   1   7
BRANCH   6  13
ATOM     13  N   LIG d   1      -5.402  79.331 118.157  0.00  0.00    -0.311 N 
ATOM     14  C   LIG d   1      -5.155  80.631 118.006  0.00  0.00     0.210 C 
ATOM     15  C   LIG d   1      -3.805  81.100 118.557  0.00  0.00     0.109 C 
ATOM     16  O   LIG d   1      -5.939  81.445 117.497  0.00  0.00    -0.276 OA
ATOM     17  H   LIG d   1      -4.725  78.749 118.610  0.00  0.00     0.149 HD
ENDBRANCH   6  13
BRANCH   5  18
ATOM     18  N   LIG d   1      -8.182  79.769 119.347  0.00  0.00     0.381 N 
ATOM     19  H   LIG d   1      -8.376  80.404 118.598  0.00  0.00    -0.090 HD
ATOM     20  H   LIG d   1      -7.467  80.172 119.926  0.00  0.00    -0.090 HD
ATOM     21  H   LIG d   1      -9.007  79.615 119.883  0.00  0.00    -0.090 HD
ENDBRANCH   5  18
BRANCH   3  22
ATOM     22  C   LIG d   1      -9.447  75.498 117.586  0.00  0.00     0.382 C 
ATOM     23  O   LIG d   1      -9.034  74.314 117.611  0.00  0.00    -0.241 OA
ATOM     24  O   LIG d   1     -10.672  75.719 117.525  0.00  0.00    -0.241 OA
ENDBRANCH   3  22
TORSDOF 7
ENDMDL
MODEL 5
REMARK VINA RESULT:      -4.9      2.120      4.529
REMARK  7 active torsions:
REMARK  status: ('A' for Active; 'I' for Inactive)
REMARK    1  A    between atoms: C_2  and  C_3 
REMARK    2  A    between atoms: C_3  and  O_6 
REMARK    3  A    between atoms: C_3  and  C_4 
REMARK    4  A    between atoms: C_7  and  O_6 
REMARK    5  A    between atoms: C_9  and  C_10 
REMARK    6  A    between atoms: N_15  and  C_14 
REMARK    7  A    between atoms: N_20  and  C_19 
REMARK       I    between atoms: C_22  and  N_20 
ROOT
ATOM      1  C   LIG d   1      -6.971  78.991 117.903  0.00  0.00     0.161 C 
ATOM      2  C   LIG d   1      -8.216  78.410 118.195  0.00  0.00     0.016 C 
ATOM      3  C   LIG d   1      -8.581  77.107 117.787  0.00  0.00     0.038 C 
ATOM      4  C   LIG d   1      -7.663  76.234 117.185  0.00  0.00     0.028 C 
ATOM      5  C   LIG d   1      -6.556  76.952 116.421  0.00  0.00    -0.047 C 
ATOM      6  C   LIG d   1      -5.916  78.014 117.344  0.00  0.00     0.091 C 
ENDROOT
BRANCH   1   7
ATOM      7  O   LIG d   1      -6.461  79.665 119.071  0.00  0.00    -0.368 OA
BRANCH   7   8
ATOM      8  C   LIG d   1      -6.783  81.073 119.186  0.00  0.00     0.119 C 
BRANCH   8   9
ATOM      9  C   LIG d   1      -7.020  81.612 117.762  0.00  0.00     0.028 C 
ATOM     10  C   LIG d   1      -8.455  82.128 117.562  0.00  0.00     0.006 C 
ENDBRANCH   8   9
BRANCH   8  11
ATOM     11  C   LIG d   1      -5.596  81.874 119.729  0.00  0.00     0.028 C 
ATOM     12  C   LIG d   1      -4.251  81.423 119.136  0.00  0.00     0.006 C 
ENDBRANCH   8  11
ENDBRANCH   7   8
ENDBRANCH   1   7
BRANCH   6  13
ATOM     13  N   LIG d   1      -4.880  78.820 116.648  0.00  0.00    -0.311 N 
ATOM     14  C   LIG d   1      -3.580  78.534 116.686  0.00  0.00     0.210 C 
ATOM     15  C   LIG d   1      -2.681  79.506 115.915  0.00  0.00     0.109 C 
ATOM     16  O   LIG d   1      -3.089  77.549 117.257  0.00  0.00    -0.276 OA
ATOM     17  H   LIG d   1      -5.194  79.620 116.134  0.00  0.00     0.149 HD
ENDBRANCH   6  13
BRANCH   5  18
ATOM     18  N   LIG d   1      -5.596  75.930 115.962  0.00  0.00     0.381 N 
ATOM     19  H   LIG d   1      -4.991  76.322 115.268  0.00  0.00    -0.090 HD
ATOM     20  H   LIG d   1      -6.104  75.170 115.546  0.00  0.00    -0.090 HD
ATOM     21  H   LIG d   1      -5.058  75.598 116.732  0.00  0.00    -0.090 HD
ENDBRANCH   5  18
BRANCH   3  22
ATOM     22  C   LIG d   1      -9.891  76.678 117.945  0.00  0.00     0.382 C 
ATOM     23  O   LIG d   1     -10.712  77.390 118.573  0.00  0.00    -0.241 OA
ATOM     24  O   LIG d   1     -10.250  75.570 117.506  0.00  0.00    -0.241 OA
ENDBRANCH   3  22
TORSDOF 7
ENDMDL
MODEL 6
REMARK VINA RESULT:      -4.7     11.447     13.730
REMARK  7 active torsions:
REMARK  status: ('A' for Active; 'I' for Inactive)
REMARK    1  A    between atoms: C_2  and  C_3 
REMARK    2  A    between atoms: C_3  and  O_6 
REMARK    3  A    between atoms: C_3  and  C_4 
REMARK    4  A    between atoms: C_7  and  O_6 
REMARK    5  A    between atoms: C_9  and  C_10 
REMARK    6  A    between atoms: N_15  and  C_14 
REMARK    7  A    between atoms: N_20  and  C_19 
REMARK       I    between atoms: C_22  and  N_20 
ROOT
ATOM      1  C   LIG d   1      -2.939  90.483 118.768  0.00  0.00     0.161 C 
ATOM      2  C   LIG d   1      -4.233  90.339 118.242  0.00  0.00     0.016 C 
ATOM      3  C   LIG d   1      -4.963  91.406 117.668  0.00  0.00     0.038 C 
ATOM      4  C   LIG d   1      -4.384  92.664 117.443  0.00  0.00     0.028 C 
ATOM      5  C   LIG d   1      -3.256  92.994 118.415  0.00  0.00    -0.047 C 
ATOM      6  C   LIG d   1      -2.249  91.821 118.432  0.00  0.00     0.091 C 
ENDROOT
BRANCH   1   7
ATOM      7  O   LIG d   1      -2.116  89.376 118.350  0.00  0.00    -0.368 OA
BRANCH   7   8
ATOM      8  C   LIG d   1      -1.453  88.640 119.408  0.00  0.00     0.119 C 
BRANCH   8   9
ATOM      9  C   LIG d   1      -0.289  87.858 118.768  0.00  0.00     0.028 C 
ATOM     10  C   LIG d   1       0.174  88.478 117.439  0.00  0.00     0.006 C 
ENDBRANCH   8   9
BRANCH   8  11
ATOM     11  C   LIG d   1      -2.376  87.575 120.008  0.00  0.00     0.028 C 
ATOM     12  C   LIG d   1      -1.704  86.197 120.116  0.00  0.00     0.006 C 
ENDBRANCH   8  11
ENDBRANCH   7   8
ENDBRANCH   1   7
BRANCH   6  13
ATOM     13  N   LIG d   1      -1.158  92.025 119.420  0.00  0.00    -0.311 N 
ATOM     14  C   LIG d   1       0.133  92.050 119.092  0.00  0.00     0.210 C 
ATOM     15  C   LIG d   1       1.095  92.253 120.267  0.00  0.00     0.109 C 
ATOM     16  O   LIG d   1       0.571  91.954 117.936  0.00  0.00    -0.276 OA
ATOM     17  H   LIG d   1      -1.425  92.143 120.377  0.00  0.00     0.149 HD
ENDBRANCH   6  13
BRANCH   5  18
ATOM     18  N   LIG d   1      -2.653  94.268 117.982  0.00  0.00     0.381 N 
ATOM     19  H   LIG d   1      -2.997  95.016 118.551  0.00  0.00    -0.090 HD
ATOM     20  H   LIG d   1      -2.920  94.447 117.030  0.00  0.00    -0.090 HD
ATOM     21  H   LIG d   1      -1.661  94.217 118.053  0.00  0.00    -0.090 HD
ENDBRANCH   5  18
BRANCH   3  22
ATOM     22  C   LIG d   1      -6.300  91.230 117.348  0.00  0.00     0.382 C 
ATOM     23  O   LIG d   1      -6.633  90.375 116.492  0.00  0.00    -0.241 OA
ATOM     24  O   LIG d   1      -7.175  91.946 117.872  0.00  0.00    -0.241 OA
ENDBRANCH   3  22
TORSDOF 7
ENDMDL
MODEL 7
REMARK VINA RESULT:      -4.6     14.457     17.182
REMARK  7 active torsions:
REMARK  status: ('A' for Active; 'I' for Inactive)
REMARK    1  A    between atoms: C_2  and  C_3 
REMARK    2  A    between atoms: C_3  and  O_6 
REMARK    3  A    between atoms: C_3  and  C_4 
REMARK    4  A    between atoms: C_7  and  O_6 
REMARK    5  A    between atoms: C_9  and  C_10 
REMARK    6  A    between atoms: N_15  and  C_14 
REMARK    7  A    between atoms: N_20  and  C_19 
REMARK       I    between atoms: C_22  and  N_20 
ROOT
ATOM      1  C   LIG d   1     -17.361  65.438 116.622  0.00  0.00     0.161 C 
ATOM      2  C   LIG d   1     -16.905  66.487 115.805  0.00  0.00     0.016 C 
ATOM      3  C   LIG d   1     -15.570  66.952 115.809  0.00  0.00     0.038 C 
ATOM      4  C   LIG d   1     -14.558  66.294 116.524  0.00  0.00     0.028 C 
ATOM      5  C   LIG d   1     -15.071  65.546 117.750  0.00  0.00    -0.047 C 
ATOM      6  C   LIG d   1     -16.247  64.637 117.327  0.00  0.00     0.091 C 
ENDROOT
BRANCH   1   7
ATOM      7  O   LIG d   1     -18.206  64.556 115.857  0.00  0.00    -0.368 OA
BRANCH   7   8
ATOM      8  C   LIG d   1     -18.125  64.685 114.417  0.00  0.00     0.119 C 
BRANCH   8   9
ATOM      9  C   LIG d   1     -19.541  64.463 113.851  0.00  0.00     0.028 C 
ATOM     10  C   LIG d   1     -20.486  65.637 114.158  0.00  0.00     0.006 C 
ENDBRANCH   8   9
BRANCH   8  11
ATOM     11  C   LIG d   1     -17.266  63.574 113.805  0.00  0.00     0.028 C 
ATOM     12  C   LIG d   1     -17.711  62.169 114.239  0.00  0.00     0.006 C 
ENDBRANCH   8  11
ENDBRANCH   7   8
ENDBRANCH   1   7
BRANCH   6  13
ATOM     13  N   LIG d   1     -16.862  63.932 118.482  0.00  0.00    -0.311 N 
ATOM     14  C   LIG d   1     -16.481  62.722 118.890  0.00  0.00     0.210 C 
ATOM     15  C   LIG d   1     -17.260  62.169 120.087  0.00  0.00     0.109 C 
ATOM     16  O   LIG d   1     -15.551  62.069 118.394  0.00  0.00    -0.276 OA
ATOM     17  H   LIG d   1     -17.604  64.403 118.961  0.00  0.00     0.149 HD
ENDBRANCH   6  13
BRANCH   5  18
ATOM     18  N   LIG d   1     -13.936  64.796 118.321  0.00  0.00     0.381 N 
ATOM     19  H   LIG d   1     -14.263  64.185 119.043  0.00  0.00    -0.090 HD
ATOM     20  H   LIG d   1     -13.288  65.447 118.729  0.00  0.00    -0.090 HD
ATOM     21  H   LIG d   1     -13.483  64.268 117.608  0.00  0.00    -0.090 HD
ENDBRANCH   5  18
BRANCH   3  22
ATOM     22  C   LIG d   1     -15.244  68.111 115.121  0.00  0.00     0.382 C 
ATOM     23  O   LIG d   1     -15.075  68.076 113.878  0.00  0.00    -0.241 OA
ATOM     24  O   LIG d   1     -15.073  69.182 115.733  0.00  0.00    -0.241 OA
ENDBRANCH   3  22
TORSDOF 7
ENDMDL
MODEL 8
REMARK VINA RESULT:      -4.6     14.766     17.550
REMARK  7 active torsions:
REMARK  status: ('A' for Active; 'I' for Inactive)
REMARK    1  A    between atoms: C_2  and  C_3 
REMARK    2  A    between atoms: C_3  and  O_6 
REMARK    3  A    between atoms: C_3  and  C_4 
REMARK    4  A    between atoms: C_7  and  O_6 
REMARK    5  A    between atoms: C_9  and  C_10 
REMARK    6  A    between atoms: N_15  and  C_14 
REMARK    7  A    between atoms: N_20  and  C_19 
REMARK       I    between atoms: C_22  and  N_20 
ROOT
ATOM      1  C   LIG d   1     -16.314  64.466 115.822  0.00  0.00     0.161 C 
ATOM      2  C   LIG d   1     -15.246  65.192 116.375  0.00  0.00     0.016 C 
ATOM      3  C   LIG d   1     -15.353  66.538 116.793  0.00  0.00     0.038 C 
ATOM      4  C   LIG d   1     -16.585  67.208 116.827  0.00  0.00     0.028 C 
ATOM      5  C   LIG d   1     -17.590  66.681 115.808  0.00  0.00    -0.047 C 
ATOM      6  C   LIG d   1     -17.694  65.145 115.955  0.00  0.00     0.091 C 
ENDROOT
BRANCH   1   7
ATOM      7  O   LIG d   1     -16.351  63.142 116.391  0.00  0.00    -0.368 OA
BRANCH   7   8
ATOM      8  C   LIG d   1     -16.742  63.057 117.783  0.00  0.00     0.119 C 
BRANCH   8   9
ATOM      9  C   LIG d   1     -15.598  62.359 118.543  0.00  0.00     0.028 C 
ATOM     10  C   LIG d   1     -14.988  63.254 119.635  0.00  0.00     0.006 C 
ENDBRANCH   8   9
BRANCH   8  11
ATOM     11  C   LIG d   1     -17.963  62.149 117.964  0.00  0.00     0.028 C 
ATOM     12  C   LIG d   1     -19.042  62.774 118.861  0.00  0.00     0.006 C 
ENDBRANCH   8  11
ENDBRANCH   7   8
ENDBRANCH   1   7
BRANCH   6  13
ATOM     13  N   LIG d   1     -18.593  64.539 114.939  0.00  0.00    -0.311 N 
ATOM     14  C   LIG d   1     -19.883  64.288 115.158  0.00  0.00     0.210 C 
ATOM     15  C   LIG d   1     -20.624  63.641 113.984  0.00  0.00     0.109 C 
ATOM     16  O   LIG d   1     -20.491  64.569 116.201  0.00  0.00    -0.276 OA
ATOM     17  H   LIG d   1     -18.189  64.307 114.052  0.00  0.00     0.149 HD
ENDBRANCH   6  13
BRANCH   5  18
ATOM     18  N   LIG d   1     -18.870  67.372 116.046  0.00  0.00     0.381 N 
ATOM     19  H   LIG d   1     -18.709  68.352 116.169  0.00  0.00    -0.090 HD
ATOM     20  H   LIG d   1     -19.282  67.013 116.889  0.00  0.00    -0.090 HD
ATOM     21  H   LIG d   1     -19.486  67.224 115.277  0.00  0.00    -0.090 HD
ENDBRANCH   5  18
BRANCH   3  22
ATOM     22  C   LIG d   1     -14.211  67.241 117.145  0.00  0.00     0.382 C 
ATOM     23  O   LIG d   1     -13.437  67.668 116.255  0.00  0.00    -0.241 OA
ATOM     24  O   LIG d   1     -13.921  67.416 118.344  0.00  0.00    -0.241 OA
ENDBRANCH   3  22
TORSDOF 7
ENDMDL
MODEL 9
REMARK VINA RESULT:      -4.4      2.204      4.223
REMARK  7 active torsions:
REMARK  status: ('A' for Active; 'I' for Inactive)
REMARK    1  A    between atoms: C_2  and  C_3 
REMARK    2  A    between atoms: C_3  and  O_6 
REMARK    3  A    between atoms: C_3  and  C_4 
REMARK    4  A    between atoms: C_7  and  O_6 
REMARK    5  A    between atoms: C_9  and  C_10 
REMARK    6  A    between atoms: N_15  and  C_14 
REMARK    7  A    between atoms: N_20  and  C_19 
REMARK       I    between atoms: C_22  and  N_20 
ROOT
ATOM      1  C   LIG d   1      -5.674  77.870 117.499  0.00  0.00     0.161 C 
ATOM      2  C   LIG d   1      -6.986  78.066 117.958  0.00  0.00     0.016 C 
ATOM      3  C   LIG d   1      -8.030  77.134 117.754  0.00  0.00     0.038 C 
ATOM      4  C   LIG d   1      -7.794  75.865 117.205  0.00  0.00     0.028 C 
ATOM      5  C   LIG d   1      -6.589  75.824 116.271  0.00  0.00    -0.047 C 
ATOM      6  C   LIG d   1      -5.371  76.443 116.995  0.00  0.00     0.091 C 
ENDROOT
BRANCH   1   7
ATOM      7  O   LIG d   1      -4.735  78.248 118.526  0.00  0.00    -0.368 OA
BRANCH   7   8
ATOM      8  C   LIG d   1      -3.957  79.443 118.269  0.00  0.00     0.119 C 
BRANCH   8   9
ATOM      9  C   LIG d   1      -4.467  80.541 119.223  0.00  0.00     0.028 C 
ATOM     10  C   LIG d   1      -5.517  81.450 118.563  0.00  0.00     0.006 C 
ENDBRANCH   8   9
BRANCH   8  11
ATOM     11  C   LIG d   1      -4.212  79.982 116.858  0.00  0.00     0.028 C 
ATOM     12  C   LIG d   1      -2.998  79.819 115.930  0.00  0.00     0.006 C 
ENDBRANCH   8  11
ENDBRANCH   7   8
ENDBRANCH   1   7
BRANCH   6  13
ATOM     13  N   LIG d   1      -4.171  76.519 116.122  0.00  0.00    -0.311 N 
ATOM     14  C   LIG d   1      -3.227  75.580 116.091  0.00  0.00     0.210 C 
ATOM     15  C   LIG d   1      -2.064  75.865 115.135  0.00  0.00     0.109 C 
ATOM     16  O   LIG d   1      -3.258  74.524 116.739  0.00  0.00    -0.276 OA
ATOM     17  H   LIG d   1      -4.081  77.328 115.540  0.00  0.00     0.149 HD
ENDBRANCH   6  13
BRANCH   5  18
ATOM     18  N   LIG d   1      -6.375  74.418 115.880  0.00  0.00     0.381 N 
ATOM     19  H   LIG d   1      -5.682  74.368 115.161  0.00  0.00    -0.090 HD
ATOM     20  H   LIG d   1      -7.235  74.048 115.514  0.00  0.00    -0.090 HD
ATOM     21  H   LIG d   1      -6.085  73.885 116.669  0.00  0.00    -0.090 HD
ENDBRANCH   5  18
BRANCH   3  22
ATOM     22  C   LIG d   1      -9.335  77.484 118.066  0.00  0.00     0.382 C 
ATOM     23  O   LIG d   1     -10.248  76.626 117.997  0.00  0.00    -0.241 OA
ATOM     24  O   LIG d   1      -9.618  78.658 118.372  0.00  0.00    -0.241 OA
ENDBRANCH   3  22
TORSDOF 7
ENDMDL
