MODEL 1
REMARK VINA RESULT:      -5.9      0.000      0.000
REMARK  7 active torsions:
REMARK  status: ('A' for Active; 'I' for Inactive)
REMARK    1  A    between atoms: C_2  and  C_3 
REMARK    2  A    between atoms: C_3  and  O_6 
REMARK    3  A    between atoms: C_3  and  C_4 
REMARK    4  A    between atoms: C_7  and  O_6 
REMARK    5  A    between atoms: C_9  and  C_10 
REMARK    6  A    between atoms: N_15  and  C_14 
REMARK    7  A    between atoms: N_20  and  C_19 
REMARK       I    between atoms: C_22  and  N_20 
ROOT
ATOM      1  C   LIG d   1      -7.398  74.484 117.667  0.00  0.00     0.161 C 
ATOM      2  C   LIG d   1      -8.574  75.206 117.929  0.00  0.00     0.016 C 
ATOM      3  C   LIG d   1      -8.645  76.617 117.894  0.00  0.00     0.038 C 
ATOM      4  C   LIG d   1      -7.574  77.403 117.445  0.00  0.00     0.028 C 
ATOM      5  C   LIG d   1      -6.213  76.748 117.654  0.00  0.00    -0.047 C 
ATOM      6  C   LIG d   1      -6.247  75.319 117.066  0.00  0.00     0.091 C 
ENDROOT
BRANCH   1   7
ATOM      7  O   LIG d   1      -7.694  73.357 116.819  0.00  0.00    -0.368 OA
BRANCH   7   8
ATOM      8  C   LIG d   1      -7.901  72.090 117.492  0.00  0.00     0.119 C 
BRANCH   8   9
ATOM      9  C   LIG d   1      -6.952  71.063 116.845  0.00  0.00     0.028 C 
ATOM     10  C   LIG d   1      -6.240  71.622 115.601  0.00  0.00     0.006 C 
ENDBRANCH   8   9
BRANCH   8  11
ATOM     11  C   LIG d   1      -9.313  71.551 117.244  0.00  0.00     0.028 C 
ATOM     12  C   LIG d   1      -9.369  70.016 117.225  0.00  0.00     0.006 C 
ENDBRANCH   8  11
ENDBRANCH   7   8
ENDBRANCH   1   7
BRANCH   6  13
ATOM     13  N   LIG d   1      -4.982  74.577 117.304  0.00  0.00    -0.311 N 
ATOM     14  C   LIG d   1      -4.008  74.481 116.400  0.00  0.00     0.210 C 
ATOM     15  C   LIG d   1      -2.796  73.653 116.841  0.00  0.00     0.109 C 
ATOM     16  O   LIG d   1      -4.019  75.029 115.287  0.00  0.00    -0.276 OA
ATOM     17  H   LIG d   1      -4.876  74.128 118.192  0.00  0.00     0.149 HD
ENDBRANCH   6  13
BRANCH   5  18
ATOM     18  N   LIG d   1      -5.200  77.611 117.018  0.00  0.00     0.381 N 
ATOM     19  H   LIG d   1      -5.223  77.485 116.025  0.00  0.00    -0.090 HD
ATOM     20  H   LIG d   1      -4.290  77.343 117.348  0.00  0.00    -0.090 HD
ATOM     21  H   LIG d   1      -5.375  78.566 117.243  0.00  0.00    -0.090 HD
ENDBRANCH   5  18
BRANCH   3  22
ATOM     22  C   LIG d   1      -9.786  77.259 118.352  0.00  0.00     0.382 C 
ATOM     23  O   LIG d   1     -10.899  76.682 118.288  0.00  0.00    -0.241 OA
ATOM     24  O   LIG d   1      -9.724  78.425 118.786  0.00  0.00    -0.241 OA
ENDBRANCH   3  22
TORSDOF 7
ENDMDL
MODEL 2
REMARK VINA RESULT:      -5.6      1.857      5.052
REMARK  7 active torsions:
REMARK  status: ('A' for Active; 'I' for Inactive)
REMARK    1  A    between atoms: C_2  and  C_3 
REMARK    2  A    between atoms: C_3  and  O_6 
REMARK    3  A    between atoms: C_3  and  C_4 
REMARK    4  A    between atoms: C_7  and  O_6 
REMARK    5  A    between atoms: C_9  and  C_10 
REMARK    6  A    between atoms: N_15  and  C_14 
REMARK    7  A    between atoms: N_20  and  C_19 
REMARK       I    between atoms: C_22  and  N_20 
ROOT
ATOM      1  C   LIG d   1      -6.119  74.357 117.316  0.00  0.00     0.161 C 
ATOM      2  C   LIG d   1      -4.899  73.769 116.944  0.00  0.00     0.016 C 
ATOM      3  C   LIG d   1      -3.638  74.322 117.267  0.00  0.00     0.038 C 
ATOM      4  C   LIG d   1      -3.510  75.429 118.119  0.00  0.00     0.028 C 
ATOM      5  C   LIG d   1      -4.726  76.350 118.102  0.00  0.00    -0.047 C 
ATOM      6  C   LIG d   1      -5.999  75.505 118.340  0.00  0.00     0.091 C 
ENDROOT
BRANCH   1   7
ATOM      7  O   LIG d   1      -7.022  73.344 117.803  0.00  0.00    -0.368 OA
BRANCH   7   8
ATOM      8  C   LIG d   1      -7.813  72.661 116.800  0.00  0.00     0.119 C 
BRANCH   8   9
ATOM      9  C   LIG d   1      -9.294  72.803 117.203  0.00  0.00     0.028 C 
ATOM     10  C   LIG d   1      -9.806  74.245 117.057  0.00  0.00     0.006 C 
ENDBRANCH   8   9
BRANCH   8  11
ATOM     11  C   LIG d   1      -7.535  71.155 116.802  0.00  0.00     0.028 C 
ATOM     12  C   LIG d   1      -8.779  70.320 117.145  0.00  0.00     0.006 C 
ENDBRANCH   8  11
ENDBRANCH   7   8
ENDBRANCH   1   7
BRANCH   6  13
ATOM     13  N   LIG d   1      -7.241  76.316 118.256  0.00  0.00    -0.311 N 
ATOM     14  C   LIG d   1      -8.015  76.583 119.307  0.00  0.00     0.210 C 
ATOM     15  C   LIG d   1      -9.260  77.420 118.997  0.00  0.00     0.109 C 
ATOM     16  O   LIG d   1      -7.771  76.235 120.472  0.00  0.00    -0.276 OA
ATOM     17  H   LIG d   1      -7.498  76.665 117.353  0.00  0.00     0.149 HD
ENDBRANCH   6  13
BRANCH   5  18
ATOM     18  N   LIG d   1      -4.517  77.383 119.134  0.00  0.00     0.381 N 
ATOM     19  H   LIG d   1      -5.284  78.026 119.130  0.00  0.00    -0.090 HD
ATOM     20  H   LIG d   1      -3.678  77.893 118.918  0.00  0.00    -0.090 HD
ATOM     21  H   LIG d   1      -4.434  76.958 120.031  0.00  0.00    -0.090 HD
ENDBRANCH   5  18
BRANCH   3  22
ATOM     22  C   LIG d   1      -2.489  73.790 116.702  0.00  0.00     0.382 C 
ATOM     23  O   LIG d   1      -2.111  74.176 115.570  0.00  0.00    -0.241 OA
ATOM     24  O   LIG d   1      -1.852  72.896 117.290  0.00  0.00    -0.241 OA
ENDBRANCH   3  22
TORSDOF 7
ENDMDL
MODEL 3
REMARK VINA RESULT:      -5.2      2.119      4.910
REMARK  7 active torsions:
REMARK  status: ('A' for Active; 'I' for Inactive)
REMARK    1  A    between atoms: C_2  and  C_3 
REMARK    2  A    between atoms: C_3  and  O_6 
REMARK    3  A    between atoms: C_3  and  C_4 
REMARK    4  A    between atoms: C_7  and  O_6 
REMARK    5  A    between atoms: C_9  and  C_10 
REMARK    6  A    between atoms: N_15  and  C_14 
REMARK    7  A    between atoms: N_20  and  C_19 
REMARK       I    between atoms: C_22  and  N_20 
ROOT
ATOM      1  C   LIG d   1      -7.571  76.192 117.039  0.00  0.00     0.161 C 
ATOM      2  C   LIG d   1      -6.547  75.649 116.245  0.00  0.00     0.016 C 
ATOM      3  C   LIG d   1      -5.268  76.237 116.116  0.00  0.00     0.038 C 
ATOM      4  C   LIG d   1      -4.873  77.334 116.896  0.00  0.00     0.028 C 
ATOM      5  C   LIG d   1      -6.038  78.215 117.334  0.00  0.00    -0.047 C 
ATOM      6  C   LIG d   1      -7.123  77.327 117.984  0.00  0.00     0.091 C 
ENDROOT
BRANCH   1   7
ATOM      7  O   LIG d   1      -8.218  75.144 117.787  0.00  0.00    -0.368 OA
BRANCH   7   8
ATOM      8  C   LIG d   1      -7.896  73.787 117.392  0.00  0.00     0.119 C 
BRANCH   8   9
ATOM      9  C   LIG d   1      -9.225  73.025 117.226  0.00  0.00     0.028 C 
ATOM     10  C   LIG d   1      -9.029  71.632 116.604  0.00  0.00     0.006 C 
ENDBRANCH   8   9
BRANCH   8  11
ATOM     11  C   LIG d   1      -7.140  73.049 118.501  0.00  0.00     0.028 C 
ATOM     12  C   LIG d   1      -6.646  73.988 119.613  0.00  0.00     0.006 C 
ENDBRANCH   8  11
ENDBRANCH   7   8
ENDBRANCH   1   7
BRANCH   6  13
ATOM     13  N   LIG d   1      -8.334  78.099 118.365  0.00  0.00    -0.311 N 
ATOM     14  C   LIG d   1      -8.996  77.909 119.506  0.00  0.00     0.210 C 
ATOM     15  C   LIG d   1     -10.230  78.797 119.693  0.00  0.00     0.109 C 
ATOM     16  O   LIG d   1      -8.660  77.111 120.394  0.00  0.00    -0.276 OA
ATOM     17  H   LIG d   1      -8.659  78.789 117.716  0.00  0.00     0.149 HD
ENDBRANCH   6  13
BRANCH   5  18
ATOM     18  N   LIG d   1      -5.502  79.238 118.252  0.00  0.00     0.381 N 
ATOM     19  H   LIG d   1      -5.781  80.149 117.944  0.00  0.00    -0.090 HD
ATOM     20  H   LIG d   1      -4.498  79.194 118.237  0.00  0.00    -0.090 HD
ATOM     21  H   LIG d   1      -5.836  79.075 119.176  0.00  0.00    -0.090 HD
ENDBRANCH   5  18
BRANCH   3  22
ATOM     22  C   LIG d   1      -4.380  75.750 115.168  0.00  0.00     0.382 C 
ATOM     23  O   LIG d   1      -3.812  74.646 115.349  0.00  0.00    -0.241 OA
ATOM     24  O   LIG d   1      -4.108  76.421 114.155  0.00  0.00    -0.241 OA
ENDBRANCH   3  22
TORSDOF 7
ENDMDL
MODEL 4
REMARK VINA RESULT:      -5.2      2.263      4.853
REMARK  7 active torsions:
REMARK  status: ('A' for Active; 'I' for Inactive)
REMARK    1  A    between atoms: C_2  and  C_3 
REMARK    2  A    between atoms: C_3  and  O_6 
REMARK    3  A    between atoms: C_3  and  C_4 
REMARK    4  A    between atoms: C_7  and  O_6 
REMARK    5  A    between atoms: C_9  and  C_10 
REMARK    6  A    between atoms: N_15  and  C_14 
REMARK    7  A    between atoms: N_20  and  C_19 
REMARK       I    between atoms: C_22  and  N_20 
ROOT
ATOM      1  C   LIG d   1      -6.696  74.443 117.997  0.00  0.00     0.161 C 
ATOM      2  C   LIG d   1      -7.073  73.139 117.638  0.00  0.00     0.016 C 
ATOM      3  C   LIG d   1      -8.392  72.782 117.276  0.00  0.00     0.038 C 
ATOM      4  C   LIG d   1      -9.399  73.743 117.101  0.00  0.00     0.028 C 
ATOM      5  C   LIG d   1      -9.189  74.999 117.939  0.00  0.00    -0.047 C 
ATOM      6  C   LIG d   1      -7.755  75.526 117.704  0.00  0.00     0.091 C 
ENDROOT
BRANCH   1   7
ATOM      7  O   LIG d   1      -5.445  74.782 117.364  0.00  0.00    -0.368 OA
BRANCH   7   8
ATOM      8  C   LIG d   1      -4.847  73.749 116.542  0.00  0.00     0.119 C 
BRANCH   8   9
ATOM      9  C   LIG d   1      -3.336  73.738 116.841  0.00  0.00     0.028 C 
ATOM     10  C   LIG d   1      -2.911  74.893 117.763  0.00  0.00     0.006 C 
ENDBRANCH   8   9
BRANCH   8  11
ATOM     11  C   LIG d   1      -4.963  74.086 115.053  0.00  0.00     0.028 C 
ATOM     12  C   LIG d   1      -5.246  75.575 114.799  0.00  0.00     0.006 C 
ENDBRANCH   8  11
ENDBRANCH   7   8
ENDBRANCH   1   7
BRANCH   6  13
ATOM     13  N   LIG d   1      -7.439  76.706 118.551  0.00  0.00    -0.311 N 
ATOM     14  C   LIG d   1      -6.842  77.803 118.087  0.00  0.00     0.210 C 
ATOM     15  C   LIG d   1      -6.590  78.893 119.132  0.00  0.00     0.109 C 
ATOM     16  O   LIG d   1      -6.526  77.989 116.902  0.00  0.00    -0.276 OA
ATOM     17  H   LIG d   1      -7.688  76.653 119.519  0.00  0.00     0.149 HD
ENDBRANCH   6  13
BRANCH   5  18
ATOM     18  N   LIG d   1     -10.232  75.970 117.557  0.00  0.00     0.381 N 
ATOM     19  H   LIG d   1     -10.490  75.830 116.600  0.00  0.00    -0.090 HD
ATOM     20  H   LIG d   1      -9.861  76.899 117.650  0.00  0.00    -0.090 HD
ATOM     21  H   LIG d   1     -11.030  75.862 118.143  0.00  0.00    -0.090 HD
ENDBRANCH   5  18
BRANCH   3  22
ATOM     22  C   LIG d   1      -8.725  71.444 117.124  0.00  0.00     0.382 C 
ATOM     23  O   LIG d   1      -9.752  70.987 117.681  0.00  0.00    -0.241 OA
ATOM     24  O   LIG d   1      -7.988  70.680 116.474  0.00  0.00    -0.241 OA
ENDBRANCH   3  22
TORSDOF 7
ENDMDL
MODEL 5
REMARK VINA RESULT:      -4.8     15.958     18.215
REMARK  7 active torsions:
REMARK  status: ('A' for Active; 'I' for Inactive)
REMARK    1  A    between atoms: C_2  and  C_3 
REMARK    2  A    between atoms: C_3  and  O_6 
REMARK    3  A    between atoms: C_3  and  C_4 
REMARK    4  A    between atoms: C_7  and  O_6 
REMARK    5  A    between atoms: C_9  and  C_10 
REMARK    6  A    between atoms: N_15  and  C_14 
REMARK    7  A    between atoms: N_20  and  C_19 
REMARK       I    between atoms: C_22  and  N_20 
ROOT
ATOM      1  C   LIG d   1       0.781  90.225 117.070  0.00  0.00     0.161 C 
ATOM      2  C   LIG d   1      -0.623  90.170 117.059  0.00  0.00     0.016 C 
ATOM      3  C   LIG d   1      -1.445  91.119 117.709  0.00  0.00     0.038 C 
ATOM      4  C   LIG d   1      -0.916  92.281 118.291  0.00  0.00     0.028 C 
ATOM      5  C   LIG d   1       0.524  92.121 118.764  0.00  0.00    -0.047 C 
ATOM      6  C   LIG d   1       1.371  91.546 117.605  0.00  0.00     0.091 C 
ENDROOT
BRANCH   1   7
ATOM      7  O   LIG d   1       1.291  89.947 115.751  0.00  0.00    -0.368 OA
BRANCH   7   8
ATOM      8  C   LIG d   1       2.272  88.884 115.658  0.00  0.00     0.119 C 
BRANCH   8   9
ATOM      9  C   LIG d   1       3.366  89.349 114.677  0.00  0.00     0.028 C 
ATOM     10  C   LIG d   1       4.759  89.388 115.328  0.00  0.00     0.006 C 
ENDBRANCH   8   9
BRANCH   8  11
ATOM     11  C   LIG d   1       1.670  87.625 115.027  0.00  0.00     0.028 C 
ATOM     12  C   LIG d   1       2.216  86.329 115.648  0.00  0.00     0.006 C 
ENDBRANCH   8  11
ENDBRANCH   7   8
ENDBRANCH   1   7
BRANCH   6  13
ATOM     13  N   LIG d   1       2.777  91.279 118.009  0.00  0.00    -0.311 N 
ATOM     14  C   LIG d   1       3.763  92.162 117.859  0.00  0.00     0.210 C 
ATOM     15  C   LIG d   1       5.140  91.677 118.322  0.00  0.00     0.109 C 
ATOM     16  O   LIG d   1       3.621  93.312 117.416  0.00  0.00    -0.276 OA
ATOM     17  H   LIG d   1       2.975  90.382 118.406  0.00  0.00     0.149 HD
ENDBRANCH   6  13
BRANCH   5  18
ATOM     18  N   LIG d   1       0.993  93.442 119.222  0.00  0.00     0.381 N 
ATOM     19  H   LIG d   1       0.276  94.124 119.078  0.00  0.00    -0.090 HD
ATOM     20  H   LIG d   1       1.795  93.709 118.680  0.00  0.00    -0.090 HD
ATOM     21  H   LIG d   1       1.234  93.402 120.188  0.00  0.00    -0.090 HD
ENDBRANCH   5  18
BRANCH   3  22
ATOM     22  C   LIG d   1      -2.808  90.890 117.815  0.00  0.00     0.382 C 
ATOM     23  O   LIG d   1      -3.622  91.784 117.479  0.00  0.00    -0.241 OA
ATOM     24  O   LIG d   1      -3.233  89.818 118.285  0.00  0.00    -0.241 OA
ENDBRANCH   3  22
TORSDOF 7
ENDMDL
MODEL 6
REMARK VINA RESULT:      -4.8      2.835      5.541
REMARK  7 active torsions:
REMARK  status: ('A' for Active; 'I' for Inactive)
REMARK    1  A    between atoms: C_2  and  C_3 
REMARK    2  A    between atoms: C_3  and  O_6 
REMARK    3  A    between atoms: C_3  and  C_4 
REMARK    4  A    between atoms: C_7  and  O_6 
REMARK    5  A    between atoms: C_9  and  C_10 
REMARK    6  A    between atoms: N_15  and  C_14 
REMARK    7  A    between atoms: N_20  and  C_19 
REMARK       I    between atoms: C_22  and  N_20 
ROOT
ATOM      1  C   LIG d   1      -4.259  74.536 116.854  0.00  0.00     0.161 C 
ATOM      2  C   LIG d   1      -4.845  73.260 116.873  0.00  0.00     0.016 C 
ATOM      3  C   LIG d   1      -6.241  73.045 116.929  0.00  0.00     0.038 C 
ATOM      4  C   LIG d   1      -7.159  74.100 116.817  0.00  0.00     0.028 C 
ATOM      5  C   LIG d   1      -6.608  75.436 117.304  0.00  0.00    -0.047 C 
ATOM      6  C   LIG d   1      -5.247  75.698 116.619  0.00  0.00     0.091 C 
ENDROOT
BRANCH   1   7
ATOM      7  O   LIG d   1      -3.200  74.573 115.877  0.00  0.00    -0.368 OA
BRANCH   7   8
ATOM      8  C   LIG d   1      -1.870  74.831 116.389  0.00  0.00     0.119 C 
BRANCH   8   9
ATOM      9  C   LIG d   1      -1.143  75.720 115.362  0.00  0.00     0.028 C 
ATOM     10  C   LIG d   1       0.136  75.061 114.816  0.00  0.00     0.006 C 
ENDBRANCH   8   9
BRANCH   8  11
ATOM     11  C   LIG d   1      -1.044  73.543 116.467  0.00  0.00     0.028 C 
ATOM     12  C   LIG d   1      -0.663  73.166 117.908  0.00  0.00     0.006 C 
ENDBRANCH   8  11
ENDBRANCH   7   8
ENDBRANCH   1   7
BRANCH   6  13
ATOM     13  N   LIG d   1      -4.599  76.945 117.103  0.00  0.00    -0.311 N 
ATOM     14  C   LIG d   1      -4.114  77.881 116.290  0.00  0.00     0.210 C 
ATOM     15  C   LIG d   1      -3.468  79.078 116.996  0.00  0.00     0.109 C 
ATOM     16  O   LIG d   1      -4.184  77.850 115.053  0.00  0.00    -0.276 OA
ATOM     17  H   LIG d   1      -4.528  77.066 118.094  0.00  0.00     0.149 HD
ENDBRANCH   6  13
BRANCH   5  18
ATOM     18  N   LIG d   1      -7.616  76.470 117.002  0.00  0.00     0.381 N 
ATOM     19  H   LIG d   1      -8.331  76.086 116.418  0.00  0.00    -0.090 HD
ATOM     20  H   LIG d   1      -7.172  77.221 116.504  0.00  0.00    -0.090 HD
ATOM     21  H   LIG d   1      -8.016  76.814 117.847  0.00  0.00    -0.090 HD
ENDBRANCH   5  18
BRANCH   3  22
ATOM     22  C   LIG d   1      -6.732  71.765 117.140  0.00  0.00     0.382 C 
ATOM     23  O   LIG d   1      -7.077  71.057 116.163  0.00  0.00    -0.241 OA
ATOM     24  O   LIG d   1      -6.876  71.326 118.296  0.00  0.00    -0.241 OA
ENDBRANCH   3  22
TORSDOF 7
ENDMDL
MODEL 7
REMARK VINA RESULT:      -4.8      2.341      5.782
REMARK  7 active torsions:
REMARK  status: ('A' for Active; 'I' for Inactive)
REMARK    1  A    between atoms: C_2  and  C_3 
REMARK    2  A    between atoms: C_3  and  O_6 
REMARK    3  A    between atoms: C_3  and  C_4 
REMARK    4  A    between atoms: C_7  and  O_6 
REMARK    5  A    between atoms: C_9  and  C_10 
REMARK    6  A    between atoms: N_15  and  C_14 
REMARK    7  A    between atoms: N_20  and  C_19 
REMARK       I    between atoms: C_22  and  N_20 
ROOT
ATOM      1  C   LIG d   1      -4.249  74.530 116.770  0.00  0.00     0.161 C 
ATOM      2  C   LIG d   1      -3.127  73.754 116.435  0.00  0.00     0.016 C 
ATOM      3  C   LIG d   1      -1.795  74.188 116.627  0.00  0.00     0.038 C 
ATOM      4  C   LIG d   1      -1.493  75.374 117.312  0.00  0.00     0.028 C 
ATOM      5  C   LIG d   1      -2.594  76.425 117.217  0.00  0.00    -0.047 C 
ATOM      6  C   LIG d   1      -3.940  75.780 117.620  0.00  0.00     0.091 C 
ENDROOT
BRANCH   1   7
ATOM      7  O   LIG d   1      -5.233  73.707 117.427  0.00  0.00    -0.368 OA
BRANCH   7   8
ATOM      8  C   LIG d   1      -6.472  73.496 116.706  0.00  0.00     0.119 C 
BRANCH   8   9
ATOM      9  C   LIG d   1      -7.626  73.635 117.718  0.00  0.00     0.028 C 
ATOM     10  C   LIG d   1      -8.347  74.989 117.603  0.00  0.00     0.006 C 
ENDBRANCH   8   9
BRANCH   8  11
ATOM     11  C   LIG d   1      -6.569  72.064 116.174  0.00  0.00     0.028 C 
ATOM     12  C   LIG d   1      -7.943  71.425 116.431  0.00  0.00     0.006 C 
ENDBRANCH   8  11
ENDBRANCH   7   8
ENDBRANCH   1   7
BRANCH   6  13
ATOM     13  N   LIG d   1      -5.084  76.717 117.474  0.00  0.00    -0.311 N 
ATOM     14  C   LIG d   1      -5.549  77.467 118.472  0.00  0.00     0.210 C 
ATOM     15  C   LIG d   1      -6.749  78.350 118.112  0.00  0.00     0.109 C 
ATOM     16  O   LIG d   1      -5.063  77.509 119.612  0.00  0.00    -0.276 OA
ATOM     17  H   LIG d   1      -5.518  76.769 116.574  0.00  0.00     0.149 HD
ENDBRANCH   6  13
BRANCH   5  18
ATOM     18  N   LIG d   1      -2.210  77.553 118.087  0.00  0.00     0.381 N 
ATOM     19  H   LIG d   1      -2.029  78.364 117.530  0.00  0.00    -0.090 HD
ATOM     20  H   LIG d   1      -1.366  77.313 118.577  0.00  0.00    -0.090 HD
ATOM     21  H   LIG d   1      -2.938  77.744 118.739  0.00  0.00    -0.090 HD
ENDBRANCH   5  18
BRANCH   3  22
ATOM     22  C   LIG d   1      -0.748  73.449 116.096  0.00  0.00     0.382 C 
ATOM     23  O   LIG d   1      -0.465  73.549 114.878  0.00  0.00    -0.241 OA
ATOM     24  O   LIG d   1      -0.111  72.652 116.810  0.00  0.00    -0.241 OA
ENDBRANCH   3  22
TORSDOF 7
ENDMDL
MODEL 8
REMARK VINA RESULT:      -4.7      3.670      5.373
REMARK  7 active torsions:
REMARK  status: ('A' for Active; 'I' for Inactive)
REMARK    1  A    between atoms: C_2  and  C_3 
REMARK    2  A    between atoms: C_3  and  O_6 
REMARK    3  A    between atoms: C_3  and  C_4 
REMARK    4  A    between atoms: C_7  and  O_6 
REMARK    5  A    between atoms: C_9  and  C_10 
REMARK    6  A    between atoms: N_15  and  C_14 
REMARK    7  A    between atoms: N_20  and  C_19 
REMARK       I    between atoms: C_22  and  N_20 
ROOT
ATOM      1  C   LIG d   1      -2.807  74.371 116.955  0.00  0.00     0.161 C 
ATOM      2  C   LIG d   1      -3.353  75.587 116.509  0.00  0.00     0.016 C 
ATOM      3  C   LIG d   1      -2.638  76.519 115.722  0.00  0.00     0.038 C 
ATOM      4  C   LIG d   1      -1.370  76.228 115.198  0.00  0.00     0.028 C 
ATOM      5  C   LIG d   1      -0.581  75.229 116.037  0.00  0.00    -0.047 C 
ATOM      6  C   LIG d   1      -1.464  73.987 116.299  0.00  0.00     0.091 C 
ENDROOT
BRANCH   1   7
ATOM      7  O   LIG d   1      -3.769  73.312 116.784  0.00  0.00    -0.368 OA
BRANCH   7   8
ATOM      8  C   LIG d   1      -5.139  73.725 116.557  0.00  0.00     0.119 C 
BRANCH   8   9
ATOM      9  C   LIG d   1      -5.958  73.310 117.795  0.00  0.00     0.028 C 
ATOM     10  C   LIG d   1      -6.133  74.464 118.796  0.00  0.00     0.006 C 
ENDBRANCH   8   9
BRANCH   8  11
ATOM     11  C   LIG d   1      -5.763  72.965 115.384  0.00  0.00     0.028 C 
ATOM     12  C   LIG d   1      -6.376  71.620 115.804  0.00  0.00     0.006 C 
ENDBRANCH   8  11
ENDBRANCH   7   8
ENDBRANCH   1   7
BRANCH   6  13
ATOM     13  N   LIG d   1      -0.799  72.996 117.185  0.00  0.00    -0.311 N 
ATOM     14  C   LIG d   1      -0.490  73.240 118.457  0.00  0.00     0.210 C 
ATOM     15  C   LIG d   1       0.210  72.088 119.185  0.00  0.00     0.109 C 
ATOM     16  O   LIG d   1      -0.758  74.290 119.061  0.00  0.00    -0.276 OA
ATOM     17  H   LIG d   1      -0.573  72.106 116.785  0.00  0.00     0.149 HD
ENDBRANCH   6  13
BRANCH   5  18
ATOM     18  N   LIG d   1       0.660  74.912 115.305  0.00  0.00     0.381 N 
ATOM     19  H   LIG d   1       1.414  74.795 115.952  0.00  0.00    -0.090 HD
ATOM     20  H   LIG d   1       0.883  75.680 114.697  0.00  0.00    -0.090 HD
ATOM     21  H   LIG d   1       0.538  74.080 114.771  0.00  0.00    -0.090 HD
ENDBRANCH   5  18
BRANCH   3  22
ATOM     22  C   LIG d   1      -3.176  77.775 115.486  0.00  0.00     0.382 C 
ATOM     23  O   LIG d   1      -4.327  78.052 115.902  0.00  0.00    -0.241 OA
ATOM     24  O   LIG d   1      -2.543  78.620 114.825  0.00  0.00    -0.241 OA
ENDBRANCH   3  22
TORSDOF 7
ENDMDL
MODEL 9
REMARK VINA RESULT:      -4.6     16.403     18.991
REMARK  7 active torsions:
REMARK  status: ('A' for Active; 'I' for Inactive)
REMARK    1  A    between atoms: C_2  and  C_3 
REMARK    2  A    between atoms: C_3  and  O_6 
REMARK    3  A    between atoms: C_3  and  C_4 
REMARK    4  A    between atoms: C_7  and  O_6 
REMARK    5  A    between atoms: C_9  and  C_10 
REMARK    6  A    between atoms: N_15  and  C_14 
REMARK    7  A    between atoms: N_20  and  C_19 
REMARK       I    between atoms: C_22  and  N_20 
ROOT
ATOM      1  C   LIG d   1       1.025  91.089 116.767  0.00  0.00     0.161 C 
ATOM      2  C   LIG d   1       2.235  91.702 117.132  0.00  0.00     0.016 C 
ATOM      3  C   LIG d   1       2.364  92.571 118.240  0.00  0.00     0.038 C 
ATOM      4  C   LIG d   1       1.318  92.768 119.154  0.00  0.00     0.028 C 
ATOM      5  C   LIG d   1      -0.065  92.569 118.543  0.00  0.00    -0.047 C 
ATOM      6  C   LIG d   1      -0.101  91.205 117.817  0.00  0.00     0.091 C 
ENDROOT
BRANCH   1   7
ATOM      7  O   LIG d   1       1.258  89.706 116.434  0.00  0.00    -0.368 OA
BRANCH   7   8
ATOM      8  C   LIG d   1       2.645  89.303 116.324  0.00  0.00     0.119 C 
BRANCH   8   9
ATOM      9  C   LIG d   1       2.879  88.839 114.873  0.00  0.00     0.028 C 
ATOM     10  C   LIG d   1       4.136  89.469 114.251  0.00  0.00     0.006 C 
ENDBRANCH   8   9
BRANCH   8  11
ATOM     11  C   LIG d   1       2.939  88.077 117.194  0.00  0.00     0.028 C 
ATOM     12  C   LIG d   1       3.762  88.419 118.447  0.00  0.00     0.006 C 
ENDBRANCH   8  11
ENDBRANCH   7   8
ENDBRANCH   1   7
BRANCH   6  13
ATOM     13  N   LIG d   1      -1.392  90.968 117.119  0.00  0.00    -0.311 N 
ATOM     14  C   LIG d   1      -2.422  90.335 117.679  0.00  0.00     0.210 C 
ATOM     15  C   LIG d   1      -3.651  90.179 116.778  0.00  0.00     0.109 C 
ATOM     16  O   LIG d   1      -2.445  89.916 118.846  0.00  0.00    -0.276 OA
ATOM     17  H   LIG d   1      -1.470  91.302 116.179  0.00  0.00     0.149 HD
ENDBRANCH   6  13
BRANCH   5  18
ATOM     18  N   LIG d   1      -1.053  92.669 119.634  0.00  0.00     0.381 N 
ATOM     19  H   LIG d   1      -1.441  93.591 119.656  0.00  0.00    -0.090 HD
ATOM     20  H   LIG d   1      -0.588  92.502 120.509  0.00  0.00    -0.090 HD
ATOM     21  H   LIG d   1      -1.778  91.999 119.500  0.00  0.00    -0.090 HD
ENDBRANCH   5  18
BRANCH   3  22
ATOM     22  C   LIG d   1       3.539  93.285 118.420  0.00  0.00     0.382 C 
ATOM     23  O   LIG d   1       4.253  93.578 117.431  0.00  0.00    -0.241 OA
ATOM     24  O   LIG d   1       3.917  93.601 119.564  0.00  0.00    -0.241 OA
ENDBRANCH   3  22
TORSDOF 7
ENDMDL
