MODEL 1
REMARK VINA RESULT:      -5.5      0.000      0.000
REMARK  7 active torsions:
REMARK  status: ('A' for Active; 'I' for Inactive)
REMARK    1  A    between atoms: C_2  and  C_3 
REMARK    2  A    between atoms: C_3  and  O_6 
REMARK    3  A    between atoms: C_3  and  C_4 
REMARK    4  A    between atoms: C_7  and  O_6 
REMARK    5  A    between atoms: C_9  and  C_10 
REMARK    6  A    between atoms: N_15  and  C_14 
REMARK    7  A    between atoms: N_20  and  C_19 
REMARK       I    between atoms: C_22  and  N_20 
ROOT
ATOM      1  C   LIG d   1      -4.188  90.694 116.941  0.00  0.00     0.161 C 
ATOM      2  C   LIG d   1      -5.214  90.247 116.092  0.00  0.00     0.016 C 
ATOM      3  C   LIG d   1      -6.352  91.022 115.772  0.00  0.00     0.038 C 
ATOM      4  C   LIG d   1      -6.469  92.365 116.161  0.00  0.00     0.028 C 
ATOM      5  C   LIG d   1      -5.699  92.694 117.436  0.00  0.00    -0.047 C 
ATOM      6  C   LIG d   1      -4.243  92.197 117.286  0.00  0.00     0.091 C 
ENDROOT
BRANCH   1   7
ATOM      7  O   LIG d   1      -2.905  90.357 116.377  0.00  0.00    -0.368 OA
BRANCH   7   8
ATOM      8  C   LIG d   1      -2.330  89.099 116.809  0.00  0.00     0.119 C 
BRANCH   8   9
ATOM      9  C   LIG d   1      -2.577  88.973 118.325  0.00  0.00     0.028 C 
ATOM     10  C   LIG d   1      -1.867  87.753 118.936  0.00  0.00     0.006 C 
ENDBRANCH   8   9
BRANCH   8  11
ATOM     11  C   LIG d   1      -0.807  89.097 116.645  0.00  0.00     0.028 C 
ATOM     12  C   LIG d   1      -0.181  90.482 116.873  0.00  0.00     0.006 C 
ENDBRANCH   8  11
ENDBRANCH   7   8
ENDBRANCH   1   7
BRANCH   6  13
ATOM     13  N   LIG d   1      -3.443  92.405 118.521  0.00  0.00    -0.311 N 
ATOM     14  C   LIG d   1      -2.301  93.090 118.549  0.00  0.00     0.210 C 
ATOM     15  C   LIG d   1      -1.626  93.167 119.922  0.00  0.00     0.109 C 
ATOM     16  O   LIG d   1      -1.800  93.668 117.573  0.00  0.00    -0.276 OA
ATOM     17  H   LIG d   1      -3.794  91.997 119.366  0.00  0.00     0.149 HD
ENDBRANCH   6  13
BRANCH   5  18
ATOM     18  N   LIG d   1      -5.794  94.151 117.649  0.00  0.00     0.381 N 
ATOM     19  H   LIG d   1      -5.003  94.606 117.238  0.00  0.00    -0.090 HD
ATOM     20  H   LIG d   1      -5.786  94.336 118.637  0.00  0.00    -0.090 HD
ATOM     21  H   LIG d   1      -6.635  94.501 117.245  0.00  0.00    -0.090 HD
ENDBRANCH   5  18
BRANCH   3  22
ATOM     22  C   LIG d   1      -7.408  90.441 115.087  0.00  0.00     0.382 C 
ATOM     23  O   LIG d   1      -7.865  90.990 114.055  0.00  0.00    -0.241 OA
ATOM     24  O   LIG d   1      -7.940  89.397 115.512  0.00  0.00    -0.241 OA
ENDBRANCH   3  22
TORSDOF 7
ENDMDL
MODEL 2
REMARK VINA RESULT:      -5.2      2.168      4.545
REMARK  7 active torsions:
REMARK  status: ('A' for Active; 'I' for Inactive)
REMARK    1  A    between atoms: C_2  and  C_3 
REMARK    2  A    between atoms: C_3  and  O_6 
REMARK    3  A    between atoms: C_3  and  C_4 
REMARK    4  A    between atoms: C_7  and  O_6 
REMARK    5  A    between atoms: C_9  and  C_10 
REMARK    6  A    between atoms: N_15  and  C_14 
REMARK    7  A    between atoms: N_20  and  C_19 
REMARK       I    between atoms: C_22  and  N_20 
ROOT
ATOM      1  C   LIG d   1      -4.260  92.433 116.923  0.00  0.00     0.161 C 
ATOM      2  C   LIG d   1      -5.415  92.183 116.164  0.00  0.00     0.016 C 
ATOM      3  C   LIG d   1      -5.675  90.948 115.527  0.00  0.00     0.038 C 
ATOM      4  C   LIG d   1      -4.864  89.822 115.732  0.00  0.00     0.028 C 
ATOM      5  C   LIG d   1      -3.421  90.171 116.081  0.00  0.00    -0.047 C 
ATOM      6  C   LIG d   1      -3.418  91.182 117.250  0.00  0.00     0.091 C 
ENDROOT
BRANCH   1   7
ATOM      7  O   LIG d   1      -4.613  93.130 118.134  0.00  0.00    -0.368 OA
BRANCH   7   8
ATOM      8  C   LIG d   1      -6.030  93.292 118.386  0.00  0.00     0.119 C 
BRANCH   8   9
ATOM      9  C   LIG d   1      -6.257  94.749 118.835  0.00  0.00     0.028 C 
ATOM     10  C   LIG d   1      -7.253  95.493 117.930  0.00  0.00     0.006 C 
ENDBRANCH   8   9
BRANCH   8  11
ATOM     11  C   LIG d   1      -6.489  92.429 119.565  0.00  0.00     0.028 C 
ATOM     12  C   LIG d   1      -7.380  93.196 120.555  0.00  0.00     0.006 C 
ENDBRANCH   8  11
ENDBRANCH   7   8
ENDBRANCH   1   7
BRANCH   6  13
ATOM     13  N   LIG d   1      -2.048  91.641 117.599  0.00  0.00    -0.311 N 
ATOM     14  C   LIG d   1      -1.302  91.071 118.545  0.00  0.00     0.210 C 
ATOM     15  C   LIG d   1       0.072  91.712 118.758  0.00  0.00     0.109 C 
ATOM     16  O   LIG d   1      -1.636  90.075 119.204  0.00  0.00    -0.276 OA
ATOM     17  H   LIG d   1      -1.686  92.424 117.091  0.00  0.00     0.149 HD
ENDBRANCH   6  13
BRANCH   5  18
ATOM     18  N   LIG d   1      -2.723  88.912 116.404  0.00  0.00     0.381 N 
ATOM     19  H   LIG d   1      -2.834  88.261 115.652  0.00  0.00    -0.090 HD
ATOM     20  H   LIG d   1      -3.136  88.514 117.229  0.00  0.00    -0.090 HD
ATOM     21  H   LIG d   1      -1.755  89.089 116.559  0.00  0.00    -0.090 HD
ENDBRANCH   5  18
BRANCH   3  22
ATOM     22  C   LIG d   1      -6.737  90.841 114.641  0.00  0.00     0.382 C 
ATOM     23  O   LIG d   1      -7.052  91.819 113.920  0.00  0.00    -0.241 OA
ATOM     24  O   LIG d   1      -7.410  89.795 114.584  0.00  0.00    -0.241 OA
ENDBRANCH   3  22
TORSDOF 7
ENDMDL
MODEL 3
REMARK VINA RESULT:      -4.9      2.256      4.332
REMARK  7 active torsions:
REMARK  status: ('A' for Active; 'I' for Inactive)
REMARK    1  A    between atoms: C_2  and  C_3 
REMARK    2  A    between atoms: C_3  and  O_6 
REMARK    3  A    between atoms: C_3  and  C_4 
REMARK    4  A    between atoms: C_7  and  O_6 
REMARK    5  A    between atoms: C_9  and  C_10 
REMARK    6  A    between atoms: N_15  and  C_14 
REMARK    7  A    between atoms: N_20  and  C_19 
REMARK       I    between atoms: C_22  and  N_20 
ROOT
ATOM      1  C   LIG d   1      -2.996  92.359 117.564  0.00  0.00     0.161 C 
ATOM      2  C   LIG d   1      -4.259  92.550 116.981  0.00  0.00     0.016 C 
ATOM      3  C   LIG d   1      -4.949  91.540 116.271  0.00  0.00     0.038 C 
ATOM      4  C   LIG d   1      -4.485  90.217 116.225  0.00  0.00     0.028 C 
ATOM      5  C   LIG d   1      -2.972  90.101 116.369  0.00  0.00    -0.047 C 
ATOM      6  C   LIG d   1      -2.524  90.890 117.620  0.00  0.00     0.091 C 
ENDROOT
BRANCH   1   7
ATOM      7  O   LIG d   1      -2.972  92.942 118.882  0.00  0.00    -0.368 OA
BRANCH   7   8
ATOM      8  C   LIG d   1      -2.004  94.000 119.094  0.00  0.00     0.119 C 
BRANCH   8   9
ATOM      9  C   LIG d   1      -2.745  95.180 119.751  0.00  0.00     0.028 C 
ATOM     10  C   LIG d   1      -4.260  94.937 119.856  0.00  0.00     0.006 C 
ENDBRANCH   8   9
BRANCH   8  11
ATOM     11  C   LIG d   1      -1.474  94.543 117.764  0.00  0.00     0.028 C 
ATOM     12  C   LIG d   1      -1.058  96.021 117.848  0.00  0.00     0.006 C 
ENDBRANCH   8  11
ENDBRANCH   7   8
ENDBRANCH   1   7
BRANCH   6  13
ATOM     13  N   LIG d   1      -1.047  90.898 117.787  0.00  0.00    -0.311 N 
ATOM     14  C   LIG d   1      -0.391  90.026 118.550  0.00  0.00     0.210 C 
ATOM     15  C   LIG d   1       1.127  90.223 118.599  0.00  0.00     0.109 C 
ATOM     16  O   LIG d   1      -0.919  89.087 119.165  0.00  0.00    -0.276 OA
ATOM     17  H   LIG d   1      -0.537  91.607 117.298  0.00  0.00     0.149 HD
ENDBRANCH   6  13
BRANCH   5  18
ATOM     18  N   LIG d   1      -2.640  88.665 116.442  0.00  0.00     0.381 N 
ATOM     19  H   LIG d   1      -3.461  88.119 116.273  0.00  0.00    -0.090 HD
ATOM     20  H   LIG d   1      -2.307  88.455 117.366  0.00  0.00    -0.090 HD
ATOM     21  H   LIG d   1      -1.940  88.442 115.770  0.00  0.00    -0.090 HD
ENDBRANCH   5  18
BRANCH   3  22
ATOM     22  C   LIG d   1      -6.098  91.861 115.563  0.00  0.00     0.382 C 
ATOM     23  O   LIG d   1      -7.224  91.556 116.025  0.00  0.00    -0.241 OA
ATOM     24  O   LIG d   1      -6.020  92.411 114.448  0.00  0.00    -0.241 OA
ENDBRANCH   3  22
TORSDOF 7
ENDMDL
MODEL 4
REMARK VINA RESULT:      -4.9      2.314      5.011
REMARK  7 active torsions:
REMARK  status: ('A' for Active; 'I' for Inactive)
REMARK    1  A    between atoms: C_2  and  C_3 
REMARK    2  A    between atoms: C_3  and  O_6 
REMARK    3  A    between atoms: C_3  and  C_4 
REMARK    4  A    between atoms: C_7  and  O_6 
REMARK    5  A    between atoms: C_9  and  C_10 
REMARK    6  A    between atoms: N_15  and  C_14 
REMARK    7  A    between atoms: N_20  and  C_19 
REMARK       I    between atoms: C_22  and  N_20 
ROOT
ATOM      1  C   LIG d   1      -5.005  90.701 117.329  0.00  0.00     0.161 C 
ATOM      2  C   LIG d   1      -5.770  91.589 118.105  0.00  0.00     0.016 C 
ATOM      3  C   LIG d   1      -5.302  92.855 118.526  0.00  0.00     0.038 C 
ATOM      4  C   LIG d   1      -4.087  93.386 118.069  0.00  0.00     0.028 C 
ATOM      5  C   LIG d   1      -3.062  92.320 117.695  0.00  0.00    -0.047 C 
ATOM      6  C   LIG d   1      -3.720  91.309 116.729  0.00  0.00     0.091 C 
ENDROOT
BRANCH   1   7
ATOM      7  O   LIG d   1      -5.824  90.132 116.289  0.00  0.00    -0.368 OA
BRANCH   7   8
ATOM      8  C   LIG d   1      -7.187  90.619 116.212  0.00  0.00     0.119 C 
BRANCH   8   9
ATOM      9  C   LIG d   1      -8.122  89.402 116.350  0.00  0.00     0.028 C 
ATOM     10  C   LIG d   1      -9.301  89.453 115.364  0.00  0.00     0.006 C 
ENDBRANCH   8   9
BRANCH   8  11
ATOM     11  C   LIG d   1      -7.490  91.209 114.831  0.00  0.00     0.028 C 
ATOM     12  C   LIG d   1      -6.352  92.092 114.297  0.00  0.00     0.006 C 
ENDBRANCH   8  11
ENDBRANCH   7   8
ENDBRANCH   1   7
BRANCH   6  13
ATOM     13  N   LIG d   1      -2.812  90.185 116.379  0.00  0.00    -0.311 N 
ATOM     14  C   LIG d   1      -2.543  89.176 117.205  0.00  0.00     0.210 C 
ATOM     15  C   LIG d   1      -1.565  88.133 116.655  0.00  0.00     0.109 C 
ATOM     16  O   LIG d   1      -3.046  89.029 118.329  0.00  0.00    -0.276 OA
ATOM     17  H   LIG d   1      -2.385  90.209 115.474  0.00  0.00     0.149 HD
ENDBRANCH   6  13
BRANCH   5  18
ATOM     18  N   LIG d   1      -1.898  93.008 117.107  0.00  0.00     0.381 N 
ATOM     19  H   LIG d   1      -2.035  93.998 117.143  0.00  0.00    -0.090 HD
ATOM     20  H   LIG d   1      -1.812  92.736 116.143  0.00  0.00    -0.090 HD
ATOM     21  H   LIG d   1      -1.070  92.762 117.604  0.00  0.00    -0.090 HD
ENDBRANCH   5  18
BRANCH   3  22
ATOM     22  C   LIG d   1      -6.037  93.588 119.446  0.00  0.00     0.382 C 
ATOM     23  O   LIG d   1      -7.268  93.380 119.573  0.00  0.00    -0.241 OA
ATOM     24  O   LIG d   1      -5.493  94.484 120.119  0.00  0.00    -0.241 OA
ENDBRANCH   3  22
TORSDOF 7
ENDMDL
MODEL 5
REMARK VINA RESULT:      -4.8     27.302     29.381
REMARK  7 active torsions:
REMARK  status: ('A' for Active; 'I' for Inactive)
REMARK    1  A    between atoms: C_2  and  C_3 
REMARK    2  A    between atoms: C_3  and  O_6 
REMARK    3  A    between atoms: C_3  and  C_4 
REMARK    4  A    between atoms: C_7  and  O_6 
REMARK    5  A    between atoms: C_9  and  C_10 
REMARK    6  A    between atoms: N_15  and  C_14 
REMARK    7  A    between atoms: N_20  and  C_19 
REMARK       I    between atoms: C_22  and  N_20 
ROOT
ATOM      1  C   LIG d   1     -16.114  64.737 116.583  0.00  0.00     0.161 C 
ATOM      2  C   LIG d   1     -16.053  66.069 116.139  0.00  0.00     0.016 C 
ATOM      3  C   LIG d   1     -15.423  67.104 116.868  0.00  0.00     0.038 C 
ATOM      4  C   LIG d   1     -14.675  66.846 118.026  0.00  0.00     0.028 C 
ATOM      5  C   LIG d   1     -15.133  65.601 118.779  0.00  0.00    -0.047 C 
ATOM      6  C   LIG d   1     -15.207  64.416 117.790  0.00  0.00     0.091 C 
ENDROOT
BRANCH   1   7
ATOM      7  O   LIG d   1     -15.827  63.844 115.489  0.00  0.00    -0.368 OA
BRANCH   7   8
ATOM      8  C   LIG d   1     -16.966  63.169 114.902  0.00  0.00     0.119 C 
BRANCH   8   9
ATOM      9  C   LIG d   1     -17.537  64.091 113.807  0.00  0.00     0.028 C 
ATOM     10  C   LIG d   1     -18.991  64.506 114.089  0.00  0.00     0.006 C 
ENDBRANCH   8   9
BRANCH   8  11
ATOM     11  C   LIG d   1     -18.098  62.999 115.919  0.00  0.00     0.028 C 
ATOM     12  C   LIG d   1     -18.292  61.538 116.357  0.00  0.00     0.006 C 
ENDBRANCH   8  11
ENDBRANCH   7   8
ENDBRANCH   1   7
BRANCH   6  13
ATOM     13  N   LIG d   1     -15.729  63.178 118.427  0.00  0.00    -0.311 N 
ATOM     14  C   LIG d   1     -15.072  62.019 118.423  0.00  0.00     0.210 C 
ATOM     15  C   LIG d   1     -15.797  60.863 119.119  0.00  0.00     0.109 C 
ATOM     16  O   LIG d   1     -13.944  61.847 117.937  0.00  0.00    -0.276 OA
ATOM     17  H   LIG d   1     -16.624  63.236 118.871  0.00  0.00     0.149 HD
ENDBRANCH   6  13
BRANCH   5  18
ATOM     18  N   LIG d   1     -14.183  65.374 119.884  0.00  0.00     0.381 N 
ATOM     19  H   LIG d   1     -13.253  65.305 119.523  0.00  0.00    -0.090 HD
ATOM     20  H   LIG d   1     -14.411  64.505 120.335  0.00  0.00    -0.090 HD
ATOM     21  H   LIG d   1     -14.238  66.121 120.540  0.00  0.00    -0.090 HD
ENDBRANCH   5  18
BRANCH   3  22
ATOM     22  C   LIG d   1     -15.572  68.421 116.460  0.00  0.00     0.382 C 
ATOM     23  O   LIG d   1     -16.240  69.221 117.158  0.00  0.00    -0.241 OA
ATOM     24  O   LIG d   1     -15.084  68.807 115.381  0.00  0.00    -0.241 OA
ENDBRANCH   3  22
TORSDOF 7
ENDMDL
MODEL 6
REMARK VINA RESULT:      -4.8      1.858      2.461
REMARK  7 active torsions:
REMARK  status: ('A' for Active; 'I' for Inactive)
REMARK    1  A    between atoms: C_2  and  C_3 
REMARK    2  A    between atoms: C_3  and  O_6 
REMARK    3  A    between atoms: C_3  and  C_4 
REMARK    4  A    between atoms: C_7  and  O_6 
REMARK    5  A    between atoms: C_9  and  C_10 
REMARK    6  A    between atoms: N_15  and  C_14 
REMARK    7  A    between atoms: N_20  and  C_19 
REMARK       I    between atoms: C_22  and  N_20 
ROOT
ATOM      1  C   LIG d   1      -2.126  90.185 117.199  0.00  0.00     0.161 C 
ATOM      2  C   LIG d   1      -3.233  89.743 116.454  0.00  0.00     0.016 C 
ATOM      3  C   LIG d   1      -4.382  90.534 116.224  0.00  0.00     0.038 C 
ATOM      4  C   LIG d   1      -4.439  91.885 116.598  0.00  0.00     0.028 C 
ATOM      5  C   LIG d   1      -3.551  92.221 117.792  0.00  0.00    -0.047 C 
ATOM      6  C   LIG d   1      -2.124  91.694 117.520  0.00  0.00     0.091 C 
ENDROOT
BRANCH   1   7
ATOM      7  O   LIG d   1      -0.906  89.813 116.527  0.00  0.00    -0.368 OA
BRANCH   7   8
ATOM      8  C   LIG d   1      -0.131  88.760 117.151  0.00  0.00     0.119 C 
BRANCH   8   9
ATOM      9  C   LIG d   1      -0.267  87.502 116.271  0.00  0.00     0.028 C 
ATOM     10  C   LIG d   1       0.487  86.294 116.852  0.00  0.00     0.006 C 
ENDBRANCH   8   9
BRANCH   8  11
ATOM     11  C   LIG d   1      -0.715  88.368 118.511  0.00  0.00     0.028 C 
ATOM     12  C   LIG d   1       0.221  88.706 119.682  0.00  0.00     0.006 C 
ENDBRANCH   8  11
ENDBRANCH   7   8
ENDBRANCH   1   7
BRANCH   6  13
ATOM     13  N   LIG d   1      -1.212  91.906 118.674  0.00  0.00    -0.311 N 
ATOM     14  C   LIG d   1       0.040  92.344 118.548  0.00  0.00     0.210 C 
ATOM     15  C   LIG d   1       0.814  92.474 119.864  0.00  0.00     0.109 C 
ATOM     16  O   LIG d   1       0.572  92.668 117.476  0.00  0.00    -0.276 OA
ATOM     17  H   LIG d   1      -1.572  91.698 119.585  0.00  0.00     0.149 HD
ENDBRANCH   6  13
BRANCH   5  18
ATOM     18  N   LIG d   1      -3.601  93.682 117.986  0.00  0.00     0.381 N 
ATOM     19  H   LIG d   1      -2.690  94.024 118.222  0.00  0.00    -0.090 HD
ATOM     20  H   LIG d   1      -4.222  93.888 118.749  0.00  0.00    -0.090 HD
ATOM     21  H   LIG d   1      -3.925  94.126 117.156  0.00  0.00    -0.090 HD
ENDBRANCH   5  18
BRANCH   3  22
ATOM     22  C   LIG d   1      -5.506  89.962 115.648  0.00  0.00     0.382 C 
ATOM     23  O   LIG d   1      -5.411  89.360 114.551  0.00  0.00    -0.241 OA
ATOM     24  O   LIG d   1      -6.622  90.079 116.188  0.00  0.00    -0.241 OA
ENDBRANCH   3  22
TORSDOF 7
ENDMDL
MODEL 7
REMARK VINA RESULT:      -4.7      3.468      4.866
REMARK  7 active torsions:
REMARK  status: ('A' for Active; 'I' for Inactive)
REMARK    1  A    between atoms: C_2  and  C_3 
REMARK    2  A    between atoms: C_3  and  O_6 
REMARK    3  A    between atoms: C_3  and  C_4 
REMARK    4  A    between atoms: C_7  and  O_6 
REMARK    5  A    between atoms: C_9  and  C_10 
REMARK    6  A    between atoms: N_15  and  C_14 
REMARK    7  A    between atoms: N_20  and  C_19 
REMARK       I    between atoms: C_22  and  N_20 
ROOT
ATOM      1  C   LIG d   1      -5.890  93.814 119.260  0.00  0.00     0.161 C 
ATOM      2  C   LIG d   1      -7.140  94.396 118.992  0.00  0.00     0.016 C 
ATOM      3  C   LIG d   1      -7.316  95.772 118.719  0.00  0.00     0.038 C 
ATOM      4  C   LIG d   1      -6.226  96.638 118.545  0.00  0.00     0.028 C 
ATOM      5  C   LIG d   1      -4.977  96.200 119.303  0.00  0.00    -0.047 C 
ATOM      6  C   LIG d   1      -4.678  94.722 118.965  0.00  0.00     0.091 C 
ENDROOT
BRANCH   1   7
ATOM      7  O   LIG d   1      -5.768  92.568 118.546  0.00  0.00    -0.368 OA
BRANCH   7   8
ATOM      8  C   LIG d   1      -5.388  92.667 117.151  0.00  0.00     0.119 C 
BRANCH   8   9
ATOM      9  C   LIG d   1      -6.479  91.962 116.323  0.00  0.00     0.028 C 
ATOM     10  C   LIG d   1      -6.217  92.051 114.810  0.00  0.00     0.006 C 
ENDBRANCH   8   9
BRANCH   8  11
ATOM     11  C   LIG d   1      -4.099  91.890 116.869  0.00  0.00     0.028 C 
ATOM     12  C   LIG d   1      -3.774  90.858 117.960  0.00  0.00     0.006 C 
ENDBRANCH   8  11
ENDBRANCH   7   8
ENDBRANCH   1   7
BRANCH   6  13
ATOM     13  N   LIG d   1      -3.520  94.189 119.729  0.00  0.00    -0.311 N 
ATOM     14  C   LIG d   1      -2.284  94.125 119.238  0.00  0.00     0.210 C 
ATOM     15  C   LIG d   1      -1.242  93.523 120.185  0.00  0.00     0.109 C 
ATOM     16  O   LIG d   1      -1.945  94.540 118.119  0.00  0.00    -0.276 OA
ATOM     17  H   LIG d   1      -3.699  93.860 120.658  0.00  0.00     0.149 HD
ENDBRANCH   6  13
BRANCH   5  18
ATOM     18  N   LIG d   1      -3.883  97.113 118.923  0.00  0.00     0.381 N 
ATOM     19  H   LIG d   1      -3.000  96.676 119.099  0.00  0.00    -0.090 HD
ATOM     20  H   LIG d   1      -3.941  97.943 119.487  0.00  0.00    -0.090 HD
ATOM     21  H   LIG d   1      -3.957  97.352 117.959  0.00  0.00    -0.090 HD
ENDBRANCH   5  18
BRANCH   3  22
ATOM     22  C   LIG d   1      -8.595  96.303 118.657  0.00  0.00     0.382 C 
ATOM     23  O   LIG d   1      -8.963  97.154 119.502  0.00  0.00    -0.241 OA
ATOM     24  O   LIG d   1      -9.401  95.909 117.793  0.00  0.00    -0.241 OA
ENDBRANCH   3  22
TORSDOF 7
ENDMDL
MODEL 8
REMARK VINA RESULT:      -4.6     27.287     29.316
REMARK  7 active torsions:
REMARK  status: ('A' for Active; 'I' for Inactive)
REMARK    1  A    between atoms: C_2  and  C_3 
REMARK    2  A    between atoms: C_3  and  O_6 
REMARK    3  A    between atoms: C_3  and  C_4 
REMARK    4  A    between atoms: C_7  and  O_6 
REMARK    5  A    between atoms: C_9  and  C_10 
REMARK    6  A    between atoms: N_15  and  C_14 
REMARK    7  A    between atoms: N_20  and  C_19 
REMARK       I    between atoms: C_22  and  N_20 
ROOT
ATOM      1  C   LIG d   1     -16.456  65.315 116.831  0.00  0.00     0.161 C 
ATOM      2  C   LIG d   1     -15.468  64.378 117.175  0.00  0.00     0.016 C 
ATOM      3  C   LIG d   1     -15.723  62.995 117.318  0.00  0.00     0.038 C 
ATOM      4  C   LIG d   1     -16.961  62.430 116.977  0.00  0.00     0.028 C 
ATOM      5  C   LIG d   1     -18.128  63.403 117.110  0.00  0.00    -0.047 C 
ATOM      6  C   LIG d   1     -17.787  64.703 116.346  0.00  0.00     0.091 C 
ENDROOT
BRANCH   1   7
ATOM      7  O   LIG d   1     -15.939  66.232 115.846  0.00  0.00    -0.368 OA
BRANCH   7   8
ATOM      8  C   LIG d   1     -15.254  67.400 116.360  0.00  0.00     0.119 C 
BRANCH   8   9
ATOM      9  C   LIG d   1     -16.281  68.224 117.161  0.00  0.00     0.028 C 
ATOM     10  C   LIG d   1     -16.056  68.127 118.679  0.00  0.00     0.006 C 
ENDBRANCH   8   9
BRANCH   8  11
ATOM     11  C   LIG d   1     -14.791  68.319 115.226  0.00  0.00     0.028 C 
ATOM     12  C   LIG d   1     -15.149  67.775 113.834  0.00  0.00     0.006 C 
ENDBRANCH   8  11
ENDBRANCH   7   8
ENDBRANCH   1   7
BRANCH   6  13
ATOM     13  N   LIG d   1     -18.841  65.740 116.496  0.00  0.00    -0.311 N 
ATOM     14  C   LIG d   1     -19.260  66.195 117.676  0.00  0.00     0.210 C 
ATOM     15  C   LIG d   1     -20.368  67.250 117.605  0.00  0.00     0.109 C 
ATOM     16  O   LIG d   1     -18.796  65.849 118.772  0.00  0.00    -0.276 OA
ATOM     17  H   LIG d   1     -19.250  66.100 115.656  0.00  0.00     0.149 HD
ENDBRANCH   6  13
BRANCH   5  18
ATOM     18  N   LIG d   1     -19.333  62.727 116.593  0.00  0.00     0.381 N 
ATOM     19  H   LIG d   1     -19.998  63.408 116.287  0.00  0.00    -0.090 HD
ATOM     20  H   LIG d   1     -19.749  62.191 117.335  0.00  0.00    -0.090 HD
ATOM     21  H   LIG d   1     -19.089  62.126 115.837  0.00  0.00    -0.090 HD
ENDBRANCH   5  18
BRANCH   3  22
ATOM     22  C   LIG d   1     -14.744  62.167 117.846  0.00  0.00     0.382 C 
ATOM     23  O   LIG d   1     -13.532  62.460 117.706  0.00  0.00    -0.241 OA
ATOM     24  O   LIG d   1     -15.056  61.107 118.421  0.00  0.00    -0.241 OA
ENDBRANCH   3  22
TORSDOF 7
ENDMDL
MODEL 9
REMARK VINA RESULT:      -4.5      2.840      4.334
REMARK  7 active torsions:
REMARK  status: ('A' for Active; 'I' for Inactive)
REMARK    1  A    between atoms: C_2  and  C_3 
REMARK    2  A    between atoms: C_3  and  O_6 
REMARK    3  A    between atoms: C_3  and  C_4 
REMARK    4  A    between atoms: C_7  and  O_6 
REMARK    5  A    between atoms: C_9  and  C_10 
REMARK    6  A    between atoms: N_15  and  C_14 
REMARK    7  A    between atoms: N_20  and  C_19 
REMARK       I    between atoms: C_22  and  N_20 
ROOT
ATOM      1  C   LIG d   1      -4.847  93.028 118.066  0.00  0.00     0.161 C 
ATOM      2  C   LIG d   1      -6.041  93.768 118.040  0.00  0.00     0.016 C 
ATOM      3  C   LIG d   1      -6.214  94.990 118.731  0.00  0.00     0.038 C 
ATOM      4  C   LIG d   1      -5.148  95.633 119.377  0.00  0.00     0.028 C 
ATOM      5  C   LIG d   1      -4.061  94.676 119.853  0.00  0.00    -0.047 C 
ATOM      6  C   LIG d   1      -3.639  93.770 118.674  0.00  0.00     0.091 C 
ENDROOT
BRANCH   1   7
ATOM      7  O   LIG d   1      -4.533  92.561 116.739  0.00  0.00    -0.368 OA
BRANCH   7   8
ATOM      8  C   LIG d   1      -5.142  91.308 116.343  0.00  0.00     0.119 C 
BRANCH   8   9
ATOM      9  C   LIG d   1      -4.004  90.332 115.988  0.00  0.00     0.028 C 
ATOM     10  C   LIG d   1      -3.351  89.713 117.235  0.00  0.00     0.006 C 
ENDBRANCH   8   9
BRANCH   8  11
ATOM     11  C   LIG d   1      -5.957  91.466 115.056  0.00  0.00     0.028 C 
ATOM     12  C   LIG d   1      -6.878  90.267 114.782  0.00  0.00     0.006 C 
ENDBRANCH   8  11
ENDBRANCH   7   8
ENDBRANCH   1   7
BRANCH   6  13
ATOM     13  N   LIG d   1      -2.638  92.746 119.075  0.00  0.00    -0.311 N 
ATOM     14  C   LIG d   1      -1.423  92.659 118.537  0.00  0.00     0.210 C 
ATOM     15  C   LIG d   1      -0.556  91.519 119.080  0.00  0.00     0.109 C 
ATOM     16  O   LIG d   1      -0.970  93.436 117.684  0.00  0.00    -0.276 OA
ATOM     17  H   LIG d   1      -2.912  92.094 119.783  0.00  0.00     0.149 HD
ENDBRANCH   6  13
BRANCH   5  18
ATOM     18  N   LIG d   1      -2.950  95.490 120.382  0.00  0.00     0.381 N 
ATOM     19  H   LIG d   1      -3.305  96.168 121.027  0.00  0.00    -0.090 HD
ATOM     20  H   LIG d   1      -2.513  95.978 119.621  0.00  0.00    -0.090 HD
ATOM     21  H   LIG d   1      -2.285  94.904 120.837  0.00  0.00    -0.090 HD
ENDBRANCH   5  18
BRANCH   3  22
ATOM     22  C   LIG d   1      -7.475  95.560 118.814  0.00  0.00     0.382 C 
ATOM     23  O   LIG d   1      -8.266  95.476 117.844  0.00  0.00    -0.241 OA
ATOM     24  O   LIG d   1      -7.816  96.195 119.830  0.00  0.00    -0.241 OA
ENDBRANCH   3  22
TORSDOF 7
ENDMDL
