MODEL 1
REMARK VINA RESULT:      -5.6      0.000      0.000
REMARK  7 active torsions:
REMARK  status: ('A' for Active; 'I' for Inactive)
REMARK    1  A    between atoms: C_2  and  C_3 
REMARK    2  A    between atoms: C_3  and  O_6 
REMARK    3  A    between atoms: C_3  and  C_4 
REMARK    4  A    between atoms: C_7  and  O_6 
REMARK    5  A    between atoms: C_9  and  C_10 
REMARK    6  A    between atoms: N_15  and  C_14 
REMARK    7  A    between atoms: N_20  and  C_19 
REMARK       I    between atoms: C_22  and  N_20 
ROOT
ATOM      1  C   LIG d   1      -6.843  75.923 117.253  0.00  0.00     0.161 C 
ATOM      2  C   LIG d   1      -8.030  76.477 117.760  0.00  0.00     0.016 C 
ATOM      3  C   LIG d   1      -8.205  77.860 117.994  0.00  0.00     0.038 C 
ATOM      4  C   LIG d   1      -7.251  78.807 117.591  0.00  0.00     0.028 C 
ATOM      5  C   LIG d   1      -5.832  78.252 117.539  0.00  0.00    -0.047 C 
ATOM      6  C   LIG d   1      -5.832  76.952 116.704  0.00  0.00     0.091 C 
ENDROOT
BRANCH   1   7
ATOM      7  O   LIG d   1      -7.154  74.940 116.246  0.00  0.00    -0.368 OA
BRANCH   7   8
ATOM      8  C   LIG d   1      -7.227  73.565 116.698  0.00  0.00     0.119 C 
BRANCH   8   9
ATOM      9  C   LIG d   1      -6.198  72.755 115.886  0.00  0.00     0.028 C 
ATOM     10  C   LIG d   1      -5.653  73.540 114.680  0.00  0.00     0.006 C 
ENDBRANCH   8   9
BRANCH   8  11
ATOM     11  C   LIG d   1      -8.586  72.942 116.368  0.00  0.00     0.028 C 
ATOM     12  C   LIG d   1      -8.494  71.438 116.064  0.00  0.00     0.006 C 
ENDBRANCH   8  11
ENDBRANCH   7   8
ENDBRANCH   1   7
BRANCH   6  13
ATOM     13  N   LIG d   1      -4.497  76.298 116.672  0.00  0.00    -0.311 N 
ATOM     14  C   LIG d   1      -3.615  76.480 115.691  0.00  0.00     0.210 C 
ATOM     15  C   LIG d   1      -2.308  75.696 115.844  0.00  0.00     0.109 C 
ATOM     16  O   LIG d   1      -3.777  77.242 114.726  0.00  0.00    -0.276 OA
ATOM     17  H   LIG d   1      -4.270  75.688 117.432  0.00  0.00     0.149 HD
ENDBRANCH   6  13
BRANCH   5  18
ATOM     18  N   LIG d   1      -4.963  79.302 116.974  0.00  0.00     0.381 N 
ATOM     19  H   LIG d   1      -5.457  79.804 116.263  0.00  0.00    -0.090 HD
ATOM     20  H   LIG d   1      -4.160  78.869 116.553  0.00  0.00    -0.090 HD
ATOM     21  H   LIG d   1      -4.674  79.928 117.692  0.00  0.00    -0.090 HD
ENDBRANCH   5  18
BRANCH   3  22
ATOM     22  C   LIG d   1      -9.329  78.306 118.673  0.00  0.00     0.382 C 
ATOM     23  O   LIG d   1      -9.577  77.873 119.825  0.00  0.00    -0.241 OA
ATOM     24  O   LIG d   1     -10.121  79.100 118.132  0.00  0.00    -0.241 OA
ENDBRANCH   3  22
TORSDOF 7
ENDMDL
MODEL 2
REMARK VINA RESULT:      -5.6      1.993      5.152
REMARK  7 active torsions:
REMARK  status: ('A' for Active; 'I' for Inactive)
REMARK    1  A    between atoms: C_2  and  C_3 
REMARK    2  A    between atoms: C_3  and  O_6 
REMARK    3  A    between atoms: C_3  and  C_4 
REMARK    4  A    between atoms: C_7  and  O_6 
REMARK    5  A    between atoms: C_9  and  C_10 
REMARK    6  A    between atoms: N_15  and  C_14 
REMARK    7  A    between atoms: N_20  and  C_19 
REMARK       I    between atoms: C_22  and  N_20 
ROOT
ATOM      1  C   LIG d   1      -6.714  75.403 116.803  0.00  0.00     0.161 C 
ATOM      2  C   LIG d   1      -7.596  74.318 116.666  0.00  0.00     0.016 C 
ATOM      3  C   LIG d   1      -7.167  72.986 116.464  0.00  0.00     0.038 C 
ATOM      4  C   LIG d   1      -5.813  72.625 116.537  0.00  0.00     0.028 C 
ATOM      5  C   LIG d   1      -4.863  73.759 116.169  0.00  0.00    -0.047 C 
ATOM      6  C   LIG d   1      -5.234  75.012 116.995  0.00  0.00     0.091 C 
ENDROOT
BRANCH   1   7
ATOM      7  O   LIG d   1      -7.151  76.256 117.879  0.00  0.00    -0.368 OA
BRANCH   7   8
ATOM      8  C   LIG d   1      -7.626  77.571 117.498  0.00  0.00     0.119 C 
BRANCH   8   9
ATOM      9  C   LIG d   1      -6.813  78.606 118.298  0.00  0.00     0.028 C 
ATOM     10  C   LIG d   1      -5.871  79.430 117.405  0.00  0.00     0.006 C 
ENDBRANCH   8   9
BRANCH   8  11
ATOM     11  C   LIG d   1      -9.082  77.782 117.923  0.00  0.00     0.028 C 
ATOM     12  C   LIG d   1      -9.401  79.250 118.247  0.00  0.00     0.006 C 
ENDBRANCH   8  11
ENDBRANCH   7   8
ENDBRANCH   1   7
BRANCH   6  13
ATOM     13  N   LIG d   1      -4.406  76.193 116.636  0.00  0.00    -0.311 N 
ATOM     14  C   LIG d   1      -3.289  76.528 117.279  0.00  0.00     0.210 C 
ATOM     15  C   LIG d   1      -2.600  77.794 116.760  0.00  0.00     0.109 C 
ATOM     16  O   LIG d   1      -2.786  75.880 118.209  0.00  0.00    -0.276 OA
ATOM     17  H   LIG d   1      -4.724  76.758 115.873  0.00  0.00     0.149 HD
ENDBRANCH   6  13
BRANCH   5  18
ATOM     18  N   LIG d   1      -3.488  73.288 116.420  0.00  0.00     0.381 N 
ATOM     19  H   LIG d   1      -2.855  73.738 115.790  0.00  0.00    -0.090 HD
ATOM     20  H   LIG d   1      -3.448  72.298 116.252  0.00  0.00    -0.090 HD
ATOM     21  H   LIG d   1      -3.227  73.483 117.361  0.00  0.00    -0.090 HD
ENDBRANCH   5  18
BRANCH   3  22
ATOM     22  C   LIG d   1      -8.095  72.006 116.147  0.00  0.00     0.382 C 
ATOM     23  O   LIG d   1      -9.310  72.189 116.397  0.00  0.00    -0.241 OA
ATOM     24  O   LIG d   1      -7.726  70.923 115.655  0.00  0.00    -0.241 OA
ENDBRANCH   3  22
TORSDOF 7
ENDMDL
MODEL 3
REMARK VINA RESULT:      -5.4      2.989      5.137
REMARK  7 active torsions:
REMARK  status: ('A' for Active; 'I' for Inactive)
REMARK    1  A    between atoms: C_2  and  C_3 
REMARK    2  A    between atoms: C_3  and  O_6 
REMARK    3  A    between atoms: C_3  and  C_4 
REMARK    4  A    between atoms: C_7  and  O_6 
REMARK    5  A    between atoms: C_9  and  C_10 
REMARK    6  A    between atoms: N_15  and  C_14 
REMARK    7  A    between atoms: N_20  and  C_19 
REMARK       I    between atoms: C_22  and  N_20 
ROOT
ATOM      1  C   LIG d   1      -4.690  74.159 116.589  0.00  0.00     0.161 C 
ATOM      2  C   LIG d   1      -5.438  72.992 116.366  0.00  0.00     0.016 C 
ATOM      3  C   LIG d   1      -6.851  72.963 116.356  0.00  0.00     0.038 C 
ATOM      4  C   LIG d   1      -7.617  74.137 116.421  0.00  0.00     0.028 C 
ATOM      5  C   LIG d   1      -6.918  75.277 117.152  0.00  0.00    -0.047 C 
ATOM      6  C   LIG d   1      -5.506  75.468 116.551  0.00  0.00     0.091 C 
ENDROOT
BRANCH   1   7
ATOM      7  O   LIG d   1      -3.595  74.224 115.655  0.00  0.00    -0.368 OA
BRANCH   7   8
ATOM      8  C   LIG d   1      -2.334  73.675 116.111  0.00  0.00     0.119 C 
BRANCH   8   9
ATOM      9  C   LIG d   1      -2.056  74.255 117.511  0.00  0.00     0.028 C 
ATOM     10  C   LIG d   1      -1.082  75.444 117.472  0.00  0.00     0.006 C 
ENDBRANCH   8   9
BRANCH   8  11
ATOM     11  C   LIG d   1      -1.170  74.152 115.237  0.00  0.00     0.028 C 
ATOM     12  C   LIG d   1      -0.382  72.991 114.610  0.00  0.00     0.006 C 
ENDBRANCH   8  11
ENDBRANCH   7   8
ENDBRANCH   1   7
BRANCH   6  13
ATOM     13  N   LIG d   1      -4.722  76.509 117.265  0.00  0.00    -0.311 N 
ATOM     14  C   LIG d   1      -4.111  77.519 116.648  0.00  0.00     0.210 C 
ATOM     15  C   LIG d   1      -3.340  78.468 117.570  0.00  0.00     0.109 C 
ATOM     16  O   LIG d   1      -4.162  77.737 115.428  0.00  0.00    -0.276 OA
ATOM     17  H   LIG d   1      -4.655  76.426 118.261  0.00  0.00     0.149 HD
ENDBRANCH   6  13
BRANCH   5  18
ATOM     18  N   LIG d   1      -7.767  76.476 117.025  0.00  0.00     0.381 N 
ATOM     19  H   LIG d   1      -7.890  76.703 116.058  0.00  0.00    -0.090 HD
ATOM     20  H   LIG d   1      -7.309  77.249 117.475  0.00  0.00    -0.090 HD
ATOM     21  H   LIG d   1      -8.653  76.313 117.450  0.00  0.00    -0.090 HD
ENDBRANCH   5  18
BRANCH   3  22
ATOM     22  C   LIG d   1      -7.514  71.745 116.322  0.00  0.00     0.382 C 
ATOM     23  O   LIG d   1      -6.874  70.679 116.485  0.00  0.00    -0.241 OA
ATOM     24  O   LIG d   1      -8.736  71.698 116.085  0.00  0.00    -0.241 OA
ENDBRANCH   3  22
TORSDOF 7
ENDMDL
MODEL 4
REMARK VINA RESULT:      -5.4     14.009     16.369
REMARK  7 active torsions:
REMARK  status: ('A' for Active; 'I' for Inactive)
REMARK    1  A    between atoms: C_2  and  C_3 
REMARK    2  A    between atoms: C_3  and  O_6 
REMARK    3  A    between atoms: C_3  and  C_4 
REMARK    4  A    between atoms: C_7  and  O_6 
REMARK    5  A    between atoms: C_9  and  C_10 
REMARK    6  A    between atoms: N_15  and  C_14 
REMARK    7  A    between atoms: N_20  and  C_19 
REMARK       I    between atoms: C_22  and  N_20 
ROOT
ATOM      1  C   LIG d   1      -3.408  91.210 117.285  0.00  0.00     0.161 C 
ATOM      2  C   LIG d   1      -4.003  90.423 116.284  0.00  0.00     0.016 C 
ATOM      3  C   LIG d   1      -5.265  90.711 115.716  0.00  0.00     0.038 C 
ATOM      4  C   LIG d   1      -5.955  91.898 116.005  0.00  0.00     0.028 C 
ATOM      5  C   LIG d   1      -5.630  92.468 117.381  0.00  0.00    -0.047 C 
ATOM      6  C   LIG d   1      -4.094  92.569 117.533  0.00  0.00     0.091 C 
ENDROOT
BRANCH   1   7
ATOM      7  O   LIG d   1      -2.010  91.401 116.989  0.00  0.00    -0.368 OA
BRANCH   7   8
ATOM      8  C   LIG d   1      -1.076  90.692 117.839  0.00  0.00     0.119 C 
BRANCH   8   9
ATOM      9  C   LIG d   1      -0.004  91.701 118.293  0.00  0.00     0.028 C 
ATOM     10  C   LIG d   1       0.574  92.511 117.120  0.00  0.00     0.006 C 
ENDBRANCH   8   9
BRANCH   8  11
ATOM     11  C   LIG d   1      -0.315  89.617 117.056  0.00  0.00     0.028 C 
ATOM     12  C   LIG d   1      -0.957  88.226 117.176  0.00  0.00     0.006 C 
ENDBRANCH   8  11
ENDBRANCH   7   8
ENDBRANCH   1   7
BRANCH   6  13
ATOM     13  N   LIG d   1      -3.688  93.039 118.883  0.00  0.00    -0.311 N 
ATOM     14  C   LIG d   1      -2.797  94.009 119.084  0.00  0.00     0.210 C 
ATOM     15  C   LIG d   1      -2.507  94.325 120.554  0.00  0.00     0.109 C 
ATOM     16  O   LIG d   1      -2.245  94.660 118.184  0.00  0.00    -0.276 OA
ATOM     17  H   LIG d   1      -4.111  92.587 119.670  0.00  0.00     0.149 HD
ENDBRANCH   6  13
BRANCH   5  18
ATOM     18  N   LIG d   1      -6.309  93.773 117.495  0.00  0.00     0.381 N 
ATOM     19  H   LIG d   1      -6.225  94.118 118.431  0.00  0.00    -0.090 HD
ATOM     20  H   LIG d   1      -7.285  93.650 117.290  0.00  0.00    -0.090 HD
ATOM     21  H   LIG d   1      -5.907  94.423 116.857  0.00  0.00    -0.090 HD
ENDBRANCH   5  18
BRANCH   3  22
ATOM     22  C   LIG d   1      -5.869  89.786 114.878  0.00  0.00     0.382 C 
ATOM     23  O   LIG d   1      -7.110  89.818 114.699  0.00  0.00    -0.241 OA
ATOM     24  O   LIG d   1      -5.193  88.892 114.333  0.00  0.00    -0.241 OA
ENDBRANCH   3  22
TORSDOF 7
ENDMDL
MODEL 5
REMARK VINA RESULT:      -5.3      1.233      1.850
REMARK  7 active torsions:
REMARK  status: ('A' for Active; 'I' for Inactive)
REMARK    1  A    between atoms: C_2  and  C_3 
REMARK    2  A    between atoms: C_3  and  O_6 
REMARK    3  A    between atoms: C_3  and  C_4 
REMARK    4  A    between atoms: C_7  and  O_6 
REMARK    5  A    between atoms: C_9  and  C_10 
REMARK    6  A    between atoms: N_15  and  C_14 
REMARK    7  A    between atoms: N_20  and  C_19 
REMARK       I    between atoms: C_22  and  N_20 
ROOT
ATOM      1  C   LIG d   1      -5.752  75.502 118.011  0.00  0.00     0.161 C 
ATOM      2  C   LIG d   1      -7.043  76.004 118.248  0.00  0.00     0.016 C 
ATOM      3  C   LIG d   1      -7.409  77.350 118.018  0.00  0.00     0.038 C 
ATOM      4  C   LIG d   1      -6.543  78.257 117.389  0.00  0.00     0.028 C 
ATOM      5  C   LIG d   1      -5.068  77.929 117.596  0.00  0.00    -0.047 C 
ATOM      6  C   LIG d   1      -4.826  76.450 117.220  0.00  0.00     0.091 C 
ENDROOT
BRANCH   1   7
ATOM      7  O   LIG d   1      -5.838  74.222 117.354  0.00  0.00    -0.368 OA
BRANCH   7   8
ATOM      8  C   LIG d   1      -6.821  74.114 116.295  0.00  0.00     0.119 C 
BRANCH   8   9
ATOM      9  C   LIG d   1      -7.552  72.770 116.478  0.00  0.00     0.028 C 
ATOM     10  C   LIG d   1      -6.937  71.646 115.627  0.00  0.00     0.006 C 
ENDBRANCH   8   9
BRANCH   8  11
ATOM     11  C   LIG d   1      -6.151  74.027 114.920  0.00  0.00     0.028 C 
ATOM     12  C   LIG d   1      -6.157  75.368 114.169  0.00  0.00     0.006 C 
ENDBRANCH   8  11
ENDBRANCH   7   8
ENDBRANCH   1   7
BRANCH   6  13
ATOM     13  N   LIG d   1      -3.425  76.023 117.474  0.00  0.00    -0.311 N 
ATOM     14  C   LIG d   1      -2.623  75.539 116.527  0.00  0.00     0.210 C 
ATOM     15  C   LIG d   1      -1.223  75.141 117.006  0.00  0.00     0.109 C 
ATOM     16  O   LIG d   1      -2.927  75.433 115.329  0.00  0.00    -0.276 OA
ATOM     17  H   LIG d   1      -3.086  76.105 118.412  0.00  0.00     0.149 HD
ENDBRANCH   6  13
BRANCH   5  18
ATOM     18  N   LIG d   1      -4.283  78.871 116.776  0.00  0.00     0.381 N 
ATOM     19  H   LIG d   1      -3.908  78.394 115.980  0.00  0.00    -0.090 HD
ATOM     20  H   LIG d   1      -3.518  79.220 117.325  0.00  0.00    -0.090 HD
ATOM     21  H   LIG d   1      -4.860  79.626 116.478  0.00  0.00    -0.090 HD
ENDBRANCH   5  18
BRANCH   3  22
ATOM     22  C   LIG d   1      -8.641  77.811 118.456  0.00  0.00     0.382 C 
ATOM     23  O   LIG d   1      -8.915  77.802 119.681  0.00  0.00    -0.241 OA
ATOM     24  O   LIG d   1      -9.499  78.195 117.639  0.00  0.00    -0.241 OA
ENDBRANCH   3  22
TORSDOF 7
ENDMDL
MODEL 6
REMARK VINA RESULT:      -5.3      2.747      5.856
REMARK  7 active torsions:
REMARK  status: ('A' for Active; 'I' for Inactive)
REMARK    1  A    between atoms: C_2  and  C_3 
REMARK    2  A    between atoms: C_3  and  O_6 
REMARK    3  A    between atoms: C_3  and  C_4 
REMARK    4  A    between atoms: C_7  and  O_6 
REMARK    5  A    between atoms: C_9  and  C_10 
REMARK    6  A    between atoms: N_15  and  C_14 
REMARK    7  A    between atoms: N_20  and  C_19 
REMARK       I    between atoms: C_22  and  N_20 
ROOT
ATOM      1  C   LIG d   1      -4.497  74.530 116.857  0.00  0.00     0.161 C 
ATOM      2  C   LIG d   1      -3.453  73.712 116.394  0.00  0.00     0.016 C 
ATOM      3  C   LIG d   1      -2.108  73.858 116.805  0.00  0.00     0.038 C 
ATOM      4  C   LIG d   1      -1.738  74.742 117.830  0.00  0.00     0.028 C 
ATOM      5  C   LIG d   1      -2.675  75.938 117.966  0.00  0.00    -0.047 C 
ATOM      6  C   LIG d   1      -4.131  75.427 118.059  0.00  0.00     0.091 C 
ENDROOT
BRANCH   1   7
ATOM      7  O   LIG d   1      -5.650  73.723 117.167  0.00  0.00    -0.368 OA
BRANCH   7   8
ATOM      8  C   LIG d   1      -6.725  73.748 116.196  0.00  0.00     0.119 C 
BRANCH   8   9
ATOM      9  C   LIG d   1      -6.924  72.307 115.688  0.00  0.00     0.028 C 
ATOM     10  C   LIG d   1      -8.281  71.718 116.109  0.00  0.00     0.006 C 
ENDBRANCH   8   9
BRANCH   8  11
ATOM     11  C   LIG d   1      -6.339  74.564 114.958  0.00  0.00     0.028 C 
ATOM     12  C   LIG d   1      -6.890  75.999 114.995  0.00  0.00     0.006 C 
ENDBRANCH   8  11
ENDBRANCH   7   8
ENDBRANCH   1   7
BRANCH   6  13
ATOM     13  N   LIG d   1      -5.119  76.536 118.109  0.00  0.00    -0.311 N 
ATOM     14  C   LIG d   1      -6.136  76.573 118.968  0.00  0.00     0.210 C 
ATOM     15  C   LIG d   1      -7.048  77.797 118.838  0.00  0.00     0.109 C 
ATOM     16  O   LIG d   1      -6.351  75.725 119.847  0.00  0.00    -0.276 OA
ATOM     17  H   LIG d   1      -5.001  77.282 117.452  0.00  0.00     0.149 HD
ENDBRANCH   6  13
BRANCH   5  18
ATOM     18  N   LIG d   1      -2.253  76.701 119.156  0.00  0.00     0.381 N 
ATOM     19  H   LIG d   1      -1.774  76.097 119.793  0.00  0.00    -0.090 HD
ATOM     20  H   LIG d   1      -3.070  77.061 119.617  0.00  0.00    -0.090 HD
ATOM     21  H   LIG d   1      -1.657  77.452 118.886  0.00  0.00    -0.090 HD
ENDBRANCH   5  18
BRANCH   3  22
ATOM     22  C   LIG d   1      -1.111  73.143 116.160  0.00  0.00     0.382 C 
ATOM     23  O   LIG d   1      -1.120  73.041 114.910  0.00  0.00    -0.241 OA
ATOM     24  O   LIG d   1      -0.226  72.560 116.816  0.00  0.00    -0.241 OA
ENDBRANCH   3  22
TORSDOF 7
ENDMDL
MODEL 7
REMARK VINA RESULT:      -5.2      2.528      5.561
REMARK  7 active torsions:
REMARK  status: ('A' for Active; 'I' for Inactive)
REMARK    1  A    between atoms: C_2  and  C_3 
REMARK    2  A    between atoms: C_3  and  O_6 
REMARK    3  A    between atoms: C_3  and  C_4 
REMARK    4  A    between atoms: C_7  and  O_6 
REMARK    5  A    between atoms: C_9  and  C_10 
REMARK    6  A    between atoms: N_15  and  C_14 
REMARK    7  A    between atoms: N_20  and  C_19 
REMARK       I    between atoms: C_22  and  N_20 
ROOT
ATOM      1  C   LIG d   1      -4.369  75.035 116.384  0.00  0.00     0.161 C 
ATOM      2  C   LIG d   1      -3.437  74.015 116.127  0.00  0.00     0.016 C 
ATOM      3  C   LIG d   1      -2.042  74.178 116.289  0.00  0.00     0.038 C 
ATOM      4  C   LIG d   1      -1.492  75.332 116.866  0.00  0.00     0.028 C 
ATOM      5  C   LIG d   1      -2.351  76.576 116.669  0.00  0.00    -0.047 C 
ATOM      6  C   LIG d   1      -3.797  76.264 117.120  0.00  0.00     0.091 C 
ENDROOT
BRANCH   1   7
ATOM      7  O   LIG d   1      -5.494  74.497 117.106  0.00  0.00    -0.368 OA
BRANCH   7   8
ATOM      8  C   LIG d   1      -6.541  73.899 116.302  0.00  0.00     0.119 C 
BRANCH   8   9
ATOM      9  C   LIG d   1      -7.881  74.505 116.762  0.00  0.00     0.028 C 
ATOM     10  C   LIG d   1      -7.975  76.012 116.472  0.00  0.00     0.006 C 
ENDBRANCH   8   9
BRANCH   8  11
ATOM     11  C   LIG d   1      -6.661  72.396 116.571  0.00  0.00     0.028 C 
ATOM     12  C   LIG d   1      -8.013  71.817 116.125  0.00  0.00     0.006 C 
ENDBRANCH   8  11
ENDBRANCH   7   8
ENDBRANCH   1   7
BRANCH   6  13
ATOM     13  N   LIG d   1      -4.723  77.402 116.882  0.00  0.00    -0.311 N 
ATOM     14  C   LIG d   1      -5.284  78.108 117.863  0.00  0.00     0.210 C 
ATOM     15  C   LIG d   1      -6.223  79.226 117.399  0.00  0.00     0.109 C 
ATOM     16  O   LIG d   1      -5.067  77.935 119.072  0.00  0.00    -0.276 OA
ATOM     17  H   LIG d   1      -4.929  77.631 115.930  0.00  0.00     0.149 HD
ENDBRANCH   6  13
BRANCH   5  18
ATOM     18  N   LIG d   1      -1.731  77.673 117.437  0.00  0.00     0.381 N 
ATOM     19  H   LIG d   1      -1.948  77.572 118.408  0.00  0.00    -0.090 HD
ATOM     20  H   LIG d   1      -2.109  78.547 117.118  0.00  0.00    -0.090 HD
ATOM     21  H   LIG d   1      -0.743  77.663 117.307  0.00  0.00    -0.090 HD
ENDBRANCH   5  18
BRANCH   3  22
ATOM     22  C   LIG d   1      -1.178  73.194 115.833  0.00  0.00     0.382 C 
ATOM     23  O   LIG d   1      -0.439  72.584 116.643  0.00  0.00    -0.241 OA
ATOM     24  O   LIG d   1      -1.096  72.939 114.616  0.00  0.00    -0.241 OA
ENDBRANCH   3  22
TORSDOF 7
ENDMDL
MODEL 8
REMARK VINA RESULT:      -4.7      2.691      6.078
REMARK  7 active torsions:
REMARK  status: ('A' for Active; 'I' for Inactive)
REMARK    1  A    between atoms: C_2  and  C_3 
REMARK    2  A    between atoms: C_3  and  O_6 
REMARK    3  A    between atoms: C_3  and  C_4 
REMARK    4  A    between atoms: C_7  and  O_6 
REMARK    5  A    between atoms: C_9  and  C_10 
REMARK    6  A    between atoms: N_15  and  C_14 
REMARK    7  A    between atoms: N_20  and  C_19 
REMARK       I    between atoms: C_22  and  N_20 
ROOT
ATOM      1  C   LIG d   1      -3.983  75.884 117.382  0.00  0.00     0.161 C 
ATOM      2  C   LIG d   1      -2.917  76.648 117.886  0.00  0.00     0.016 C 
ATOM      3  C   LIG d   1      -1.561  76.273 117.753  0.00  0.00     0.038 C 
ATOM      4  C   LIG d   1      -1.167  75.177 116.971  0.00  0.00     0.028 C 
ATOM      5  C   LIG d   1      -2.235  74.094 116.866  0.00  0.00    -0.047 C 
ATOM      6  C   LIG d   1      -3.568  74.743 116.429  0.00  0.00     0.091 C 
ENDROOT
BRANCH   1   7
ATOM      7  O   LIG d   1      -4.943  76.747 116.741  0.00  0.00    -0.368 OA
BRANCH   7   8
ATOM      8  C   LIG d   1      -6.046  77.198 117.565  0.00  0.00     0.119 C 
BRANCH   8   9
ATOM      9  C   LIG d   1      -7.276  76.346 117.198  0.00  0.00     0.028 C 
ATOM     10  C   LIG d   1      -8.601  77.065 117.505  0.00  0.00     0.006 C 
ENDBRANCH   8   9
BRANCH   8  11
ATOM     11  C   LIG d   1      -6.438  78.640 117.233  0.00  0.00     0.028 C 
ATOM     12  C   LIG d   1      -5.254  79.616 117.329  0.00  0.00     0.006 C 
ENDBRANCH   8  11
ENDBRANCH   7   8
ENDBRANCH   1   7
BRANCH   6  13
ATOM     13  N   LIG d   1      -4.687  73.766 116.383  0.00  0.00    -0.311 N 
ATOM     14  C   LIG d   1      -5.501  73.632 115.338  0.00  0.00     0.210 C 
ATOM     15  C   LIG d   1      -6.601  72.579 115.506  0.00  0.00     0.109 C 
ATOM     16  O   LIG d   1      -5.396  74.263 114.275  0.00  0.00    -0.276 OA
ATOM     17  H   LIG d   1      -4.824  73.192 117.192  0.00  0.00     0.149 HD
ENDBRANCH   6  13
BRANCH   5  18
ATOM     18  N   LIG d   1      -1.747  73.078 115.913  0.00  0.00     0.381 N 
ATOM     19  H   LIG d   1      -1.831  72.167 116.316  0.00  0.00    -0.090 HD
ATOM     20  H   LIG d   1      -0.776  73.251 115.723  0.00  0.00    -0.090 HD
ATOM     21  H   LIG d   1      -2.272  73.125 115.067  0.00  0.00    -0.090 HD
ENDBRANCH   5  18
BRANCH   3  22
ATOM     22  C   LIG d   1      -0.583  76.976 118.441  0.00  0.00     0.382 C 
ATOM     23  O   LIG d   1       0.574  76.501 118.546  0.00  0.00    -0.241 OA
ATOM     24  O   LIG d   1      -0.855  78.057 118.997  0.00  0.00    -0.241 OA
ENDBRANCH   3  22
TORSDOF 7
ENDMDL
MODEL 9
REMARK VINA RESULT:      -4.7      2.385      5.351
REMARK  7 active torsions:
REMARK  status: ('A' for Active; 'I' for Inactive)
REMARK    1  A    between atoms: C_2  and  C_3 
REMARK    2  A    between atoms: C_3  and  O_6 
REMARK    3  A    between atoms: C_3  and  C_4 
REMARK    4  A    between atoms: C_7  and  O_6 
REMARK    5  A    between atoms: C_9  and  C_10 
REMARK    6  A    between atoms: N_15  and  C_14 
REMARK    7  A    between atoms: N_20  and  C_19 
REMARK       I    between atoms: C_22  and  N_20 
ROOT
ATOM      1  C   LIG d   1      -5.062  75.134 115.911  0.00  0.00     0.161 C 
ATOM      2  C   LIG d   1      -5.368  73.763 115.899  0.00  0.00     0.016 C 
ATOM      3  C   LIG d   1      -6.648  73.248 116.208  0.00  0.00     0.038 C 
ATOM      4  C   LIG d   1      -7.756  74.086 116.404  0.00  0.00     0.028 C 
ATOM      5  C   LIG d   1      -7.384  75.471 116.922  0.00  0.00    -0.047 C 
ATOM      6  C   LIG d   1      -6.286  76.068 116.014  0.00  0.00     0.091 C 
ENDROOT
BRANCH   1   7
ATOM      7  O   LIG d   1      -4.272  75.468 114.753  0.00  0.00    -0.368 OA
BRANCH   7   8
ATOM      8  C   LIG d   1      -2.888  75.816 115.004  0.00  0.00     0.119 C 
BRANCH   8   9
ATOM      9  C   LIG d   1      -2.627  75.617 116.509  0.00  0.00     0.028 C 
ATOM     10  C   LIG d   1      -1.605  74.502 116.785  0.00  0.00     0.006 C 
ENDBRANCH   8   9
BRANCH   8  11
ATOM     11  C   LIG d   1      -2.630  77.302 114.740  0.00  0.00     0.028 C 
ATOM     12  C   LIG d   1      -2.087  78.040 115.974  0.00  0.00     0.006 C 
ENDBRANCH   8  11
ENDBRANCH   7   8
ENDBRANCH   1   7
BRANCH   6  13
ATOM     13  N   LIG d   1      -5.804  77.388 116.499  0.00  0.00    -0.311 N 
ATOM     14  C   LIG d   1      -5.389  77.603 117.747  0.00  0.00     0.210 C 
ATOM     15  C   LIG d   1      -4.953  79.041 118.044  0.00  0.00     0.109 C 
ATOM     16  O   LIG d   1      -5.311  76.732 118.626  0.00  0.00    -0.276 OA
ATOM     17  H   LIG d   1      -5.804  78.143 115.843  0.00  0.00     0.149 HD
ENDBRANCH   6  13
BRANCH   5  18
ATOM     18  N   LIG d   1      -8.616  76.282 116.950  0.00  0.00     0.381 N 
ATOM     19  H   LIG d   1      -9.411  75.697 116.784  0.00  0.00    -0.090 HD
ATOM     20  H   LIG d   1      -8.570  76.968 116.216  0.00  0.00    -0.090 HD
ATOM     21  H   LIG d   1      -8.707  76.735 117.832  0.00  0.00    -0.090 HD
ENDBRANCH   5  18
BRANCH   3  22
ATOM     22  C   LIG d   1      -6.821  71.881 116.362  0.00  0.00     0.382 C 
ATOM     23  O   LIG d   1      -6.654  71.351 117.487  0.00  0.00    -0.241 OA
ATOM     24  O   LIG d   1      -7.098  71.164 115.382  0.00  0.00    -0.241 OA
ENDBRANCH   3  22
TORSDOF 7
ENDMDL
