MODEL 1
REMARK VINA RESULT:      -5.9      0.000      0.000
REMARK  7 active torsions:
REMARK  status: ('A' for Active; 'I' for Inactive)
REMARK    1  A    between atoms: C_2  and  C_3 
REMARK    2  A    between atoms: C_3  and  O_6 
REMARK    3  A    between atoms: C_3  and  C_4 
REMARK    4  A    between atoms: C_7  and  O_6 
REMARK    5  A    between atoms: C_9  and  C_10 
REMARK    6  A    between atoms: N_15  and  C_14 
REMARK    7  A    between atoms: N_20  and  C_19 
REMARK       I    between atoms: C_22  and  N_20 
ROOT
ATOM      1  C   LIG d   1      -8.358  75.438 117.901  0.00  0.00     0.161 C 
ATOM      2  C   LIG d   1      -9.709  75.569 118.261  0.00  0.00     0.016 C 
ATOM      3  C   LIG d   1     -10.311  76.806 118.588  0.00  0.00     0.038 C 
ATOM      4  C   LIG d   1      -9.634  78.025 118.430  0.00  0.00     0.028 C 
ATOM      5  C   LIG d   1      -8.120  77.897 118.554  0.00  0.00    -0.047 C 
ATOM      6  C   LIG d   1      -7.633  76.770 117.615  0.00  0.00     0.091 C 
ENDROOT
BRANCH   1   7
ATOM      7  O   LIG d   1      -8.237  74.550 116.773  0.00  0.00    -0.368 OA
BRANCH   7   8
ATOM      8  C   LIG d   1      -8.036  73.149 117.084  0.00  0.00     0.119 C 
BRANCH   8   9
ATOM      9  C   LIG d   1      -7.005  72.595 116.082  0.00  0.00     0.028 C 
ATOM     10  C   LIG d   1      -6.062  73.686 115.548  0.00  0.00     0.006 C 
ENDBRANCH   8   9
BRANCH   8  11
ATOM     11  C   LIG d   1      -9.312  72.337 116.842  0.00  0.00     0.028 C 
ATOM     12  C   LIG d   1      -9.061  70.820 116.834  0.00  0.00     0.006 C 
ENDBRANCH   8  11
ENDBRANCH   7   8
ENDBRANCH   1   7
BRANCH   6  13
ATOM     13  N   LIG d   1      -6.172  76.522 117.738  0.00  0.00    -0.311 N 
ATOM     14  C   LIG d   1      -5.264  77.089 116.945  0.00  0.00     0.210 C 
ATOM     15  C   LIG d   1      -3.815  76.681 117.229  0.00  0.00     0.109 C 
ATOM     16  O   LIG d   1      -5.518  77.914 116.055  0.00  0.00    -0.276 OA
ATOM     17  H   LIG d   1      -5.875  75.889 118.454  0.00  0.00     0.149 HD
ENDBRANCH   6  13
BRANCH   5  18
ATOM     18  N   LIG d   1      -7.534  79.212 118.232  0.00  0.00     0.381 N 
ATOM     19  H   LIG d   1      -8.253  79.837 117.925  0.00  0.00    -0.090 HD
ATOM     20  H   LIG d   1      -6.874  79.099 117.483  0.00  0.00    -0.090 HD
ATOM     21  H   LIG d   1      -7.077  79.587 119.033  0.00  0.00    -0.090 HD
ENDBRANCH   5  18
BRANCH   3  22
ATOM     22  C   LIG d   1     -11.592  76.828 119.118  0.00  0.00     0.382 C 
ATOM     23  O   LIG d   1     -11.758  76.980 120.353  0.00  0.00    -0.241 OA
ATOM     24  O   LIG d   1     -12.583  76.654 118.383  0.00  0.00    -0.241 OA
ENDBRANCH   3  22
TORSDOF 7
ENDMDL
MODEL 2
REMARK VINA RESULT:      -5.7      2.097      4.987
REMARK  7 active torsions:
REMARK  status: ('A' for Active; 'I' for Inactive)
REMARK    1  A    between atoms: C_2  and  C_3 
REMARK    2  A    between atoms: C_3  and  O_6 
REMARK    3  A    between atoms: C_3  and  C_4 
REMARK    4  A    between atoms: C_7  and  O_6 
REMARK    5  A    between atoms: C_9  and  C_10 
REMARK    6  A    between atoms: N_15  and  C_14 
REMARK    7  A    between atoms: N_20  and  C_19 
REMARK       I    between atoms: C_22  and  N_20 
ROOT
ATOM      1  C   LIG d   1      -7.621  75.565 117.595  0.00  0.00     0.161 C 
ATOM      2  C   LIG d   1      -8.263  74.316 117.553  0.00  0.00     0.016 C 
ATOM      3  C   LIG d   1      -7.825  73.242 116.744  0.00  0.00     0.038 C 
ATOM      4  C   LIG d   1      -6.619  73.296 116.031  0.00  0.00     0.028 C 
ATOM      5  C   LIG d   1      -6.204  74.712 115.646  0.00  0.00    -0.047 C 
ATOM      6  C   LIG d   1      -6.240  75.605 116.908  0.00  0.00     0.091 C 
ENDROOT
BRANCH   1   7
ATOM      7  O   LIG d   1      -7.514  76.015 118.960  0.00  0.00    -0.368 OA
BRANCH   7   8
ATOM      8  C   LIG d   1      -8.329  77.158 119.320  0.00  0.00     0.119 C 
BRANCH   8   9
ATOM      9  C   LIG d   1      -9.599  76.623 120.009  0.00  0.00     0.028 C 
ATOM     10  C   LIG d   1     -10.845  76.739 119.115  0.00  0.00     0.006 C 
ENDBRANCH   8   9
BRANCH   8  11
ATOM     11  C   LIG d   1      -8.825  77.902 118.076  0.00  0.00     0.028 C 
ATOM     12  C   LIG d   1      -8.381  79.373 118.046  0.00  0.00     0.006 C 
ENDBRANCH   8  11
ENDBRANCH   7   8
ENDBRANCH   1   7
BRANCH   6  13
ATOM     13  N   LIG d   1      -5.929  77.026 116.605  0.00  0.00    -0.311 N 
ATOM     14  C   LIG d   1      -5.006  77.730 117.259  0.00  0.00     0.210 C 
ATOM     15  C   LIG d   1      -4.859  79.185 116.802  0.00  0.00     0.109 C 
ATOM     16  O   LIG d   1      -4.274  77.279 118.152  0.00  0.00    -0.276 OA
ATOM     17  H   LIG d   1      -6.455  77.462 115.873  0.00  0.00     0.149 HD
ENDBRANCH   6  13
BRANCH   5  18
ATOM     18  N   LIG d   1      -4.866  74.633 115.031  0.00  0.00     0.381 N 
ATOM     19  H   LIG d   1      -4.687  75.464 114.503  0.00  0.00    -0.090 HD
ATOM     20  H   LIG d   1      -4.843  73.850 114.402  0.00  0.00    -0.090 HD
ATOM     21  H   LIG d   1      -4.172  74.523 115.737  0.00  0.00    -0.090 HD
ENDBRANCH   5  18
BRANCH   3  22
ATOM     22  C   LIG d   1      -8.619  72.113 116.612  0.00  0.00     0.382 C 
ATOM     23  O   LIG d   1      -8.112  71.031 116.230  0.00  0.00    -0.241 OA
ATOM     24  O   LIG d   1      -9.845  72.174 116.828  0.00  0.00    -0.241 OA
ENDBRANCH   3  22
TORSDOF 7
ENDMDL
MODEL 3
REMARK VINA RESULT:      -5.6      2.868      4.833
REMARK  7 active torsions:
REMARK  status: ('A' for Active; 'I' for Inactive)
REMARK    1  A    between atoms: C_2  and  C_3 
REMARK    2  A    between atoms: C_3  and  O_6 
REMARK    3  A    between atoms: C_3  and  C_4 
REMARK    4  A    between atoms: C_7  and  O_6 
REMARK    5  A    between atoms: C_9  and  C_10 
REMARK    6  A    between atoms: N_15  and  C_14 
REMARK    7  A    between atoms: N_20  and  C_19 
REMARK       I    between atoms: C_22  and  N_20 
ROOT
ATOM      1  C   LIG d   1      -6.044  74.991 116.352  0.00  0.00     0.161 C 
ATOM      2  C   LIG d   1      -6.631  73.747 116.068  0.00  0.00     0.016 C 
ATOM      3  C   LIG d   1      -7.817  73.287 116.686  0.00  0.00     0.038 C 
ATOM      4  C   LIG d   1      -8.584  74.110 117.524  0.00  0.00     0.028 C 
ATOM      5  C   LIG d   1      -7.765  75.185 118.231  0.00  0.00    -0.047 C 
ATOM      6  C   LIG d   1      -6.926  75.949 117.181  0.00  0.00     0.091 C 
ENDROOT
BRANCH   1   7
ATOM      7  O   LIG d   1      -5.629  75.627 115.127  0.00  0.00    -0.368 OA
BRANCH   7   8
ATOM      8  C   LIG d   1      -4.230  75.485 114.777  0.00  0.00     0.119 C 
BRANCH   8   9
ATOM      9  C   LIG d   1      -3.422  75.490 116.089  0.00  0.00     0.028 C 
ATOM     10  C   LIG d   1      -2.328  74.409 116.109  0.00  0.00     0.006 C 
ENDBRANCH   8   9
BRANCH   8  11
ATOM     11  C   LIG d   1      -3.728  76.697 113.987  0.00  0.00     0.028 C 
ATOM     12  C   LIG d   1      -3.138  77.793 114.888  0.00  0.00     0.006 C 
ENDBRANCH   8  11
ENDBRANCH   7   8
ENDBRANCH   1   7
BRANCH   6  13
ATOM     13  N   LIG d   1      -6.032  76.963 117.799  0.00  0.00    -0.311 N 
ATOM     14  C   LIG d   1      -5.925  78.214 117.354  0.00  0.00     0.210 C 
ATOM     15  C   LIG d   1      -4.931  79.090 118.122  0.00  0.00     0.109 C 
ATOM     16  O   LIG d   1      -6.583  78.690 116.417  0.00  0.00    -0.276 OA
ATOM     17  H   LIG d   1      -5.484  76.670 118.584  0.00  0.00     0.149 HD
ENDBRANCH   6  13
BRANCH   5  18
ATOM     18  N   LIG d   1      -8.706  76.054 118.962  0.00  0.00     0.381 N 
ATOM     19  H   LIG d   1      -8.289  76.362 119.818  0.00  0.00    -0.090 HD
ATOM     20  H   LIG d   1      -9.531  75.525 119.186  0.00  0.00    -0.090 HD
ATOM     21  H   LIG d   1      -8.950  76.840 118.401  0.00  0.00    -0.090 HD
ENDBRANCH   5  18
BRANCH   3  22
ATOM     22  C   LIG d   1      -8.226  71.976 116.498  0.00  0.00     0.382 C 
ATOM     23  O   LIG d   1      -7.454  71.151 115.951  0.00  0.00    -0.241 OA
ATOM     24  O   LIG d   1      -9.372  71.618 116.827  0.00  0.00    -0.241 OA
ENDBRANCH   3  22
TORSDOF 7
ENDMDL
MODEL 4
REMARK VINA RESULT:      -5.3      1.521      2.430
REMARK  7 active torsions:
REMARK  status: ('A' for Active; 'I' for Inactive)
REMARK    1  A    between atoms: C_2  and  C_3 
REMARK    2  A    between atoms: C_3  and  O_6 
REMARK    3  A    between atoms: C_3  and  C_4 
REMARK    4  A    between atoms: C_7  and  O_6 
REMARK    5  A    between atoms: C_9  and  C_10 
REMARK    6  A    between atoms: N_15  and  C_14 
REMARK    7  A    between atoms: N_20  and  C_19 
REMARK       I    between atoms: C_22  and  N_20 
ROOT
ATOM      1  C   LIG d   1      -7.227  76.531 118.663  0.00  0.00     0.161 C 
ATOM      2  C   LIG d   1      -8.580  76.176 118.795  0.00  0.00     0.016 C 
ATOM      3  C   LIG d   1      -9.641  77.106 118.705  0.00  0.00     0.038 C 
ATOM      4  C   LIG d   1      -9.428  78.440 118.326  0.00  0.00     0.028 C 
ATOM      5  C   LIG d   1      -8.036  78.955 118.678  0.00  0.00    -0.047 C 
ATOM      6  C   LIG d   1      -6.982  77.961 118.138  0.00  0.00     0.091 C 
ENDROOT
BRANCH   1   7
ATOM      7  O   LIG d   1      -6.548  75.569 117.832  0.00  0.00    -0.368 OA
BRANCH   7   8
ATOM      8  C   LIG d   1      -7.214  75.213 116.595  0.00  0.00     0.119 C 
BRANCH   8   9
ATOM      9  C   LIG d   1      -7.127  73.682 116.446  0.00  0.00     0.028 C 
ATOM     10  C   LIG d   1      -8.349  72.964 117.044  0.00  0.00     0.006 C 
ENDBRANCH   8   9
BRANCH   8  11
ATOM     11  C   LIG d   1      -6.473  75.781 115.381  0.00  0.00     0.028 C 
ATOM     12  C   LIG d   1      -4.966  75.953 115.629  0.00  0.00     0.006 C 
ENDBRANCH   8  11
ENDBRANCH   7   8
ENDBRANCH   1   7
BRANCH   6  13
ATOM     13  N   LIG d   1      -5.596  78.346 118.513  0.00  0.00    -0.311 N 
ATOM     14  C   LIG d   1      -4.784  79.031 117.711  0.00  0.00     0.210 C 
ATOM     15  C   LIG d   1      -3.390  79.306 118.284  0.00  0.00     0.109 C 
ATOM     16  O   LIG d   1      -5.095  79.465 116.591  0.00  0.00    -0.276 OA
ATOM     17  H   LIG d   1      -5.272  78.061 119.417  0.00  0.00     0.149 HD
ENDBRANCH   6  13
BRANCH   5  18
ATOM     18  N   LIG d   1      -7.903  80.307 118.104  0.00  0.00     0.381 N 
ATOM     19  H   LIG d   1      -8.457  80.379 117.274  0.00  0.00    -0.090 HD
ATOM     20  H   LIG d   1      -6.941  80.461 117.856  0.00  0.00    -0.090 HD
ATOM     21  H   LIG d   1      -8.196  80.989 118.768  0.00  0.00    -0.090 HD
ENDBRANCH   5  18
BRANCH   3  22
ATOM     22  C   LIG d   1     -10.929  76.714 119.037  0.00  0.00     0.382 C 
ATOM     23  O   LIG d   1     -11.264  76.615 120.242  0.00  0.00    -0.241 OA
ATOM     24  O   LIG d   1     -11.747  76.415 118.146  0.00  0.00    -0.241 OA
ENDBRANCH   3  22
TORSDOF 7
ENDMDL
MODEL 5
REMARK VINA RESULT:      -5.0      2.342      5.255
REMARK  7 active torsions:
REMARK  status: ('A' for Active; 'I' for Inactive)
REMARK    1  A    between atoms: C_2  and  C_3 
REMARK    2  A    between atoms: C_3  and  O_6 
REMARK    3  A    between atoms: C_3  and  C_4 
REMARK    4  A    between atoms: C_7  and  O_6 
REMARK    5  A    between atoms: C_9  and  C_10 
REMARK    6  A    between atoms: N_15  and  C_14 
REMARK    7  A    between atoms: N_20  and  C_19 
REMARK       I    between atoms: C_22  and  N_20 
ROOT
ATOM      1  C   LIG d   1      -8.540  78.353 118.193  0.00  0.00     0.161 C 
ATOM      2  C   LIG d   1      -9.799  77.737 118.277  0.00  0.00     0.016 C 
ATOM      3  C   LIG d   1     -10.035  76.393 117.907  0.00  0.00     0.038 C 
ATOM      4  C   LIG d   1      -8.988  75.523 117.568  0.00  0.00     0.028 C 
ATOM      5  C   LIG d   1      -7.773  76.237 116.984  0.00  0.00    -0.047 C 
ATOM      6  C   LIG d   1      -7.364  77.389 117.930  0.00  0.00     0.091 C 
ENDROOT
BRANCH   1   7
ATOM      7  O   LIG d   1      -8.295  79.130 119.382  0.00  0.00    -0.368 OA
BRANCH   7   8
ATOM      8  C   LIG d   1      -8.447  80.564 119.250  0.00  0.00     0.119 C 
BRANCH   8   9
ATOM      9  C   LIG d   1      -9.888  80.917 119.666  0.00  0.00     0.028 C 
ATOM     10  C   LIG d   1     -10.486  82.047 118.812  0.00  0.00     0.006 C 
ENDBRANCH   8   9
BRANCH   8  11
ATOM     11  C   LIG d   1      -8.329  81.005 117.788  0.00  0.00     0.028 C 
ATOM     12  C   LIG d   1      -6.972  81.652 117.469  0.00  0.00     0.006 C 
ENDBRANCH   8  11
ENDBRANCH   7   8
ENDBRANCH   1   7
BRANCH   6  13
ATOM     13  N   LIG d   1      -6.235  78.191 117.392  0.00  0.00    -0.311 N 
ATOM     14  C   LIG d   1      -4.959  77.954 117.691  0.00  0.00     0.210 C 
ATOM     15  C   LIG d   1      -3.955  78.913 117.044  0.00  0.00     0.109 C 
ATOM     16  O   LIG d   1      -4.562  77.021 118.404  0.00  0.00    -0.276 OA
ATOM     17  H   LIG d   1      -6.466  78.949 116.780  0.00  0.00     0.149 HD
ENDBRANCH   6  13
BRANCH   5  18
ATOM     18  N   LIG d   1      -6.709  75.231 116.804  0.00  0.00     0.381 N 
ATOM     19  H   LIG d   1      -5.835  75.602 117.119  0.00  0.00    -0.090 HD
ATOM     20  H   LIG d   1      -6.626  75.016 115.826  0.00  0.00    -0.090 HD
ATOM     21  H   LIG d   1      -6.931  74.405 117.316  0.00  0.00    -0.090 HD
ENDBRANCH   5  18
BRANCH   3  22
ATOM     22  C   LIG d   1     -11.335  75.918 117.836  0.00  0.00     0.382 C 
ATOM     23  O   LIG d   1     -12.276  76.590 118.322  0.00  0.00    -0.241 OA
ATOM     24  O   LIG d   1     -11.574  74.804 117.331  0.00  0.00    -0.241 OA
ENDBRANCH   3  22
TORSDOF 7
ENDMDL
MODEL 6
REMARK VINA RESULT:      -4.9     13.650     16.206
REMARK  7 active torsions:
REMARK  status: ('A' for Active; 'I' for Inactive)
REMARK    1  A    between atoms: C_2  and  C_3 
REMARK    2  A    between atoms: C_3  and  O_6 
REMARK    3  A    between atoms: C_3  and  C_4 
REMARK    4  A    between atoms: C_7  and  O_6 
REMARK    5  A    between atoms: C_9  and  C_10 
REMARK    6  A    between atoms: N_15  and  C_14 
REMARK    7  A    between atoms: N_20  and  C_19 
REMARK       I    between atoms: C_22  and  N_20 
ROOT
ATOM      1  C   LIG d   1      -3.809  90.870 117.671  0.00  0.00     0.161 C 
ATOM      2  C   LIG d   1      -2.956  91.523 118.575  0.00  0.00     0.016 C 
ATOM      3  C   LIG d   1      -3.395  92.517 119.480  0.00  0.00     0.038 C 
ATOM      4  C   LIG d   1      -4.755  92.819 119.647  0.00  0.00     0.028 C 
ATOM      5  C   LIG d   1      -5.593  92.547 118.403  0.00  0.00    -0.047 C 
ATOM      6  C   LIG d   1      -5.314  91.106 117.916  0.00  0.00     0.091 C 
ENDROOT
BRANCH   1   7
ATOM      7  O   LIG d   1      -3.520  89.458 117.659  0.00  0.00    -0.368 OA
BRANCH   7   8
ATOM      8  C   LIG d   1      -2.461  89.017 118.545  0.00  0.00     0.119 C 
BRANCH   8   9
ATOM      9  C   LIG d   1      -1.543  88.079 117.738  0.00  0.00     0.028 C 
ATOM     10  C   LIG d   1      -0.163  88.700 117.465  0.00  0.00     0.006 C 
ENDBRANCH   8   9
BRANCH   8  11
ATOM     11  C   LIG d   1      -3.012  88.160 119.689  0.00  0.00     0.028 C 
ATOM     12  C   LIG d   1      -2.316  86.794 119.799  0.00  0.00     0.006 C 
ENDBRANCH   8  11
ENDBRANCH   7   8
ENDBRANCH   1   7
BRANCH   6  13
ATOM     13  N   LIG d   1      -6.031  90.786 116.653  0.00  0.00    -0.311 N 
ATOM     14  C   LIG d   1      -7.261  90.277 116.618  0.00  0.00     0.210 C 
ATOM     15  C   LIG d   1      -7.807  90.003 115.213  0.00  0.00     0.109 C 
ATOM     16  O   LIG d   1      -7.965  90.057 117.615  0.00  0.00    -0.276 OA
ATOM     17  H   LIG d   1      -5.545  90.963 115.796  0.00  0.00     0.149 HD
ENDBRANCH   6  13
BRANCH   5  18
ATOM     18  N   LIG d   1      -7.006  92.773 118.759  0.00  0.00     0.381 N 
ATOM     19  H   LIG d   1      -7.090  93.612 119.298  0.00  0.00    -0.090 HD
ATOM     20  H   LIG d   1      -7.327  92.005 119.321  0.00  0.00    -0.090 HD
ATOM     21  H   LIG d   1      -7.559  92.844 117.933  0.00  0.00    -0.090 HD
ENDBRANCH   5  18
BRANCH   3  22
ATOM     22  C   LIG d   1      -2.464  93.250 120.201  0.00  0.00     0.382 C 
ATOM     23  O   LIG d   1      -1.385  92.717 120.554  0.00  0.00    -0.241 OA
ATOM     24  O   LIG d   1      -2.709  94.422 120.541  0.00  0.00    -0.241 OA
ENDBRANCH   3  22
TORSDOF 7
ENDMDL
MODEL 7
REMARK VINA RESULT:      -4.9      2.304      4.894
REMARK  7 active torsions:
REMARK  status: ('A' for Active; 'I' for Inactive)
REMARK    1  A    between atoms: C_2  and  C_3 
REMARK    2  A    between atoms: C_3  and  O_6 
REMARK    3  A    between atoms: C_3  and  C_4 
REMARK    4  A    between atoms: C_7  and  O_6 
REMARK    5  A    between atoms: C_9  and  C_10 
REMARK    6  A    between atoms: N_15  and  C_14 
REMARK    7  A    between atoms: N_20  and  C_19 
REMARK       I    between atoms: C_22  and  N_20 
ROOT
ATOM      1  C   LIG d   1      -7.048  77.118 116.927  0.00  0.00     0.161 C 
ATOM      2  C   LIG d   1      -8.381  77.089 117.371  0.00  0.00     0.016 C 
ATOM      3  C   LIG d   1      -9.128  75.897 117.512  0.00  0.00     0.038 C 
ATOM      4  C   LIG d   1      -8.542  74.632 117.361  0.00  0.00     0.028 C 
ATOM      5  C   LIG d   1      -7.339  74.630 116.424  0.00  0.00    -0.047 C 
ATOM      6  C   LIG d   1      -6.357  75.740 116.865  0.00  0.00     0.091 C 
ENDROOT
BRANCH   1   7
ATOM      7  O   LIG d   1      -6.282  78.026 117.742  0.00  0.00    -0.368 OA
BRANCH   7   8
ATOM      8  C   LIG d   1      -5.809  79.228 117.085  0.00  0.00     0.119 C 
BRANCH   8   9
ATOM      9  C   LIG d   1      -4.270  79.160 117.048  0.00  0.00     0.028 C 
ATOM     10  C   LIG d   1      -3.636  79.460 118.417  0.00  0.00     0.006 C 
ENDBRANCH   8   9
BRANCH   8  11
ATOM     11  C   LIG d   1      -6.140  80.479 117.905  0.00  0.00     0.028 C 
ATOM     12  C   LIG d   1      -7.570  80.988 117.663  0.00  0.00     0.006 C 
ENDBRANCH   8  11
ENDBRANCH   7   8
ENDBRANCH   1   7
BRANCH   6  13
ATOM     13  N   LIG d   1      -5.192  75.862 115.951  0.00  0.00    -0.311 N 
ATOM     14  C   LIG d   1      -4.034  75.236 116.152  0.00  0.00     0.210 C 
ATOM     15  C   LIG d   1      -2.957  75.515 115.099  0.00  0.00     0.109 C 
ATOM     16  O   LIG d   1      -3.806  74.452 117.085  0.00  0.00    -0.276 OA
ATOM     17  H   LIG d   1      -5.300  76.455 115.151  0.00  0.00     0.149 HD
ENDBRANCH   6  13
BRANCH   5  18
ATOM     18  N   LIG d   1      -6.743  73.281 116.467  0.00  0.00     0.381 N 
ATOM     19  H   LIG d   1      -6.915  72.863 117.359  0.00  0.00    -0.090 HD
ATOM     20  H   LIG d   1      -5.749  73.361 116.343  0.00  0.00    -0.090 HD
ATOM     21  H   LIG d   1      -7.131  72.714 115.746  0.00  0.00    -0.090 HD
ENDBRANCH   5  18
BRANCH   3  22
ATOM     22  C   LIG d   1     -10.489  75.966 117.768  0.00  0.00     0.382 C 
ATOM     23  O   LIG d   1     -11.241  75.024 117.418  0.00  0.00    -0.241 OA
ATOM     24  O   LIG d   1     -10.981  76.976 118.305  0.00  0.00    -0.241 OA
ENDBRANCH   3  22
TORSDOF 7
ENDMDL
MODEL 8
REMARK VINA RESULT:      -4.8     15.373     18.047
REMARK  7 active torsions:
REMARK  status: ('A' for Active; 'I' for Inactive)
REMARK    1  A    between atoms: C_2  and  C_3 
REMARK    2  A    between atoms: C_3  and  O_6 
REMARK    3  A    between atoms: C_3  and  C_4 
REMARK    4  A    between atoms: C_7  and  O_6 
REMARK    5  A    between atoms: C_9  and  C_10 
REMARK    6  A    between atoms: N_15  and  C_14 
REMARK    7  A    between atoms: N_20  and  C_19 
REMARK       I    between atoms: C_22  and  N_20 
ROOT
ATOM      1  C   LIG d   1      -5.611  92.933 118.739  0.00  0.00     0.161 C 
ATOM      2  C   LIG d   1      -6.462  92.018 118.096  0.00  0.00     0.016 C 
ATOM      3  C   LIG d   1      -5.996  90.880 117.399  0.00  0.00     0.038 C 
ATOM      4  C   LIG d   1      -4.647  90.496 117.425  0.00  0.00     0.028 C 
ATOM      5  C   LIG d   1      -3.688  91.662 117.637  0.00  0.00    -0.047 C 
ATOM      6  C   LIG d   1      -4.146  92.470 118.873  0.00  0.00     0.091 C 
ENDROOT
BRANCH   1   7
ATOM      7  O   LIG d   1      -6.149  93.275 120.032  0.00  0.00    -0.368 OA
BRANCH   7   8
ATOM      8  C   LIG d   1      -6.690  94.612 120.165  0.00  0.00     0.119 C 
BRANCH   8   9
ATOM      9  C   LIG d   1      -8.213  94.479 120.359  0.00  0.00     0.028 C 
ATOM     10  C   LIG d   1      -9.002  95.502 119.525  0.00  0.00     0.006 C 
ENDBRANCH   8   9
BRANCH   8  11
ATOM     11  C   LIG d   1      -6.514  95.415 118.872  0.00  0.00     0.028 C 
ATOM     12  C   LIG d   1      -5.522  96.579 119.024  0.00  0.00     0.006 C 
ENDBRANCH   8  11
ENDBRANCH   7   8
ENDBRANCH   1   7
BRANCH   6  13
ATOM     13  N   LIG d   1      -3.311  93.678 119.102  0.00  0.00    -0.311 N 
ATOM     14  C   LIG d   1      -2.256  93.697 119.915  0.00  0.00     0.210 C 
ATOM     15  C   LIG d   1      -1.547  95.051 120.022  0.00  0.00     0.109 C 
ATOM     16  O   LIG d   1      -1.822  92.714 120.533  0.00  0.00    -0.276 OA
ATOM     17  H   LIG d   1      -3.574  94.513 118.616  0.00  0.00     0.149 HD
ENDBRANCH   6  13
BRANCH   5  18
ATOM     18  N   LIG d   1      -2.331  91.103 117.781  0.00  0.00     0.381 N 
ATOM     19  H   LIG d   1      -2.230  90.688 118.686  0.00  0.00    -0.090 HD
ATOM     20  H   LIG d   1      -1.662  91.849 117.700  0.00  0.00    -0.090 HD
ATOM     21  H   LIG d   1      -2.166  90.421 117.074  0.00  0.00    -0.090 HD
ENDBRANCH   5  18
BRANCH   3  22
ATOM     22  C   LIG d   1      -6.878  90.136 116.631  0.00  0.00     0.382 C 
ATOM     23  O   LIG d   1      -6.465  89.525 115.616  0.00  0.00    -0.241 OA
ATOM     24  O   LIG d   1      -8.090  90.103 116.915  0.00  0.00    -0.241 OA
ENDBRANCH   3  22
TORSDOF 7
ENDMDL
MODEL 9
REMARK VINA RESULT:      -4.8     16.150     18.227
REMARK  7 active torsions:
REMARK  status: ('A' for Active; 'I' for Inactive)
REMARK    1  A    between atoms: C_2  and  C_3 
REMARK    2  A    between atoms: C_3  and  O_6 
REMARK    3  A    between atoms: C_3  and  C_4 
REMARK    4  A    between atoms: C_7  and  O_6 
REMARK    5  A    between atoms: C_9  and  C_10 
REMARK    6  A    between atoms: N_15  and  C_14 
REMARK    7  A    between atoms: N_20  and  C_19 
REMARK       I    between atoms: C_22  and  N_20 
ROOT
ATOM      1  C   LIG d   1      -5.753  93.259 120.048  0.00  0.00     0.161 C 
ATOM      2  C   LIG d   1      -7.075  93.659 119.789  0.00  0.00     0.016 C 
ATOM      3  C   LIG d   1      -7.415  94.924 119.257  0.00  0.00     0.038 C 
ATOM      4  C   LIG d   1      -6.439  95.824 118.803  0.00  0.00     0.028 C 
ATOM      5  C   LIG d   1      -5.097  95.669 119.509  0.00  0.00    -0.047 C 
ATOM      6  C   LIG d   1      -4.670  94.185 119.455  0.00  0.00     0.091 C 
ENDROOT
BRANCH   1   7
ATOM      7  O   LIG d   1      -5.556  91.905 119.597  0.00  0.00    -0.368 OA
BRANCH   7   8
ATOM      8  C   LIG d   1      -5.164  91.744 118.212  0.00  0.00     0.119 C 
BRANCH   8   9
ATOM      9  C   LIG d   1      -6.379  91.183 117.449  0.00  0.00     0.028 C 
ATOM     10  C   LIG d   1      -6.630  91.918 116.122  0.00  0.00     0.006 C 
ENDBRANCH   8   9
BRANCH   8  11
ATOM     11  C   LIG d   1      -4.067  90.686 118.062  0.00  0.00     0.028 C 
ATOM     12  C   LIG d   1      -3.647  90.068 119.405  0.00  0.00     0.006 C 
ENDBRANCH   8  11
ENDBRANCH   7   8
ENDBRANCH   1   7
BRANCH   6  13
ATOM     13  N   LIG d   1      -3.407  93.931 120.197  0.00  0.00    -0.311 N 
ATOM     14  C   LIG d   1      -2.257  93.618 119.602  0.00  0.00     0.210 C 
ATOM     15  C   LIG d   1      -1.081  93.377 120.553  0.00  0.00     0.109 C 
ATOM     16  O   LIG d   1      -2.092  93.548 118.375  0.00  0.00    -0.276 OA
ATOM     17  H   LIG d   1      -3.443  93.997 121.195  0.00  0.00     0.149 HD
ENDBRANCH   6  13
BRANCH   5  18
ATOM     18  N   LIG d   1      -4.137  96.572 118.845  0.00  0.00     0.381 N 
ATOM     19  H   LIG d   1      -3.400  96.037 118.431  0.00  0.00    -0.090 HD
ATOM     20  H   LIG d   1      -3.735  97.183 119.534  0.00  0.00    -0.090 HD
ATOM     21  H   LIG d   1      -4.601  97.108 118.145  0.00  0.00    -0.090 HD
ENDBRANCH   5  18
BRANCH   3  22
ATOM     22  C   LIG d   1      -8.744  95.316 119.211  0.00  0.00     0.382 C 
ATOM     23  O   LIG d   1      -9.061  96.398 118.660  0.00  0.00    -0.241 OA
ATOM     24  O   LIG d   1      -9.626  94.622 119.753  0.00  0.00    -0.241 OA
ENDBRANCH   3  22
TORSDOF 7
ENDMDL
