MODEL 1
REMARK VINA RESULT:      -5.6      0.000      0.000
REMARK  7 active torsions:
REMARK  status: ('A' for Active; 'I' for Inactive)
REMARK    1  A    between atoms: C_2  and  C_3 
REMARK    2  A    between atoms: C_3  and  O_6 
REMARK    3  A    between atoms: C_3  and  C_4 
REMARK    4  A    between atoms: C_7  and  O_6 
REMARK    5  A    between atoms: C_9  and  C_10 
REMARK    6  A    between atoms: N_15  and  C_14 
REMARK    7  A    between atoms: N_20  and  C_19 
REMARK       I    between atoms: C_22  and  N_20 
ROOT
ATOM      1  C   LIG d   1      -8.321  74.530 117.203  0.00  0.00     0.161 C 
ATOM      2  C   LIG d   1      -8.225  73.171 116.863  0.00  0.00     0.016 C 
ATOM      3  C   LIG d   1      -9.058  72.170 117.416  0.00  0.00     0.038 C 
ATOM      4  C   LIG d   1     -10.150  72.485 118.238  0.00  0.00     0.028 C 
ATOM      5  C   LIG d   1      -9.973  73.790 119.007  0.00  0.00    -0.047 C 
ATOM      6  C   LIG d   1      -9.578  74.908 118.014  0.00  0.00     0.091 C 
ENDROOT
BRANCH   1   7
ATOM      7  O   LIG d   1      -8.231  75.339 116.013  0.00  0.00    -0.368 OA
BRANCH   7   8
ATOM      8  C   LIG d   1      -6.986  76.055 115.822  0.00  0.00     0.119 C 
BRANCH   8   9
ATOM      9  C   LIG d   1      -6.303  75.470 114.571  0.00  0.00     0.028 C 
ATOM     10  C   LIG d   1      -5.304  74.353 114.915  0.00  0.00     0.006 C 
ENDBRANCH   8   9
BRANCH   8  11
ATOM     11  C   LIG d   1      -6.011  75.795 116.975  0.00  0.00     0.028 C 
ATOM     12  C   LIG d   1      -5.656  77.072 117.754  0.00  0.00     0.006 C 
ENDBRANCH   8  11
ENDBRANCH   7   8
ENDBRANCH   1   7
BRANCH   6  13
ATOM     13  N   LIG d   1      -9.304  76.200 118.695  0.00  0.00    -0.311 N 
ATOM     14  C   LIG d   1     -10.199  77.182 118.793  0.00  0.00     0.210 C 
ATOM     15  C   LIG d   1      -9.704  78.437 119.517  0.00  0.00     0.109 C 
ATOM     16  O   LIG d   1     -11.365  77.119 118.377  0.00  0.00    -0.276 OA
ATOM     17  H   LIG d   1      -8.391  76.323 119.088  0.00  0.00     0.149 HD
ENDBRANCH   6  13
BRANCH   5  18
ATOM     18  N   LIG d   1     -11.237  74.066 119.715  0.00  0.00     0.381 N 
ATOM     19  H   LIG d   1     -11.813  74.667 119.159  0.00  0.00    -0.090 HD
ATOM     20  H   LIG d   1     -11.031  74.537 120.578  0.00  0.00    -0.090 HD
ATOM     21  H   LIG d   1     -11.717  73.213 119.900  0.00  0.00    -0.090 HD
ENDBRANCH   5  18
BRANCH   3  22
ATOM     22  C   LIG d   1      -8.776  70.833 117.178  0.00  0.00     0.382 C 
ATOM     23  O   LIG d   1      -7.891  70.517 116.347  0.00  0.00    -0.241 OA
ATOM     24  O   LIG d   1      -9.427  69.939 117.752  0.00  0.00    -0.241 OA
ENDBRANCH   3  22
TORSDOF 7
ENDMDL
MODEL 2
REMARK VINA RESULT:      -5.3      2.388      4.459
REMARK  7 active torsions:
REMARK  status: ('A' for Active; 'I' for Inactive)
REMARK    1  A    between atoms: C_2  and  C_3 
REMARK    2  A    between atoms: C_3  and  O_6 
REMARK    3  A    between atoms: C_3  and  C_4 
REMARK    4  A    between atoms: C_7  and  O_6 
REMARK    5  A    between atoms: C_9  and  C_10 
REMARK    6  A    between atoms: N_15  and  C_14 
REMARK    7  A    between atoms: N_20  and  C_19 
REMARK       I    between atoms: C_22  and  N_20 
ROOT
ATOM      1  C   LIG d   1      -7.798  75.018 117.339  0.00  0.00     0.161 C 
ATOM      2  C   LIG d   1      -6.606  75.206 116.619  0.00  0.00     0.016 C 
ATOM      3  C   LIG d   1      -5.961  74.174 115.900  0.00  0.00     0.038 C 
ATOM      4  C   LIG d   1      -6.549  72.912 115.726  0.00  0.00     0.028 C 
ATOM      5  C   LIG d   1      -7.502  72.527 116.852  0.00  0.00    -0.047 C 
ATOM      6  C   LIG d   1      -8.512  73.677 117.070  0.00  0.00     0.091 C 
ENDROOT
BRANCH   1   7
ATOM      7  O   LIG d   1      -8.694  76.121 117.096  0.00  0.00    -0.368 OA
BRANCH   7   8
ATOM      8  C   LIG d   1      -8.760  77.129 118.134  0.00  0.00     0.119 C 
BRANCH   8   9
ATOM      9  C   LIG d   1      -8.325  76.464 119.454  0.00  0.00     0.028 C 
ATOM     10  C   LIG d   1      -7.131  77.182 120.107  0.00  0.00     0.006 C 
ENDBRANCH   8   9
BRANCH   8  11
ATOM     11  C   LIG d   1     -10.201  77.593 118.370  0.00  0.00     0.028 C 
ATOM     12  C   LIG d   1     -10.783  77.080 119.696  0.00  0.00     0.006 C 
ENDBRANCH   8  11
ENDBRANCH   7   8
ENDBRANCH   1   7
BRANCH   6  13
ATOM     13  N   LIG d   1      -9.428  73.418 118.210  0.00  0.00    -0.311 N 
ATOM     14  C   LIG d   1     -10.727  73.714 118.189  0.00  0.00     0.210 C 
ATOM     15  C   LIG d   1     -11.487  73.383 119.478  0.00  0.00     0.109 C 
ATOM     16  O   LIG d   1     -11.329  74.188 117.214  0.00  0.00    -0.276 OA
ATOM     17  H   LIG d   1      -9.030  73.006 119.031  0.00  0.00     0.149 HD
ENDBRANCH   6  13
BRANCH   5  18
ATOM     18  N   LIG d   1      -8.146  71.255 116.476  0.00  0.00     0.381 N 
ATOM     19  H   LIG d   1      -8.332  71.247 115.493  0.00  0.00    -0.090 HD
ATOM     20  H   LIG d   1      -9.021  71.177 116.963  0.00  0.00    -0.090 HD
ATOM     21  H   LIG d   1      -7.555  70.490 116.716  0.00  0.00    -0.090 HD
ENDBRANCH   5  18
BRANCH   3  22
ATOM     22  C   LIG d   1      -4.694  74.388 115.378  0.00  0.00     0.382 C 
ATOM     23  O   LIG d   1      -4.561  74.759 114.187  0.00  0.00    -0.241 OA
ATOM     24  O   LIG d   1      -3.681  74.173 116.070  0.00  0.00    -0.241 OA
ENDBRANCH   3  22
TORSDOF 7
ENDMDL
MODEL 3
REMARK VINA RESULT:      -5.3      1.944      4.987
REMARK  7 active torsions:
REMARK  status: ('A' for Active; 'I' for Inactive)
REMARK    1  A    between atoms: C_2  and  C_3 
REMARK    2  A    between atoms: C_3  and  O_6 
REMARK    3  A    between atoms: C_3  and  C_4 
REMARK    4  A    between atoms: C_7  and  O_6 
REMARK    5  A    between atoms: C_9  and  C_10 
REMARK    6  A    between atoms: N_15  and  C_14 
REMARK    7  A    between atoms: N_20  and  C_19 
REMARK       I    between atoms: C_22  and  N_20 
ROOT
ATOM      1  C   LIG d   1      -7.699  75.849 117.131  0.00  0.00     0.161 C 
ATOM      2  C   LIG d   1      -7.938  77.206 117.402  0.00  0.00     0.016 C 
ATOM      3  C   LIG d   1      -9.162  77.694 117.916  0.00  0.00     0.038 C 
ATOM      4  C   LIG d   1     -10.184  76.831 118.339  0.00  0.00     0.028 C 
ATOM      5  C   LIG d   1     -10.182  75.488 117.616  0.00  0.00    -0.047 C 
ATOM      6  C   LIG d   1      -8.762  74.881 117.691  0.00  0.00     0.091 C 
ENDROOT
BRANCH   1   7
ATOM      7  O   LIG d   1      -6.388  75.480 117.603  0.00  0.00    -0.368 OA
BRANCH   7   8
ATOM      8  C   LIG d   1      -5.300  75.650 116.661  0.00  0.00     0.119 C 
BRANCH   8   9
ATOM      9  C   LIG d   1      -5.511  74.633 115.523  0.00  0.00     0.028 C 
ATOM     10  C   LIG d   1      -5.570  75.303 114.140  0.00  0.00     0.006 C 
ENDBRANCH   8   9
BRANCH   8  11
ATOM     11  C   LIG d   1      -3.954  75.280 117.292  0.00  0.00     0.028 C 
ATOM     12  C   LIG d   1      -3.427  73.918 116.814  0.00  0.00     0.006 C 
ENDBRANCH   8  11
ENDBRANCH   7   8
ENDBRANCH   1   7
BRANCH   6  13
ATOM     13  N   LIG d   1      -8.652  73.605 116.936  0.00  0.00    -0.311 N 
ATOM     14  C   LIG d   1      -8.827  72.407 117.491  0.00  0.00     0.210 C 
ATOM     15  C   LIG d   1      -8.647  71.221 116.539  0.00  0.00     0.109 C 
ATOM     16  O   LIG d   1      -9.146  72.216 118.674  0.00  0.00    -0.276 OA
ATOM     17  H   LIG d   1      -8.426  73.669 115.963  0.00  0.00     0.149 HD
ENDBRANCH   6  13
BRANCH   5  18
ATOM     18  N   LIG d   1     -11.208  74.639 118.250  0.00  0.00     0.381 N 
ATOM     19  H   LIG d   1     -11.676  74.096 117.552  0.00  0.00    -0.090 HD
ATOM     20  H   LIG d   1     -11.887  75.230 118.698  0.00  0.00    -0.090 HD
ATOM     21  H   LIG d   1     -10.786  74.038 118.922  0.00  0.00    -0.090 HD
ENDBRANCH   5  18
BRANCH   3  22
ATOM     22  C   LIG d   1      -9.387  79.060 117.973  0.00  0.00     0.382 C 
ATOM     23  O   LIG d   1     -10.537  79.496 118.223  0.00  0.00    -0.241 OA
ATOM     24  O   LIG d   1      -8.466  79.863 117.734  0.00  0.00    -0.241 OA
ENDBRANCH   3  22
TORSDOF 7
ENDMDL
MODEL 4
REMARK VINA RESULT:      -5.2      2.230      4.462
REMARK  7 active torsions:
REMARK  status: ('A' for Active; 'I' for Inactive)
REMARK    1  A    between atoms: C_2  and  C_3 
REMARK    2  A    between atoms: C_3  and  O_6 
REMARK    3  A    between atoms: C_3  and  C_4 
REMARK    4  A    between atoms: C_7  and  O_6 
REMARK    5  A    between atoms: C_9  and  C_10 
REMARK    6  A    between atoms: N_15  and  C_14 
REMARK    7  A    between atoms: N_20  and  C_19 
REMARK       I    between atoms: C_22  and  N_20 
ROOT
ATOM      1  C   LIG d   1      -7.971  75.736 116.391  0.00  0.00     0.161 C 
ATOM      2  C   LIG d   1      -6.893  74.967 115.923  0.00  0.00     0.016 C 
ATOM      3  C   LIG d   1      -5.570  75.108 116.402  0.00  0.00     0.038 C 
ATOM      4  C   LIG d   1      -5.262  75.928 117.498  0.00  0.00     0.028 C 
ATOM      5  C   LIG d   1      -6.227  77.097 117.669  0.00  0.00    -0.047 C 
ATOM      6  C   LIG d   1      -7.675  76.557 117.663  0.00  0.00     0.091 C 
ENDROOT
BRANCH   1   7
ATOM      7  O   LIG d   1      -9.121  74.891 116.597  0.00  0.00    -0.368 OA
BRANCH   7   8
ATOM      8  C   LIG d   1      -9.039  73.962 117.705  0.00  0.00     0.119 C 
BRANCH   8   9
ATOM      9  C   LIG d   1      -9.414  72.567 117.168  0.00  0.00     0.028 C 
ATOM     10  C   LIG d   1      -8.186  71.660 116.982  0.00  0.00     0.006 C 
ENDBRANCH   8   9
BRANCH   8  11
ATOM     11  C   LIG d   1     -10.086  74.279 118.777  0.00  0.00     0.028 C 
ATOM     12  C   LIG d   1     -11.027  73.097 119.059  0.00  0.00     0.006 C 
ENDBRANCH   8  11
ENDBRANCH   7   8
ENDBRANCH   1   7
BRANCH   6  13
ATOM     13  N   LIG d   1      -8.686  77.645 117.742  0.00  0.00    -0.311 N 
ATOM     14  C   LIG d   1      -9.241  78.048 118.883  0.00  0.00     0.210 C 
ATOM     15  C   LIG d   1     -10.275  79.169 118.738  0.00  0.00     0.109 C 
ATOM     16  O   LIG d   1      -8.953  77.606 120.005  0.00  0.00    -0.276 OA
ATOM     17  H   LIG d   1      -8.955  78.080 116.881  0.00  0.00     0.149 HD
ENDBRANCH   6  13
BRANCH   5  18
ATOM     18  N   LIG d   1      -5.872  77.788 118.923  0.00  0.00     0.381 N 
ATOM     19  H   LIG d   1      -6.684  77.879 119.501  0.00  0.00    -0.090 HD
ATOM     20  H   LIG d   1      -5.536  78.709 118.704  0.00  0.00    -0.090 HD
ATOM     21  H   LIG d   1      -5.168  77.275 119.407  0.00  0.00    -0.090 HD
ENDBRANCH   5  18
BRANCH   3  22
ATOM     22  C   LIG d   1      -4.532  74.453 115.758  0.00  0.00     0.382 C 
ATOM     23  O   LIG d   1      -4.457  74.477 114.506  0.00  0.00    -0.241 OA
ATOM     24  O   LIG d   1      -3.695  73.801 116.410  0.00  0.00    -0.241 OA
ENDBRANCH   3  22
TORSDOF 7
ENDMDL
MODEL 5
REMARK VINA RESULT:      -5.1     15.089     16.671
REMARK  7 active torsions:
REMARK  status: ('A' for Active; 'I' for Inactive)
REMARK    1  A    between atoms: C_2  and  C_3 
REMARK    2  A    between atoms: C_3  and  O_6 
REMARK    3  A    between atoms: C_3  and  C_4 
REMARK    4  A    between atoms: C_7  and  O_6 
REMARK    5  A    between atoms: C_9  and  C_10 
REMARK    6  A    between atoms: N_15  and  C_14 
REMARK    7  A    between atoms: N_20  and  C_19 
REMARK       I    between atoms: C_22  and  N_20 
ROOT
ATOM      1  C   LIG d   1      -4.254  89.841 117.457  0.00  0.00     0.161 C 
ATOM      2  C   LIG d   1      -3.272  88.837 117.507  0.00  0.00     0.016 C 
ATOM      3  C   LIG d   1      -2.149  88.889 118.364  0.00  0.00     0.038 C 
ATOM      4  C   LIG d   1      -2.010  89.882 119.344  0.00  0.00     0.028 C 
ATOM      5  C   LIG d   1      -2.714  91.187 118.989  0.00  0.00    -0.047 C 
ATOM      6  C   LIG d   1      -4.177  90.877 118.598  0.00  0.00     0.091 C 
ENDROOT
BRANCH   1   7
ATOM      7  O   LIG d   1      -5.564  89.241 117.412  0.00  0.00    -0.368 OA
BRANCH   7   8
ATOM      8  C   LIG d   1      -6.205  89.208 116.113  0.00  0.00     0.119 C 
BRANCH   8   9
ATOM      9  C   LIG d   1      -5.511  90.260 115.227  0.00  0.00     0.028 C 
ATOM     10  C   LIG d   1      -6.448  91.419 114.848  0.00  0.00     0.006 C 
ENDBRANCH   8   9
BRANCH   8  11
ATOM     11  C   LIG d   1      -7.668  89.655 116.203  0.00  0.00     0.028 C 
ATOM     12  C   LIG d   1      -8.586  88.572 116.791  0.00  0.00     0.006 C 
ENDBRANCH   8  11
ENDBRANCH   7   8
ENDBRANCH   1   7
BRANCH   6  13
ATOM     13  N   LIG d   1      -4.914  92.089 118.154  0.00  0.00    -0.311 N 
ATOM     14  C   LIG d   1      -6.180  92.340 118.487  0.00  0.00     0.210 C 
ATOM     15  C   LIG d   1      -6.756  93.636 117.907  0.00  0.00     0.109 C 
ATOM     16  O   LIG d   1      -6.869  91.629 119.233  0.00  0.00    -0.276 OA
ATOM     17  H   LIG d   1      -4.420  92.735 117.571  0.00  0.00     0.149 HD
ENDBRANCH   6  13
BRANCH   5  18
ATOM     18  N   LIG d   1      -2.605  92.084 120.154  0.00  0.00     0.381 N 
ATOM     19  H   LIG d   1      -2.422  91.548 120.979  0.00  0.00    -0.090 HD
ATOM     20  H   LIG d   1      -3.479  92.564 120.278  0.00  0.00    -0.090 HD
ATOM     21  H   LIG d   1      -1.873  92.744 120.009  0.00  0.00    -0.090 HD
ENDBRANCH   5  18
BRANCH   3  22
ATOM     22  C   LIG d   1      -1.130  87.960 118.217  0.00  0.00     0.382 C 
ATOM     23  O   LIG d   1      -0.638  87.742 117.084  0.00  0.00    -0.241 OA
ATOM     24  O   LIG d   1      -0.725  87.306 119.197  0.00  0.00    -0.241 OA
ENDBRANCH   3  22
TORSDOF 7
ENDMDL
MODEL 6
REMARK VINA RESULT:      -4.9     15.219     17.408
REMARK  7 active torsions:
REMARK  status: ('A' for Active; 'I' for Inactive)
REMARK    1  A    between atoms: C_2  and  C_3 
REMARK    2  A    between atoms: C_3  and  O_6 
REMARK    3  A    between atoms: C_3  and  C_4 
REMARK    4  A    between atoms: C_7  and  O_6 
REMARK    5  A    between atoms: C_9  and  C_10 
REMARK    6  A    between atoms: N_15  and  C_14 
REMARK    7  A    between atoms: N_20  and  C_19 
REMARK       I    between atoms: C_22  and  N_20 
ROOT
ATOM      1  C   LIG d   1      -3.798  90.450 118.041  0.00  0.00     0.161 C 
ATOM      2  C   LIG d   1      -4.758  89.656 117.391  0.00  0.00     0.016 C 
ATOM      3  C   LIG d   1      -5.981  90.164 116.895  0.00  0.00     0.038 C 
ATOM      4  C   LIG d   1      -6.262  91.538 116.881  0.00  0.00     0.028 C 
ATOM      5  C   LIG d   1      -5.545  92.314 117.980  0.00  0.00    -0.047 C 
ATOM      6  C   LIG d   1      -4.038  91.971 117.936  0.00  0.00     0.091 C 
ENDROOT
BRANCH   1   7
ATOM      7  O   LIG d   1      -2.481  90.117 117.560  0.00  0.00    -0.368 OA
BRANCH   7   8
ATOM      8  C   LIG d   1      -1.575  89.540 118.531  0.00  0.00     0.119 C 
BRANCH   8   9
ATOM      9  C   LIG d   1      -0.189  90.174 118.306  0.00  0.00     0.028 C 
ATOM     10  C   LIG d   1       0.069  90.510 116.827  0.00  0.00     0.006 C 
ENDBRANCH   8   9
BRANCH   8  11
ATOM     11  C   LIG d   1      -1.378  88.040 118.289  0.00  0.00     0.028 C 
ATOM     12  C   LIG d   1      -1.825  87.180 119.482  0.00  0.00     0.006 C 
ENDBRANCH   8  11
ENDBRANCH   7   8
ENDBRANCH   1   7
BRANCH   6  13
ATOM     13  N   LIG d   1      -3.276  92.623 119.032  0.00  0.00    -0.311 N 
ATOM     14  C   LIG d   1      -2.170  93.338 118.832  0.00  0.00     0.210 C 
ATOM     15  C   LIG d   1      -1.528  93.907 120.101  0.00  0.00     0.109 C 
ATOM     16  O   LIG d   1      -1.678  93.582 117.720  0.00  0.00    -0.276 OA
ATOM     17  H   LIG d   1      -3.622  92.502 119.964  0.00  0.00     0.149 HD
ENDBRANCH   6  13
BRANCH   5  18
ATOM     18  N   LIG d   1      -5.818  93.748 117.765  0.00  0.00     0.381 N 
ATOM     19  H   LIG d   1      -6.570  93.855 117.114  0.00  0.00    -0.090 HD
ATOM     20  H   LIG d   1      -4.999  94.179 117.374  0.00  0.00    -0.090 HD
ATOM     21  H   LIG d   1      -6.051  94.184 118.629  0.00  0.00    -0.090 HD
ENDBRANCH   5  18
BRANCH   3  22
ATOM     22  C   LIG d   1      -6.955  89.288 116.441  0.00  0.00     0.382 C 
ATOM     23  O   LIG d   1      -7.615  88.605 117.261  0.00  0.00    -0.241 OA
ATOM     24  O   LIG d   1      -7.152  89.139 115.220  0.00  0.00    -0.241 OA
ENDBRANCH   3  22
TORSDOF 7
ENDMDL
MODEL 7
REMARK VINA RESULT:      -4.9      2.718      5.549
REMARK  7 active torsions:
REMARK  status: ('A' for Active; 'I' for Inactive)
REMARK    1  A    between atoms: C_2  and  C_3 
REMARK    2  A    between atoms: C_3  and  O_6 
REMARK    3  A    between atoms: C_3  and  C_4 
REMARK    4  A    between atoms: C_7  and  O_6 
REMARK    5  A    between atoms: C_9  and  C_10 
REMARK    6  A    between atoms: N_15  and  C_14 
REMARK    7  A    between atoms: N_20  and  C_19 
REMARK       I    between atoms: C_22  and  N_20 
ROOT
ATOM      1  C   LIG d   1      -8.597  77.046 117.667  0.00  0.00     0.161 C 
ATOM      2  C   LIG d   1      -7.553  77.982 117.576  0.00  0.00     0.016 C 
ATOM      3  C   LIG d   1      -7.572  79.235 118.229  0.00  0.00     0.038 C 
ATOM      4  C   LIG d   1      -8.577  79.579 119.146  0.00  0.00     0.028 C 
ATOM      5  C   LIG d   1      -9.904  78.876 118.881  0.00  0.00    -0.047 C 
ATOM      6  C   LIG d   1      -9.651  77.357 118.751  0.00  0.00     0.091 C 
ENDROOT
BRANCH   1   7
ATOM      7  O   LIG d   1      -8.055  75.725 117.860  0.00  0.00    -0.368 OA
BRANCH   7   8
ATOM      8  C   LIG d   1      -8.229  74.798 116.760  0.00  0.00     0.119 C 
BRANCH   8   9
ATOM      9  C   LIG d   1      -9.089  73.627 117.274  0.00  0.00     0.028 C 
ATOM     10  C   LIG d   1      -8.391  72.267 117.104  0.00  0.00     0.006 C 
ENDBRANCH   8   9
BRANCH   8  11
ATOM     11  C   LIG d   1      -6.896  74.169 116.344  0.00  0.00     0.028 C 
ATOM     12  C   LIG d   1      -6.210  74.931 115.199  0.00  0.00     0.006 C 
ENDBRANCH   8  11
ENDBRANCH   7   8
ENDBRANCH   1   7
BRANCH   6  13
ATOM     13  N   LIG d   1     -10.885  76.604 118.408  0.00  0.00    -0.311 N 
ATOM     14  C   LIG d   1     -11.669  76.027 119.317  0.00  0.00     0.210 C 
ATOM     15  C   LIG d   1     -12.881  75.283 118.747  0.00  0.00     0.109 C 
ATOM     16  O   LIG d   1     -11.493  76.089 120.543  0.00  0.00    -0.276 OA
ATOM     17  H   LIG d   1     -11.120  76.531 117.437  0.00  0.00     0.149 HD
ENDBRANCH   6  13
BRANCH   5  18
ATOM     18  N   LIG d   1     -10.818  79.218 119.987  0.00  0.00     0.381 N 
ATOM     19  H   LIG d   1     -10.289  79.488 120.792  0.00  0.00    -0.090 HD
ATOM     20  H   LIG d   1     -11.359  78.405 120.225  0.00  0.00    -0.090 HD
ATOM     21  H   LIG d   1     -11.423  79.960 119.713  0.00  0.00    -0.090 HD
ENDBRANCH   5  18
BRANCH   3  22
ATOM     22  C   LIG d   1      -6.598  80.178 117.936  0.00  0.00     0.382 C 
ATOM     23  O   LIG d   1      -5.425  80.018 118.354  0.00  0.00    -0.241 OA
ATOM     24  O   LIG d   1      -6.886  81.207 117.298  0.00  0.00    -0.241 OA
ENDBRANCH   3  22
TORSDOF 7
ENDMDL
MODEL 8
REMARK VINA RESULT:      -4.9      2.472      5.184
REMARK  7 active torsions:
REMARK  status: ('A' for Active; 'I' for Inactive)
REMARK    1  A    between atoms: C_2  and  C_3 
REMARK    2  A    between atoms: C_3  and  O_6 
REMARK    3  A    between atoms: C_3  and  C_4 
REMARK    4  A    between atoms: C_7  and  O_6 
REMARK    5  A    between atoms: C_9  and  C_10 
REMARK    6  A    between atoms: N_15  and  C_14 
REMARK    7  A    between atoms: N_20  and  C_19 
REMARK       I    between atoms: C_22  and  N_20 
ROOT
ATOM      1  C   LIG d   1      -7.522  76.046 116.964  0.00  0.00     0.161 C 
ATOM      2  C   LIG d   1      -6.827  75.605 115.826  0.00  0.00     0.016 C 
ATOM      3  C   LIG d   1      -5.430  75.749 115.662  0.00  0.00     0.038 C 
ATOM      4  C   LIG d   1      -4.606  76.213 116.699  0.00  0.00     0.028 C 
ATOM      5  C   LIG d   1      -5.325  77.139 117.675  0.00  0.00    -0.047 C 
ATOM      6  C   LIG d   1      -6.626  76.454 118.152  0.00  0.00     0.091 C 
ENDROOT
BRANCH   1   7
ATOM      7  O   LIG d   1      -8.473  75.045 117.375  0.00  0.00    -0.368 OA
BRANCH   7   8
ATOM      8  C   LIG d   1      -9.828  75.215 116.891  0.00  0.00     0.119 C 
BRANCH   8   9
ATOM      9  C   LIG d   1     -10.590  76.057 117.933  0.00  0.00     0.028 C 
ATOM     10  C   LIG d   1     -12.040  75.582 118.124  0.00  0.00     0.006 C 
ENDBRANCH   8   9
BRANCH   8  11
ATOM     11  C   LIG d   1     -10.571  73.877 116.829  0.00  0.00     0.028 C 
ATOM     12  C   LIG d   1      -9.764  72.720 117.438  0.00  0.00     0.006 C 
ENDBRANCH   8  11
ENDBRANCH   7   8
ENDBRANCH   1   7
BRANCH   6  13
ATOM     13  N   LIG d   1      -7.431  77.327 119.045  0.00  0.00    -0.311 N 
ATOM     14  C   LIG d   1      -7.831  78.552 118.707  0.00  0.00     0.210 C 
ATOM     15  C   LIG d   1      -8.635  79.289 119.782  0.00  0.00     0.109 C 
ATOM     16  O   LIG d   1      -7.624  79.085 117.607  0.00  0.00    -0.276 OA
ATOM     17  H   LIG d   1      -7.671  76.961 119.945  0.00  0.00     0.149 HD
ENDBRANCH   6  13
BRANCH   5  18
ATOM     18  N   LIG d   1      -4.390  77.437 118.777  0.00  0.00     0.381 N 
ATOM     19  H   LIG d   1      -3.449  77.420 118.437  0.00  0.00    -0.090 HD
ATOM     20  H   LIG d   1      -4.483  76.727 119.482  0.00  0.00    -0.090 HD
ATOM     21  H   LIG d   1      -4.595  78.331 119.166  0.00  0.00    -0.090 HD
ENDBRANCH   5  18
BRANCH   3  22
ATOM     22  C   LIG d   1      -4.849  75.465 114.436  0.00  0.00     0.382 C 
ATOM     23  O   LIG d   1      -4.244  76.366 113.805  0.00  0.00    -0.241 OA
ATOM     24  O   LIG d   1      -4.959  74.332 113.932  0.00  0.00    -0.241 OA
ENDBRANCH   3  22
TORSDOF 7
ENDMDL
MODEL 9
REMARK VINA RESULT:      -4.8      2.183      5.402
REMARK  7 active torsions:
REMARK  status: ('A' for Active; 'I' for Inactive)
REMARK    1  A    between atoms: C_2  and  C_3 
REMARK    2  A    between atoms: C_3  and  O_6 
REMARK    3  A    between atoms: C_3  and  C_4 
REMARK    4  A    between atoms: C_7  and  O_6 
REMARK    5  A    between atoms: C_9  and  C_10 
REMARK    6  A    between atoms: N_15  and  C_14 
REMARK    7  A    between atoms: N_20  and  C_19 
REMARK       I    between atoms: C_22  and  N_20 
ROOT
ATOM      1  C   LIG d   1      -8.473  76.865 117.736  0.00  0.00     0.161 C 
ATOM      2  C   LIG d   1      -8.591  78.262 117.814  0.00  0.00     0.016 C 
ATOM      3  C   LIG d   1      -9.694  78.918 118.407  0.00  0.00     0.038 C 
ATOM      4  C   LIG d   1     -10.689  78.214 119.101  0.00  0.00     0.028 C 
ATOM      5  C   LIG d   1     -10.871  76.782 118.612  0.00  0.00    -0.047 C 
ATOM      6  C   LIG d   1      -9.494  76.081 118.586  0.00  0.00     0.091 C 
ENDROOT
BRANCH   1   7
ATOM      7  O   LIG d   1      -7.129  76.468 118.075  0.00  0.00    -0.368 OA
BRANCH   7   8
ATOM      8  C   LIG d   1      -6.438  75.655 117.095  0.00  0.00     0.119 C 
BRANCH   8   9
ATOM      9  C   LIG d   1      -4.996  76.187 116.986  0.00  0.00     0.028 C 
ATOM     10  C   LIG d   1      -4.846  77.601 117.573  0.00  0.00     0.006 C 
ENDBRANCH   8   9
BRANCH   8  11
ATOM     11  C   LIG d   1      -7.042  75.832 115.699  0.00  0.00     0.028 C 
ATOM     12  C   LIG d   1      -6.133  75.289 114.584  0.00  0.00     0.006 C 
ENDBRANCH   8  11
ENDBRANCH   7   8
ENDBRANCH   1   7
BRANCH   6  13
ATOM     13  N   LIG d   1      -9.570  74.701 118.040  0.00  0.00    -0.311 N 
ATOM     14  C   LIG d   1      -9.697  73.616 118.802  0.00  0.00     0.210 C 
ATOM     15  C   LIG d   1      -9.736  72.290 118.037  0.00  0.00     0.109 C 
ATOM     16  O   LIG d   1      -9.813  73.629 120.036  0.00  0.00    -0.276 OA
ATOM     17  H   LIG d   1      -9.515  74.601 117.045  0.00  0.00     0.149 HD
ENDBRANCH   6  13
BRANCH   5  18
ATOM     18  N   LIG d   1     -11.839  76.124 119.510  0.00  0.00     0.381 N 
ATOM     19  H   LIG d   1     -11.586  76.295 120.463  0.00  0.00    -0.090 HD
ATOM     20  H   LIG d   1     -11.809  75.132 119.349  0.00  0.00    -0.090 HD
ATOM     21  H   LIG d   1     -12.757  76.469 119.335  0.00  0.00    -0.090 HD
ENDBRANCH   5  18
BRANCH   3  22
ATOM     22  C   LIG d   1      -9.830  80.292 118.273  0.00  0.00     0.382 C 
ATOM     23  O   LIG d   1      -9.063  81.062 118.900  0.00  0.00    -0.241 OA
ATOM     24  O   LIG d   1     -10.739  80.771 117.569  0.00  0.00    -0.241 OA
ENDBRANCH   3  22
TORSDOF 7
ENDMDL
