MODEL 1
REMARK VINA RESULT:      -5.6      0.000      0.000
REMARK  7 active torsions:
REMARK  status: ('A' for Active; 'I' for Inactive)
REMARK    1  A    between atoms: C_2  and  C_3 
REMARK    2  A    between atoms: C_3  and  O_6 
REMARK    3  A    between atoms: C_3  and  C_4 
REMARK    4  A    between atoms: C_7  and  O_6 
REMARK    5  A    between atoms: C_9  and  C_10 
REMARK    6  A    between atoms: N_15  and  C_14 
REMARK    7  A    between atoms: N_20  and  C_19 
REMARK       I    between atoms: C_22  and  N_20 
ROOT
ATOM      1  C   LIG d   1      -7.149  75.578 117.709  0.00  0.00     0.161 C 
ATOM      2  C   LIG d   1      -8.470  75.518 118.184  0.00  0.00     0.016 C 
ATOM      3  C   LIG d   1      -9.175  76.644 118.669  0.00  0.00     0.038 C 
ATOM      4  C   LIG d   1      -8.655  77.943 118.569  0.00  0.00     0.028 C 
ATOM      5  C   LIG d   1      -7.131  77.987 118.562  0.00  0.00    -0.047 C 
ATOM      6  C   LIG d   1      -6.606  77.006 117.489  0.00  0.00     0.091 C 
ENDROOT
BRANCH   1   7
ATOM      7  O   LIG d   1      -7.030  74.805 116.498  0.00  0.00    -0.368 OA
BRANCH   7   8
ATOM      8  C   LIG d   1      -5.984  73.803 116.482  0.00  0.00     0.119 C 
BRANCH   8   9
ATOM      9  C   LIG d   1      -5.003  74.176 115.354  0.00  0.00     0.028 C 
ATOM     10  C   LIG d   1      -5.647  75.080 114.290  0.00  0.00     0.006 C 
ENDBRANCH   8   9
BRANCH   8  11
ATOM     11  C   LIG d   1      -6.537  72.427 116.100  0.00  0.00     0.028 C 
ATOM     12  C   LIG d   1      -7.621  71.930 117.069  0.00  0.00     0.006 C 
ENDBRANCH   8  11
ENDBRANCH   7   8
ENDBRANCH   1   7
BRANCH   6  13
ATOM     13  N   LIG d   1      -5.122  76.924 117.473  0.00  0.00    -0.311 N 
ATOM     14  C   LIG d   1      -4.356  77.663 116.672  0.00  0.00     0.210 C 
ATOM     15  C   LIG d   1      -2.851  77.408 116.801  0.00  0.00     0.109 C 
ATOM     16  O   LIG d   1      -4.778  78.528 115.890  0.00  0.00    -0.276 OA
ATOM     17  H   LIG d   1      -4.694  76.270 118.098  0.00  0.00     0.149 HD
ENDBRANCH   6  13
BRANCH   5  18
ATOM     18  N   LIG d   1      -6.726  79.384 118.315  0.00  0.00     0.381 N 
ATOM     19  H   LIG d   1      -7.457  80.004 118.603  0.00  0.00    -0.090 HD
ATOM     20  H   LIG d   1      -6.576  79.509 117.330  0.00  0.00    -0.090 HD
ATOM     21  H   LIG d   1      -5.890  79.590 118.816  0.00  0.00    -0.090 HD
ENDBRANCH   5  18
BRANCH   3  22
ATOM     22  C   LIG d   1     -10.398  76.470 119.298  0.00  0.00     0.382 C 
ATOM     23  O   LIG d   1     -11.437  76.961 118.794  0.00  0.00    -0.241 OA
ATOM     24  O   LIG d   1     -10.470  75.866 120.385  0.00  0.00    -0.241 OA
ENDBRANCH   3  22
TORSDOF 7
ENDMDL
MODEL 2
REMARK VINA RESULT:      -5.5      2.450      4.111
REMARK  7 active torsions:
REMARK  status: ('A' for Active; 'I' for Inactive)
REMARK    1  A    between atoms: C_2  and  C_3 
REMARK    2  A    between atoms: C_3  and  O_6 
REMARK    3  A    between atoms: C_3  and  C_4 
REMARK    4  A    between atoms: C_7  and  O_6 
REMARK    5  A    between atoms: C_9  and  C_10 
REMARK    6  A    between atoms: N_15  and  C_14 
REMARK    7  A    between atoms: N_20  and  C_19 
REMARK       I    between atoms: C_22  and  N_20 
ROOT
ATOM      1  C   LIG d   1      -5.257  75.381 117.757  0.00  0.00     0.161 C 
ATOM      2  C   LIG d   1      -5.552  74.110 117.239  0.00  0.00     0.016 C 
ATOM      3  C   LIG d   1      -6.868  73.658 116.987  0.00  0.00     0.038 C 
ATOM      4  C   LIG d   1      -7.978  74.509 117.096  0.00  0.00     0.028 C 
ATOM      5  C   LIG d   1      -7.776  75.642 118.097  0.00  0.00    -0.047 C 
ATOM      6  C   LIG d   1      -6.447  76.364 117.777  0.00  0.00     0.091 C 
ENDROOT
BRANCH   1   7
ATOM      7  O   LIG d   1      -4.146  75.955 117.040  0.00  0.00    -0.368 OA
BRANCH   7   8
ATOM      8  C   LIG d   1      -3.792  75.311 115.792  0.00  0.00     0.119 C 
BRANCH   8   9
ATOM      9  C   LIG d   1      -2.253  75.293 115.701  0.00  0.00     0.028 C 
ATOM     10  C   LIG d   1      -1.613  74.388 116.767  0.00  0.00     0.006 C 
ENDBRANCH   8   9
BRANCH   8  11
ATOM     11  C   LIG d   1      -4.260  76.134 114.588  0.00  0.00     0.028 C 
ATOM     12  C   LIG d   1      -5.487  75.526 113.892  0.00  0.00     0.006 C 
ENDBRANCH   8  11
ENDBRANCH   7   8
ENDBRANCH   1   7
BRANCH   6  13
ATOM     13  N   LIG d   1      -6.131  77.432 118.760  0.00  0.00    -0.311 N 
ATOM     14  C   LIG d   1      -6.433  78.716 118.570  0.00  0.00     0.210 C 
ATOM     15  C   LIG d   1      -6.001  79.656 119.700  0.00  0.00     0.109 C 
ATOM     16  O   LIG d   1      -7.046  79.160 117.588  0.00  0.00    -0.276 OA
ATOM     17  H   LIG d   1      -5.662  77.155 119.600  0.00  0.00     0.149 HD
ENDBRANCH   6  13
BRANCH   5  18
ATOM     18  N   LIG d   1      -8.951  76.529 118.008  0.00  0.00     0.381 N 
ATOM     19  H   LIG d   1      -9.772  76.033 118.292  0.00  0.00    -0.090 HD
ATOM     20  H   LIG d   1      -9.071  76.817 117.053  0.00  0.00    -0.090 HD
ATOM     21  H   LIG d   1      -8.820  77.328 118.589  0.00  0.00    -0.090 HD
ENDBRANCH   5  18
BRANCH   3  22
ATOM     22  C   LIG d   1      -7.088  72.328 116.660  0.00  0.00     0.382 C 
ATOM     23  O   LIG d   1      -6.439  71.797 115.728  0.00  0.00    -0.241 OA
ATOM     24  O   LIG d   1      -7.958  71.667 117.257  0.00  0.00    -0.241 OA
ENDBRANCH   3  22
TORSDOF 7
ENDMDL
MODEL 3
REMARK VINA RESULT:      -5.4      2.578      5.508
REMARK  7 active torsions:
REMARK  status: ('A' for Active; 'I' for Inactive)
REMARK    1  A    between atoms: C_2  and  C_3 
REMARK    2  A    between atoms: C_3  and  O_6 
REMARK    3  A    between atoms: C_3  and  C_4 
REMARK    4  A    between atoms: C_7  and  O_6 
REMARK    5  A    between atoms: C_9  and  C_10 
REMARK    6  A    between atoms: N_15  and  C_14 
REMARK    7  A    between atoms: N_20  and  C_19 
REMARK       I    between atoms: C_22  and  N_20 
ROOT
ATOM      1  C   LIG d   1      -4.863  75.792 115.992  0.00  0.00     0.161 C 
ATOM      2  C   LIG d   1      -3.727  75.022 115.693  0.00  0.00     0.016 C 
ATOM      3  C   LIG d   1      -2.549  75.037 116.475  0.00  0.00     0.038 C 
ATOM      4  C   LIG d   1      -2.483  75.714 117.702  0.00  0.00     0.028 C 
ATOM      5  C   LIG d   1      -3.428  76.908 117.788  0.00  0.00    -0.047 C 
ATOM      6  C   LIG d   1      -4.850  76.451 117.387  0.00  0.00     0.091 C 
ENDROOT
BRANCH   1   7
ATOM      7  O   LIG d   1      -6.052  74.994 115.826  0.00  0.00    -0.368 OA
BRANCH   7   8
ATOM      8  C   LIG d   1      -6.347  74.061 116.895  0.00  0.00     0.119 C 
BRANCH   8   9
ATOM      9  C   LIG d   1      -6.468  72.659 116.266  0.00  0.00     0.028 C 
ATOM     10  C   LIG d   1      -7.468  71.764 117.017  0.00  0.00     0.006 C 
ENDBRANCH   8   9
BRANCH   8  11
ATOM     11  C   LIG d   1      -7.716  74.345 117.520  0.00  0.00     0.028 C 
ATOM     12  C   LIG d   1      -8.558  75.326 116.689  0.00  0.00     0.006 C 
ENDBRANCH   8  11
ENDBRANCH   7   8
ENDBRANCH   1   7
BRANCH   6  13
ATOM     13  N   LIG d   1      -5.821  77.576 117.362  0.00  0.00    -0.311 N 
ATOM     14  C   LIG d   1      -6.606  77.890 118.391  0.00  0.00     0.210 C 
ATOM     15  C   LIG d   1      -7.548  79.073 118.149  0.00  0.00     0.109 C 
ATOM     16  O   LIG d   1      -6.588  77.321 119.493  0.00  0.00    -0.276 OA
ATOM     17  H   LIG d   1      -5.878  78.111 116.518  0.00  0.00     0.149 HD
ENDBRANCH   6  13
BRANCH   5  18
ATOM     18  N   LIG d   1      -3.357  77.435 119.163  0.00  0.00     0.381 N 
ATOM     19  H   LIG d   1      -2.553  78.023 119.260  0.00  0.00    -0.090 HD
ATOM     20  H   LIG d   1      -3.264  76.665 119.802  0.00  0.00    -0.090 HD
ATOM     21  H   LIG d   1      -4.182  77.952 119.373  0.00  0.00    -0.090 HD
ENDBRANCH   5  18
BRANCH   3  22
ATOM     22  C   LIG d   1      -1.407  74.402 116.011  0.00  0.00     0.382 C 
ATOM     23  O   LIG d   1      -1.110  74.459 114.794  0.00  0.00    -0.241 OA
ATOM     24  O   LIG d   1      -0.696  73.736 116.786  0.00  0.00    -0.241 OA
ENDBRANCH   3  22
TORSDOF 7
ENDMDL
MODEL 4
REMARK VINA RESULT:      -5.1      2.371      3.542
REMARK  7 active torsions:
REMARK  status: ('A' for Active; 'I' for Inactive)
REMARK    1  A    between atoms: C_2  and  C_3 
REMARK    2  A    between atoms: C_3  and  O_6 
REMARK    3  A    between atoms: C_3  and  C_4 
REMARK    4  A    between atoms: C_7  and  O_6 
REMARK    5  A    between atoms: C_9  and  C_10 
REMARK    6  A    between atoms: N_15  and  C_14 
REMARK    7  A    between atoms: N_20  and  C_19 
REMARK       I    between atoms: C_22  and  N_20 
ROOT
ATOM      1  C   LIG d   1      -5.057  75.728 118.132  0.00  0.00     0.161 C 
ATOM      2  C   LIG d   1      -6.178  76.570 118.230  0.00  0.00     0.016 C 
ATOM      3  C   LIG d   1      -6.205  77.890 117.724  0.00  0.00     0.038 C 
ATOM      4  C   LIG d   1      -5.159  78.408 116.948  0.00  0.00     0.028 C 
ATOM      5  C   LIG d   1      -3.806  77.775 117.254  0.00  0.00    -0.047 C 
ATOM      6  C   LIG d   1      -3.946  76.237 117.191  0.00  0.00     0.091 C 
ENDROOT
BRANCH   1   7
ATOM      7  O   LIG d   1      -5.474  74.403 117.745  0.00  0.00    -0.368 OA
BRANCH   7   8
ATOM      8  C   LIG d   1      -6.415  74.327 116.646  0.00  0.00     0.119 C 
BRANCH   8   9
ATOM      9  C   LIG d   1      -7.504  73.309 117.039  0.00  0.00     0.028 C 
ATOM     10  C   LIG d   1      -7.054  71.855 116.821  0.00  0.00     0.006 C 
ENDBRANCH   8   9
BRANCH   8  11
ATOM     11  C   LIG d   1      -5.757  73.752 115.388  0.00  0.00     0.028 C 
ATOM     12  C   LIG d   1      -5.532  74.810 114.297  0.00  0.00     0.006 C 
ENDBRANCH   8  11
ENDBRANCH   7   8
ENDBRANCH   1   7
BRANCH   6  13
ATOM     13  N   LIG d   1      -2.688  75.537 117.560  0.00  0.00    -0.311 N 
ATOM     14  C   LIG d   1      -1.982  74.798 116.707  0.00  0.00     0.210 C 
ATOM     15  C   LIG d   1      -0.727  74.148 117.298  0.00  0.00     0.109 C 
ATOM     16  O   LIG d   1      -2.259  74.645 115.507  0.00  0.00    -0.276 OA
ATOM     17  H   LIG d   1      -2.374  75.634 118.506  0.00  0.00     0.149 HD
ENDBRANCH   6  13
BRANCH   5  18
ATOM     18  N   LIG d   1      -2.834  78.308 116.281  0.00  0.00     0.381 N 
ATOM     19  H   LIG d   1      -2.093  77.649 116.147  0.00  0.00    -0.090 HD
ATOM     20  H   LIG d   1      -2.439  79.156 116.646  0.00  0.00    -0.090 HD
ATOM     21  H   LIG d   1      -3.286  78.490 115.412  0.00  0.00    -0.090 HD
ENDBRANCH   5  18
BRANCH   3  22
ATOM     22  C   LIG d   1      -7.273  78.720 118.029  0.00  0.00     0.382 C 
ATOM     23  O   LIG d   1      -7.298  79.896 117.593  0.00  0.00    -0.241 OA
ATOM     24  O   LIG d   1      -8.191  78.322 118.771  0.00  0.00    -0.241 OA
ENDBRANCH   3  22
TORSDOF 7
ENDMDL
MODEL 5
REMARK VINA RESULT:      -4.7     13.189     15.637
REMARK  7 active torsions:
REMARK  status: ('A' for Active; 'I' for Inactive)
REMARK    1  A    between atoms: C_2  and  C_3 
REMARK    2  A    between atoms: C_3  and  O_6 
REMARK    3  A    between atoms: C_3  and  C_4 
REMARK    4  A    between atoms: C_7  and  O_6 
REMARK    5  A    between atoms: C_9  and  C_10 
REMARK    6  A    between atoms: N_15  and  C_14 
REMARK    7  A    between atoms: N_20  and  C_19 
REMARK       I    between atoms: C_22  and  N_20 
ROOT
ATOM      1  C   LIG d   1       1.395  88.801 116.224  0.00  0.00     0.161 C 
ATOM      2  C   LIG d   1       0.073  88.931 116.681  0.00  0.00     0.016 C 
ATOM      3  C   LIG d   1      -0.417  90.091 117.325  0.00  0.00     0.038 C 
ATOM      4  C   LIG d   1       0.345  91.264 117.420  0.00  0.00     0.028 C 
ATOM      5  C   LIG d   1       1.849  91.011 117.424  0.00  0.00    -0.047 C 
ATOM      6  C   LIG d   1       2.210  90.112 116.220  0.00  0.00     0.091 C 
ENDROOT
BRANCH   1   7
ATOM      7  O   LIG d   1       1.402  88.203 114.913  0.00  0.00    -0.368 OA
BRANCH   7   8
ATOM      8  C   LIG d   1       1.617  86.771 114.867  0.00  0.00     0.119 C 
BRANCH   8   9
ATOM      9  C   LIG d   1       2.904  86.522 114.055  0.00  0.00     0.028 C 
ATOM     10  C   LIG d   1       4.091  86.120 114.946  0.00  0.00     0.006 C 
ENDBRANCH   8   9
BRANCH   8  11
ATOM     11  C   LIG d   1       0.504  86.065 114.088  0.00  0.00     0.028 C 
ATOM     12  C   LIG d   1      -0.706  85.711 114.967  0.00  0.00     0.006 C 
ENDBRANCH   8  11
ENDBRANCH   7   8
ENDBRANCH   1   7
BRANCH   6  13
ATOM     13  N   LIG d   1       3.650  89.745 116.197  0.00  0.00    -0.311 N 
ATOM     14  C   LIG d   1       4.419  89.864 115.116  0.00  0.00     0.210 C 
ATOM     15  C   LIG d   1       5.871  89.411 115.303  0.00  0.00     0.109 C 
ATOM     16  O   LIG d   1       4.046  90.331 114.030  0.00  0.00    -0.276 OA
ATOM     17  H   LIG d   1       4.043  89.387 117.045  0.00  0.00     0.149 HD
ENDBRANCH   6  13
BRANCH   5  18
ATOM     18  N   LIG d   1       2.523  92.323 117.389  0.00  0.00     0.381 N 
ATOM     19  H   LIG d   1       1.962  92.977 116.881  0.00  0.00    -0.090 HD
ATOM     20  H   LIG d   1       3.402  92.224 116.912  0.00  0.00    -0.090 HD
ATOM     21  H   LIG d   1       2.675  92.653 118.316  0.00  0.00    -0.090 HD
ENDBRANCH   5  18
BRANCH   3  22
ATOM     22  C   LIG d   1      -1.671  90.070 117.917  0.00  0.00     0.382 C 
ATOM     23  O   LIG d   1      -1.789  90.301 119.144  0.00  0.00    -0.241 OA
ATOM     24  O   LIG d   1      -2.681  89.780 117.247  0.00  0.00    -0.241 OA
ENDBRANCH   3  22
TORSDOF 7
ENDMDL
MODEL 6
REMARK VINA RESULT:      -4.7      2.792      4.490
REMARK  7 active torsions:
REMARK  status: ('A' for Active; 'I' for Inactive)
REMARK    1  A    between atoms: C_2  and  C_3 
REMARK    2  A    between atoms: C_3  and  O_6 
REMARK    3  A    between atoms: C_3  and  C_4 
REMARK    4  A    between atoms: C_7  and  O_6 
REMARK    5  A    between atoms: C_9  and  C_10 
REMARK    6  A    between atoms: N_15  and  C_14 
REMARK    7  A    between atoms: N_20  and  C_19 
REMARK       I    between atoms: C_22  and  N_20 
ROOT
ATOM      1  C   LIG d   1      -4.429  74.973 117.007  0.00  0.00     0.161 C 
ATOM      2  C   LIG d   1      -4.989  73.688 116.918  0.00  0.00     0.016 C 
ATOM      3  C   LIG d   1      -6.370  73.429 117.074  0.00  0.00     0.038 C 
ATOM      4  C   LIG d   1      -7.312  74.463 117.180  0.00  0.00     0.028 C 
ATOM      5  C   LIG d   1      -6.740  75.744 117.779  0.00  0.00    -0.047 C 
ATOM      6  C   LIG d   1      -5.454  76.127 117.011  0.00  0.00     0.091 C 
ENDROOT
BRANCH   1   7
ATOM      7  O   LIG d   1      -3.468  75.162 115.950  0.00  0.00    -0.368 OA
BRANCH   7   8
ATOM      8  C   LIG d   1      -2.114  74.730 116.235  0.00  0.00     0.119 C 
BRANCH   8   9
ATOM      9  C   LIG d   1      -1.689  75.387 117.562  0.00  0.00     0.028 C 
ATOM     10  C   LIG d   1      -0.495  74.670 118.216  0.00  0.00     0.006 C 
ENDBRANCH   8   9
BRANCH   8  11
ATOM     11  C   LIG d   1      -1.129  75.256 115.187  0.00  0.00     0.028 C 
ATOM     12  C   LIG d   1      -1.541  76.622 114.615  0.00  0.00     0.006 C 
ENDBRANCH   8  11
ENDBRANCH   7   8
ENDBRANCH   1   7
BRANCH   6  13
ATOM     13  N   LIG d   1      -4.785  77.322 117.588  0.00  0.00    -0.311 N 
ATOM     14  C   LIG d   1      -4.320  78.329 116.851  0.00  0.00     0.210 C 
ATOM     15  C   LIG d   1      -3.646  79.453 117.643  0.00  0.00     0.109 C 
ATOM     16  O   LIG d   1      -4.431  78.413 115.618  0.00  0.00    -0.276 OA
ATOM     17  H   LIG d   1      -4.681  77.350 118.583  0.00  0.00     0.149 HD
ENDBRANCH   6  13
BRANCH   5  18
ATOM     18  N   LIG d   1      -7.789  76.778 117.704  0.00  0.00     0.381 N 
ATOM     19  H   LIG d   1      -7.691  77.298 116.854  0.00  0.00    -0.090 HD
ATOM     20  H   LIG d   1      -7.677  77.412 118.475  0.00  0.00    -0.090 HD
ATOM     21  H   LIG d   1      -8.689  76.354 117.741  0.00  0.00    -0.090 HD
ENDBRANCH   5  18
BRANCH   3  22
ATOM     22  C   LIG d   1      -6.818  72.119 117.165  0.00  0.00     0.382 C 
ATOM     23  O   LIG d   1      -8.008  71.842 116.881  0.00  0.00    -0.241 OA
ATOM     24  O   LIG d   1      -6.058  71.219 117.569  0.00  0.00    -0.241 OA
ENDBRANCH   3  22
TORSDOF 7
ENDMDL
MODEL 7
REMARK VINA RESULT:      -4.7      2.746      4.138
REMARK  7 active torsions:
REMARK  status: ('A' for Active; 'I' for Inactive)
REMARK    1  A    between atoms: C_2  and  C_3 
REMARK    2  A    between atoms: C_3  and  O_6 
REMARK    3  A    between atoms: C_3  and  C_4 
REMARK    4  A    between atoms: C_7  and  O_6 
REMARK    5  A    between atoms: C_9  and  C_10 
REMARK    6  A    between atoms: N_15  and  C_14 
REMARK    7  A    between atoms: N_20  and  C_19 
REMARK       I    between atoms: C_22  and  N_20 
ROOT
ATOM      1  C   LIG d   1      -5.186  77.364 116.879  0.00  0.00     0.161 C 
ATOM      2  C   LIG d   1      -6.011  78.446 117.230  0.00  0.00     0.016 C 
ATOM      3  C   LIG d   1      -5.579  79.792 117.213  0.00  0.00     0.038 C 
ATOM      4  C   LIG d   1      -4.329  80.163 116.694  0.00  0.00     0.028 C 
ATOM      5  C   LIG d   1      -3.278  79.063 116.800  0.00  0.00    -0.047 C 
ATOM      6  C   LIG d   1      -3.855  77.758 116.204  0.00  0.00     0.091 C 
ENDROOT
BRANCH   1   7
ATOM      7  O   LIG d   1      -5.917  76.443 116.046  0.00  0.00    -0.368 OA
BRANCH   7   8
ATOM      8  C   LIG d   1      -6.309  75.194 116.668  0.00  0.00     0.119 C 
BRANCH   8   9
ATOM      9  C   LIG d   1      -5.908  74.055 115.711  0.00  0.00     0.028 C 
ATOM     10  C   LIG d   1      -6.457  72.690 116.161  0.00  0.00     0.006 C 
ENDBRANCH   8   9
BRANCH   8  11
ATOM     11  C   LIG d   1      -7.831  75.093 116.803  0.00  0.00     0.028 C 
ATOM     12  C   LIG d   1      -8.347  75.643 118.143  0.00  0.00     0.006 C 
ENDBRANCH   8  11
ENDBRANCH   7   8
ENDBRANCH   1   7
BRANCH   6  13
ATOM     13  N   LIG d   1      -2.922  76.610 116.345  0.00  0.00    -0.311 N 
ATOM     14  C   LIG d   1      -2.607  75.795 115.340  0.00  0.00     0.210 C 
ATOM     15  C   LIG d   1      -1.642  74.662 115.705  0.00  0.00     0.109 C 
ATOM     16  O   LIG d   1      -3.009  75.921 114.174  0.00  0.00    -0.276 OA
ATOM     17  H   LIG d   1      -2.525  76.453 117.250  0.00  0.00     0.149 HD
ENDBRANCH   6  13
BRANCH   5  18
ATOM     18  N   LIG d   1      -2.069  79.533 116.100  0.00  0.00     0.381 N 
ATOM     19  H   LIG d   1      -1.441  79.957 116.754  0.00  0.00    -0.090 HD
ATOM     20  H   LIG d   1      -2.334  80.227 115.423  0.00  0.00    -0.090 HD
ATOM     21  H   LIG d   1      -1.619  78.769 115.645  0.00  0.00    -0.090 HD
ENDBRANCH   5  18
BRANCH   3  22
ATOM     22  C   LIG d   1      -6.386  80.780 117.755  0.00  0.00     0.382 C 
ATOM     23  O   LIG d   1      -6.506  80.879 119.000  0.00  0.00    -0.241 OA
ATOM     24  O   LIG d   1      -7.032  81.546 117.015  0.00  0.00    -0.241 OA
ENDBRANCH   3  22
TORSDOF 7
ENDMDL
MODEL 8
REMARK VINA RESULT:      -4.5      2.284      2.945
REMARK  7 active torsions:
REMARK  status: ('A' for Active; 'I' for Inactive)
REMARK    1  A    between atoms: C_2  and  C_3 
REMARK    2  A    between atoms: C_3  and  O_6 
REMARK    3  A    between atoms: C_3  and  C_4 
REMARK    4  A    between atoms: C_7  and  O_6 
REMARK    5  A    between atoms: C_9  and  C_10 
REMARK    6  A    between atoms: N_15  and  C_14 
REMARK    7  A    between atoms: N_20  and  C_19 
REMARK       I    between atoms: C_22  and  N_20 
ROOT
ATOM      1  C   LIG d   1      -6.747  78.361 118.047  0.00  0.00     0.161 C 
ATOM      2  C   LIG d   1      -8.076  78.637 118.409  0.00  0.00     0.016 C 
ATOM      3  C   LIG d   1      -8.636  79.935 118.383  0.00  0.00     0.038 C 
ATOM      4  C   LIG d   1      -7.944  81.030 117.845  0.00  0.00     0.028 C 
ATOM      5  C   LIG d   1      -6.428  80.893 117.938  0.00  0.00    -0.047 C 
ATOM      6  C   LIG d   1      -6.011  79.525 117.352  0.00  0.00     0.091 C 
ENDROOT
BRANCH   1   7
ATOM      7  O   LIG d   1      -6.701  77.177 117.226  0.00  0.00    -0.368 OA
BRANCH   7   8
ATOM      8  C   LIG d   1      -6.384  75.939 117.909  0.00  0.00     0.119 C 
BRANCH   8   9
ATOM      9  C   LIG d   1      -5.246  75.256 117.126  0.00  0.00     0.028 C 
ATOM     10  C   LIG d   1      -4.907  75.995 115.820  0.00  0.00     0.006 C 
ENDBRANCH   8   9
BRANCH   8  11
ATOM     11  C   LIG d   1      -7.558  74.957 117.856  0.00  0.00     0.028 C 
ATOM     12  C   LIG d   1      -8.561  75.288 116.739  0.00  0.00     0.006 C 
ENDBRANCH   8  11
ENDBRANCH   7   8
ENDBRANCH   1   7
BRANCH   6  13
ATOM     13  N   LIG d   1      -4.552  79.274 117.480  0.00  0.00    -0.311 N 
ATOM     14  C   LIG d   1      -3.679  79.507 116.502  0.00  0.00     0.210 C 
ATOM     15  C   LIG d   1      -2.225  79.161 116.836  0.00  0.00     0.109 C 
ATOM     16  O   LIG d   1      -3.967  79.999 115.400  0.00  0.00    -0.276 OA
ATOM     17  H   LIG d   1      -4.227  78.905 118.353  0.00  0.00     0.149 HD
ENDBRANCH   6  13
BRANCH   5  18
ATOM     18  N   LIG d   1      -5.832  82.035 117.219  0.00  0.00     0.381 N 
ATOM     19  H   LIG d   1      -5.934  81.905 116.232  0.00  0.00    -0.090 HD
ATOM     20  H   LIG d   1      -4.851  82.078 117.432  0.00  0.00    -0.090 HD
ATOM     21  H   LIG d   1      -6.277  82.883 117.497  0.00  0.00    -0.090 HD
ENDBRANCH   5  18
BRANCH   3  22
ATOM     22  C   LIG d   1      -9.888  80.155 118.936  0.00  0.00     0.382 C 
ATOM     23  O   LIG d   1     -10.849  79.408 118.630  0.00  0.00    -0.241 OA
ATOM     24  O   LIG d   1     -10.080  81.117 119.703  0.00  0.00    -0.241 OA
ENDBRANCH   3  22
TORSDOF 7
ENDMDL
MODEL 9
REMARK VINA RESULT:      -4.5     13.535     16.044
REMARK  7 active torsions:
REMARK  status: ('A' for Active; 'I' for Inactive)
REMARK    1  A    between atoms: C_2  and  C_3 
REMARK    2  A    between atoms: C_3  and  O_6 
REMARK    3  A    between atoms: C_3  and  C_4 
REMARK    4  A    between atoms: C_7  and  O_6 
REMARK    5  A    between atoms: C_9  and  C_10 
REMARK    6  A    between atoms: N_15  and  C_14 
REMARK    7  A    between atoms: N_20  and  C_19 
REMARK       I    between atoms: C_22  and  N_20 
ROOT
ATOM      1  C   LIG d   1       0.906  89.453 116.835  0.00  0.00     0.161 C 
ATOM      2  C   LIG d   1      -0.491  89.333 116.929  0.00  0.00     0.016 C 
ATOM      3  C   LIG d   1      -1.316  90.301 117.546  0.00  0.00     0.038 C 
ATOM      4  C   LIG d   1      -0.811  91.536 117.981  0.00  0.00     0.028 C 
ATOM      5  C   LIG d   1       0.664  91.487 118.363  0.00  0.00    -0.047 C 
ATOM      6  C   LIG d   1       1.461  90.844 117.205  0.00  0.00     0.091 C 
ENDROOT
BRANCH   1   7
ATOM      7  O   LIG d   1       1.341  89.074 115.515  0.00  0.00    -0.368 OA
BRANCH   7   8
ATOM      8  C   LIG d   1       2.026  87.802 115.410  0.00  0.00     0.119 C 
BRANCH   8   9
ATOM      9  C   LIG d   1       3.115  87.949 114.330  0.00  0.00     0.028 C 
ATOM     10  C   LIG d   1       3.685  89.376 114.262  0.00  0.00     0.006 C 
ENDBRANCH   8   9
BRANCH   8  11
ATOM     11  C   LIG d   1       1.089  86.706 114.894  0.00  0.00     0.028 C 
ATOM     12  C   LIG d   1       0.553  85.802 116.017  0.00  0.00     0.006 C 
ENDBRANCH   8  11
ENDBRANCH   7   8
ENDBRANCH   1   7
BRANCH   6  13
ATOM     13  N   LIG d   1       2.902  90.681 117.531  0.00  0.00    -0.311 N 
ATOM     14  C   LIG d   1       3.815  91.625 117.310  0.00  0.00     0.210 C 
ATOM     15  C   LIG d   1       5.247  91.244 117.701  0.00  0.00     0.109 C 
ATOM     16  O   LIG d   1       3.571  92.753 116.858  0.00  0.00    -0.276 OA
ATOM     17  H   LIG d   1       3.183  89.807 117.931  0.00  0.00     0.149 HD
ENDBRANCH   6  13
BRANCH   5  18
ATOM     18  N   LIG d   1       1.093  92.866 118.665  0.00  0.00     0.381 N 
ATOM     19  H   LIG d   1       1.949  92.849 119.182  0.00  0.00    -0.090 HD
ATOM     20  H   LIG d   1       0.390  93.308 119.232  0.00  0.00    -0.090 HD
ATOM     21  H   LIG d   1       1.217  93.377 117.819  0.00  0.00    -0.090 HD
ENDBRANCH   5  18
BRANCH   3  22
ATOM     22  C   LIG d   1      -2.655  90.022 117.769  0.00  0.00     0.382 C 
ATOM     23  O   LIG d   1      -3.124  90.084 118.931  0.00  0.00    -0.241 OA
ATOM     24  O   LIG d   1      -3.391  89.665 116.830  0.00  0.00    -0.241 OA
ENDBRANCH   3  22
TORSDOF 7
ENDMDL
