MODEL 1
REMARK VINA RESULT:      -5.0      0.000      0.000
REMARK  7 active torsions:
REMARK  status: ('A' for Active; 'I' for Inactive)
REMARK    1  A    between atoms: C_2  and  C_3 
REMARK    2  A    between atoms: C_3  and  O_6 
REMARK    3  A    between atoms: C_3  and  C_4 
REMARK    4  A    between atoms: C_7  and  O_6 
REMARK    5  A    between atoms: C_9  and  C_10 
REMARK    6  A    between atoms: N_15  and  C_14 
REMARK    7  A    between atoms: N_20  and  C_19 
REMARK       I    between atoms: C_22  and  N_20 
ROOT
ATOM      1  C   LIG d   1      -7.774  75.386 118.111  0.00  0.00     0.161 C 
ATOM      2  C   LIG d   1      -9.153  75.489 118.361  0.00  0.00     0.016 C 
ATOM      3  C   LIG d   1      -9.817  76.722 118.558  0.00  0.00     0.038 C 
ATOM      4  C   LIG d   1      -9.170  77.952 118.368  0.00  0.00     0.028 C 
ATOM      5  C   LIG d   1      -7.666  77.889 118.612  0.00  0.00    -0.047 C 
ATOM      6  C   LIG d   1      -7.073  76.722 117.790  0.00  0.00     0.091 C 
ENDROOT
BRANCH   1   7
ATOM      7  O   LIG d   1      -7.538  74.431 117.058  0.00  0.00    -0.368 OA
BRANCH   7   8
ATOM      8  C   LIG d   1      -6.963  73.164 117.463  0.00  0.00     0.119 C 
BRANCH   8   9
ATOM      9  C   LIG d   1      -5.582  73.046 116.788  0.00  0.00     0.028 C 
ATOM     10  C   LIG d   1      -5.475  73.908 115.518  0.00  0.00     0.006 C 
ENDBRANCH   8   9
BRANCH   8  11
ATOM     11  C   LIG d   1      -7.779  71.984 116.927  0.00  0.00     0.028 C 
ATOM     12  C   LIG d   1      -7.449  70.661 117.635  0.00  0.00     0.006 C 
ENDBRANCH   8  11
ENDBRANCH   7   8
ENDBRANCH   1   7
BRANCH   6  13
ATOM     13  N   LIG d   1      -5.619  76.538 118.037  0.00  0.00    -0.311 N 
ATOM     14  C   LIG d   1      -4.671  77.104 117.292  0.00  0.00     0.210 C 
ATOM     15  C   LIG d   1      -3.235  76.767 117.706  0.00  0.00     0.109 C 
ATOM     16  O   LIG d   1      -4.883  77.880 116.347  0.00  0.00    -0.276 OA
ATOM     17  H   LIG d   1      -5.357  75.949 118.803  0.00  0.00     0.149 HD
ENDBRANCH   6  13
BRANCH   5  18
ATOM     18  N   LIG d   1      -7.101  79.201 118.245  0.00  0.00     0.381 N 
ATOM     19  H   LIG d   1      -7.416  79.898 118.890  0.00  0.00    -0.090 HD
ATOM     20  H   LIG d   1      -7.425  79.451 117.328  0.00  0.00    -0.090 HD
ATOM     21  H   LIG d   1      -6.105  79.157 118.253  0.00  0.00    -0.090 HD
ENDBRANCH   5  18
BRANCH   3  22
ATOM     22  C   LIG d   1     -11.135  76.730 118.988  0.00  0.00     0.382 C 
ATOM     23  O   LIG d   1     -11.980  75.984 118.437  0.00  0.00    -0.241 OA
ATOM     24  O   LIG d   1     -11.500  77.507 119.892  0.00  0.00    -0.241 OA
ENDBRANCH   3  22
TORSDOF 7
ENDMDL
MODEL 2
REMARK VINA RESULT:      -4.8      2.876      3.815
REMARK  7 active torsions:
REMARK  status: ('A' for Active; 'I' for Inactive)
REMARK    1  A    between atoms: C_2  and  C_3 
REMARK    2  A    between atoms: C_3  and  O_6 
REMARK    3  A    between atoms: C_3  and  C_4 
REMARK    4  A    between atoms: C_7  and  O_6 
REMARK    5  A    between atoms: C_9  and  C_10 
REMARK    6  A    between atoms: N_15  and  C_14 
REMARK    7  A    between atoms: N_20  and  C_19 
REMARK       I    between atoms: C_22  and  N_20 
ROOT
ATOM      1  C   LIG d   1      -6.930  78.890 118.063  0.00  0.00     0.161 C 
ATOM      2  C   LIG d   1      -8.296  79.162 118.243  0.00  0.00     0.016 C 
ATOM      3  C   LIG d   1      -8.892  80.403 117.919  0.00  0.00     0.038 C 
ATOM      4  C   LIG d   1      -8.185  81.412 117.248  0.00  0.00     0.028 C 
ATOM      5  C   LIG d   1      -6.682  81.371 117.502  0.00  0.00    -0.047 C 
ATOM      6  C   LIG d   1      -6.166  79.939 117.229  0.00  0.00     0.091 C 
ENDROOT
BRANCH   1   7
ATOM      7  O   LIG d   1      -6.765  77.578 117.490  0.00  0.00    -0.368 OA
BRANCH   7   8
ATOM      8  C   LIG d   1      -7.662  76.551 117.980  0.00  0.00     0.119 C 
BRANCH   8   9
ATOM      9  C   LIG d   1      -6.874  75.690 118.987  0.00  0.00     0.028 C 
ATOM     10  C   LIG d   1      -7.493  75.719 120.394  0.00  0.00     0.006 C 
ENDBRANCH   8   9
BRANCH   8  11
ATOM     11  C   LIG d   1      -8.074  75.591 116.860  0.00  0.00     0.028 C 
ATOM     12  C   LIG d   1      -9.324  74.767 117.212  0.00  0.00     0.006 C 
ENDBRANCH   8  11
ENDBRANCH   7   8
ENDBRANCH   1   7
BRANCH   6  13
ATOM     13  N   LIG d   1      -4.719  79.790 117.535  0.00  0.00    -0.311 N 
ATOM     14  C   LIG d   1      -3.760  79.905 116.617  0.00  0.00     0.210 C 
ATOM     15  C   LIG d   1      -2.336  79.695 117.141  0.00  0.00     0.109 C 
ATOM     16  O   LIG d   1      -3.952  80.193 115.426  0.00  0.00    -0.276 OA
ATOM     17  H   LIG d   1      -4.472  79.587 118.483  0.00  0.00     0.149 HD
ENDBRANCH   6  13
BRANCH   5  18
ATOM     18  N   LIG d   1      -6.055  82.387 116.636  0.00  0.00     0.381 N 
ATOM     19  H   LIG d   1      -5.504  81.938 115.932  0.00  0.00    -0.090 HD
ATOM     20  H   LIG d   1      -5.447  82.960 117.195  0.00  0.00    -0.090 HD
ATOM     21  H   LIG d   1      -6.756  82.951 116.210  0.00  0.00    -0.090 HD
ENDBRANCH   5  18
BRANCH   3  22
ATOM     22  C   LIG d   1     -10.199  80.660 118.304  0.00  0.00     0.382 C 
ATOM     23  O   LIG d   1     -10.902  81.460 117.642  0.00  0.00    -0.241 OA
ATOM     24  O   LIG d   1     -10.670  80.134 119.331  0.00  0.00    -0.241 OA
ENDBRANCH   3  22
TORSDOF 7
ENDMDL
MODEL 3
REMARK VINA RESULT:      -4.8      2.626      5.060
REMARK  7 active torsions:
REMARK  status: ('A' for Active; 'I' for Inactive)
REMARK    1  A    between atoms: C_2  and  C_3 
REMARK    2  A    between atoms: C_3  and  O_6 
REMARK    3  A    between atoms: C_3  and  C_4 
REMARK    4  A    between atoms: C_7  and  O_6 
REMARK    5  A    between atoms: C_9  and  C_10 
REMARK    6  A    between atoms: N_15  and  C_14 
REMARK    7  A    between atoms: N_20  and  C_19 
REMARK       I    between atoms: C_22  and  N_20 
ROOT
ATOM      1  C   LIG d   1      -7.771  74.179 117.412  0.00  0.00     0.161 C 
ATOM      2  C   LIG d   1      -7.669  72.778 117.428  0.00  0.00     0.016 C 
ATOM      3  C   LIG d   1      -8.762  71.915 117.186  0.00  0.00     0.038 C 
ATOM      4  C   LIG d   1     -10.009  72.399 116.761  0.00  0.00     0.028 C 
ATOM      5  C   LIG d   1     -10.294  73.824 117.222  0.00  0.00    -0.047 C 
ATOM      6  C   LIG d   1      -9.096  74.724 116.840  0.00  0.00     0.091 C 
ENDROOT
BRANCH   1   7
ATOM      7  O   LIG d   1      -6.650  74.742 116.702  0.00  0.00    -0.368 OA
BRANCH   7   8
ATOM      8  C   LIG d   1      -5.555  73.837 116.418  0.00  0.00     0.119 C 
BRANCH   8   9
ATOM      9  C   LIG d   1      -4.329  74.330 117.210  0.00  0.00     0.028 C 
ATOM     10  C   LIG d   1      -4.515  75.757 117.752  0.00  0.00     0.006 C 
ENDBRANCH   8   9
BRANCH   8  11
ATOM     11  C   LIG d   1      -5.141  73.908 114.945  0.00  0.00     0.028 C 
ATOM     12  C   LIG d   1      -5.736  75.124 114.217  0.00  0.00     0.006 C 
ENDBRANCH   8  11
ENDBRANCH   7   8
ENDBRANCH   1   7
BRANCH   6  13
ATOM     13  N   LIG d   1      -9.257  76.118 117.329  0.00  0.00    -0.311 N 
ATOM     14  C   LIG d   1      -9.583  76.423 118.584  0.00  0.00     0.210 C 
ATOM     15  C   LIG d   1      -9.716  77.921 118.873  0.00  0.00     0.109 C 
ATOM     16  O   LIG d   1      -9.743  75.595 119.494  0.00  0.00    -0.276 OA
ATOM     17  H   LIG d   1      -9.114  76.854 116.665  0.00  0.00     0.149 HD
ENDBRANCH   6  13
BRANCH   5  18
ATOM     18  N   LIG d   1     -11.560  74.250 116.595  0.00  0.00     0.381 N 
ATOM     19  H   LIG d   1     -11.527  74.073 115.611  0.00  0.00    -0.090 HD
ATOM     20  H   LIG d   1     -11.675  75.239 116.733  0.00  0.00    -0.090 HD
ATOM     21  H   LIG d   1     -12.324  73.759 117.003  0.00  0.00    -0.090 HD
ENDBRANCH   5  18
BRANCH   3  22
ATOM     22  C   LIG d   1      -8.626  70.553 117.409  0.00  0.00     0.382 C 
ATOM     23  O   LIG d   1      -9.641  69.817 117.435  0.00  0.00    -0.241 OA
ATOM     24  O   LIG d   1      -7.504  70.059 117.629  0.00  0.00    -0.241 OA
ENDBRANCH   3  22
TORSDOF 7
ENDMDL
MODEL 4
REMARK VINA RESULT:      -4.7      2.382      4.474
REMARK  7 active torsions:
REMARK  status: ('A' for Active; 'I' for Inactive)
REMARK    1  A    between atoms: C_2  and  C_3 
REMARK    2  A    between atoms: C_3  and  O_6 
REMARK    3  A    between atoms: C_3  and  C_4 
REMARK    4  A    between atoms: C_7  and  O_6 
REMARK    5  A    between atoms: C_9  and  C_10 
REMARK    6  A    between atoms: N_15  and  C_14 
REMARK    7  A    between atoms: N_20  and  C_19 
REMARK       I    between atoms: C_22  and  N_20 
ROOT
ATOM      1  C   LIG d   1      -6.939  75.826 116.512  0.00  0.00     0.161 C 
ATOM      2  C   LIG d   1      -8.271  75.480 116.794  0.00  0.00     0.016 C 
ATOM      3  C   LIG d   1      -8.686  74.163 117.098  0.00  0.00     0.038 C 
ATOM      4  C   LIG d   1      -7.765  73.122 117.290  0.00  0.00     0.028 C 
ATOM      5  C   LIG d   1      -6.462  73.315 116.522  0.00  0.00    -0.047 C 
ATOM      6  C   LIG d   1      -5.905  74.725 116.827  0.00  0.00     0.091 C 
ENDROOT
BRANCH   1   7
ATOM      7  O   LIG d   1      -6.595  77.046 117.198  0.00  0.00    -0.368 OA
BRANCH   7   8
ATOM      8  C   LIG d   1      -7.422  77.392 118.336  0.00  0.00     0.119 C 
BRANCH   8   9
ATOM      9  C   LIG d   1      -7.711  78.904 118.256  0.00  0.00     0.028 C 
ATOM     10  C   LIG d   1      -9.199  79.229 118.473  0.00  0.00     0.006 C 
ENDBRANCH   8   9
BRANCH   8  11
ATOM     11  C   LIG d   1      -6.667  77.193 119.654  0.00  0.00     0.028 C 
ATOM     12  C   LIG d   1      -7.081  75.909 120.390  0.00  0.00     0.006 C 
ENDBRANCH   8  11
ENDBRANCH   7   8
ENDBRANCH   1   7
BRANCH   6  13
ATOM     13  N   LIG d   1      -4.675  75.027 116.049  0.00  0.00    -0.311 N 
ATOM     14  C   LIG d   1      -3.445  74.785 116.500  0.00  0.00     0.210 C 
ATOM     15  C   LIG d   1      -2.316  75.191 115.547  0.00  0.00     0.109 C 
ATOM     16  O   LIG d   1      -3.182  74.242 117.583  0.00  0.00    -0.276 OA
ATOM     17  H   LIG d   1      -4.796  75.441 115.146  0.00  0.00     0.149 HD
ENDBRANCH   6  13
BRANCH   5  18
ATOM     18  N   LIG d   1      -5.545  72.232 116.921  0.00  0.00     0.381 N 
ATOM     19  H   LIG d   1      -5.374  72.278 117.906  0.00  0.00    -0.090 HD
ATOM     20  H   LIG d   1      -4.669  72.354 116.443  0.00  0.00    -0.090 HD
ATOM     21  H   LIG d   1      -5.939  71.347 116.686  0.00  0.00    -0.090 HD
ENDBRANCH   5  18
BRANCH   3  22
ATOM     22  C   LIG d   1     -10.038  73.869 117.173  0.00  0.00     0.382 C 
ATOM     23  O   LIG d   1     -10.461  72.756 116.776  0.00  0.00    -0.241 OA
ATOM     24  O   LIG d   1     -10.848  74.719 117.591  0.00  0.00    -0.241 OA
ENDBRANCH   3  22
TORSDOF 7
ENDMDL
MODEL 5
REMARK VINA RESULT:      -4.6      1.148      2.009
REMARK  7 active torsions:
REMARK  status: ('A' for Active; 'I' for Inactive)
REMARK    1  A    between atoms: C_2  and  C_3 
REMARK    2  A    between atoms: C_3  and  O_6 
REMARK    3  A    between atoms: C_3  and  C_4 
REMARK    4  A    between atoms: C_7  and  O_6 
REMARK    5  A    between atoms: C_9  and  C_10 
REMARK    6  A    between atoms: N_15  and  C_14 
REMARK    7  A    between atoms: N_20  and  C_19 
REMARK       I    between atoms: C_22  and  N_20 
ROOT
ATOM      1  C   LIG d   1      -7.508  75.392 117.320  0.00  0.00     0.161 C 
ATOM      2  C   LIG d   1      -8.868  75.044 117.255  0.00  0.00     0.016 C 
ATOM      3  C   LIG d   1      -9.896  75.809 117.852  0.00  0.00     0.038 C 
ATOM      4  C   LIG d   1      -9.647  77.063 118.430  0.00  0.00     0.028 C 
ATOM      5  C   LIG d   1      -8.226  77.213 118.962  0.00  0.00    -0.047 C 
ATOM      6  C   LIG d   1      -7.229  76.814 117.850  0.00  0.00     0.091 C 
ENDROOT
BRANCH   1   7
ATOM      7  O   LIG d   1      -6.895  75.209 116.028  0.00  0.00    -0.368 OA
BRANCH   7   8
ATOM      8  C   LIG d   1      -6.041  74.048 115.886  0.00  0.00     0.119 C 
BRANCH   8   9
ATOM      9  C   LIG d   1      -6.138  73.239 117.194  0.00  0.00     0.028 C 
ATOM     10  C   LIG d   1      -6.750  71.845 116.979  0.00  0.00     0.006 C 
ENDBRANCH   8   9
BRANCH   8  11
ATOM     11  C   LIG d   1      -4.568  74.450 115.766  0.00  0.00     0.028 C 
ATOM     12  C   LIG d   1      -3.733  74.024 116.984  0.00  0.00     0.006 C 
ENDBRANCH   8  11
ENDBRANCH   7   8
ENDBRANCH   1   7
BRANCH   6  13
ATOM     13  N   LIG d   1      -5.817  76.851 118.314  0.00  0.00    -0.311 N 
ATOM     14  C   LIG d   1      -4.868  77.567 117.713  0.00  0.00     0.210 C 
ATOM     15  C   LIG d   1      -3.475  77.449 118.342  0.00  0.00     0.109 C 
ATOM     16  O   LIG d   1      -5.052  78.313 116.740  0.00  0.00    -0.276 OA
ATOM     17  H   LIG d   1      -5.586  76.299 119.116  0.00  0.00     0.149 HD
ENDBRANCH   6  13
BRANCH   5  18
ATOM     18  N   LIG d   1      -8.063  78.609 119.410  0.00  0.00     0.381 N 
ATOM     19  H   LIG d   1      -8.457  79.231 118.732  0.00  0.00    -0.090 HD
ATOM     20  H   LIG d   1      -7.082  78.812 119.491  0.00  0.00    -0.090 HD
ATOM     21  H   LIG d   1      -8.510  78.739 120.290  0.00  0.00    -0.090 HD
ENDBRANCH   5  18
BRANCH   3  22
ATOM     22  C   LIG d   1     -11.185  75.302 117.910  0.00  0.00     0.382 C 
ATOM     23  O   LIG d   1     -11.441  74.181 117.407  0.00  0.00    -0.241 OA
ATOM     24  O   LIG d   1     -12.105  75.970 118.420  0.00  0.00    -0.241 OA
ENDBRANCH   3  22
TORSDOF 7
ENDMDL
MODEL 6
REMARK VINA RESULT:      -4.6     12.543     15.250
REMARK  7 active torsions:
REMARK  status: ('A' for Active; 'I' for Inactive)
REMARK    1  A    between atoms: C_2  and  C_3 
REMARK    2  A    between atoms: C_3  and  O_6 
REMARK    3  A    between atoms: C_3  and  C_4 
REMARK    4  A    between atoms: C_7  and  O_6 
REMARK    5  A    between atoms: C_9  and  C_10 
REMARK    6  A    between atoms: N_15  and  C_14 
REMARK    7  A    between atoms: N_20  and  C_19 
REMARK       I    between atoms: C_22  and  N_20 
ROOT
ATOM      1  C   LIG d   1     -17.035  64.426 116.186  0.00  0.00     0.161 C 
ATOM      2  C   LIG d   1     -16.952  65.662 115.522  0.00  0.00     0.016 C 
ATOM      3  C   LIG d   1     -16.117  66.720 115.949  0.00  0.00     0.038 C 
ATOM      4  C   LIG d   1     -15.189  66.559 116.988  0.00  0.00     0.028 C 
ATOM      5  C   LIG d   1     -15.597  65.498 118.005  0.00  0.00    -0.047 C 
ATOM      6  C   LIG d   1     -15.948  64.193 117.256  0.00  0.00     0.091 C 
ENDROOT
BRANCH   1   7
ATOM      7  O   LIG d   1     -17.029  63.353 115.223  0.00  0.00    -0.368 OA
BRANCH   7   8
ATOM      8  C   LIG d   1     -18.282  62.647 115.049  0.00  0.00     0.119 C 
BRANCH   8   9
ATOM      9  C   LIG d   1     -19.330  63.335 115.945  0.00  0.00     0.028 C 
ATOM     10  C   LIG d   1     -20.503  63.915 115.136  0.00  0.00     0.006 C 
ENDBRANCH   8   9
BRANCH   8  11
ATOM     11  C   LIG d   1     -18.188  61.209 115.568  0.00  0.00     0.028 C 
ATOM     12  C   LIG d   1     -18.989  60.987 116.860  0.00  0.00     0.006 C 
ENDBRANCH   8  11
ENDBRANCH   7   8
ENDBRANCH   1   7
BRANCH   6  13
ATOM     13  N   LIG d   1     -16.438  63.128 118.170  0.00  0.00    -0.311 N 
ATOM     14  C   LIG d   1     -15.648  62.196 118.700  0.00  0.00     0.210 C 
ATOM     15  C   LIG d   1     -16.360  61.181 119.600  0.00  0.00     0.109 C 
ATOM     16  O   LIG d   1     -14.421  62.132 118.535  0.00  0.00    -0.276 OA
ATOM     17  H   LIG d   1     -17.417  63.124 118.382  0.00  0.00     0.149 HD
ENDBRANCH   6  13
BRANCH   5  18
ATOM     18  N   LIG d   1     -14.478  65.337 118.954  0.00  0.00     0.381 N 
ATOM     19  H   LIG d   1     -13.769  66.016 118.760  0.00  0.00    -0.090 HD
ATOM     20  H   LIG d   1     -14.080  64.422 118.835  0.00  0.00    -0.090 HD
ATOM     21  H   LIG d   1     -14.806  65.446 119.889  0.00  0.00    -0.090 HD
ENDBRANCH   5  18
BRANCH   3  22
ATOM     22  C   LIG d   1     -16.235  67.969 115.358  0.00  0.00     0.382 C 
ATOM     23  O   LIG d   1     -16.891  68.873 115.929  0.00  0.00    -0.241 OA
ATOM     24  O   LIG d   1     -15.730  68.190 114.241  0.00  0.00    -0.241 OA
ENDBRANCH   3  22
TORSDOF 7
ENDMDL
MODEL 7
REMARK VINA RESULT:      -4.5     16.601     18.987
REMARK  7 active torsions:
REMARK  status: ('A' for Active; 'I' for Inactive)
REMARK    1  A    between atoms: C_2  and  C_3 
REMARK    2  A    between atoms: C_3  and  O_6 
REMARK    3  A    between atoms: C_3  and  C_4 
REMARK    4  A    between atoms: C_7  and  O_6 
REMARK    5  A    between atoms: C_9  and  C_10 
REMARK    6  A    between atoms: N_15  and  C_14 
REMARK    7  A    between atoms: N_20  and  C_19 
REMARK       I    between atoms: C_22  and  N_20 
ROOT
ATOM      1  C   LIG d   1       2.610  91.224 116.814  0.00  0.00     0.161 C 
ATOM      2  C   LIG d   1       2.017  90.221 116.031  0.00  0.00     0.016 C 
ATOM      3  C   LIG d   1       2.757  89.299 115.255  0.00  0.00     0.038 C 
ATOM      4  C   LIG d   1       4.155  89.222 115.329  0.00  0.00     0.028 C 
ATOM      5  C   LIG d   1       4.815  90.542 115.716  0.00  0.00    -0.047 C 
ATOM      6  C   LIG d   1       4.137  91.086 116.994  0.00  0.00     0.091 C 
ENDROOT
BRANCH   1   7
ATOM      7  O   LIG d   1       1.958  91.293 118.097  0.00  0.00    -0.368 OA
BRANCH   7   8
ATOM      8  C   LIG d   1       0.547  91.620 118.078  0.00  0.00     0.119 C 
BRANCH   8   9
ATOM      9  C   LIG d   1       0.337  92.817 119.026  0.00  0.00     0.028 C 
ATOM     10  C   LIG d   1       1.368  93.935 118.797  0.00  0.00     0.006 C 
ENDBRANCH   8   9
BRANCH   8  11
ATOM     11  C   LIG d   1      -0.296  90.485 118.666  0.00  0.00     0.028 C 
ATOM     12  C   LIG d   1      -1.772  90.559 118.244  0.00  0.00     0.006 C 
ENDBRANCH   8  11
ENDBRANCH   7   8
ENDBRANCH   1   7
BRANCH   6  13
ATOM     13  N   LIG d   1       4.665  92.416 117.394  0.00  0.00    -0.311 N 
ATOM     14  C   LIG d   1       5.183  92.669 118.595  0.00  0.00     0.210 C 
ATOM     15  C   LIG d   1       5.651  94.112 118.807  0.00  0.00     0.109 C 
ATOM     16  O   LIG d   1       5.329  91.826 119.494  0.00  0.00    -0.276 OA
ATOM     17  H   LIG d   1       4.615  93.150 116.715  0.00  0.00     0.149 HD
ENDBRANCH   6  13
BRANCH   5  18
ATOM     18  N   LIG d   1       6.257  90.285 115.891  0.00  0.00     0.381 N 
ATOM     19  H   LIG d   1       6.422  89.300 115.936  0.00  0.00    -0.090 HD
ATOM     20  H   LIG d   1       6.557  90.695 116.758  0.00  0.00    -0.090 HD
ATOM     21  H   LIG d   1       6.768  90.681 115.133  0.00  0.00    -0.090 HD
ENDBRANCH   5  18
BRANCH   3  22
ATOM     22  C   LIG d   1       2.098  88.467 114.363  0.00  0.00     0.382 C 
ATOM     23  O   LIG d   1       1.041  88.853 113.809  0.00  0.00    -0.241 OA
ATOM     24  O   LIG d   1       2.523  87.318 114.139  0.00  0.00    -0.241 OA
ENDBRANCH   3  22
TORSDOF 7
ENDMDL
MODEL 8
REMARK VINA RESULT:      -4.5      2.280      3.451
REMARK  7 active torsions:
REMARK  status: ('A' for Active; 'I' for Inactive)
REMARK    1  A    between atoms: C_2  and  C_3 
REMARK    2  A    between atoms: C_3  and  O_6 
REMARK    3  A    between atoms: C_3  and  C_4 
REMARK    4  A    between atoms: C_7  and  O_6 
REMARK    5  A    between atoms: C_9  and  C_10 
REMARK    6  A    between atoms: N_15  and  C_14 
REMARK    7  A    between atoms: N_20  and  C_19 
REMARK       I    between atoms: C_22  and  N_20 
ROOT
ATOM      1  C   LIG d   1      -7.883  75.540 117.473  0.00  0.00     0.161 C 
ATOM      2  C   LIG d   1      -8.730  74.503 117.050  0.00  0.00     0.016 C 
ATOM      3  C   LIG d   1     -10.122  74.484 117.299  0.00  0.00     0.038 C 
ATOM      4  C   LIG d   1     -10.789  75.582 117.862  0.00  0.00     0.028 C 
ATOM      5  C   LIG d   1      -9.901  76.436 118.760  0.00  0.00    -0.047 C 
ATOM      6  C   LIG d   1      -8.610  76.799 117.991  0.00  0.00     0.091 C 
ENDROOT
BRANCH   1   7
ATOM      7  O   LIG d   1      -6.970  75.889 116.414  0.00  0.00    -0.368 OA
BRANCH   7   8
ATOM      8  C   LIG d   1      -5.560  75.740 116.713  0.00  0.00     0.119 C 
BRANCH   8   9
ATOM      9  C   LIG d   1      -4.938  74.883 115.594  0.00  0.00     0.028 C 
ATOM     10  C   LIG d   1      -5.698  75.013 114.263  0.00  0.00     0.006 C 
ENDBRANCH   8   9
BRANCH   8  11
ATOM     11  C   LIG d   1      -5.345  74.942 118.002  0.00  0.00     0.028 C 
ATOM     12  C   LIG d   1      -4.491  75.696 119.034  0.00  0.00     0.006 C 
ENDBRANCH   8  11
ENDBRANCH   7   8
ENDBRANCH   1   7
BRANCH   6  13
ATOM     13  N   LIG d   1      -7.648  77.563 118.826  0.00  0.00    -0.311 N 
ATOM     14  C   LIG d   1      -7.541  78.890 118.793  0.00  0.00     0.210 C 
ATOM     15  C   LIG d   1      -6.471  79.476 119.720  0.00  0.00     0.109 C 
ATOM     16  O   LIG d   1      -8.251  79.640 118.107  0.00  0.00    -0.276 OA
ATOM     17  H   LIG d   1      -7.054  77.035 119.436  0.00  0.00     0.149 HD
ENDBRANCH   6  13
BRANCH   5  18
ATOM     18  N   LIG d   1     -10.684  77.618 119.167  0.00  0.00     0.381 N 
ATOM     19  H   LIG d   1     -11.088  78.050 118.361  0.00  0.00    -0.090 HD
ATOM     20  H   LIG d   1     -10.068  78.280 119.605  0.00  0.00    -0.090 HD
ATOM     21  H   LIG d   1     -11.401  77.349 119.804  0.00  0.00    -0.090 HD
ENDBRANCH   5  18
BRANCH   3  22
ATOM     22  C   LIG d   1     -10.854  73.340 117.021  0.00  0.00     0.382 C 
ATOM     23  O   LIG d   1     -12.104  73.352 117.135  0.00  0.00    -0.241 OA
ATOM     24  O   LIG d   1     -10.278  72.283 116.701  0.00  0.00    -0.241 OA
ENDBRANCH   3  22
TORSDOF 7
ENDMDL
MODEL 9
REMARK VINA RESULT:      -4.5      1.925      2.319
REMARK  7 active torsions:
REMARK  status: ('A' for Active; 'I' for Inactive)
REMARK    1  A    between atoms: C_2  and  C_3 
REMARK    2  A    between atoms: C_3  and  O_6 
REMARK    3  A    between atoms: C_3  and  C_4 
REMARK    4  A    between atoms: C_7  and  O_6 
REMARK    5  A    between atoms: C_9  and  C_10 
REMARK    6  A    between atoms: N_15  and  C_14 
REMARK    7  A    between atoms: N_20  and  C_19 
REMARK       I    between atoms: C_22  and  N_20 
ROOT
ATOM      1  C   LIG d   1      -6.898  76.798 117.765  0.00  0.00     0.161 C 
ATOM      2  C   LIG d   1      -8.222  76.390 117.997  0.00  0.00     0.016 C 
ATOM      3  C   LIG d   1      -9.262  77.283 118.342  0.00  0.00     0.038 C 
ATOM      4  C   LIG d   1      -9.079  78.674 118.331  0.00  0.00     0.028 C 
ATOM      5  C   LIG d   1      -7.639  79.098 118.596  0.00  0.00    -0.047 C 
ATOM      6  C   LIG d   1      -6.704  78.323 117.639  0.00  0.00     0.091 C 
ENDROOT
BRANCH   1   7
ATOM      7  O   LIG d   1      -6.378  76.128 116.599  0.00  0.00    -0.368 OA
BRANCH   7   8
ATOM      8  C   LIG d   1      -5.868  74.788 116.808  0.00  0.00     0.119 C 
BRANCH   8   9
ATOM      9  C   LIG d   1      -4.621  74.902 117.705  0.00  0.00     0.028 C 
ATOM     10  C   LIG d   1      -3.435  74.082 117.170  0.00  0.00     0.006 C 
ENDBRANCH   8   9
BRANCH   8  11
ATOM     11  C   LIG d   1      -5.370  74.172 115.497  0.00  0.00     0.028 C 
ATOM     12  C   LIG d   1      -5.631  75.070 114.278  0.00  0.00     0.006 C 
ENDBRANCH   8  11
ENDBRANCH   7   8
ENDBRANCH   1   7
BRANCH   6  13
ATOM     13  N   LIG d   1      -5.268  78.616 117.888  0.00  0.00    -0.311 N 
ATOM     14  C   LIG d   1      -4.590  79.562 117.242  0.00  0.00     0.210 C 
ATOM     15  C   LIG d   1      -3.115  79.686 117.637  0.00  0.00     0.109 C 
ATOM     16  O   LIG d   1      -5.077  80.333 116.401  0.00  0.00    -0.276 OA
ATOM     17  H   LIG d   1      -4.802  78.059 118.577  0.00  0.00     0.149 HD
ENDBRANCH   6  13
BRANCH   5  18
ATOM     18  N   LIG d   1      -7.564  80.560 118.418  0.00  0.00     0.381 N 
ATOM     19  H   LIG d   1      -7.782  81.018 119.281  0.00  0.00    -0.090 HD
ATOM     20  H   LIG d   1      -8.244  80.840 117.733  0.00  0.00    -0.090 HD
ATOM     21  H   LIG d   1      -6.652  80.821 118.116  0.00  0.00    -0.090 HD
ENDBRANCH   5  18
BRANCH   3  22
ATOM     22  C   LIG d   1     -10.492  76.784 118.743  0.00  0.00     0.382 C 
ATOM     23  O   LIG d   1     -10.736  75.558 118.636  0.00  0.00    -0.241 OA
ATOM     24  O   LIG d   1     -11.376  77.551 119.169  0.00  0.00    -0.241 OA
ENDBRANCH   3  22
TORSDOF 7
ENDMDL
