MODEL 1
REMARK VINA RESULT:      -6.2      0.000      0.000
REMARK  7 active torsions:
REMARK  status: ('A' for Active; 'I' for Inactive)
REMARK    1  A    between atoms: C_2  and  C_3 
REMARK    2  A    between atoms: C_3  and  O_6 
REMARK    3  A    between atoms: C_3  and  C_4 
REMARK    4  A    between atoms: C_7  and  O_6 
REMARK    5  A    between atoms: C_9  and  C_10 
REMARK    6  A    between atoms: N_15  and  C_14 
REMARK    7  A    between atoms: N_20  and  C_19 
REMARK       I    between atoms: C_22  and  N_20 
ROOT
ATOM      1  C   LIG d   1      -8.654  73.954 118.089  0.00  0.00     0.161 C 
ATOM      2  C   LIG d   1      -8.362  72.742 117.443  0.00  0.00     0.016 C 
ATOM      3  C   LIG d   1      -9.337  71.758 117.156  0.00  0.00     0.038 C 
ATOM      4  C   LIG d   1     -10.705  71.988 117.362  0.00  0.00     0.028 C 
ATOM      5  C   LIG d   1     -10.990  72.992 118.474  0.00  0.00    -0.047 C 
ATOM      6  C   LIG d   1     -10.159  74.270 118.222  0.00  0.00     0.091 C 
ENDROOT
BRANCH   1   7
ATOM      7  O   LIG d   1      -7.971  75.037 117.428  0.00  0.00    -0.368 OA
BRANCH   7   8
ATOM      8  C   LIG d   1      -6.645  74.741 116.924  0.00  0.00     0.119 C 
BRANCH   8   9
ATOM      9  C   LIG d   1      -5.645  75.604 117.718  0.00  0.00     0.028 C 
ATOM     10  C   LIG d   1      -6.295  76.873 118.296  0.00  0.00     0.006 C 
ENDBRANCH   8   9
BRANCH   8  11
ATOM     11  C   LIG d   1      -6.492  75.182 115.466  0.00  0.00     0.028 C 
ATOM     12  C   LIG d   1      -5.768  74.138 114.601  0.00  0.00     0.006 C 
ENDBRANCH   8  11
ENDBRANCH   7   8
ENDBRANCH   1   7
BRANCH   6  13
ATOM     13  N   LIG d   1     -10.314  75.272 119.309  0.00  0.00    -0.311 N 
ATOM     14  C   LIG d   1     -11.313  76.151 119.359  0.00  0.00     0.210 C 
ATOM     15  C   LIG d   1     -11.274  77.107 120.555  0.00  0.00     0.109 C 
ATOM     16  O   LIG d   1     -12.246  76.208 118.544  0.00  0.00    -0.276 OA
ATOM     17  H   LIG d   1      -9.618  75.274 120.029  0.00  0.00     0.149 HD
ENDBRANCH   6  13
BRANCH   5  18
ATOM     18  N   LIG d   1     -12.444  73.241 118.489  0.00  0.00     0.381 N 
ATOM     19  H   LIG d   1     -12.753  73.387 119.429  0.00  0.00    -0.090 HD
ATOM     20  H   LIG d   1     -12.916  72.432 118.124  0.00  0.00    -0.090 HD
ATOM     21  H   LIG d   1     -12.659  74.038 117.932  0.00  0.00    -0.090 HD
ENDBRANCH   5  18
BRANCH   3  22
ATOM     22  C   LIG d   1      -8.941  70.513 116.693  0.00  0.00     0.382 C 
ATOM     23  O   LIG d   1      -9.618  69.495 116.975  0.00  0.00    -0.241 OA
ATOM     24  O   LIG d   1      -7.891  70.388 116.035  0.00  0.00    -0.241 OA
ENDBRANCH   3  22
TORSDOF 7
ENDMDL
MODEL 2
REMARK VINA RESULT:      -5.6      2.073      4.492
REMARK  7 active torsions:
REMARK  status: ('A' for Active; 'I' for Inactive)
REMARK    1  A    between atoms: C_2  and  C_3 
REMARK    2  A    between atoms: C_3  and  O_6 
REMARK    3  A    between atoms: C_3  and  C_4 
REMARK    4  A    between atoms: C_7  and  O_6 
REMARK    5  A    between atoms: C_9  and  C_10 
REMARK    6  A    between atoms: N_15  and  C_14 
REMARK    7  A    between atoms: N_20  and  C_19 
REMARK       I    between atoms: C_22  and  N_20 
ROOT
ATOM      1  C   LIG d   1      -9.036  73.935 118.166  0.00  0.00     0.161 C 
ATOM      2  C   LIG d   1      -8.896  72.655 117.603  0.00  0.00     0.016 C 
ATOM      3  C   LIG d   1      -7.842  72.301 116.730  0.00  0.00     0.038 C 
ATOM      4  C   LIG d   1      -6.765  73.164 116.479  0.00  0.00     0.028 C 
ATOM      5  C   LIG d   1      -7.124  74.639 116.624  0.00  0.00    -0.047 C 
ATOM      6  C   LIG d   1      -7.810  74.856 117.992  0.00  0.00     0.091 C 
ENDROOT
BRANCH   1   7
ATOM      7  O   LIG d   1      -9.382  73.820 119.561  0.00  0.00    -0.368 OA
BRANCH   7   8
ATOM      8  C   LIG d   1     -10.784  73.989 119.886  0.00  0.00     0.119 C 
BRANCH   8   9
ATOM      9  C   LIG d   1     -11.565  74.035 118.559  0.00  0.00     0.028 C 
ATOM     10  C   LIG d   1     -12.561  72.871 118.423  0.00  0.00     0.006 C 
ENDBRANCH   8   9
BRANCH   8  11
ATOM     11  C   LIG d   1     -11.041  75.343 120.555  0.00  0.00     0.028 C 
ATOM     12  C   LIG d   1     -11.577  76.399 119.575  0.00  0.00     0.006 C 
ENDBRANCH   8  11
ENDBRANCH   7   8
ENDBRANCH   1   7
BRANCH   6  13
ATOM     13  N   LIG d   1      -8.270  76.257 118.180  0.00  0.00    -0.311 N 
ATOM     14  C   LIG d   1      -7.856  77.037 119.176  0.00  0.00     0.210 C 
ATOM     15  C   LIG d   1      -8.469  78.440 119.197  0.00  0.00     0.109 C 
ATOM     16  O   LIG d   1      -7.014  76.711 120.027  0.00  0.00    -0.276 OA
ATOM     17  H   LIG d   1      -8.930  76.613 117.517  0.00  0.00     0.149 HD
ENDBRANCH   6  13
BRANCH   5  18
ATOM     18  N   LIG d   1      -5.881  75.417 116.471  0.00  0.00     0.381 N 
ATOM     19  H   LIG d   1      -5.939  76.258 117.010  0.00  0.00    -0.090 HD
ATOM     20  H   LIG d   1      -5.773  75.670 115.504  0.00  0.00    -0.090 HD
ATOM     21  H   LIG d   1      -5.100  74.876 116.770  0.00  0.00    -0.090 HD
ENDBRANCH   5  18
BRANCH   3  22
ATOM     22  C   LIG d   1      -7.880  71.084 116.066  0.00  0.00     0.382 C 
ATOM     23  O   LIG d   1      -8.834  70.293 116.261  0.00  0.00    -0.241 OA
ATOM     24  O   LIG d   1      -6.950  70.748 115.309  0.00  0.00    -0.241 OA
ENDBRANCH   3  22
TORSDOF 7
ENDMDL
MODEL 3
REMARK VINA RESULT:      -5.5      2.313      5.054
REMARK  7 active torsions:
REMARK  status: ('A' for Active; 'I' for Inactive)
REMARK    1  A    between atoms: C_2  and  C_3 
REMARK    2  A    between atoms: C_3  and  O_6 
REMARK    3  A    between atoms: C_3  and  C_4 
REMARK    4  A    between atoms: C_7  and  O_6 
REMARK    5  A    between atoms: C_9  and  C_10 
REMARK    6  A    between atoms: N_15  and  C_14 
REMARK    7  A    between atoms: N_20  and  C_19 
REMARK       I    between atoms: C_22  and  N_20 
ROOT
ATOM      1  C   LIG d   1      -8.194  75.514 117.113  0.00  0.00     0.161 C 
ATOM      2  C   LIG d   1      -7.405  76.672 117.011  0.00  0.00     0.016 C 
ATOM      3  C   LIG d   1      -7.717  77.886 117.664  0.00  0.00     0.038 C 
ATOM      4  C   LIG d   1      -8.767  77.982 118.590  0.00  0.00     0.028 C 
ATOM      5  C   LIG d   1      -9.890  76.981 118.338  0.00  0.00    -0.047 C 
ATOM      6  C   LIG d   1      -9.281  75.566 118.207  0.00  0.00     0.091 C 
ENDROOT
BRANCH   1   7
ATOM      7  O   LIG d   1      -7.349  74.362 117.301  0.00  0.00    -0.368 OA
BRANCH   7   8
ATOM      8  C   LIG d   1      -6.665  73.873 116.121  0.00  0.00     0.119 C 
BRANCH   8   9
ATOM      9  C   LIG d   1      -6.979  72.370 115.993  0.00  0.00     0.028 C 
ATOM     10  C   LIG d   1      -8.058  71.909 116.987  0.00  0.00     0.006 C 
ENDBRANCH   8   9
BRANCH   8  11
ATOM     11  C   LIG d   1      -5.144  73.958 116.284  0.00  0.00     0.028 C 
ATOM     12  C   LIG d   1      -4.473  74.793 115.182  0.00  0.00     0.006 C 
ENDBRANCH   8  11
ENDBRANCH   7   8
ENDBRANCH   1   7
BRANCH   6  13
ATOM     13  N   LIG d   1     -10.302  74.539 117.876  0.00  0.00    -0.311 N 
ATOM     14  C   LIG d   1     -10.872  73.752 118.787  0.00  0.00     0.210 C 
ATOM     15  C   LIG d   1     -11.885  72.747 118.230  0.00  0.00     0.109 C 
ATOM     16  O   LIG d   1     -10.659  73.813 120.007  0.00  0.00    -0.276 OA
ATOM     17  H   LIG d   1     -10.557  74.443 116.912  0.00  0.00     0.149 HD
ENDBRANCH   6  13
BRANCH   5  18
ATOM     18  N   LIG d   1     -10.848  77.097 119.453  0.00  0.00     0.381 N 
ATOM     19  H   LIG d   1     -10.468  77.687 120.167  0.00  0.00    -0.090 HD
ATOM     20  H   LIG d   1     -11.001  76.185 119.847  0.00  0.00    -0.090 HD
ATOM     21  H   LIG d   1     -11.710  77.474 119.125  0.00  0.00    -0.090 HD
ENDBRANCH   5  18
BRANCH   3  22
ATOM     22  C   LIG d   1      -7.000  79.034 117.361  0.00  0.00     0.382 C 
ATOM     23  O   LIG d   1      -7.603  80.115 117.157  0.00  0.00    -0.241 OA
ATOM     24  O   LIG d   1      -5.760  78.991 117.246  0.00  0.00    -0.241 OA
ENDBRANCH   3  22
TORSDOF 7
ENDMDL
MODEL 4
REMARK VINA RESULT:      -5.3      2.888      6.798
REMARK  7 active torsions:
REMARK  status: ('A' for Active; 'I' for Inactive)
REMARK    1  A    between atoms: C_2  and  C_3 
REMARK    2  A    between atoms: C_3  and  O_6 
REMARK    3  A    between atoms: C_3  and  C_4 
REMARK    4  A    between atoms: C_7  and  O_6 
REMARK    5  A    between atoms: C_9  and  C_10 
REMARK    6  A    between atoms: N_15  and  C_14 
REMARK    7  A    between atoms: N_20  and  C_19 
REMARK       I    between atoms: C_22  and  N_20 
ROOT
ATOM      1  C   LIG d   1      -9.040  76.275 118.193  0.00  0.00     0.161 C 
ATOM      2  C   LIG d   1      -9.626  77.397 118.804  0.00  0.00     0.016 C 
ATOM      3  C   LIG d   1      -9.121  78.710 118.666  0.00  0.00     0.038 C 
ATOM      4  C   LIG d   1      -8.077  79.014 117.780  0.00  0.00     0.028 C 
ATOM      5  C   LIG d   1      -7.134  77.842 117.530  0.00  0.00    -0.047 C 
ATOM      6  C   LIG d   1      -7.968  76.602 117.133  0.00  0.00     0.091 C 
ENDROOT
BRANCH   1   7
ATOM      7  O   LIG d   1     -10.066  75.437 117.626  0.00  0.00    -0.368 OA
BRANCH   7   8
ATOM      8  C   LIG d   1     -10.597  74.404 118.492  0.00  0.00     0.119 C 
BRANCH   8   9
ATOM      9  C   LIG d   1      -9.424  73.490 118.896  0.00  0.00     0.028 C 
ATOM     10  C   LIG d   1      -9.014  72.528 117.769  0.00  0.00     0.006 C 
ENDBRANCH   8   9
BRANCH   8  11
ATOM     11  C   LIG d   1     -11.578  73.497 117.742  0.00  0.00     0.028 C 
ATOM     12  C   LIG d   1     -12.785  73.088 118.600  0.00  0.00     0.006 C 
ENDBRANCH   8  11
ENDBRANCH   7   8
ENDBRANCH   1   7
BRANCH   6  13
ATOM     13  N   LIG d   1      -7.129  75.389 116.953  0.00  0.00    -0.311 N 
ATOM     14  C   LIG d   1      -6.620  75.017 115.780  0.00  0.00     0.210 C 
ATOM     15  C   LIG d   1      -5.801  73.723 115.812  0.00  0.00     0.109 C 
ATOM     16  O   LIG d   1      -6.742  75.653 114.723  0.00  0.00    -0.276 OA
ATOM     17  H   LIG d   1      -6.953  74.831 117.766  0.00  0.00     0.149 HD
ENDBRANCH   6  13
BRANCH   5  18
ATOM     18  N   LIG d   1      -6.177  78.254 116.486  0.00  0.00     0.381 N 
ATOM     19  H   LIG d   1      -6.629  78.864 115.835  0.00  0.00    -0.090 HD
ATOM     20  H   LIG d   1      -5.867  77.437 115.989  0.00  0.00    -0.090 HD
ATOM     21  H   LIG d   1      -5.398  78.716 116.900  0.00  0.00    -0.090 HD
ENDBRANCH   5  18
BRANCH   3  22
ATOM     22  C   LIG d   1      -9.636  79.730 119.451  0.00  0.00     0.382 C 
ATOM     23  O   LIG d   1      -9.012  80.814 119.560  0.00  0.00    -0.241 OA
ATOM     24  O   LIG d   1     -10.694  79.565 120.087  0.00  0.00    -0.241 OA
ENDBRANCH   3  22
TORSDOF 7
ENDMDL
MODEL 5
REMARK VINA RESULT:      -5.3      1.448      2.165
REMARK  7 active torsions:
REMARK  status: ('A' for Active; 'I' for Inactive)
REMARK    1  A    between atoms: C_2  and  C_3 
REMARK    2  A    between atoms: C_3  and  O_6 
REMARK    3  A    between atoms: C_3  and  C_4 
REMARK    4  A    between atoms: C_7  and  O_6 
REMARK    5  A    between atoms: C_9  and  C_10 
REMARK    6  A    between atoms: N_15  and  C_14 
REMARK    7  A    between atoms: N_20  and  C_19 
REMARK       I    between atoms: C_22  and  N_20 
ROOT
ATOM      1  C   LIG d   1      -7.538  74.478 117.363  0.00  0.00     0.161 C 
ATOM      2  C   LIG d   1      -7.510  73.223 116.732  0.00  0.00     0.016 C 
ATOM      3  C   LIG d   1      -8.485  72.222 116.945  0.00  0.00     0.038 C 
ATOM      4  C   LIG d   1      -9.646  72.466 117.694  0.00  0.00     0.028 C 
ATOM      5  C   LIG d   1      -9.466  73.544 118.757  0.00  0.00    -0.047 C 
ATOM      6  C   LIG d   1      -8.856  74.802 118.098  0.00  0.00     0.091 C 
ENDROOT
BRANCH   1   7
ATOM      7  O   LIG d   1      -7.229  75.513 116.409  0.00  0.00    -0.368 OA
BRANCH   7   8
ATOM      8  C   LIG d   1      -5.917  76.117 116.527  0.00  0.00     0.119 C 
BRANCH   8   9
ATOM      9  C   LIG d   1      -5.066  75.610 115.347  0.00  0.00     0.028 C 
ATOM     10  C   LIG d   1      -3.837  74.810 115.810  0.00  0.00     0.006 C 
ENDBRANCH   8   9
BRANCH   8  11
ATOM     11  C   LIG d   1      -5.193  75.634 117.787  0.00  0.00     0.028 C 
ATOM     12  C   LIG d   1      -5.009  76.746 118.831  0.00  0.00     0.006 C 
ENDBRANCH   8  11
ENDBRANCH   7   8
ENDBRANCH   1   7
BRANCH   6  13
ATOM     13  N   LIG d   1      -8.569  75.877 119.084  0.00  0.00    -0.311 N 
ATOM     14  C   LIG d   1      -9.384  76.906 119.305  0.00  0.00     0.210 C 
ATOM     15  C   LIG d   1      -8.889  77.911 120.349  0.00  0.00     0.109 C 
ATOM     16  O   LIG d   1     -10.486  77.065 118.758  0.00  0.00    -0.276 OA
ATOM     17  H   LIG d   1      -7.710  75.810 119.594  0.00  0.00     0.149 HD
ENDBRANCH   6  13
BRANCH   5  18
ATOM     18  N   LIG d   1     -10.785  73.793 119.368  0.00  0.00     0.381 N 
ATOM     19  H   LIG d   1     -10.689  73.873 120.361  0.00  0.00    -0.090 HD
ATOM     20  H   LIG d   1     -11.387  73.013 119.171  0.00  0.00    -0.090 HD
ATOM     21  H   LIG d   1     -11.181  74.629 118.997  0.00  0.00    -0.090 HD
ENDBRANCH   5  18
BRANCH   3  22
ATOM     22  C   LIG d   1      -8.284  70.948 116.438  0.00  0.00     0.382 C 
ATOM     23  O   LIG d   1      -9.011  69.999 116.820  0.00  0.00    -0.241 OA
ATOM     24  O   LIG d   1      -7.357  70.726 115.636  0.00  0.00    -0.241 OA
ENDBRANCH   3  22
TORSDOF 7
ENDMDL
MODEL 6
REMARK VINA RESULT:      -5.1     17.181     19.060
REMARK  7 active torsions:
REMARK  status: ('A' for Active; 'I' for Inactive)
REMARK    1  A    between atoms: C_2  and  C_3 
REMARK    2  A    between atoms: C_3  and  O_6 
REMARK    3  A    between atoms: C_3  and  C_4 
REMARK    4  A    between atoms: C_7  and  O_6 
REMARK    5  A    between atoms: C_9  and  C_10 
REMARK    6  A    between atoms: N_15  and  C_14 
REMARK    7  A    between atoms: N_20  and  C_19 
REMARK       I    between atoms: C_22  and  N_20 
ROOT
ATOM      1  C   LIG d   1      -3.748  91.495 117.733  0.00  0.00     0.161 C 
ATOM      2  C   LIG d   1      -4.635  90.739 116.949  0.00  0.00     0.016 C 
ATOM      3  C   LIG d   1      -5.918  91.195 116.567  0.00  0.00     0.038 C 
ATOM      4  C   LIG d   1      -6.344  92.507 116.818  0.00  0.00     0.028 C 
ATOM      5  C   LIG d   1      -5.684  93.135 118.041  0.00  0.00    -0.047 C 
ATOM      6  C   LIG d   1      -4.151  92.973 117.923  0.00  0.00     0.091 C 
ENDROOT
BRANCH   1   7
ATOM      7  O   LIG d   1      -2.417  91.405 117.189  0.00  0.00    -0.368 OA
BRANCH   7   8
ATOM      8  C   LIG d   1      -1.413  90.818 118.053  0.00  0.00     0.119 C 
BRANCH   8   9
ATOM      9  C   LIG d   1      -0.046  91.001 117.367  0.00  0.00     0.028 C 
ATOM     10  C   LIG d   1       0.725  92.217 117.909  0.00  0.00     0.006 C 
ENDBRANCH   8   9
BRANCH   8  11
ATOM     11  C   LIG d   1      -1.604  89.303 118.180  0.00  0.00     0.028 C 
ATOM     12  C   LIG d   1      -0.427  88.504 117.598  0.00  0.00     0.006 C 
ENDBRANCH   8  11
ENDBRANCH   7   8
ENDBRANCH   1   7
BRANCH   6  13
ATOM     13  N   LIG d   1      -3.433  93.485 119.119  0.00  0.00    -0.311 N 
ATOM     14  C   LIG d   1      -2.350  94.258 119.049  0.00  0.00     0.210 C 
ATOM     15  C   LIG d   1      -1.753  94.658 120.401  0.00  0.00     0.109 C 
ATOM     16  O   LIG d   1      -1.847  94.676 117.995  0.00  0.00    -0.276 OA
ATOM     17  H   LIG d   1      -3.792  93.220 120.015  0.00  0.00     0.149 HD
ENDBRANCH   6  13
BRANCH   5  18
ATOM     18  N   LIG d   1      -6.113  94.545 118.105  0.00  0.00     0.381 N 
ATOM     19  H   LIG d   1      -6.300  94.884 117.183  0.00  0.00    -0.090 HD
ATOM     20  H   LIG d   1      -5.368  95.094 118.498  0.00  0.00    -0.090 HD
ATOM     21  H   LIG d   1      -6.930  94.627 118.670  0.00  0.00    -0.090 HD
ENDBRANCH   5  18
BRANCH   3  22
ATOM     22  C   LIG d   1      -6.806  90.319 115.960  0.00  0.00     0.382 C 
ATOM     23  O   LIG d   1      -7.905  90.061 116.508  0.00  0.00    -0.241 OA
ATOM     24  O   LIG d   1      -6.502  89.750 114.895  0.00  0.00    -0.241 OA
ENDBRANCH   3  22
TORSDOF 7
ENDMDL
MODEL 7
REMARK VINA RESULT:      -5.0      2.883      4.840
REMARK  7 active torsions:
REMARK  status: ('A' for Active; 'I' for Inactive)
REMARK    1  A    between atoms: C_2  and  C_3 
REMARK    2  A    between atoms: C_3  and  O_6 
REMARK    3  A    between atoms: C_3  and  C_4 
REMARK    4  A    between atoms: C_7  and  O_6 
REMARK    5  A    between atoms: C_9  and  C_10 
REMARK    6  A    between atoms: N_15  and  C_14 
REMARK    7  A    between atoms: N_20  and  C_19 
REMARK       I    between atoms: C_22  and  N_20 
ROOT
ATOM      1  C   LIG d   1      -7.477  74.922 117.669  0.00  0.00     0.161 C 
ATOM      2  C   LIG d   1      -8.731  74.570 118.197  0.00  0.00     0.016 C 
ATOM      3  C   LIG d   1      -9.311  73.290 118.036  0.00  0.00     0.038 C 
ATOM      4  C   LIG d   1      -8.605  72.223 117.461  0.00  0.00     0.028 C 
ATOM      5  C   LIG d   1      -7.537  72.668 116.467  0.00  0.00    -0.047 C 
ATOM      6  C   LIG d   1      -6.644  73.738 117.135  0.00  0.00     0.091 C 
ENDROOT
BRANCH   1   7
ATOM      7  O   LIG d   1      -6.724  75.662 118.651  0.00  0.00    -0.368 OA
BRANCH   7   8
ATOM      8  C   LIG d   1      -6.598  77.086 118.416  0.00  0.00     0.119 C 
BRANCH   8   9
ATOM      9  C   LIG d   1      -7.630  77.471 117.339  0.00  0.00     0.028 C 
ATOM     10  C   LIG d   1      -8.733  78.394 117.886  0.00  0.00     0.006 C 
ENDBRANCH   8   9
BRANCH   8  11
ATOM     11  C   LIG d   1      -5.234  77.432 117.812  0.00  0.00     0.028 C 
ATOM     12  C   LIG d   1      -5.334  77.938 116.364  0.00  0.00     0.006 C 
ENDBRANCH   8  11
ENDBRANCH   7   8
ENDBRANCH   1   7
BRANCH   6  13
ATOM     13  N   LIG d   1      -5.626  74.288 116.203  0.00  0.00    -0.311 N 
ATOM     14  C   LIG d   1      -4.315  74.114 116.364  0.00  0.00     0.210 C 
ATOM     15  C   LIG d   1      -3.439  74.783 115.300  0.00  0.00     0.109 C 
ATOM     16  O   LIG d   1      -3.796  73.443 117.268  0.00  0.00    -0.276 OA
ATOM     17  H   LIG d   1      -5.961  74.820 115.424  0.00  0.00     0.149 HD
ENDBRANCH   6  13
BRANCH   5  18
ATOM     18  N   LIG d   1      -6.788  71.467 116.050  0.00  0.00     0.381 N 
ATOM     19  H   LIG d   1      -5.950  71.387 116.590  0.00  0.00    -0.090 HD
ATOM     20  H   LIG d   1      -6.534  71.563 115.083  0.00  0.00    -0.090 HD
ATOM     21  H   LIG d   1      -7.351  70.654 116.175  0.00  0.00    -0.090 HD
ENDBRANCH   5  18
BRANCH   3  22
ATOM     22  C   LIG d   1     -10.627  73.080 118.417  0.00  0.00     0.382 C 
ATOM     23  O   LIG d   1     -11.371  72.346 117.723  0.00  0.00    -0.241 OA
ATOM     24  O   LIG d   1     -11.093  73.651 119.421  0.00  0.00    -0.241 OA
ENDBRANCH   3  22
TORSDOF 7
ENDMDL
MODEL 8
REMARK VINA RESULT:      -4.9      2.122      3.145
REMARK  7 active torsions:
REMARK  status: ('A' for Active; 'I' for Inactive)
REMARK    1  A    between atoms: C_2  and  C_3 
REMARK    2  A    between atoms: C_3  and  O_6 
REMARK    3  A    between atoms: C_3  and  C_4 
REMARK    4  A    between atoms: C_7  and  O_6 
REMARK    5  A    between atoms: C_9  and  C_10 
REMARK    6  A    between atoms: N_15  and  C_14 
REMARK    7  A    between atoms: N_20  and  C_19 
REMARK       I    between atoms: C_22  and  N_20 
ROOT
ATOM      1  C   LIG d   1      -8.493  75.064 118.119  0.00  0.00     0.161 C 
ATOM      2  C   LIG d   1      -9.351  73.986 117.846  0.00  0.00     0.016 C 
ATOM      3  C   LIG d   1     -10.725  73.981 118.181  0.00  0.00     0.038 C 
ATOM      4  C   LIG d   1     -11.371  75.122 118.679  0.00  0.00     0.028 C 
ATOM      5  C   LIG d   1     -10.441  76.062 119.439  0.00  0.00    -0.047 C 
ATOM      6  C   LIG d   1      -9.204  76.361 118.561  0.00  0.00     0.091 C 
ENDROOT
BRANCH   1   7
ATOM      7  O   LIG d   1      -7.651  75.319 116.978  0.00  0.00    -0.368 OA
BRANCH   7   8
ATOM      8  C   LIG d   1      -6.371  74.640 116.966  0.00  0.00     0.119 C 
BRANCH   8   9
ATOM      9  C   LIG d   1      -5.273  75.721 116.922  0.00  0.00     0.028 C 
ATOM     10  C   LIG d   1      -4.705  76.038 118.316  0.00  0.00     0.006 C 
ENDBRANCH   8   9
BRANCH   8  11
ATOM     11  C   LIG d   1      -6.186  73.822 115.684  0.00  0.00     0.028 C 
ATOM     12  C   LIG d   1      -6.784  72.410 115.787  0.00  0.00     0.006 C 
ENDBRANCH   8  11
ENDBRANCH   7   8
ENDBRANCH   1   7
BRANCH   6  13
ATOM     13  N   LIG d   1      -8.203  77.206 119.262  0.00  0.00    -0.311 N 
ATOM     14  C   LIG d   1      -7.698  78.325 118.745  0.00  0.00     0.210 C 
ATOM     15  C   LIG d   1      -6.664  79.035 119.625  0.00  0.00     0.109 C 
ATOM     16  O   LIG d   1      -8.032  78.815 117.656  0.00  0.00    -0.276 OA
ATOM     17  H   LIG d   1      -7.899  76.899 120.165  0.00  0.00     0.149 HD
ENDBRANCH   6  13
BRANCH   5  18
ATOM     18  N   LIG d   1     -11.212  77.271 119.782  0.00  0.00     0.381 N 
ATOM     19  H   LIG d   1     -11.838  77.071 120.536  0.00  0.00    -0.090 HD
ATOM     20  H   LIG d   1     -11.758  77.546 118.984  0.00  0.00    -0.090 HD
ATOM     21  H   LIG d   1     -10.594  78.008 120.040  0.00  0.00    -0.090 HD
ENDBRANCH   5  18
BRANCH   3  22
ATOM     22  C   LIG d   1     -11.458  72.811 118.055  0.00  0.00     0.382 C 
ATOM     23  O   LIG d   1     -12.585  72.716 118.598  0.00  0.00    -0.241 OA
ATOM     24  O   LIG d   1     -10.988  71.833 117.443  0.00  0.00    -0.241 OA
ENDBRANCH   3  22
TORSDOF 7
ENDMDL
MODEL 9
REMARK VINA RESULT:      -4.9      3.309      5.493
REMARK  7 active torsions:
REMARK  status: ('A' for Active; 'I' for Inactive)
REMARK    1  A    between atoms: C_2  and  C_3 
REMARK    2  A    between atoms: C_3  and  O_6 
REMARK    3  A    between atoms: C_3  and  C_4 
REMARK    4  A    between atoms: C_7  and  O_6 
REMARK    5  A    between atoms: C_9  and  C_10 
REMARK    6  A    between atoms: N_15  and  C_14 
REMARK    7  A    between atoms: N_20  and  C_19 
REMARK       I    between atoms: C_22  and  N_20 
ROOT
ATOM      1  C   LIG d   1      -6.560  75.989 117.851  0.00  0.00     0.161 C 
ATOM      2  C   LIG d   1      -7.839  75.443 118.053  0.00  0.00     0.016 C 
ATOM      3  C   LIG d   1      -9.011  76.227 118.160  0.00  0.00     0.038 C 
ATOM      4  C   LIG d   1      -9.004  77.609 117.919  0.00  0.00     0.028 C 
ATOM      5  C   LIG d   1      -7.660  78.267 118.210  0.00  0.00    -0.047 C 
ATOM      6  C   LIG d   1      -6.548  77.486 117.475  0.00  0.00     0.091 C 
ENDROOT
BRANCH   1   7
ATOM      7  O   LIG d   1      -5.851  75.218 116.861  0.00  0.00    -0.368 OA
BRANCH   7   8
ATOM      8  C   LIG d   1      -6.584  74.904 115.652  0.00  0.00     0.119 C 
BRANCH   8   9
ATOM      9  C   LIG d   1      -6.246  73.450 115.269  0.00  0.00     0.028 C 
ATOM     10  C   LIG d   1      -7.019  72.426 116.116  0.00  0.00     0.006 C 
ENDBRANCH   8   9
BRANCH   8  11
ATOM     11  C   LIG d   1      -6.105  75.756 114.472  0.00  0.00     0.028 C 
ATOM     12  C   LIG d   1      -4.602  76.071 114.537  0.00  0.00     0.006 C 
ENDBRANCH   8  11
ENDBRANCH   7   8
ENDBRANCH   1   7
BRANCH   6  13
ATOM     13  N   LIG d   1      -5.191  78.013 117.774  0.00  0.00    -0.311 N 
ATOM     14  C   LIG d   1      -4.562  78.897 117.001  0.00  0.00     0.210 C 
ATOM     15  C   LIG d   1      -3.162  79.294 117.481  0.00  0.00     0.109 C 
ATOM     16  O   LIG d   1      -5.042  79.414 115.982  0.00  0.00    -0.276 OA
ATOM     17  H   LIG d   1      -4.740  77.670 118.599  0.00  0.00     0.149 HD
ENDBRANCH   6  13
BRANCH   5  18
ATOM     18  N   LIG d   1      -7.754  79.677 117.786  0.00  0.00     0.381 N 
ATOM     19  H   LIG d   1      -6.861  80.119 117.882  0.00  0.00    -0.090 HD
ATOM     20  H   LIG d   1      -8.408  80.153 118.382  0.00  0.00    -0.090 HD
ATOM     21  H   LIG d   1      -8.058  79.729 116.839  0.00  0.00    -0.090 HD
ENDBRANCH   5  18
BRANCH   3  22
ATOM     22  C   LIG d   1     -10.202  75.632 118.550  0.00  0.00     0.382 C 
ATOM     23  O   LIG d   1     -10.186  74.651 119.332  0.00  0.00    -0.241 OA
ATOM     24  O   LIG d   1     -11.289  76.037 118.096  0.00  0.00    -0.241 OA
ENDBRANCH   3  22
TORSDOF 7
ENDMDL
