MODEL 1
REMARK VINA RESULT:      -5.5      0.000      0.000
REMARK  7 active torsions:
REMARK  status: ('A' for Active; 'I' for Inactive)
REMARK    1  A    between atoms: C_2  and  C_3 
REMARK    2  A    between atoms: C_3  and  O_6 
REMARK    3  A    between atoms: C_3  and  C_4 
REMARK    4  A    between atoms: C_7  and  O_6 
REMARK    5  A    between atoms: C_9  and  C_10 
REMARK    6  A    between atoms: N_15  and  C_14 
REMARK    7  A    between atoms: N_20  and  C_19 
REMARK       I    between atoms: C_22  and  N_20 
ROOT
ATOM      1  C   LIG d   1      -7.015  76.748 117.768  0.00  0.00     0.161 C 
ATOM      2  C   LIG d   1      -8.095  77.506 118.249  0.00  0.00     0.016 C 
ATOM      3  C   LIG d   1      -8.062  78.913 118.380  0.00  0.00     0.038 C 
ATOM      4  C   LIG d   1      -6.991  79.678 117.893  0.00  0.00     0.028 C 
ATOM      5  C   LIG d   1      -5.669  78.918 117.863  0.00  0.00    -0.047 C 
ATOM      6  C   LIG d   1      -5.879  77.574 117.128  0.00  0.00     0.091 C 
ENDROOT
BRANCH   1   7
ATOM      7  O   LIG d   1      -7.491  75.750 116.843  0.00  0.00    -0.368 OA
BRANCH   7   8
ATOM      8  C   LIG d   1      -7.512  74.387 117.331  0.00  0.00     0.119 C 
BRANCH   8   9
ATOM      9  C   LIG d   1      -6.566  73.561 116.438  0.00  0.00     0.028 C 
ATOM     10  C   LIG d   1      -6.798  72.047 116.580  0.00  0.00     0.006 C 
ENDBRANCH   8   9
BRANCH   8  11
ATOM     11  C   LIG d   1      -8.895  73.752 117.154  0.00  0.00     0.028 C 
ATOM     12  C   LIG d   1      -9.993  74.788 116.867  0.00  0.00     0.006 C 
ENDBRANCH   8  11
ENDBRANCH   7   8
ENDBRANCH   1   7
BRANCH   6  13
ATOM     13  N   LIG d   1      -4.656  76.731 117.127  0.00  0.00    -0.311 N 
ATOM     14  C   LIG d   1      -4.100  76.246 116.018  0.00  0.00     0.210 C 
ATOM     15  C   LIG d   1      -2.854  75.384 116.242  0.00  0.00     0.109 C 
ATOM     16  O   LIG d   1      -4.502  76.476 114.867  0.00  0.00    -0.276 OA
ATOM     17  H   LIG d   1      -4.245  76.521 118.016  0.00  0.00     0.149 HD
ENDBRANCH   6  13
BRANCH   5  18
ATOM     18  N   LIG d   1      -4.671  79.785 117.207  0.00  0.00     0.381 N 
ATOM     19  H   LIG d   1      -3.766  79.362 117.262  0.00  0.00    -0.090 HD
ATOM     20  H   LIG d   1      -4.638  80.665 117.690  0.00  0.00    -0.090 HD
ATOM     21  H   LIG d   1      -4.920  79.930 116.253  0.00  0.00    -0.090 HD
ENDBRANCH   5  18
BRANCH   3  22
ATOM     22  C   LIG d   1      -9.091  79.567 119.040  0.00  0.00     0.382 C 
ATOM     23  O   LIG d   1     -10.284  79.297 118.764  0.00  0.00    -0.241 OA
ATOM     24  O   LIG d   1      -8.841  80.456 119.876  0.00  0.00    -0.241 OA
ENDBRANCH   3  22
TORSDOF 7
ENDMDL
MODEL 2
REMARK VINA RESULT:      -5.3      1.471      1.793
REMARK  7 active torsions:
REMARK  status: ('A' for Active; 'I' for Inactive)
REMARK    1  A    between atoms: C_2  and  C_3 
REMARK    2  A    between atoms: C_3  and  O_6 
REMARK    3  A    between atoms: C_3  and  C_4 
REMARK    4  A    between atoms: C_7  and  O_6 
REMARK    5  A    between atoms: C_9  and  C_10 
REMARK    6  A    between atoms: N_15  and  C_14 
REMARK    7  A    between atoms: N_20  and  C_19 
REMARK       I    between atoms: C_22  and  N_20 
ROOT
ATOM      1  C   LIG d   1      -7.083  77.784 117.905  0.00  0.00     0.161 C 
ATOM      2  C   LIG d   1      -8.292  78.385 118.292  0.00  0.00     0.016 C 
ATOM      3  C   LIG d   1      -8.433  79.774 118.518  0.00  0.00     0.038 C 
ATOM      4  C   LIG d   1      -7.404  80.681 118.224  0.00  0.00     0.028 C 
ATOM      5  C   LIG d   1      -6.011  80.067 118.314  0.00  0.00    -0.047 C 
ATOM      6  C   LIG d   1      -5.979  78.771 117.472  0.00  0.00     0.091 C 
ENDROOT
BRANCH   1   7
ATOM      7  O   LIG d   1      -7.329  76.819 116.863  0.00  0.00    -0.368 OA
BRANCH   7   8
ATOM      8  C   LIG d   1      -6.961  75.450 117.162  0.00  0.00     0.119 C 
BRANCH   8   9
ATOM      9  C   LIG d   1      -6.079  74.943 116.005  0.00  0.00     0.028 C 
ATOM     10  C   LIG d   1      -5.982  75.958 114.853  0.00  0.00     0.006 C 
ENDBRANCH   8   9
BRANCH   8  11
ATOM     11  C   LIG d   1      -8.188  74.532 117.169  0.00  0.00     0.028 C 
ATOM     12  C   LIG d   1      -9.497  75.286 116.885  0.00  0.00     0.006 C 
ENDBRANCH   8  11
ENDBRANCH   7   8
ENDBRANCH   1   7
BRANCH   6  13
ATOM     13  N   LIG d   1      -4.677  78.063 117.572  0.00  0.00    -0.311 N 
ATOM     14  C   LIG d   1      -3.693  78.208 116.686  0.00  0.00     0.210 C 
ATOM     15  C   LIG d   1      -2.441  77.370 116.966  0.00  0.00     0.109 C 
ATOM     16  O   LIG d   1      -3.725  78.975 115.712  0.00  0.00    -0.276 OA
ATOM     17  H   LIG d   1      -4.553  77.443 118.349  0.00  0.00     0.149 HD
ENDBRANCH   6  13
BRANCH   5  18
ATOM     18  N   LIG d   1      -5.047  81.082 117.850  0.00  0.00     0.381 N 
ATOM     19  H   LIG d   1      -5.258  81.966 118.268  0.00  0.00    -0.090 HD
ATOM     20  H   LIG d   1      -5.128  81.177 116.853  0.00  0.00    -0.090 HD
ATOM     21  H   LIG d   1      -4.120  80.807 118.090  0.00  0.00    -0.090 HD
ENDBRANCH   5  18
BRANCH   3  22
ATOM     22  C   LIG d   1      -9.601  80.263 119.083  0.00  0.00     0.382 C 
ATOM     23  O   LIG d   1      -9.659  81.454 119.471  0.00  0.00    -0.241 OA
ATOM     24  O   LIG d   1     -10.584  79.515 119.249  0.00  0.00    -0.241 OA
ENDBRANCH   3  22
TORSDOF 7
ENDMDL
MODEL 3
REMARK VINA RESULT:      -5.2     13.987     16.539
REMARK  7 active torsions:
REMARK  status: ('A' for Active; 'I' for Inactive)
REMARK    1  A    between atoms: C_2  and  C_3 
REMARK    2  A    between atoms: C_3  and  O_6 
REMARK    3  A    between atoms: C_3  and  C_4 
REMARK    4  A    between atoms: C_7  and  O_6 
REMARK    5  A    between atoms: C_9  and  C_10 
REMARK    6  A    between atoms: N_15  and  C_14 
REMARK    7  A    between atoms: N_20  and  C_19 
REMARK       I    between atoms: C_22  and  N_20 
ROOT
ATOM      1  C   LIG d   1      -4.377  92.817 117.701  0.00  0.00     0.161 C 
ATOM      2  C   LIG d   1      -4.133  93.756 118.718  0.00  0.00     0.016 C 
ATOM      3  C   LIG d   1      -5.148  94.536 119.317  0.00  0.00     0.038 C 
ATOM      4  C   LIG d   1      -6.507  94.321 119.043  0.00  0.00     0.028 C 
ATOM      5  C   LIG d   1      -6.761  93.736 117.658  0.00  0.00    -0.047 C 
ATOM      6  C   LIG d   1      -5.866  92.490 117.468  0.00  0.00     0.091 C 
ENDROOT
BRANCH   1   7
ATOM      7  O   LIG d   1      -3.633  91.610 117.962  0.00  0.00    -0.368 OA
BRANCH   7   8
ATOM      8  C   LIG d   1      -2.418  91.765 118.736  0.00  0.00     0.119 C 
BRANCH   8   9
ATOM      9  C   LIG d   1      -1.230  91.507 117.789  0.00  0.00     0.028 C 
ATOM     10  C   LIG d   1      -0.350  92.754 117.599  0.00  0.00     0.006 C 
ENDBRANCH   8   9
BRANCH   8  11
ATOM     11  C   LIG d   1      -2.310  90.691 119.823  0.00  0.00     0.028 C 
ATOM     12  C   LIG d   1      -2.125  89.278 119.249  0.00  0.00     0.006 C 
ENDBRANCH   8  11
ENDBRANCH   7   8
ENDBRANCH   1   7
BRANCH   6  13
ATOM     13  N   LIG d   1      -5.990  91.905 116.107  0.00  0.00    -0.311 N 
ATOM     14  C   LIG d   1      -6.938  91.033 115.767  0.00  0.00     0.210 C 
ATOM     15  C   LIG d   1      -6.873  90.539 114.319  0.00  0.00     0.109 C 
ATOM     16  O   LIG d   1      -7.845  90.646 116.519  0.00  0.00    -0.276 OA
ATOM     17  H   LIG d   1      -5.314  92.188 115.425  0.00  0.00     0.149 HD
ENDBRANCH   6  13
BRANCH   5  18
ATOM     18  N   LIG d   1      -8.201  93.435 117.558  0.00  0.00     0.381 N 
ATOM     19  H   LIG d   1      -8.718  94.285 117.450  0.00  0.00    -0.090 HD
ATOM     20  H   LIG d   1      -8.500  92.990 118.407  0.00  0.00    -0.090 HD
ATOM     21  H   LIG d   1      -8.371  92.834 116.782  0.00  0.00    -0.090 HD
ENDBRANCH   5  18
BRANCH   3  22
ATOM     22  C   LIG d   1      -4.804  95.572 120.172  0.00  0.00     0.382 C 
ATOM     23  O   LIG d   1      -5.673  96.405 120.529  0.00  0.00    -0.241 OA
ATOM     24  O   LIG d   1      -3.627  95.711 120.555  0.00  0.00    -0.241 OA
ENDBRANCH   3  22
TORSDOF 7
ENDMDL
MODEL 4
REMARK VINA RESULT:      -5.2      2.048      4.791
REMARK  7 active torsions:
REMARK  status: ('A' for Active; 'I' for Inactive)
REMARK    1  A    between atoms: C_2  and  C_3 
REMARK    2  A    between atoms: C_3  and  O_6 
REMARK    3  A    between atoms: C_3  and  C_4 
REMARK    4  A    between atoms: C_7  and  O_6 
REMARK    5  A    between atoms: C_9  and  C_10 
REMARK    6  A    between atoms: N_15  and  C_14 
REMARK    7  A    between atoms: N_20  and  C_19 
REMARK       I    between atoms: C_22  and  N_20 
ROOT
ATOM      1  C   LIG d   1      -7.100  77.038 116.495  0.00  0.00     0.161 C 
ATOM      2  C   LIG d   1      -8.349  76.489 116.826  0.00  0.00     0.016 C 
ATOM      3  C   LIG d   1      -8.574  75.101 116.974  0.00  0.00     0.038 C 
ATOM      4  C   LIG d   1      -7.523  74.172 116.949  0.00  0.00     0.028 C 
ATOM      5  C   LIG d   1      -6.329  74.631 116.119  0.00  0.00    -0.047 C 
ATOM      6  C   LIG d   1      -5.917  76.050 116.573  0.00  0.00     0.091 C 
ENDROOT
BRANCH   1   7
ATOM      7  O   LIG d   1      -6.842  78.195 117.316  0.00  0.00    -0.368 OA
BRANCH   7   8
ATOM      8  C   LIG d   1      -7.692  78.354 118.478  0.00  0.00     0.119 C 
BRANCH   8   9
ATOM      9  C   LIG d   1      -8.128  79.831 118.534  0.00  0.00     0.028 C 
ATOM     10  C   LIG d   1      -9.625  79.989 118.850  0.00  0.00     0.006 C 
ENDBRANCH   8   9
BRANCH   8  11
ATOM     11  C   LIG d   1      -6.915  78.111 119.776  0.00  0.00     0.028 C 
ATOM     12  C   LIG d   1      -5.523  78.763 119.766  0.00  0.00     0.006 C 
ENDBRANCH   8  11
ENDBRANCH   7   8
ENDBRANCH   1   7
BRANCH   6  13
ATOM     13  N   LIG d   1      -4.809  76.609 115.755  0.00  0.00    -0.311 N 
ATOM     14  C   LIG d   1      -3.661  77.040 116.273  0.00  0.00     0.210 C 
ATOM     15  C   LIG d   1      -2.661  77.596 115.254  0.00  0.00     0.109 C 
ATOM     16  O   LIG d   1      -3.362  76.984 117.475  0.00  0.00    -0.276 OA
ATOM     17  H   LIG d   1      -4.955  76.661 114.766  0.00  0.00     0.149 HD
ENDBRANCH   6  13
BRANCH   5  18
ATOM     18  N   LIG d   1      -5.256  73.634 116.292  0.00  0.00     0.381 N 
ATOM     19  H   LIG d   1      -4.606  73.953 116.982  0.00  0.00    -0.090 HD
ATOM     20  H   LIG d   1      -4.765  73.531 115.421  0.00  0.00    -0.090 HD
ATOM     21  H   LIG d   1      -5.644  72.760 116.569  0.00  0.00    -0.090 HD
ENDBRANCH   5  18
BRANCH   3  22
ATOM     22  C   LIG d   1      -9.870  74.625 117.110  0.00  0.00     0.382 C 
ATOM     23  O   LIG d   1     -10.809  75.423 117.342  0.00  0.00    -0.241 OA
ATOM     24  O   LIG d   1     -10.104  73.403 117.048  0.00  0.00    -0.241 OA
ENDBRANCH   3  22
TORSDOF 7
ENDMDL
MODEL 5
REMARK VINA RESULT:      -4.9      2.103      4.939
REMARK  7 active torsions:
REMARK  status: ('A' for Active; 'I' for Inactive)
REMARK    1  A    between atoms: C_2  and  C_3 
REMARK    2  A    between atoms: C_3  and  O_6 
REMARK    3  A    between atoms: C_3  and  C_4 
REMARK    4  A    between atoms: C_7  and  O_6 
REMARK    5  A    between atoms: C_9  and  C_10 
REMARK    6  A    between atoms: N_15  and  C_14 
REMARK    7  A    between atoms: N_20  and  C_19 
REMARK       I    between atoms: C_22  and  N_20 
ROOT
ATOM      1  C   LIG d   1      -7.167  77.583 117.366  0.00  0.00     0.161 C 
ATOM      2  C   LIG d   1      -8.368  76.870 117.514  0.00  0.00     0.016 C 
ATOM      3  C   LIG d   1      -8.523  75.518 117.130  0.00  0.00     0.038 C 
ATOM      4  C   LIG d   1      -7.436  74.738 116.709  0.00  0.00     0.028 C 
ATOM      5  C   LIG d   1      -6.318  75.553 116.068  0.00  0.00    -0.047 C 
ATOM      6  C   LIG d   1      -5.940  76.717 117.012  0.00  0.00     0.091 C 
ENDROOT
BRANCH   1   7
ATOM      7  O   LIG d   1      -6.909  78.356 118.555  0.00  0.00    -0.368 OA
BRANCH   7   8
ATOM      8  C   LIG d   1      -6.985  79.795 118.409  0.00  0.00     0.119 C 
BRANCH   8   9
ATOM      9  C   LIG d   1      -5.693  80.390 119.003  0.00  0.00     0.028 C 
ATOM     10  C   LIG d   1      -5.074  81.469 118.099  0.00  0.00     0.006 C 
ENDBRANCH   8   9
BRANCH   8  11
ATOM     11  C   LIG d   1      -8.124  80.381 119.247  0.00  0.00     0.028 C 
ATOM     12  C   LIG d   1      -9.279  80.922 118.389  0.00  0.00     0.006 C 
ENDBRANCH   8  11
ENDBRANCH   7   8
ENDBRANCH   1   7
BRANCH   6  13
ATOM     13  N   LIG d   1      -4.911  77.614 116.424  0.00  0.00    -0.311 N 
ATOM     14  C   LIG d   1      -3.768  77.918 117.035  0.00  0.00     0.210 C 
ATOM     15  C   LIG d   1      -2.856  78.876 116.262  0.00  0.00     0.109 C 
ATOM     16  O   LIG d   1      -3.408  77.460 118.130  0.00  0.00    -0.276 OA
ATOM     17  H   LIG d   1      -5.108  78.005 115.523  0.00  0.00     0.149 HD
ENDBRANCH   6  13
BRANCH   5  18
ATOM     18  N   LIG d   1      -5.193  74.636 115.802  0.00  0.00     0.381 N 
ATOM     19  H   LIG d   1      -5.181  73.908 116.489  0.00  0.00    -0.090 HD
ATOM     20  H   LIG d   1      -4.332  75.149 115.871  0.00  0.00    -0.090 HD
ATOM     21  H   LIG d   1      -5.282  74.242 114.892  0.00  0.00    -0.090 HD
ENDBRANCH   5  18
BRANCH   3  22
ATOM     22  C   LIG d   1      -9.785  74.945 117.127  0.00  0.00     0.382 C 
ATOM     23  O   LIG d   1      -9.919  73.723 116.872  0.00  0.00    -0.241 OA
ATOM     24  O   LIG d   1     -10.797  75.642 117.334  0.00  0.00    -0.241 OA
ENDBRANCH   3  22
TORSDOF 7
ENDMDL
MODEL 6
REMARK VINA RESULT:      -4.9      2.572      6.121
REMARK  7 active torsions:
REMARK  status: ('A' for Active; 'I' for Inactive)
REMARK    1  A    between atoms: C_2  and  C_3 
REMARK    2  A    between atoms: C_3  and  O_6 
REMARK    3  A    between atoms: C_3  and  C_4 
REMARK    4  A    between atoms: C_7  and  O_6 
REMARK    5  A    between atoms: C_9  and  C_10 
REMARK    6  A    between atoms: N_15  and  C_14 
REMARK    7  A    between atoms: N_20  and  C_19 
REMARK       I    between atoms: C_22  and  N_20 
ROOT
ATOM      1  C   LIG d   1      -5.541  78.428 117.487  0.00  0.00     0.161 C 
ATOM      2  C   LIG d   1      -5.781  77.093 117.121  0.00  0.00     0.016 C 
ATOM      3  C   LIG d   1      -7.050  76.477 117.215  0.00  0.00     0.038 C 
ATOM      4  C   LIG d   1      -8.205  77.203 117.541  0.00  0.00     0.028 C 
ATOM      5  C   LIG d   1      -7.926  78.429 118.404  0.00  0.00    -0.047 C 
ATOM      6  C   LIG d   1      -6.811  79.268 117.739  0.00  0.00     0.091 C 
ENDROOT
BRANCH   1   7
ATOM      7  O   LIG d   1      -4.709  79.064 116.497  0.00  0.00    -0.368 OA
BRANCH   7   8
ATOM      8  C   LIG d   1      -3.344  79.343 116.896  0.00  0.00     0.119 C 
BRANCH   8   9
ATOM      9  C   LIG d   1      -3.232  80.862 117.131  0.00  0.00     0.028 C 
ATOM     10  C   LIG d   1      -2.849  81.205 118.581  0.00  0.00     0.006 C 
ENDBRANCH   8   9
BRANCH   8  11
ATOM     11  C   LIG d   1      -2.359  79.035 115.765  0.00  0.00     0.028 C 
ATOM     12  C   LIG d   1      -2.371  80.099 114.656  0.00  0.00     0.006 C 
ENDBRANCH   8  11
ENDBRANCH   7   8
ENDBRANCH   1   7
BRANCH   6  13
ATOM     13  N   LIG d   1      -6.418  80.442 118.561  0.00  0.00    -0.311 N 
ATOM     14  C   LIG d   1      -6.874  81.674 118.344  0.00  0.00     0.210 C 
ATOM     15  C   LIG d   1      -6.327  82.743 119.296  0.00  0.00     0.109 C 
ATOM     16  O   LIG d   1      -7.704  81.979 117.475  0.00  0.00    -0.276 OA
ATOM     17  H   LIG d   1      -5.772  80.280 119.309  0.00  0.00     0.149 HD
ENDBRANCH   6  13
BRANCH   5  18
ATOM     18  N   LIG d   1      -9.195  79.167 118.552  0.00  0.00     0.381 N 
ATOM     19  H   LIG d   1      -9.698  78.820 119.344  0.00  0.00    -0.090 HD
ATOM     20  H   LIG d   1      -9.755  79.018 117.732  0.00  0.00    -0.090 HD
ATOM     21  H   LIG d   1      -9.012  80.140 118.666  0.00  0.00    -0.090 HD
ENDBRANCH   5  18
BRANCH   3  22
ATOM     22  C   LIG d   1      -7.165  75.109 117.020  0.00  0.00     0.382 C 
ATOM     23  O   LIG d   1      -8.089  74.471 117.581  0.00  0.00    -0.241 OA
ATOM     24  O   LIG d   1      -6.331  74.497 116.326  0.00  0.00    -0.241 OA
ENDBRANCH   3  22
TORSDOF 7
ENDMDL
MODEL 7
REMARK VINA RESULT:      -4.8      2.160      4.872
REMARK  7 active torsions:
REMARK  status: ('A' for Active; 'I' for Inactive)
REMARK    1  A    between atoms: C_2  and  C_3 
REMARK    2  A    between atoms: C_3  and  O_6 
REMARK    3  A    between atoms: C_3  and  C_4 
REMARK    4  A    between atoms: C_7  and  O_6 
REMARK    5  A    between atoms: C_9  and  C_10 
REMARK    6  A    between atoms: N_15  and  C_14 
REMARK    7  A    between atoms: N_20  and  C_19 
REMARK       I    between atoms: C_22  and  N_20 
ROOT
ATOM      1  C   LIG d   1      -5.820  77.576 117.067  0.00  0.00     0.161 C 
ATOM      2  C   LIG d   1      -6.738  76.536 116.848  0.00  0.00     0.016 C 
ATOM      3  C   LIG d   1      -8.082  76.579 117.286  0.00  0.00     0.038 C 
ATOM      4  C   LIG d   1      -8.643  77.738 117.844  0.00  0.00     0.028 C 
ATOM      5  C   LIG d   1      -7.621  78.630 118.541  0.00  0.00    -0.047 C 
ATOM      6  C   LIG d   1      -6.443  78.893 117.575  0.00  0.00     0.091 C 
ENDROOT
BRANCH   1   7
ATOM      7  O   LIG d   1      -5.056  77.814 115.867  0.00  0.00    -0.368 OA
BRANCH   7   8
ATOM      8  C   LIG d   1      -3.718  77.258 115.843  0.00  0.00     0.119 C 
BRANCH   8   9
ATOM      9  C   LIG d   1      -2.771  78.354 115.317  0.00  0.00     0.028 C 
ATOM     10  C   LIG d   1      -1.954  79.012 116.441  0.00  0.00     0.006 C 
ENDBRANCH   8   9
BRANCH   8  11
ATOM     11  C   LIG d   1      -3.610  76.110 114.835  0.00  0.00     0.028 C 
ATOM     12  C   LIG d   1      -4.751  76.112 113.805  0.00  0.00     0.006 C 
ENDBRANCH   8  11
ENDBRANCH   7   8
ENDBRANCH   1   7
BRANCH   6  13
ATOM     13  N   LIG d   1      -5.359  79.689 118.207  0.00  0.00    -0.311 N 
ATOM     14  C   LIG d   1      -5.303  81.019 118.161  0.00  0.00     0.210 C 
ATOM     15  C   LIG d   1      -4.090  81.640 118.860  0.00  0.00     0.109 C 
ATOM     16  O   LIG d   1      -6.161  81.745 117.636  0.00  0.00    -0.276 OA
ATOM     17  H   LIG d   1      -4.638  79.182 118.682  0.00  0.00     0.149 HD
ENDBRANCH   6  13
BRANCH   5  18
ATOM     18  N   LIG d   1      -8.315  79.864 118.955  0.00  0.00     0.381 N 
ATOM     19  H   LIG d   1      -9.119  80.010 118.377  0.00  0.00    -0.090 HD
ATOM     20  H   LIG d   1      -7.694  80.644 118.833  0.00  0.00    -0.090 HD
ATOM     21  H   LIG d   1      -8.591  79.796 119.910  0.00  0.00    -0.090 HD
ENDBRANCH   5  18
BRANCH   3  22
ATOM     22  C   LIG d   1      -8.869  75.441 117.204  0.00  0.00     0.382 C 
ATOM     23  O   LIG d   1     -10.119  75.543 117.179  0.00  0.00    -0.241 OA
ATOM     24  O   LIG d   1      -8.345  74.310 117.200  0.00  0.00    -0.241 OA
ENDBRANCH   3  22
TORSDOF 7
ENDMDL
MODEL 8
REMARK VINA RESULT:      -4.8      2.369      5.076
REMARK  7 active torsions:
REMARK  status: ('A' for Active; 'I' for Inactive)
REMARK    1  A    between atoms: C_2  and  C_3 
REMARK    2  A    between atoms: C_3  and  O_6 
REMARK    3  A    between atoms: C_3  and  C_4 
REMARK    4  A    between atoms: C_7  and  O_6 
REMARK    5  A    between atoms: C_9  and  C_10 
REMARK    6  A    between atoms: N_15  and  C_14 
REMARK    7  A    between atoms: N_20  and  C_19 
REMARK       I    between atoms: C_22  and  N_20 
ROOT
ATOM      1  C   LIG d   1      -5.204  77.493 116.542  0.00  0.00     0.161 C 
ATOM      2  C   LIG d   1      -6.521  77.613 117.015  0.00  0.00     0.016 C 
ATOM      3  C   LIG d   1      -7.409  76.518 117.131  0.00  0.00     0.038 C 
ATOM      4  C   LIG d   1      -6.987  75.197 116.923  0.00  0.00     0.028 C 
ATOM      5  C   LIG d   1      -5.810  75.081 115.960  0.00  0.00    -0.047 C 
ATOM      6  C   LIG d   1      -4.691  76.044 116.417  0.00  0.00     0.091 C 
ENDROOT
BRANCH   1   7
ATOM      7  O   LIG d   1      -4.315  78.269 117.371  0.00  0.00    -0.368 OA
BRANCH   7   8
ATOM      8  C   LIG d   1      -3.953  79.578 116.866  0.00  0.00     0.119 C 
BRANCH   8   9
ATOM      9  C   LIG d   1      -2.605  79.435 116.134  0.00  0.00     0.028 C 
ATOM     10  C   LIG d   1      -2.499  80.364 114.913  0.00  0.00     0.006 C 
ENDBRANCH   8   9
BRANCH   8  11
ATOM     11  C   LIG d   1      -3.692  80.563 118.009  0.00  0.00     0.028 C 
ATOM     12  C   LIG d   1      -4.826  81.586 118.186  0.00  0.00     0.006 C 
ENDBRANCH   8  11
ENDBRANCH   7   8
ENDBRANCH   1   7
BRANCH   6  13
ATOM     13  N   LIG d   1      -3.536  76.054 115.482  0.00  0.00    -0.311 N 
ATOM     14  C   LIG d   1      -2.300  75.708 115.838  0.00  0.00     0.210 C 
ATOM     15  C   LIG d   1      -1.253  75.810 114.725  0.00  0.00     0.109 C 
ATOM     16  O   LIG d   1      -1.978  75.296 116.963  0.00  0.00    -0.276 OA
ATOM     17  H   LIG d   1      -3.714  76.346 114.540  0.00  0.00     0.149 HD
ENDBRANCH   6  13
BRANCH   5  18
ATOM     18  N   LIG d   1      -5.386  73.668 115.943  0.00  0.00     0.381 N 
ATOM     19  H   LIG d   1      -6.151  73.088 115.660  0.00  0.00    -0.090 HD
ATOM     20  H   LIG d   1      -5.114  73.399 116.872  0.00  0.00    -0.090 HD
ATOM     21  H   LIG d   1      -4.620  73.549 115.317  0.00  0.00    -0.090 HD
ENDBRANCH   5  18
BRANCH   3  22
ATOM     22  C   LIG d   1      -8.746  76.745 117.419  0.00  0.00     0.382 C 
ATOM     23  O   LIG d   1      -9.100  77.833 117.935  0.00  0.00    -0.241 OA
ATOM     24  O   LIG d   1      -9.596  75.859 117.211  0.00  0.00    -0.241 OA
ENDBRANCH   3  22
TORSDOF 7
ENDMDL
MODEL 9
REMARK VINA RESULT:      -4.6     14.301     16.840
REMARK  7 active torsions:
REMARK  status: ('A' for Active; 'I' for Inactive)
REMARK    1  A    between atoms: C_2  and  C_3 
REMARK    2  A    between atoms: C_3  and  O_6 
REMARK    3  A    between atoms: C_3  and  C_4 
REMARK    4  A    between atoms: C_7  and  O_6 
REMARK    5  A    between atoms: C_9  and  C_10 
REMARK    6  A    between atoms: N_15  and  C_14 
REMARK    7  A    between atoms: N_20  and  C_19 
REMARK       I    between atoms: C_22  and  N_20 
ROOT
ATOM      1  C   LIG d   1       2.167  90.099 116.316  0.00  0.00     0.161 C 
ATOM      2  C   LIG d   1       1.748  88.945 115.632  0.00  0.00     0.016 C 
ATOM      3  C   LIG d   1       2.637  87.948 115.171  0.00  0.00     0.038 C 
ATOM      4  C   LIG d   1       4.001  87.962 115.498  0.00  0.00     0.028 C 
ATOM      5  C   LIG d   1       4.548  89.363 115.753  0.00  0.00    -0.047 C 
ATOM      6  C   LIG d   1       3.638  90.077 116.779  0.00  0.00     0.091 C 
ENDROOT
BRANCH   1   7
ATOM      7  O   LIG d   1       1.293  90.348 117.435  0.00  0.00    -0.368 OA
BRANCH   7   8
ATOM      8  C   LIG d   1      -0.043  90.804 117.111  0.00  0.00     0.119 C 
BRANCH   8   9
ATOM      9  C   LIG d   1       0.016  92.336 116.955  0.00  0.00     0.028 C 
ATOM     10  C   LIG d   1       0.698  93.022 118.151  0.00  0.00     0.006 C 
ENDBRANCH   8   9
BRANCH   8  11
ATOM     11  C   LIG d   1      -1.014  90.552 118.268  0.00  0.00     0.028 C 
ATOM     12  C   LIG d   1      -2.405  90.104 117.792  0.00  0.00     0.006 C 
ENDBRANCH   8  11
ENDBRANCH   7   8
ENDBRANCH   1   7
BRANCH   6  13
ATOM     13  N   LIG d   1       4.054  91.483 117.022  0.00  0.00    -0.311 N 
ATOM     14  C   LIG d   1       4.896  91.842 117.989  0.00  0.00     0.210 C 
ATOM     15  C   LIG d   1       5.175  93.346 118.079  0.00  0.00     0.109 C 
ATOM     16  O   LIG d   1       5.464  91.054 118.761  0.00  0.00    -0.276 OA
ATOM     17  H   LIG d   1       3.665  92.184 116.422  0.00  0.00     0.149 HD
ENDBRANCH   6  13
BRANCH   5  18
ATOM     18  N   LIG d   1       5.941  89.220 116.217  0.00  0.00     0.381 N 
ATOM     19  H   LIG d   1       6.485  88.756 115.517  0.00  0.00    -0.090 HD
ATOM     20  H   LIG d   1       5.951  88.656 117.049  0.00  0.00    -0.090 HD
ATOM     21  H   LIG d   1       6.330  90.117 116.411  0.00  0.00    -0.090 HD
ENDBRANCH   5  18
BRANCH   3  22
ATOM     22  C   LIG d   1       2.170  86.941 114.340  0.00  0.00     0.382 C 
ATOM     23  O   LIG d   1       1.039  87.043 113.806  0.00  0.00    -0.241 OA
ATOM     24  O   LIG d   1       2.846  85.911 114.153  0.00  0.00    -0.241 OA
ENDBRANCH   3  22
TORSDOF 7
ENDMDL
