MODEL 1
REMARK VINA RESULT:      -5.7      0.000      0.000
REMARK  7 active torsions:
REMARK  status: ('A' for Active; 'I' for Inactive)
REMARK    1  A    between atoms: C_2  and  C_3 
REMARK    2  A    between atoms: C_3  and  O_6 
REMARK    3  A    between atoms: C_3  and  C_4 
REMARK    4  A    between atoms: C_7  and  O_6 
REMARK    5  A    between atoms: C_9  and  C_10 
REMARK    6  A    between atoms: N_15  and  C_14 
REMARK    7  A    between atoms: N_20  and  C_19 
REMARK       I    between atoms: C_22  and  N_20 
ROOT
ATOM      1  C   LIG d   1      -7.565  76.380 117.574  0.00  0.00     0.161 C 
ATOM      2  C   LIG d   1      -8.638  77.201 117.959  0.00  0.00     0.016 C 
ATOM      3  C   LIG d   1      -8.549  78.610 118.044  0.00  0.00     0.038 C 
ATOM      4  C   LIG d   1      -7.418  79.309 117.599  0.00  0.00     0.028 C 
ATOM      5  C   LIG d   1      -6.132  78.493 117.677  0.00  0.00    -0.047 C 
ATOM      6  C   LIG d   1      -6.357  77.133 116.978  0.00  0.00     0.091 C 
ENDROOT
BRANCH   1   7
ATOM      7  O   LIG d   1      -8.028  75.370 116.656  0.00  0.00    -0.368 OA
BRANCH   7   8
ATOM      8  C   LIG d   1      -8.227  74.047 117.211  0.00  0.00     0.119 C 
BRANCH   8   9
ATOM      9  C   LIG d   1      -7.088  73.150 116.690  0.00  0.00     0.028 C 
ATOM     10  C   LIG d   1      -6.125  72.716 117.807  0.00  0.00     0.006 C 
ENDBRANCH   8   9
BRANCH   8  11
ATOM     11  C   LIG d   1      -9.517  73.410 116.686  0.00  0.00     0.028 C 
ATOM     12  C   LIG d   1      -9.337  71.936 116.292  0.00  0.00     0.006 C 
ENDBRANCH   8  11
ENDBRANCH   7   8
ENDBRANCH   1   7
BRANCH   6  13
ATOM     13  N   LIG d   1      -5.174  76.239 117.083  0.00  0.00    -0.311 N 
ATOM     14  C   LIG d   1      -4.542  75.733 116.025  0.00  0.00     0.210 C 
ATOM     15  C   LIG d   1      -3.358  74.819 116.356  0.00  0.00     0.109 C 
ATOM     16  O   LIG d   1      -4.829  75.980 114.845  0.00  0.00    -0.276 OA
ATOM     17  H   LIG d   1      -4.855  76.012 118.004  0.00  0.00     0.149 HD
ENDBRANCH   6  13
BRANCH   5  18
ATOM     18  N   LIG d   1      -5.058  79.292 117.056  0.00  0.00     0.381 N 
ATOM     19  H   LIG d   1      -4.190  78.800 117.120  0.00  0.00    -0.090 HD
ATOM     20  H   LIG d   1      -4.968  80.159 117.556  0.00  0.00    -0.090 HD
ATOM     21  H   LIG d   1      -5.277  79.472 116.101  0.00  0.00    -0.090 HD
ENDBRANCH   5  18
BRANCH   3  22
ATOM     22  C   LIG d   1      -9.587  79.331 118.615  0.00  0.00     0.382 C 
ATOM     23  O   LIG d   1     -10.098  80.293 117.994  0.00  0.00    -0.241 OA
ATOM     24  O   LIG d   1      -9.988  79.059 119.762  0.00  0.00    -0.241 OA
ENDBRANCH   3  22
TORSDOF 7
ENDMDL
MODEL 2
REMARK VINA RESULT:      -5.6      1.919      2.668
REMARK  7 active torsions:
REMARK  status: ('A' for Active; 'I' for Inactive)
REMARK    1  A    between atoms: C_2  and  C_3 
REMARK    2  A    between atoms: C_3  and  O_6 
REMARK    3  A    between atoms: C_3  and  C_4 
REMARK    4  A    between atoms: C_7  and  O_6 
REMARK    5  A    between atoms: C_9  and  C_10 
REMARK    6  A    between atoms: N_15  and  C_14 
REMARK    7  A    between atoms: N_20  and  C_19 
REMARK       I    between atoms: C_22  and  N_20 
ROOT
ATOM      1  C   LIG d   1      -6.607  74.923 118.263  0.00  0.00     0.161 C 
ATOM      2  C   LIG d   1      -7.917  75.345 117.984  0.00  0.00     0.016 C 
ATOM      3  C   LIG d   1      -8.287  76.703 117.857  0.00  0.00     0.038 C 
ATOM      4  C   LIG d   1      -7.335  77.733 117.852  0.00  0.00     0.028 C 
ATOM      5  C   LIG d   1      -6.070  77.393 118.634  0.00  0.00    -0.047 C 
ATOM      6  C   LIG d   1      -5.534  76.026 118.151  0.00  0.00     0.091 C 
ENDROOT
BRANCH   1   7
ATOM      7  O   LIG d   1      -6.264  73.803 117.422  0.00  0.00    -0.368 OA
BRANCH   7   8
ATOM      8  C   LIG d   1      -6.873  73.784 116.108  0.00  0.00     0.119 C 
BRANCH   8   9
ATOM      9  C   LIG d   1      -7.297  72.331 115.816  0.00  0.00     0.028 C 
ATOM     10  C   LIG d   1      -8.727  72.029 116.297  0.00  0.00     0.006 C 
ENDBRANCH   8   9
BRANCH   8  11
ATOM     11  C   LIG d   1      -5.857  74.137 115.017  0.00  0.00     0.028 C 
ATOM     12  C   LIG d   1      -5.972  75.595 114.546  0.00  0.00     0.006 C 
ENDBRANCH   8  11
ENDBRANCH   7   8
ENDBRANCH   1   7
BRANCH   6  13
ATOM     13  N   LIG d   1      -4.346  75.579 118.923  0.00  0.00    -0.311 N 
ATOM     14  C   LIG d   1      -3.200  75.208 118.355  0.00  0.00     0.210 C 
ATOM     15  C   LIG d   1      -2.108  74.762 119.332  0.00  0.00     0.109 C 
ATOM     16  O   LIG d   1      -2.973  75.237 117.136  0.00  0.00    -0.276 OA
ATOM     17  H   LIG d   1      -4.432  75.555 119.920  0.00  0.00     0.149 HD
ENDBRANCH   6  13
BRANCH   5  18
ATOM     18  N   LIG d   1      -5.111  78.495 118.431  0.00  0.00     0.381 N 
ATOM     19  H   LIG d   1      -5.195  78.851 117.500  0.00  0.00    -0.090 HD
ATOM     20  H   LIG d   1      -4.178  78.140 118.550  0.00  0.00    -0.090 HD
ATOM     21  H   LIG d   1      -5.283  79.223 119.089  0.00  0.00    -0.090 HD
ENDBRANCH   5  18
BRANCH   3  22
ATOM     22  C   LIG d   1      -9.628  77.046 117.774  0.00  0.00     0.382 C 
ATOM     23  O   LIG d   1     -10.004  78.195 118.108  0.00  0.00    -0.241 OA
ATOM     24  O   LIG d   1     -10.473  76.206 117.410  0.00  0.00    -0.241 OA
ENDBRANCH   3  22
TORSDOF 7
ENDMDL
MODEL 3
REMARK VINA RESULT:      -5.2      1.870      2.287
REMARK  7 active torsions:
REMARK  status: ('A' for Active; 'I' for Inactive)
REMARK    1  A    between atoms: C_2  and  C_3 
REMARK    2  A    between atoms: C_3  and  O_6 
REMARK    3  A    between atoms: C_3  and  C_4 
REMARK    4  A    between atoms: C_7  and  O_6 
REMARK    5  A    between atoms: C_9  and  C_10 
REMARK    6  A    between atoms: N_15  and  C_14 
REMARK    7  A    between atoms: N_20  and  C_19 
REMARK       I    between atoms: C_22  and  N_20 
ROOT
ATOM      1  C   LIG d   1      -6.355  77.010 117.639  0.00  0.00     0.161 C 
ATOM      2  C   LIG d   1      -7.004  78.255 117.686  0.00  0.00     0.016 C 
ATOM      3  C   LIG d   1      -6.330  79.490 117.547  0.00  0.00     0.038 C 
ATOM      4  C   LIG d   1      -4.973  79.559 117.198  0.00  0.00     0.028 C 
ATOM      5  C   LIG d   1      -4.172  78.338 117.638  0.00  0.00    -0.047 C 
ATOM      6  C   LIG d   1      -4.892  77.061 117.148  0.00  0.00     0.091 C 
ENDROOT
BRANCH   1   7
ATOM      7  O   LIG d   1      -7.120  76.090 116.836  0.00  0.00    -0.368 OA
BRANCH   7   8
ATOM      8  C   LIG d   1      -7.753  74.998 117.547  0.00  0.00     0.119 C 
BRANCH   8   9
ATOM      9  C   LIG d   1      -7.075  73.692 117.090  0.00  0.00     0.028 C 
ATOM     10  C   LIG d   1      -6.540  73.782 115.651  0.00  0.00     0.006 C 
ENDBRANCH   8   9
BRANCH   8  11
ATOM     11  C   LIG d   1      -9.225  74.852 117.149  0.00  0.00     0.028 C 
ATOM     12  C   LIG d   1     -10.056  76.105 117.468  0.00  0.00     0.006 C 
ENDBRANCH   8  11
ENDBRANCH   7   8
ENDBRANCH   1   7
BRANCH   6  13
ATOM     13  N   LIG d   1      -4.220  75.819 117.609  0.00  0.00    -0.311 N 
ATOM     14  C   LIG d   1      -3.352  75.135 116.864  0.00  0.00     0.210 C 
ATOM     15  C   LIG d   1      -2.790  73.871 117.522  0.00  0.00     0.109 C 
ATOM     16  O   LIG d   1      -2.971  75.474 115.733  0.00  0.00    -0.276 OA
ATOM     17  H   LIG d   1      -4.448  75.490 118.527  0.00  0.00     0.149 HD
ENDBRANCH   6  13
BRANCH   5  18
ATOM     18  N   LIG d   1      -2.809  78.478 117.091  0.00  0.00     0.381 N 
ATOM     19  H   LIG d   1      -2.409  79.344 117.396  0.00  0.00    -0.090 HD
ATOM     20  H   LIG d   1      -2.861  78.491 116.088  0.00  0.00    -0.090 HD
ATOM     21  H   LIG d   1      -2.241  77.717 117.392  0.00  0.00    -0.090 HD
ENDBRANCH   5  18
BRANCH   3  22
ATOM     22  C   LIG d   1      -7.006  80.674 117.797  0.00  0.00     0.382 C 
ATOM     23  O   LIG d   1      -8.037  80.958 117.139  0.00  0.00    -0.241 OA
ATOM     24  O   LIG d   1      -6.575  81.482 118.640  0.00  0.00    -0.241 OA
ENDBRANCH   3  22
TORSDOF 7
ENDMDL
MODEL 4
REMARK VINA RESULT:      -5.2      1.995      5.229
REMARK  7 active torsions:
REMARK  status: ('A' for Active; 'I' for Inactive)
REMARK    1  A    between atoms: C_2  and  C_3 
REMARK    2  A    between atoms: C_3  and  O_6 
REMARK    3  A    between atoms: C_3  and  C_4 
REMARK    4  A    between atoms: C_7  and  O_6 
REMARK    5  A    between atoms: C_9  and  C_10 
REMARK    6  A    between atoms: N_15  and  C_14 
REMARK    7  A    between atoms: N_20  and  C_19 
REMARK       I    between atoms: C_22  and  N_20 
ROOT
ATOM      1  C   LIG d   1      -5.847  75.639 116.245  0.00  0.00     0.161 C 
ATOM      2  C   LIG d   1      -4.729  74.804 116.082  0.00  0.00     0.016 C 
ATOM      3  C   LIG d   1      -3.619  74.809 116.958  0.00  0.00     0.038 C 
ATOM      4  C   LIG d   1      -3.620  75.548 118.151  0.00  0.00     0.028 C 
ATOM      5  C   LIG d   1      -4.510  76.785 118.097  0.00  0.00    -0.047 C 
ATOM      6  C   LIG d   1      -5.915  76.371 117.601  0.00  0.00     0.091 C 
ENDROOT
BRANCH   1   7
ATOM      7  O   LIG d   1      -7.055  74.887 116.021  0.00  0.00    -0.368 OA
BRANCH   7   8
ATOM      8  C   LIG d   1      -7.628  74.239 117.184  0.00  0.00     0.119 C 
BRANCH   8   9
ATOM      9  C   LIG d   1      -7.113  72.787 117.206  0.00  0.00     0.028 C 
ATOM     10  C   LIG d   1      -7.824  71.896 116.174  0.00  0.00     0.006 C 
ENDBRANCH   8   9
BRANCH   8  11
ATOM     11  C   LIG d   1      -9.151  74.127 117.065  0.00  0.00     0.028 C 
ATOM     12  C   LIG d   1      -9.859  75.486 117.183  0.00  0.00     0.006 C 
ENDBRANCH   8  11
ENDBRANCH   7   8
ENDBRANCH   1   7
BRANCH   6  13
ATOM     13  N   LIG d   1      -6.824  77.536 117.439  0.00  0.00    -0.311 N 
ATOM     14  C   LIG d   1      -7.630  77.977 118.403  0.00  0.00     0.210 C 
ATOM     15  C   LIG d   1      -8.499  79.178 118.020  0.00  0.00     0.109 C 
ATOM     16  O   LIG d   1      -7.684  77.507 119.550  0.00  0.00    -0.276 OA
ATOM     17  H   LIG d   1      -6.821  77.996 116.550  0.00  0.00     0.149 HD
ENDBRANCH   6  13
BRANCH   5  18
ATOM     18  N   LIG d   1      -4.525  77.382 119.445  0.00  0.00     0.381 N 
ATOM     19  H   LIG d   1      -3.621  77.751 119.663  0.00  0.00    -0.090 HD
ATOM     20  H   LIG d   1      -4.744  76.667 120.116  0.00  0.00    -0.090 HD
ATOM     21  H   LIG d   1      -5.206  78.108 119.489  0.00  0.00    -0.090 HD
ENDBRANCH   5  18
BRANCH   3  22
ATOM     22  C   LIG d   1      -2.476  74.099 116.624  0.00  0.00     0.382 C 
ATOM     23  O   LIG d   1      -1.953  73.323 117.460  0.00  0.00    -0.241 OA
ATOM     24  O   LIG d   1      -1.936  74.258 115.513  0.00  0.00    -0.241 OA
ENDBRANCH   3  22
TORSDOF 7
ENDMDL
MODEL 5
REMARK VINA RESULT:      -5.2      2.208      5.088
REMARK  7 active torsions:
REMARK  status: ('A' for Active; 'I' for Inactive)
REMARK    1  A    between atoms: C_2  and  C_3 
REMARK    2  A    between atoms: C_3  and  O_6 
REMARK    3  A    between atoms: C_3  and  C_4 
REMARK    4  A    between atoms: C_7  and  O_6 
REMARK    5  A    between atoms: C_9  and  C_10 
REMARK    6  A    between atoms: N_15  and  C_14 
REMARK    7  A    between atoms: N_20  and  C_19 
REMARK       I    between atoms: C_22  and  N_20 
ROOT
ATOM      1  C   LIG d   1      -6.139  75.017 117.489  0.00  0.00     0.161 C 
ATOM      2  C   LIG d   1      -4.984  74.334 117.074  0.00  0.00     0.016 C 
ATOM      3  C   LIG d   1      -3.685  74.649 117.535  0.00  0.00     0.038 C 
ATOM      4  C   LIG d   1      -3.469  75.576 118.566  0.00  0.00     0.028 C 
ATOM      5  C   LIG d   1      -4.552  76.646 118.655  0.00  0.00    -0.047 C 
ATOM      6  C   LIG d   1      -5.935  75.957 118.696  0.00  0.00     0.091 C 
ENDROOT
BRANCH   1   7
ATOM      7  O   LIG d   1      -7.193  74.073 117.761  0.00  0.00    -0.368 OA
BRANCH   7   8
ATOM      8  C   LIG d   1      -8.032  73.713 116.636  0.00  0.00     0.119 C 
BRANCH   8   9
ATOM      9  C   LIG d   1      -9.499  73.879 117.080  0.00  0.00     0.028 C 
ATOM     10  C   LIG d   1      -9.935  75.353 117.123  0.00  0.00     0.006 C 
ENDBRANCH   8   9
BRANCH   8  11
ATOM     11  C   LIG d   1      -7.881  72.231 116.281  0.00  0.00     0.028 C 
ATOM     12  C   LIG d   1      -9.185  71.438 116.467  0.00  0.00     0.006 C 
ENDBRANCH   8  11
ENDBRANCH   7   8
ENDBRANCH   1   7
BRANCH   6  13
ATOM     13  N   LIG d   1      -7.055  76.935 118.698  0.00  0.00    -0.311 N 
ATOM     14  C   LIG d   1      -7.226  77.855 117.751  0.00  0.00     0.210 C 
ATOM     15  C   LIG d   1      -8.433  78.776 117.956  0.00  0.00     0.109 C 
ATOM     16  O   LIG d   1      -6.512  77.976 116.744  0.00  0.00    -0.276 OA
ATOM     17  H   LIG d   1      -7.700  76.887 119.462  0.00  0.00     0.149 HD
ENDBRANCH   6  13
BRANCH   5  18
ATOM     18  N   LIG d   1      -4.276  77.460 119.853  0.00  0.00     0.381 N 
ATOM     19  H   LIG d   1      -3.407  77.178 120.262  0.00  0.00    -0.090 HD
ATOM     20  H   LIG d   1      -5.006  77.306 120.526  0.00  0.00    -0.090 HD
ATOM     21  H   LIG d   1      -4.238  78.425 119.608  0.00  0.00    -0.090 HD
ENDBRANCH   5  18
BRANCH   3  22
ATOM     22  C   LIG d   1      -2.581  74.061 116.936  0.00  0.00     0.382 C 
ATOM     23  O   LIG d   1      -2.299  74.328 115.743  0.00  0.00    -0.241 OA
ATOM     24  O   LIG d   1      -1.890  73.233 117.560  0.00  0.00    -0.241 OA
ENDBRANCH   3  22
TORSDOF 7
ENDMDL
MODEL 6
REMARK VINA RESULT:      -5.1      1.871      5.269
REMARK  7 active torsions:
REMARK  status: ('A' for Active; 'I' for Inactive)
REMARK    1  A    between atoms: C_2  and  C_3 
REMARK    2  A    between atoms: C_3  and  O_6 
REMARK    3  A    between atoms: C_3  and  C_4 
REMARK    4  A    between atoms: C_7  and  O_6 
REMARK    5  A    between atoms: C_9  and  C_10 
REMARK    6  A    between atoms: N_15  and  C_14 
REMARK    7  A    between atoms: N_20  and  C_19 
REMARK       I    between atoms: C_22  and  N_20 
ROOT
ATOM      1  C   LIG d   1      -7.248  75.663 117.541  0.00  0.00     0.161 C 
ATOM      2  C   LIG d   1      -8.044  74.536 117.276  0.00  0.00     0.016 C 
ATOM      3  C   LIG d   1      -7.525  73.225 117.169  0.00  0.00     0.038 C 
ATOM      4  C   LIG d   1      -6.188  72.930 117.471  0.00  0.00     0.028 C 
ATOM      5  C   LIG d   1      -5.243  74.107 117.250  0.00  0.00    -0.047 C 
ATOM      6  C   LIG d   1      -5.805  75.346 117.984  0.00  0.00     0.091 C 
ENDROOT
BRANCH   1   7
ATOM      7  O   LIG d   1      -7.899  76.502 118.516  0.00  0.00    -0.368 OA
BRANCH   7   8
ATOM      8  C   LIG d   1      -8.407  77.769 118.030  0.00  0.00     0.119 C 
BRANCH   8   9
ATOM      9  C   LIG d   1      -7.593  78.886 118.710  0.00  0.00     0.028 C 
ATOM     10  C   LIG d   1      -7.215  80.014 117.735  0.00  0.00     0.006 C 
ENDBRANCH   8   9
BRANCH   8  11
ATOM     11  C   LIG d   1      -9.855  77.995 118.473  0.00  0.00     0.028 C 
ATOM     12  C   LIG d   1      -9.960  78.606 119.879  0.00  0.00     0.006 C 
ENDBRANCH   8  11
ENDBRANCH   7   8
ENDBRANCH   1   7
BRANCH   6  13
ATOM     13  N   LIG d   1      -4.985  76.563 117.749  0.00  0.00    -0.311 N 
ATOM     14  C   LIG d   1      -4.946  77.208 116.585  0.00  0.00     0.210 C 
ATOM     15  C   LIG d   1      -4.020  78.428 116.552  0.00  0.00     0.109 C 
ATOM     16  O   LIG d   1      -5.614  76.904 115.585  0.00  0.00    -0.276 OA
ATOM     17  H   LIG d   1      -4.435  76.897 118.517  0.00  0.00     0.149 HD
ENDBRANCH   6  13
BRANCH   5  18
ATOM     18  N   LIG d   1      -3.909  73.704 117.734  0.00  0.00     0.381 N 
ATOM     19  H   LIG d   1      -3.998  72.944 118.379  0.00  0.00    -0.090 HD
ATOM     20  H   LIG d   1      -3.490  74.480 118.216  0.00  0.00    -0.090 HD
ATOM     21  H   LIG d   1      -3.336  73.431 116.966  0.00  0.00    -0.090 HD
ENDBRANCH   5  18
BRANCH   3  22
ATOM     22  C   LIG d   1      -8.340  72.199 116.716  0.00  0.00     0.382 C 
ATOM     23  O   LIG d   1      -7.875  71.041 116.583  0.00  0.00    -0.241 OA
ATOM     24  O   LIG d   1      -9.523  72.425 116.397  0.00  0.00    -0.241 OA
ENDBRANCH   3  22
TORSDOF 7
ENDMDL
MODEL 7
REMARK VINA RESULT:      -5.0      2.385      5.642
REMARK  7 active torsions:
REMARK  status: ('A' for Active; 'I' for Inactive)
REMARK    1  A    between atoms: C_2  and  C_3 
REMARK    2  A    between atoms: C_3  and  O_6 
REMARK    3  A    between atoms: C_3  and  C_4 
REMARK    4  A    between atoms: C_7  and  O_6 
REMARK    5  A    between atoms: C_9  and  C_10 
REMARK    6  A    between atoms: N_15  and  C_14 
REMARK    7  A    between atoms: N_20  and  C_19 
REMARK       I    between atoms: C_22  and  N_20 
ROOT
ATOM      1  C   LIG d   1      -5.895  74.448 117.647  0.00  0.00     0.161 C 
ATOM      2  C   LIG d   1      -6.400  73.210 117.215  0.00  0.00     0.016 C 
ATOM      3  C   LIG d   1      -7.734  73.021 116.785  0.00  0.00     0.038 C 
ATOM      4  C   LIG d   1      -8.617  74.097 116.613  0.00  0.00     0.028 C 
ATOM      5  C   LIG d   1      -8.306  75.286 117.516  0.00  0.00    -0.047 C 
ATOM      6  C   LIG d   1      -6.813  75.656 117.361  0.00  0.00     0.091 C 
ENDROOT
BRANCH   1   7
ATOM      7  O   LIG d   1      -4.588  74.667 117.080  0.00  0.00    -0.368 OA
BRANCH   7   8
ATOM      8  C   LIG d   1      -3.474  74.600 118.004  0.00  0.00     0.119 C 
BRANCH   8   9
ATOM      9  C   LIG d   1      -2.937  76.033 118.187  0.00  0.00     0.028 C 
ATOM     10  C   LIG d   1      -2.938  76.832 116.873  0.00  0.00     0.006 C 
ENDBRANCH   8   9
BRANCH   8  11
ATOM     11  C   LIG d   1      -2.307  73.802 117.413  0.00  0.00     0.028 C 
ATOM     12  C   LIG d   1      -1.287  73.363 118.475  0.00  0.00     0.006 C 
ENDBRANCH   8  11
ENDBRANCH   7   8
ENDBRANCH   1   7
BRANCH   6  13
ATOM     13  N   LIG d   1      -6.404  76.756 118.272  0.00  0.00    -0.311 N 
ATOM     14  C   LIG d   1      -6.295  78.026 117.885  0.00  0.00     0.210 C 
ATOM     15  C   LIG d   1      -5.840  78.998 118.978  0.00  0.00     0.109 C 
ATOM     16  O   LIG d   1      -6.563  78.445 116.749  0.00  0.00    -0.276 OA
ATOM     17  H   LIG d   1      -6.198  76.510 119.221  0.00  0.00     0.149 HD
ENDBRANCH   6  13
BRANCH   5  18
ATOM     18  N   LIG d   1      -9.215  76.384 117.136  0.00  0.00     0.381 N 
ATOM     19  H   LIG d   1      -9.402  76.345 116.154  0.00  0.00    -0.090 HD
ATOM     20  H   LIG d   1      -8.768  77.261 117.337  0.00  0.00    -0.090 HD
ATOM     21  H   LIG d   1     -10.068  76.312 117.647  0.00  0.00    -0.090 HD
ENDBRANCH   5  18
BRANCH   3  22
ATOM     22  C   LIG d   1      -8.207  71.737 116.559  0.00  0.00     0.382 C 
ATOM     23  O   LIG d   1      -9.387  71.564 116.170  0.00  0.00    -0.241 OA
ATOM     24  O   LIG d   1      -7.484  70.748 116.784  0.00  0.00    -0.241 OA
ENDBRANCH   3  22
TORSDOF 7
ENDMDL
MODEL 8
REMARK VINA RESULT:      -5.0      2.174      4.311
REMARK  7 active torsions:
REMARK  status: ('A' for Active; 'I' for Inactive)
REMARK    1  A    between atoms: C_2  and  C_3 
REMARK    2  A    between atoms: C_3  and  O_6 
REMARK    3  A    between atoms: C_3  and  C_4 
REMARK    4  A    between atoms: C_7  and  O_6 
REMARK    5  A    between atoms: C_9  and  C_10 
REMARK    6  A    between atoms: N_15  and  C_14 
REMARK    7  A    between atoms: N_20  and  C_19 
REMARK       I    between atoms: C_22  and  N_20 
ROOT
ATOM      1  C   LIG d   1      -6.252  77.511 116.980  0.00  0.00     0.161 C 
ATOM      2  C   LIG d   1      -6.214  78.898 117.201  0.00  0.00     0.016 C 
ATOM      3  C   LIG d   1      -7.300  79.631 117.732  0.00  0.00     0.038 C 
ATOM      4  C   LIG d   1      -8.452  78.999 118.223  0.00  0.00     0.028 C 
ATOM      5  C   LIG d   1      -8.737  77.657 117.557  0.00  0.00    -0.047 C 
ATOM      6  C   LIG d   1      -7.460  76.788 117.613  0.00  0.00     0.091 C 
ENDROOT
BRANCH   1   7
ATOM      7  O   LIG d   1      -5.019  76.912 117.427  0.00  0.00    -0.368 OA
BRANCH   7   8
ATOM      8  C   LIG d   1      -4.066  76.569 116.391  0.00  0.00     0.119 C 
BRANCH   8   9
ATOM      9  C   LIG d   1      -3.988  75.032 116.324  0.00  0.00     0.028 C 
ATOM     10  C   LIG d   1      -3.749  74.395 117.703  0.00  0.00     0.006 C 
ENDBRANCH   8   9
BRANCH   8  11
ATOM     11  C   LIG d   1      -2.653  77.031 116.760  0.00  0.00     0.028 C 
ATOM     12  C   LIG d   1      -2.544  78.557 116.909  0.00  0.00     0.006 C 
ENDBRANCH   8  11
ENDBRANCH   7   8
ENDBRANCH   1   7
BRANCH   6  13
ATOM     13  N   LIG d   1      -7.626  75.490 116.908  0.00  0.00    -0.311 N 
ATOM     14  C   LIG d   1      -7.433  74.309 117.493  0.00  0.00     0.210 C 
ATOM     15  C   LIG d   1      -7.638  73.095 116.581  0.00  0.00     0.109 C 
ATOM     16  O   LIG d   1      -7.142  74.151 118.688  0.00  0.00    -0.276 OA
ATOM     17  H   LIG d   1      -7.891  75.525 115.944  0.00  0.00     0.149 HD
ENDBRANCH   6  13
BRANCH   5  18
ATOM     18  N   LIG d   1      -9.883  77.046 118.257  0.00  0.00     0.381 N 
ATOM     19  H   LIG d   1      -9.739  76.060 118.345  0.00  0.00    -0.090 HD
ATOM     20  H   LIG d   1     -10.714  77.196 117.712  0.00  0.00    -0.090 HD
ATOM     21  H   LIG d   1      -9.989  77.456 119.159  0.00  0.00    -0.090 HD
ENDBRANCH   5  18
BRANCH   3  22
ATOM     22  C   LIG d   1      -7.256  81.017 117.740  0.00  0.00     0.382 C 
ATOM     23  O   LIG d   1      -6.689  81.621 118.682  0.00  0.00    -0.241 OA
ATOM     24  O   LIG d   1      -7.813  81.672 116.839  0.00  0.00    -0.241 OA
ENDBRANCH   3  22
TORSDOF 7
ENDMDL
MODEL 9
REMARK VINA RESULT:      -4.9      2.449      4.622
REMARK  7 active torsions:
REMARK  status: ('A' for Active; 'I' for Inactive)
REMARK    1  A    between atoms: C_2  and  C_3 
REMARK    2  A    between atoms: C_3  and  O_6 
REMARK    3  A    between atoms: C_3  and  C_4 
REMARK    4  A    between atoms: C_7  and  O_6 
REMARK    5  A    between atoms: C_9  and  C_10 
REMARK    6  A    between atoms: N_15  and  C_14 
REMARK    7  A    between atoms: N_20  and  C_19 
REMARK       I    between atoms: C_22  and  N_20 
ROOT
ATOM      1  C   LIG d   1      -5.701  75.560 116.647  0.00  0.00     0.161 C 
ATOM      2  C   LIG d   1      -5.407  76.921 116.832  0.00  0.00     0.016 C 
ATOM      3  C   LIG d   1      -6.379  77.887 117.179  0.00  0.00     0.038 C 
ATOM      4  C   LIG d   1      -7.693  77.530 117.513  0.00  0.00     0.028 C 
ATOM      5  C   LIG d   1      -8.157  76.237 116.850  0.00  0.00    -0.047 C 
ATOM      6  C   LIG d   1      -7.108  75.133 117.116  0.00  0.00     0.091 C 
ENDROOT
BRANCH   1   7
ATOM      7  O   LIG d   1      -4.693  74.751 117.285  0.00  0.00    -0.368 OA
BRANCH   7   8
ATOM      8  C   LIG d   1      -3.353  75.301 117.304  0.00  0.00     0.119 C 
BRANCH   8   9
ATOM      9  C   LIG d   1      -2.494  74.461 116.339  0.00  0.00     0.028 C 
ATOM     10  C   LIG d   1      -1.106  75.079 116.099  0.00  0.00     0.006 C 
ENDBRANCH   8   9
BRANCH   8  11
ATOM     11  C   LIG d   1      -2.701  75.131 118.680  0.00  0.00     0.028 C 
ATOM     12  C   LIG d   1      -3.554  75.712 119.819  0.00  0.00     0.006 C 
ENDBRANCH   8  11
ENDBRANCH   7   8
ENDBRANCH   1   7
BRANCH   6  13
ATOM     13  N   LIG d   1      -7.442  73.857 116.431  0.00  0.00    -0.311 N 
ATOM     14  C   LIG d   1      -7.370  72.666 117.024  0.00  0.00     0.210 C 
ATOM     15  C   LIG d   1      -7.739  71.477 116.132  0.00  0.00     0.109 C 
ATOM     16  O   LIG d   1      -7.066  72.485 118.213  0.00  0.00    -0.276 OA
ATOM     17  H   LIG d   1      -7.728  73.914 115.474  0.00  0.00     0.149 HD
ENDBRANCH   6  13
BRANCH   5  18
ATOM     18  N   LIG d   1      -9.489  75.911 117.392  0.00  0.00     0.381 N 
ATOM     19  H   LIG d   1     -10.158  76.585 117.076  0.00  0.00    -0.090 HD
ATOM     20  H   LIG d   1      -9.451  75.952 118.396  0.00  0.00    -0.090 HD
ATOM     21  H   LIG d   1      -9.762  74.998 117.100  0.00  0.00    -0.090 HD
ENDBRANCH   5  18
BRANCH   3  22
ATOM     22  C   LIG d   1      -6.049  79.234 117.154  0.00  0.00     0.382 C 
ATOM     23  O   LIG d   1      -6.944  80.102 117.296  0.00  0.00    -0.241 OA
ATOM     24  O   LIG d   1      -4.874  79.593 116.947  0.00  0.00    -0.241 OA
ENDBRANCH   3  22
TORSDOF 7
ENDMDL
