MODEL 1
REMARK VINA RESULT:      -5.6      0.000      0.000
REMARK  7 active torsions:
REMARK  status: ('A' for Active; 'I' for Inactive)
REMARK    1  A    between atoms: C_2  and  C_3 
REMARK    2  A    between atoms: C_3  and  O_6 
REMARK    3  A    between atoms: C_3  and  C_4 
REMARK    4  A    between atoms: C_7  and  O_6 
REMARK    5  A    between atoms: C_9  and  C_10 
REMARK    6  A    between atoms: N_15  and  C_14 
REMARK    7  A    between atoms: N_20  and  C_19 
REMARK       I    between atoms: C_22  and  N_20 
ROOT
ATOM      1  C   LIG d   1      -6.495  92.500 118.427  0.00  0.00     0.161 C 
ATOM      2  C   LIG d   1      -5.363  93.245 118.795  0.00  0.00     0.016 C 
ATOM      3  C   LIG d   1      -4.072  93.010 118.269  0.00  0.00     0.038 C 
ATOM      4  C   LIG d   1      -3.852  92.106 117.219  0.00  0.00     0.028 C 
ATOM      5  C   LIG d   1      -4.875  90.976 117.169  0.00  0.00    -0.047 C 
ATOM      6  C   LIG d   1      -6.296  91.584 117.202  0.00  0.00     0.091 C 
ENDROOT
BRANCH   1   7
ATOM      7  O   LIG d   1      -7.614  93.383 118.216  0.00  0.00    -0.368 OA
BRANCH   7   8
ATOM      8  C   LIG d   1      -7.572  94.646 118.925  0.00  0.00     0.119 C 
BRANCH   8   9
ATOM      9  C   LIG d   1      -8.571  94.553 120.095  0.00  0.00     0.028 C 
ATOM     10  C   LIG d   1      -9.969  95.070 119.715  0.00  0.00     0.006 C 
ENDBRANCH   8   9
BRANCH   8  11
ATOM     11  C   LIG d   1      -8.080  95.794 118.048  0.00  0.00     0.028 C 
ATOM     12  C   LIG d   1      -7.360  97.123 118.330  0.00  0.00     0.006 C 
ENDBRANCH   8  11
ENDBRANCH   7   8
ENDBRANCH   1   7
BRANCH   6  13
ATOM     13  N   LIG d   1      -7.356  90.543 117.241  0.00  0.00    -0.311 N 
ATOM     14  C   LIG d   1      -7.886  89.995 116.149  0.00  0.00     0.210 C 
ATOM     15  C   LIG d   1      -8.980  88.956 116.412  0.00  0.00     0.109 C 
ATOM     16  O   LIG d   1      -7.531  90.247 114.987  0.00  0.00    -0.276 OA
ATOM     17  H   LIG d   1      -7.681  90.257 118.143  0.00  0.00     0.149 HD
ENDBRANCH   6  13
BRANCH   5  18
ATOM     18  N   LIG d   1      -4.610  90.189 115.950  0.00  0.00     0.381 N 
ATOM     19  H   LIG d   1      -5.455  90.084 115.424  0.00  0.00    -0.090 HD
ATOM     20  H   LIG d   1      -4.288  89.276 116.216  0.00  0.00    -0.090 HD
ATOM     21  H   LIG d   1      -3.919  90.644 115.394  0.00  0.00    -0.090 HD
ENDBRANCH   5  18
BRANCH   3  22
ATOM     22  C   LIG d   1      -2.976  93.656 118.822  0.00  0.00     0.382 C 
ATOM     23  O   LIG d   1      -2.237  94.367 118.100  0.00  0.00    -0.241 OA
ATOM     24  O   LIG d   1      -2.693  93.501 120.025  0.00  0.00    -0.241 OA
ENDBRANCH   3  22
TORSDOF 7
ENDMDL
MODEL 2
REMARK VINA RESULT:      -5.5      2.920      5.587
REMARK  7 active torsions:
REMARK  status: ('A' for Active; 'I' for Inactive)
REMARK    1  A    between atoms: C_2  and  C_3 
REMARK    2  A    between atoms: C_3  and  O_6 
REMARK    3  A    between atoms: C_3  and  C_4 
REMARK    4  A    between atoms: C_7  and  O_6 
REMARK    5  A    between atoms: C_9  and  C_10 
REMARK    6  A    between atoms: N_15  and  C_14 
REMARK    7  A    between atoms: N_20  and  C_19 
REMARK       I    between atoms: C_22  and  N_20 
ROOT
ATOM      1  C   LIG d   1      -4.129  91.629 117.504  0.00  0.00     0.161 C 
ATOM      2  C   LIG d   1      -5.370  92.261 117.318  0.00  0.00     0.016 C 
ATOM      3  C   LIG d   1      -6.306  91.862 116.336  0.00  0.00     0.038 C 
ATOM      4  C   LIG d   1      -6.126  90.701 115.569  0.00  0.00     0.028 C 
ATOM      5  C   LIG d   1      -4.662  90.324 115.373  0.00  0.00    -0.047 C 
ATOM      6  C   LIG d   1      -3.963  90.292 116.752  0.00  0.00     0.091 C 
ENDROOT
BRANCH   1   7
ATOM      7  O   LIG d   1      -3.881  91.446 118.912  0.00  0.00    -0.368 OA
BRANCH   7   8
ATOM      8  C   LIG d   1      -2.970  92.390 119.528  0.00  0.00     0.119 C 
BRANCH   8   9
ATOM      9  C   LIG d   1      -2.152  93.047 118.399  0.00  0.00     0.028 C 
ATOM     10  C   LIG d   1      -2.285  94.579 118.393  0.00  0.00     0.006 C 
ENDBRANCH   8   9
BRANCH   8  11
ATOM     11  C   LIG d   1      -1.942  91.678 120.411  0.00  0.00     0.028 C 
ATOM     12  C   LIG d   1      -0.526  91.699 119.814  0.00  0.00     0.006 C 
ENDBRANCH   8  11
ENDBRANCH   7   8
ENDBRANCH   1   7
BRANCH   6  13
ATOM     13  N   LIG d   1      -2.507  90.014 116.644  0.00  0.00    -0.311 N 
ATOM     14  C   LIG d   1      -1.862  89.166 117.442  0.00  0.00     0.210 C 
ATOM     15  C   LIG d   1      -0.359  89.041 117.173  0.00  0.00     0.109 C 
ATOM     16  O   LIG d   1      -2.397  88.480 118.326  0.00  0.00    -0.276 OA
ATOM     17  H   LIG d   1      -2.001  90.504 115.932  0.00  0.00     0.149 HD
ENDBRANCH   6  13
BRANCH   5  18
ATOM     18  N   LIG d   1      -4.625  89.024 114.677  0.00  0.00     0.381 N 
ATOM     19  H   LIG d   1      -5.521  88.828 114.278  0.00  0.00    -0.090 HD
ATOM     20  H   LIG d   1      -4.412  88.304 115.344  0.00  0.00    -0.090 HD
ATOM     21  H   LIG d   1      -3.932  89.041 113.961  0.00  0.00    -0.090 HD
ENDBRANCH   5  18
BRANCH   3  22
ATOM     22  C   LIG d   1      -7.418  92.651 116.086  0.00  0.00     0.382 C 
ATOM     23  O   LIG d   1      -8.121  92.439 115.068  0.00  0.00    -0.241 OA
ATOM     24  O   LIG d   1      -7.701  93.600 116.841  0.00  0.00    -0.241 OA
ENDBRANCH   3  22
TORSDOF 7
ENDMDL
MODEL 3
REMARK VINA RESULT:      -5.4     35.041     37.105
REMARK  7 active torsions:
REMARK  status: ('A' for Active; 'I' for Inactive)
REMARK    1  A    between atoms: C_2  and  C_3 
REMARK    2  A    between atoms: C_3  and  O_6 
REMARK    3  A    between atoms: C_3  and  C_4 
REMARK    4  A    between atoms: C_7  and  O_6 
REMARK    5  A    between atoms: C_9  and  C_10 
REMARK    6  A    between atoms: N_15  and  C_14 
REMARK    7  A    between atoms: N_20  and  C_19 
REMARK       I    between atoms: C_22  and  N_20 
ROOT
ATOM      1  C   LIG d   1       0.848  57.313 118.076  0.00  0.00     0.161 C 
ATOM      2  C   LIG d   1      -0.292  57.295 117.255  0.00  0.00     0.016 C 
ATOM      3  C   LIG d   1      -0.317  57.827 115.946  0.00  0.00     0.038 C 
ATOM      4  C   LIG d   1       0.847  58.281 115.308  0.00  0.00     0.028 C 
ATOM      5  C   LIG d   1       1.912  58.782 116.276  0.00  0.00    -0.047 C 
ATOM      6  C   LIG d   1       2.156  57.704 117.356  0.00  0.00     0.091 C 
ENDROOT
BRANCH   1   7
ATOM      7  O   LIG d   1       0.999  56.038 118.731  0.00  0.00    -0.368 OA
BRANCH   7   8
ATOM      8  C   LIG d   1       0.943  54.870 117.875  0.00  0.00     0.119 C 
BRANCH   8   9
ATOM      9  C   LIG d   1       0.034  53.834 118.564  0.00  0.00     0.028 C 
ATOM     10  C   LIG d   1       0.137  53.891 120.098  0.00  0.00     0.006 C 
ENDBRANCH   8   9
BRANCH   8  11
ATOM     11  C   LIG d   1       2.314  54.196 117.763  0.00  0.00     0.028 C 
ATOM     12  C   LIG d   1       2.863  54.198 116.327  0.00  0.00     0.006 C 
ENDBRANCH   8  11
ENDBRANCH   7   8
ENDBRANCH   1   7
BRANCH   6  13
ATOM     13  N   LIG d   1       3.124  58.148 118.393  0.00  0.00    -0.311 N 
ATOM     14  C   LIG d   1       4.342  57.626 118.530  0.00  0.00     0.210 C 
ATOM     15  C   LIG d   1       5.172  58.215 119.676  0.00  0.00     0.109 C 
ATOM     16  O   LIG d   1       4.825  56.754 117.792  0.00  0.00    -0.276 OA
ATOM     17  H   LIG d   1       2.825  58.873 119.015  0.00  0.00     0.149 HD
ENDBRANCH   6  13
BRANCH   5  18
ATOM     18  N   LIG d   1       3.119  59.095 115.488  0.00  0.00     0.381 N 
ATOM     19  H   LIG d   1       2.946  59.888 114.903  0.00  0.00    -0.090 HD
ATOM     20  H   LIG d   1       3.336  58.310 114.900  0.00  0.00    -0.090 HD
ATOM     21  H   LIG d   1       3.885  59.284 116.097  0.00  0.00    -0.090 HD
ENDBRANCH   5  18
BRANCH   3  22
ATOM     22  C   LIG d   1      -1.525  57.945 115.275  0.00  0.00     0.382 C 
ATOM     23  O   LIG d   1      -2.427  57.091 115.452  0.00  0.00    -0.241 OA
ATOM     24  O   LIG d   1      -1.708  58.870 114.461  0.00  0.00    -0.241 OA
ENDBRANCH   3  22
TORSDOF 7
ENDMDL
MODEL 4
REMARK VINA RESULT:      -5.3      2.256      4.602
REMARK  7 active torsions:
REMARK  status: ('A' for Active; 'I' for Inactive)
REMARK    1  A    between atoms: C_2  and  C_3 
REMARK    2  A    between atoms: C_3  and  O_6 
REMARK    3  A    between atoms: C_3  and  C_4 
REMARK    4  A    between atoms: C_7  and  O_6 
REMARK    5  A    between atoms: C_9  and  C_10 
REMARK    6  A    between atoms: N_15  and  C_14 
REMARK    7  A    between atoms: N_20  and  C_19 
REMARK       I    between atoms: C_22  and  N_20 
ROOT
ATOM      1  C   LIG d   1      -5.617  91.902 119.008  0.00  0.00     0.161 C 
ATOM      2  C   LIG d   1      -4.824  91.086 118.184  0.00  0.00     0.016 C 
ATOM      3  C   LIG d   1      -5.016  90.970 116.788  0.00  0.00     0.038 C 
ATOM      4  C   LIG d   1      -5.923  91.784 116.094  0.00  0.00     0.028 C 
ATOM      5  C   LIG d   1      -7.092  92.256 116.952  0.00  0.00    -0.047 C 
ATOM      6  C   LIG d   1      -6.539  92.882 118.253  0.00  0.00     0.091 C 
ENDROOT
BRANCH   1   7
ATOM      7  O   LIG d   1      -4.780  92.618 119.937  0.00  0.00    -0.368 OA
BRANCH   7   8
ATOM      8  C   LIG d   1      -4.271  93.896 119.483  0.00  0.00     0.119 C 
BRANCH   8   9
ATOM      9  C   LIG d   1      -2.737  93.780 119.398  0.00  0.00     0.028 C 
ATOM     10  C   LIG d   1      -2.225  93.806 117.948  0.00  0.00     0.006 C 
ENDBRANCH   8   9
BRANCH   8  11
ATOM     11  C   LIG d   1      -4.538  94.999 120.511  0.00  0.00     0.028 C 
ATOM     12  C   LIG d   1      -4.545  96.405 119.889  0.00  0.00     0.006 C 
ENDBRANCH   8  11
ENDBRANCH   7   8
ENDBRANCH   1   7
BRANCH   6  13
ATOM     13  N   LIG d   1      -7.619  93.293 119.187  0.00  0.00    -0.311 N 
ATOM     14  C   LIG d   1      -8.090  94.537 119.260  0.00  0.00     0.210 C 
ATOM     15  C   LIG d   1      -9.190  94.751 120.306  0.00  0.00     0.109 C 
ATOM     16  O   LIG d   1      -7.725  95.476 118.537  0.00  0.00    -0.276 OA
ATOM     17  H   LIG d   1      -7.995  92.587 119.789  0.00  0.00     0.149 HD
ENDBRANCH   6  13
BRANCH   5  18
ATOM     18  N   LIG d   1      -7.883  93.204 116.145  0.00  0.00     0.381 N 
ATOM     19  H   LIG d   1      -7.543  93.214 115.204  0.00  0.00    -0.090 HD
ATOM     20  H   LIG d   1      -7.775  94.126 116.529  0.00  0.00    -0.090 HD
ATOM     21  H   LIG d   1      -8.844  92.942 116.155  0.00  0.00    -0.090 HD
ENDBRANCH   5  18
BRANCH   3  22
ATOM     22  C   LIG d   1      -4.322  90.002 116.077  0.00  0.00     0.382 C 
ATOM     23  O   LIG d   1      -4.852  89.457 115.079  0.00  0.00    -0.241 OA
ATOM     24  O   LIG d   1      -3.190  89.637 116.447  0.00  0.00    -0.241 OA
ENDBRANCH   3  22
TORSDOF 7
ENDMDL
MODEL 5
REMARK VINA RESULT:      -5.3      2.684      6.563
REMARK  7 active torsions:
REMARK  status: ('A' for Active; 'I' for Inactive)
REMARK    1  A    between atoms: C_2  and  C_3 
REMARK    2  A    between atoms: C_3  and  O_6 
REMARK    3  A    between atoms: C_3  and  C_4 
REMARK    4  A    between atoms: C_7  and  O_6 
REMARK    5  A    between atoms: C_9  and  C_10 
REMARK    6  A    between atoms: N_15  and  C_14 
REMARK    7  A    between atoms: N_20  and  C_19 
REMARK       I    between atoms: C_22  and  N_20 
ROOT
ATOM      1  C   LIG d   1      -4.272  91.218 117.668  0.00  0.00     0.161 C 
ATOM      2  C   LIG d   1      -5.081  90.447 116.817  0.00  0.00     0.016 C 
ATOM      3  C   LIG d   1      -6.366  90.850 116.388  0.00  0.00     0.038 C 
ATOM      4  C   LIG d   1      -6.871  92.130 116.662  0.00  0.00     0.028 C 
ATOM      5  C   LIG d   1      -6.303  92.746 117.936  0.00  0.00    -0.047 C 
ATOM      6  C   LIG d   1      -4.760  92.666 117.887  0.00  0.00     0.091 C 
ENDROOT
BRANCH   1   7
ATOM      7  O   LIG d   1      -2.914  91.215 117.187  0.00  0.00    -0.368 OA
BRANCH   7   8
ATOM      8  C   LIG d   1      -2.098  90.087 117.589  0.00  0.00     0.119 C 
BRANCH   8   9
ATOM      9  C   LIG d   1      -2.220  89.949 119.119  0.00  0.00     0.028 C 
ATOM     10  C   LIG d   1      -2.487  88.499 119.558  0.00  0.00     0.006 C 
ENDBRANCH   8   9
BRANCH   8  11
ATOM     11  C   LIG d   1      -0.613  90.351 117.323  0.00  0.00     0.028 C 
ATOM     12  C   LIG d   1      -0.154  91.730 117.823  0.00  0.00     0.006 C 
ENDBRANCH   8  11
ENDBRANCH   7   8
ENDBRANCH   1   7
BRANCH   6  13
ATOM     13  N   LIG d   1      -4.127  93.170 119.134  0.00  0.00    -0.311 N 
ATOM     14  C   LIG d   1      -3.062  93.970 119.143  0.00  0.00     0.210 C 
ATOM     15  C   LIG d   1      -2.556  94.357 120.536  0.00  0.00     0.109 C 
ATOM     16  O   LIG d   1      -2.509  94.423 118.129  0.00  0.00    -0.276 OA
ATOM     17  H   LIG d   1      -4.531  92.877 120.002  0.00  0.00     0.149 HD
ENDBRANCH   6  13
BRANCH   5  18
ATOM     18  N   LIG d   1      -6.808  94.129 118.027  0.00  0.00     0.381 N 
ATOM     19  H   LIG d   1      -7.797  94.119 118.177  0.00  0.00    -0.090 HD
ATOM     20  H   LIG d   1      -6.626  94.598 117.157  0.00  0.00    -0.090 HD
ATOM     21  H   LIG d   1      -6.355  94.609 118.773  0.00  0.00    -0.090 HD
ENDBRANCH   5  18
BRANCH   3  22
ATOM     22  C   LIG d   1      -7.177  89.953 115.710  0.00  0.00     0.382 C 
ATOM     23  O   LIG d   1      -7.977  89.226 116.347  0.00  0.00    -0.241 OA
ATOM     24  O   LIG d   1      -7.088  89.831 114.474  0.00  0.00    -0.241 OA
ENDBRANCH   3  22
TORSDOF 7
ENDMDL
MODEL 6
REMARK VINA RESULT:      -5.2      2.415      4.555
REMARK  7 active torsions:
REMARK  status: ('A' for Active; 'I' for Inactive)
REMARK    1  A    between atoms: C_2  and  C_3 
REMARK    2  A    between atoms: C_3  and  O_6 
REMARK    3  A    between atoms: C_3  and  C_4 
REMARK    4  A    between atoms: C_7  and  O_6 
REMARK    5  A    between atoms: C_9  and  C_10 
REMARK    6  A    between atoms: N_15  and  C_14 
REMARK    7  A    between atoms: N_20  and  C_19 
REMARK       I    between atoms: C_22  and  N_20 
ROOT
ATOM      1  C   LIG d   1      -5.484  91.908 117.823  0.00  0.00     0.161 C 
ATOM      2  C   LIG d   1      -6.289  92.007 116.676  0.00  0.00     0.016 C 
ATOM      3  C   LIG d   1      -6.077  91.239 115.508  0.00  0.00     0.038 C 
ATOM      4  C   LIG d   1      -5.130  90.204 115.463  0.00  0.00     0.028 C 
ATOM      5  C   LIG d   1      -3.962  90.409 116.421  0.00  0.00    -0.047 C 
ATOM      6  C   LIG d   1      -4.517  90.706 117.833  0.00  0.00     0.091 C 
ENDROOT
BRANCH   1   7
ATOM      7  O   LIG d   1      -6.313  91.893 119.002  0.00  0.00    -0.368 OA
BRANCH   7   8
ATOM      8  C   LIG d   1      -6.211  93.050 119.868  0.00  0.00     0.119 C 
BRANCH   8   9
ATOM      9  C   LIG d   1      -7.546  93.815 119.777  0.00  0.00     0.028 C 
ATOM     10  C   LIG d   1      -7.513  94.928 118.715  0.00  0.00     0.006 C 
ENDBRANCH   8   9
BRANCH   8  11
ATOM     11  C   LIG d   1      -5.147  94.030 119.365  0.00  0.00     0.028 C 
ATOM     12  C   LIG d   1      -4.005  94.237 120.372  0.00  0.00     0.006 C 
ENDBRANCH   8  11
ENDBRANCH   7   8
ENDBRANCH   1   7
BRANCH   6  13
ATOM     13  N   LIG d   1      -3.440  91.003 118.814  0.00  0.00    -0.311 N 
ATOM     14  C   LIG d   1      -2.885  90.078 119.596  0.00  0.00     0.210 C 
ATOM     15  C   LIG d   1      -1.807  90.600 120.550  0.00  0.00     0.109 C 
ATOM     16  O   LIG d   1      -3.161  88.869 119.567  0.00  0.00    -0.276 OA
ATOM     17  H   LIG d   1      -3.134  91.953 118.881  0.00  0.00     0.149 HD
ENDBRANCH   6  13
BRANCH   5  18
ATOM     18  N   LIG d   1      -3.126  89.195 116.371  0.00  0.00     0.381 N 
ATOM     19  H   LIG d   1      -3.563  88.461 116.893  0.00  0.00    -0.090 HD
ATOM     20  H   LIG d   1      -2.236  89.395 116.793  0.00  0.00    -0.090 HD
ATOM     21  H   LIG d   1      -2.997  88.908 115.426  0.00  0.00    -0.090 HD
ENDBRANCH   5  18
BRANCH   3  22
ATOM     22  C   LIG d   1      -6.789  91.530 114.355  0.00  0.00     0.382 C 
ATOM     23  O   LIG d   1      -6.769  92.692 113.882  0.00  0.00    -0.241 OA
ATOM     24  O   LIG d   1      -7.487  90.657 113.806  0.00  0.00    -0.241 OA
ENDBRANCH   3  22
TORSDOF 7
ENDMDL
MODEL 7
REMARK VINA RESULT:      -5.1      3.854      8.036
REMARK  7 active torsions:
REMARK  status: ('A' for Active; 'I' for Inactive)
REMARK    1  A    between atoms: C_2  and  C_3 
REMARK    2  A    between atoms: C_3  and  O_6 
REMARK    3  A    between atoms: C_3  and  C_4 
REMARK    4  A    between atoms: C_7  and  O_6 
REMARK    5  A    between atoms: C_9  and  C_10 
REMARK    6  A    between atoms: N_15  and  C_14 
REMARK    7  A    between atoms: N_20  and  C_19 
REMARK       I    between atoms: C_22  and  N_20 
ROOT
ATOM      1  C   LIG d   1      -1.874  90.600 117.562  0.00  0.00     0.161 C 
ATOM      2  C   LIG d   1      -2.951  90.070 116.832  0.00  0.00     0.016 C 
ATOM      3  C   LIG d   1      -4.162  90.767 116.615  0.00  0.00     0.038 C 
ATOM      4  C   LIG d   1      -4.321  92.110 116.989  0.00  0.00     0.028 C 
ATOM      5  C   LIG d   1      -3.449  92.518 118.171  0.00  0.00    -0.047 C 
ATOM      6  C   LIG d   1      -1.987  92.105 117.882  0.00  0.00     0.091 C 
ENDROOT
BRANCH   1   7
ATOM      7  O   LIG d   1      -0.636  90.325 116.876  0.00  0.00    -0.368 OA
BRANCH   7   8
ATOM      8  C   LIG d   1       0.299  89.463 117.570  0.00  0.00     0.119 C 
BRANCH   8   9
ATOM      9  C   LIG d   1       1.718  89.862 117.120  0.00  0.00     0.028 C 
ATOM     10  C   LIG d   1       1.969  91.374 117.245  0.00  0.00     0.006 C 
ENDBRANCH   8   9
BRANCH   8  11
ATOM     11  C   LIG d   1       0.134  88.002 117.141  0.00  0.00     0.028 C 
ATOM     12  C   LIG d   1       1.348  87.468 116.364  0.00  0.00     0.006 C 
ENDBRANCH   8  11
ENDBRANCH   7   8
ENDBRANCH   1   7
BRANCH   6  13
ATOM     13  N   LIG d   1      -1.081  92.392 119.024  0.00  0.00    -0.311 N 
ATOM     14  C   LIG d   1      -0.370  93.513 119.133  0.00  0.00     0.210 C 
ATOM     15  C   LIG d   1       0.516  93.598 120.379  0.00  0.00     0.109 C 
ATOM     16  O   LIG d   1      -0.413  94.458 118.331  0.00  0.00    -0.276 OA
ATOM     17  H   LIG d   1      -1.009  91.692 119.737  0.00  0.00     0.149 HD
ENDBRANCH   6  13
BRANCH   5  18
ATOM     18  N   LIG d   1      -3.611  93.971 118.365  0.00  0.00     0.381 N 
ATOM     19  H   LIG d   1      -3.664  94.427 117.476  0.00  0.00    -0.090 HD
ATOM     20  H   LIG d   1      -2.809  94.326 118.854  0.00  0.00    -0.090 HD
ATOM     21  H   LIG d   1      -4.438  94.155 118.890  0.00  0.00    -0.090 HD
ENDBRANCH   5  18
BRANCH   3  22
ATOM     22  C   LIG d   1      -5.244  90.107 116.054  0.00  0.00     0.382 C 
ATOM     23  O   LIG d   1      -6.363  90.144 116.619  0.00  0.00    -0.241 OA
ATOM     24  O   LIG d   1      -5.105  89.437 115.013  0.00  0.00    -0.241 OA
ENDBRANCH   3  22
TORSDOF 7
ENDMDL
MODEL 8
REMARK VINA RESULT:      -5.1     34.808     36.546
REMARK  7 active torsions:
REMARK  status: ('A' for Active; 'I' for Inactive)
REMARK    1  A    between atoms: C_2  and  C_3 
REMARK    2  A    between atoms: C_3  and  O_6 
REMARK    3  A    between atoms: C_3  and  C_4 
REMARK    4  A    between atoms: C_7  and  O_6 
REMARK    5  A    between atoms: C_9  and  C_10 
REMARK    6  A    between atoms: N_15  and  C_14 
REMARK    7  A    between atoms: N_20  and  C_19 
REMARK       I    between atoms: C_22  and  N_20 
ROOT
ATOM      1  C   LIG d   1       2.700  57.845 116.818  0.00  0.00     0.161 C 
ATOM      2  C   LIG d   1       1.944  58.652 115.952  0.00  0.00     0.016 C 
ATOM      3  C   LIG d   1       0.608  58.364 115.588  0.00  0.00     0.038 C 
ATOM      4  C   LIG d   1      -0.116  57.324 116.189  0.00  0.00     0.028 C 
ATOM      5  C   LIG d   1       0.763  56.183 116.689  0.00  0.00    -0.047 C 
ATOM      6  C   LIG d   1       1.891  56.768 117.570  0.00  0.00     0.091 C 
ENDROOT
BRANCH   1   7
ATOM      7  O   LIG d   1       3.422  58.673 117.751  0.00  0.00    -0.368 OA
BRANCH   7   8
ATOM      8  C   LIG d   1       4.864  58.678 117.616  0.00  0.00     0.119 C 
BRANCH   8   9
ATOM      9  C   LIG d   1       5.453  58.079 118.908  0.00  0.00     0.028 C 
ATOM     10  C   LIG d   1       4.515  58.252 120.115  0.00  0.00     0.006 C 
ENDBRANCH   8   9
BRANCH   8  11
ATOM     11  C   LIG d   1       5.412  60.107 117.545  0.00  0.00     0.028 C 
ATOM     12  C   LIG d   1       6.916  60.184 117.851  0.00  0.00     0.006 C 
ENDBRANCH   8  11
ENDBRANCH   7   8
ENDBRANCH   1   7
BRANCH   6  13
ATOM     13  N   LIG d   1       2.847  55.727 118.031  0.00  0.00    -0.311 N 
ATOM     14  C   LIG d   1       2.752  55.116 119.211  0.00  0.00     0.210 C 
ATOM     15  C   LIG d   1       3.853  54.090 119.498  0.00  0.00     0.109 C 
ATOM     16  O   LIG d   1       1.843  55.304 120.034  0.00  0.00    -0.276 OA
ATOM     17  H   LIG d   1       3.598  55.491 117.413  0.00  0.00     0.149 HD
ENDBRANCH   6  13
BRANCH   5  18
ATOM     18  N   LIG d   1      -0.104  55.236 117.414  0.00  0.00     0.381 N 
ATOM     19  H   LIG d   1       0.322  54.331 117.432  0.00  0.00    -0.090 HD
ATOM     20  H   LIG d   1      -0.981  55.161 116.928  0.00  0.00    -0.090 HD
ATOM     21  H   LIG d   1      -0.258  55.557 118.344  0.00  0.00    -0.090 HD
ENDBRANCH   5  18
BRANCH   3  22
ATOM     22  C   LIG d   1      -0.004  59.098 114.583  0.00  0.00     0.382 C 
ATOM     23  O   LIG d   1      -1.247  59.028 114.424  0.00  0.00    -0.241 OA
ATOM     24  O   LIG d   1       0.676  59.793 113.805  0.00  0.00    -0.241 OA
ENDBRANCH   3  22
TORSDOF 7
ENDMDL
MODEL 9
REMARK VINA RESULT:      -5.0     14.606     17.648
REMARK  7 active torsions:
REMARK  status: ('A' for Active; 'I' for Inactive)
REMARK    1  A    between atoms: C_2  and  C_3 
REMARK    2  A    between atoms: C_3  and  O_6 
REMARK    3  A    between atoms: C_3  and  C_4 
REMARK    4  A    between atoms: C_7  and  O_6 
REMARK    5  A    between atoms: C_9  and  C_10 
REMARK    6  A    between atoms: N_15  and  C_14 
REMARK    7  A    between atoms: N_20  and  C_19 
REMARK       I    between atoms: C_22  and  N_20 
ROOT
ATOM      1  C   LIG d   1      -3.353  76.097 116.441  0.00  0.00     0.161 C 
ATOM      2  C   LIG d   1      -2.303  75.166 116.516  0.00  0.00     0.016 C 
ATOM      3  C   LIG d   1      -1.366  75.135 117.575  0.00  0.00     0.038 C 
ATOM      4  C   LIG d   1      -1.508  75.941 118.714  0.00  0.00     0.028 C 
ATOM      5  C   LIG d   1      -2.260  77.240 118.448  0.00  0.00    -0.047 C 
ATOM      6  C   LIG d   1      -3.589  76.912 117.729  0.00  0.00     0.091 C 
ENDROOT
BRANCH   1   7
ATOM      7  O   LIG d   1      -4.567  75.432 116.039  0.00  0.00    -0.368 OA
BRANCH   7   8
ATOM      8  C   LIG d   1      -4.604  74.940 114.677  0.00  0.00     0.119 C 
BRANCH   8   9
ATOM      9  C   LIG d   1      -5.693  75.731 113.928  0.00  0.00     0.028 C 
ATOM     10  C   LIG d   1      -6.755  76.311 114.878  0.00  0.00     0.006 C 
ENDBRANCH   8   9
BRANCH   8  11
ATOM     11  C   LIG d   1      -5.056  73.478 114.624  0.00  0.00     0.028 C 
ATOM     12  C   LIG d   1      -5.431  72.920 116.006  0.00  0.00     0.006 C 
ENDBRANCH   8  11
ENDBRANCH   7   8
ENDBRANCH   1   7
BRANCH   6  13
ATOM     13  N   LIG d   1      -4.348  78.134 117.356  0.00  0.00    -0.311 N 
ATOM     14  C   LIG d   1      -5.332  78.640 118.097  0.00  0.00     0.210 C 
ATOM     15  C   LIG d   1      -5.997  79.894 117.520  0.00  0.00     0.109 C 
ATOM     16  O   LIG d   1      -5.695  78.190 119.194  0.00  0.00    -0.276 OA
ATOM     17  H   LIG d   1      -4.098  78.581 116.496  0.00  0.00     0.149 HD
ENDBRANCH   6  13
BRANCH   5  18
ATOM     18  N   LIG d   1      -2.455  77.916 119.744  0.00  0.00     0.381 N 
ATOM     19  H   LIG d   1      -3.165  78.616 119.657  0.00  0.00    -0.090 HD
ATOM     20  H   LIG d   1      -1.597  78.368 120.007  0.00  0.00    -0.090 HD
ATOM     21  H   LIG d   1      -2.717  77.252 120.439  0.00  0.00    -0.090 HD
ENDBRANCH   5  18
BRANCH   3  22
ATOM     22  C   LIG d   1      -0.251  74.317 117.481  0.00  0.00     0.382 C 
ATOM     23  O   LIG d   1       0.848  74.698 117.953  0.00  0.00    -0.241 OA
ATOM     24  O   LIG d   1      -0.318  73.222 116.891  0.00  0.00    -0.241 OA
ENDBRANCH   3  22
TORSDOF 7
ENDMDL
