MODEL 1
REMARK VINA RESULT:      -5.7      0.000      0.000
REMARK  7 active torsions:
REMARK  status: ('A' for Active; 'I' for Inactive)
REMARK    1  A    between atoms: C_2  and  C_3 
REMARK    2  A    between atoms: C_3  and  O_6 
REMARK    3  A    between atoms: C_3  and  C_4 
REMARK    4  A    between atoms: C_7  and  O_6 
REMARK    5  A    between atoms: C_9  and  C_10 
REMARK    6  A    between atoms: N_15  and  C_14 
REMARK    7  A    between atoms: N_20  and  C_19 
REMARK       I    between atoms: C_22  and  N_20 
ROOT
ATOM      1  C   LIG d   1      -8.271  75.911 116.157  0.00  0.00     0.161 C 
ATOM      2  C   LIG d   1      -7.219  75.594 115.281  0.00  0.00     0.016 C 
ATOM      3  C   LIG d   1      -5.918  76.134 115.400  0.00  0.00     0.038 C 
ATOM      4  C   LIG d   1      -5.538  76.917 116.501  0.00  0.00     0.028 C 
ATOM      5  C   LIG d   1      -6.700  77.671 117.137  0.00  0.00    -0.047 C 
ATOM      6  C   LIG d   1      -7.846  76.676 117.428  0.00  0.00     0.091 C 
ENDROOT
BRANCH   1   7
ATOM      7  O   LIG d   1      -8.991  74.713 116.510  0.00  0.00    -0.368 OA
BRANCH   7   8
ATOM      8  C   LIG d   1      -8.269  73.751 117.319  0.00  0.00     0.119 C 
BRANCH   8   9
ATOM      9  C   LIG d   1      -8.220  72.428 116.531  0.00  0.00     0.028 C 
ATOM     10  C   LIG d   1      -6.781  71.973 116.237  0.00  0.00     0.006 C 
ENDBRANCH   8   9
BRANCH   8  11
ATOM     11  C   LIG d   1      -9.029  73.427 118.609  0.00  0.00     0.028 C 
ATOM     12  C   LIG d   1      -9.387  71.938 118.732  0.00  0.00     0.006 C 
ENDBRANCH   8  11
ENDBRANCH   7   8
ENDBRANCH   1   7
BRANCH   6  13
ATOM     13  N   LIG d   1      -9.055  77.346 117.974  0.00  0.00    -0.311 N 
ATOM     14  C   LIG d   1      -9.340  77.398 119.274  0.00  0.00     0.210 C 
ATOM     15  C   LIG d   1     -10.645  78.120 119.621  0.00  0.00     0.109 C 
ATOM     16  O   LIG d   1      -8.620  76.942 120.175  0.00  0.00    -0.276 OA
ATOM     17  H   LIG d   1      -9.678  77.770 117.315  0.00  0.00     0.149 HD
ENDBRANCH   6  13
BRANCH   5  18
ATOM     18  N   LIG d   1      -6.189  78.335 118.351  0.00  0.00     0.381 N 
ATOM     19  H   LIG d   1      -5.523  79.038 118.099  0.00  0.00    -0.090 HD
ATOM     20  H   LIG d   1      -5.724  77.652 118.924  0.00  0.00    -0.090 HD
ATOM     21  H   LIG d   1      -6.942  78.746 118.858  0.00  0.00    -0.090 HD
ENDBRANCH   5  18
BRANCH   3  22
ATOM     22  C   LIG d   1      -4.992  75.924 114.390  0.00  0.00     0.382 C 
ATOM     23  O   LIG d   1      -4.237  76.859 114.028  0.00  0.00    -0.241 OA
ATOM     24  O   LIG d   1      -4.932  74.826 113.805  0.00  0.00    -0.241 OA
ENDBRANCH   3  22
TORSDOF 7
ENDMDL
MODEL 2
REMARK VINA RESULT:      -5.6      1.981      4.984
REMARK  7 active torsions:
REMARK  status: ('A' for Active; 'I' for Inactive)
REMARK    1  A    between atoms: C_2  and  C_3 
REMARK    2  A    between atoms: C_3  and  O_6 
REMARK    3  A    between atoms: C_3  and  C_4 
REMARK    4  A    between atoms: C_7  and  O_6 
REMARK    5  A    between atoms: C_9  and  C_10 
REMARK    6  A    between atoms: N_15  and  C_14 
REMARK    7  A    between atoms: N_20  and  C_19 
REMARK       I    between atoms: C_22  and  N_20 
ROOT
ATOM      1  C   LIG d   1      -7.661  74.482 118.848  0.00  0.00     0.161 C 
ATOM      2  C   LIG d   1      -8.925  75.001 119.171  0.00  0.00     0.016 C 
ATOM      3  C   LIG d   1      -9.375  76.273 118.747  0.00  0.00     0.038 C 
ATOM      4  C   LIG d   1      -8.643  77.054 117.840  0.00  0.00     0.028 C 
ATOM      5  C   LIG d   1      -7.142  76.793 117.890  0.00  0.00    -0.047 C 
ATOM      6  C   LIG d   1      -6.893  75.272 117.768  0.00  0.00     0.091 C 
ENDROOT
BRANCH   1   7
ATOM      7  O   LIG d   1      -7.785  73.098 118.464  0.00  0.00    -0.368 OA
BRANCH   7   8
ATOM      8  C   LIG d   1      -8.531  72.839 117.249  0.00  0.00     0.119 C 
BRANCH   8   9
ATOM      9  C   LIG d   1      -9.284  71.508 117.444  0.00  0.00     0.028 C 
ATOM     10  C   LIG d   1      -9.318  71.063 118.916  0.00  0.00     0.006 C 
ENDBRANCH   8   9
BRANCH   8  11
ATOM     11  C   LIG d   1      -7.596  72.604 116.059  0.00  0.00     0.028 C 
ATOM     12  C   LIG d   1      -6.680  71.385 116.252  0.00  0.00     0.006 C 
ENDBRANCH   8  11
ENDBRANCH   7   8
ENDBRANCH   1   7
BRANCH   6  13
ATOM     13  N   LIG d   1      -5.454  74.921 117.892  0.00  0.00    -0.311 N 
ATOM     14  C   LIG d   1      -4.642  74.774 116.846  0.00  0.00     0.210 C 
ATOM     15  C   LIG d   1      -3.201  74.392 117.195  0.00  0.00     0.109 C 
ATOM     16  O   LIG d   1      -4.972  74.957 115.664  0.00  0.00    -0.276 OA
ATOM     17  H   LIG d   1      -5.095  74.786 118.817  0.00  0.00     0.149 HD
ENDBRANCH   6  13
BRANCH   5  18
ATOM     18  N   LIG d   1      -6.518  77.570 116.802  0.00  0.00     0.381 N 
ATOM     19  H   LIG d   1      -5.923  78.275 117.188  0.00  0.00    -0.090 HD
ATOM     20  H   LIG d   1      -7.240  78.022 116.271  0.00  0.00    -0.090 HD
ATOM     21  H   LIG d   1      -5.989  76.966 116.212  0.00  0.00    -0.090 HD
ENDBRANCH   5  18
BRANCH   3  22
ATOM     22  C   LIG d   1     -10.552  76.793 119.264  0.00  0.00     0.382 C 
ATOM     23  O   LIG d   1     -10.857  76.583 120.463  0.00  0.00    -0.241 OA
ATOM     24  O   LIG d   1     -11.334  77.433 118.535  0.00  0.00    -0.241 OA
ENDBRANCH   3  22
TORSDOF 7
ENDMDL
MODEL 3
REMARK VINA RESULT:      -5.5      2.611      4.704
REMARK  7 active torsions:
REMARK  status: ('A' for Active; 'I' for Inactive)
REMARK    1  A    between atoms: C_2  and  C_3 
REMARK    2  A    between atoms: C_3  and  O_6 
REMARK    3  A    between atoms: C_3  and  C_4 
REMARK    4  A    between atoms: C_7  and  O_6 
REMARK    5  A    between atoms: C_9  and  C_10 
REMARK    6  A    between atoms: N_15  and  C_14 
REMARK    7  A    between atoms: N_20  and  C_19 
REMARK       I    between atoms: C_22  and  N_20 
ROOT
ATOM      1  C   LIG d   1      -6.245  74.668 118.021  0.00  0.00     0.161 C 
ATOM      2  C   LIG d   1      -6.347  73.316 117.655  0.00  0.00     0.016 C 
ATOM      3  C   LIG d   1      -7.481  72.767 117.014  0.00  0.00     0.038 C 
ATOM      4  C   LIG d   1      -8.536  73.571 116.556  0.00  0.00     0.028 C 
ATOM      5  C   LIG d   1      -8.703  74.861 117.352  0.00  0.00    -0.047 C 
ATOM      6  C   LIG d   1      -7.338  75.583 117.430  0.00  0.00     0.091 C 
ENDROOT
BRANCH   1   7
ATOM      7  O   LIG d   1      -4.936  75.169 117.682  0.00  0.00    -0.368 OA
BRANCH   7   8
ATOM      8  C   LIG d   1      -4.223  74.442 116.651  0.00  0.00     0.119 C 
BRANCH   8   9
ATOM      9  C   LIG d   1      -2.751  74.335 117.093  0.00  0.00     0.028 C 
ATOM     10  C   LIG d   1      -1.780  74.315 115.901  0.00  0.00     0.006 C 
ENDBRANCH   8   9
BRANCH   8  11
ATOM     11  C   LIG d   1      -4.196  75.225 115.335  0.00  0.00     0.028 C 
ATOM     12  C   LIG d   1      -5.220  74.708 114.312  0.00  0.00     0.006 C 
ENDBRANCH   8  11
ENDBRANCH   7   8
ENDBRANCH   1   7
BRANCH   6  13
ATOM     13  N   LIG d   1      -7.394  76.812 118.263  0.00  0.00    -0.311 N 
ATOM     14  C   LIG d   1      -6.888  77.983 117.877  0.00  0.00     0.210 C 
ATOM     15  C   LIG d   1      -7.036  79.118 118.895  0.00  0.00     0.109 C 
ATOM     16  O   LIG d   1      -6.360  78.196 116.776  0.00  0.00    -0.276 OA
ATOM     17  H   LIG d   1      -7.834  76.737 119.159  0.00  0.00     0.149 HD
ENDBRANCH   6  13
BRANCH   5  18
ATOM     18  N   LIG d   1      -9.744  75.664 116.683  0.00  0.00     0.381 N 
ATOM     19  H   LIG d   1      -9.528  76.638 116.769  0.00  0.00    -0.090 HD
ATOM     20  H   LIG d   1     -10.625  75.496 117.136  0.00  0.00    -0.090 HD
ATOM     21  H   LIG d   1      -9.803  75.414 115.721  0.00  0.00    -0.090 HD
ENDBRANCH   5  18
BRANCH   3  22
ATOM     22  C   LIG d   1      -7.586  71.393 116.861  0.00  0.00     0.382 C 
ATOM     23  O   LIG d   1      -6.752  70.775 116.155  0.00  0.00    -0.241 OA
ATOM     24  O   LIG d   1      -8.529  70.769 117.383  0.00  0.00    -0.241 OA
ENDBRANCH   3  22
TORSDOF 7
ENDMDL
MODEL 4
REMARK VINA RESULT:      -5.4      1.930      4.848
REMARK  7 active torsions:
REMARK  status: ('A' for Active; 'I' for Inactive)
REMARK    1  A    between atoms: C_2  and  C_3 
REMARK    2  A    between atoms: C_3  and  O_6 
REMARK    3  A    between atoms: C_3  and  C_4 
REMARK    4  A    between atoms: C_7  and  O_6 
REMARK    5  A    between atoms: C_9  and  C_10 
REMARK    6  A    between atoms: N_15  and  C_14 
REMARK    7  A    between atoms: N_20  and  C_19 
REMARK       I    between atoms: C_22  and  N_20 
ROOT
ATOM      1  C   LIG d   1      -7.582  75.110 118.849  0.00  0.00     0.161 C 
ATOM      2  C   LIG d   1      -8.914  75.522 119.019  0.00  0.00     0.016 C 
ATOM      3  C   LIG d   1      -9.399  76.781 118.597  0.00  0.00     0.038 C 
ATOM      4  C   LIG d   1      -8.615  77.660 117.835  0.00  0.00     0.028 C 
ATOM      5  C   LIG d   1      -7.118  77.501 118.077  0.00  0.00    -0.047 C 
ATOM      6  C   LIG d   1      -6.740  76.011 117.921  0.00  0.00     0.091 C 
ENDROOT
BRANCH   1   7
ATOM      7  O   LIG d   1      -7.547  73.745 118.389  0.00  0.00    -0.368 OA
BRANCH   7   8
ATOM      8  C   LIG d   1      -8.079  73.506 117.062  0.00  0.00     0.119 C 
BRANCH   8   9
ATOM      9  C   LIG d   1      -9.096  72.353 117.172  0.00  0.00     0.028 C 
ATOM     10  C   LIG d   1      -9.320  71.905 118.626  0.00  0.00     0.006 C 
ENDBRANCH   8   9
BRANCH   8  11
ATOM     11  C   LIG d   1      -6.993  73.000 116.109  0.00  0.00     0.028 C 
ATOM     12  C   LIG d   1      -6.769  71.483 116.213  0.00  0.00     0.006 C 
ENDBRANCH   8  11
ENDBRANCH   7   8
ENDBRANCH   1   7
BRANCH   6  13
ATOM     13  N   LIG d   1      -5.307  75.754 118.225  0.00  0.00    -0.311 N 
ATOM     14  C   LIG d   1      -4.355  75.723 117.294  0.00  0.00     0.210 C 
ATOM     15  C   LIG d   1      -2.948  75.422 117.818  0.00  0.00     0.109 C 
ATOM     16  O   LIG d   1      -4.538  75.947 116.088  0.00  0.00    -0.276 OA
ATOM     17  H   LIG d   1      -5.066  75.593 119.183  0.00  0.00     0.149 HD
ENDBRANCH   6  13
BRANCH   5  18
ATOM     18  N   LIG d   1      -6.416  78.379 117.121  0.00  0.00     0.381 N 
ATOM     19  H   LIG d   1      -6.986  79.173 116.909  0.00  0.00    -0.090 HD
ATOM     20  H   LIG d   1      -6.255  77.869 116.271  0.00  0.00    -0.090 HD
ATOM     21  H   LIG d   1      -5.548  78.678 117.508  0.00  0.00    -0.090 HD
ENDBRANCH   5  18
BRANCH   3  22
ATOM     22  C   LIG d   1     -10.670  77.189 118.972  0.00  0.00     0.382 C 
ATOM     23  O   LIG d   1     -11.609  77.156 118.140  0.00  0.00    -0.241 OA
ATOM     24  O   LIG d   1     -10.880  77.630 120.117  0.00  0.00    -0.241 OA
ENDBRANCH   3  22
TORSDOF 7
ENDMDL
MODEL 5
REMARK VINA RESULT:      -5.3      1.868      4.581
REMARK  7 active torsions:
REMARK  status: ('A' for Active; 'I' for Inactive)
REMARK    1  A    between atoms: C_2  and  C_3 
REMARK    2  A    between atoms: C_3  and  O_6 
REMARK    3  A    between atoms: C_3  and  C_4 
REMARK    4  A    between atoms: C_7  and  O_6 
REMARK    5  A    between atoms: C_9  and  C_10 
REMARK    6  A    between atoms: N_15  and  C_14 
REMARK    7  A    between atoms: N_20  and  C_19 
REMARK       I    between atoms: C_22  and  N_20 
ROOT
ATOM      1  C   LIG d   1      -7.273  76.113 117.541  0.00  0.00     0.161 C 
ATOM      2  C   LIG d   1      -8.385  76.912 117.854  0.00  0.00     0.016 C 
ATOM      3  C   LIG d   1      -8.326  78.321 117.957  0.00  0.00     0.038 C 
ATOM      4  C   LIG d   1      -7.177  79.043 117.604  0.00  0.00     0.028 C 
ATOM      5  C   LIG d   1      -5.887  78.247 117.770  0.00  0.00    -0.047 C 
ATOM      6  C   LIG d   1      -6.037  76.891 117.043  0.00  0.00     0.091 C 
ENDROOT
BRANCH   1   7
ATOM      7  O   LIG d   1      -7.650  75.105 116.582  0.00  0.00    -0.368 OA
BRANCH   7   8
ATOM      8  C   LIG d   1      -7.614  73.735 117.050  0.00  0.00     0.119 C 
BRANCH   8   9
ATOM      9  C   LIG d   1      -6.946  72.887 115.950  0.00  0.00     0.028 C 
ATOM     10  C   LIG d   1      -6.827  71.405 116.343  0.00  0.00     0.006 C 
ENDBRANCH   8   9
BRANCH   8  11
ATOM     11  C   LIG d   1      -9.026  73.161 117.203  0.00  0.00     0.028 C 
ATOM     12  C   LIG d   1      -9.355  72.767 118.652  0.00  0.00     0.006 C 
ENDBRANCH   8  11
ENDBRANCH   7   8
ENDBRANCH   1   7
BRANCH   6  13
ATOM     13  N   LIG d   1      -4.850  76.015 117.227  0.00  0.00    -0.311 N 
ATOM     14  C   LIG d   1      -4.228  75.403 116.221  0.00  0.00     0.210 C 
ATOM     15  C   LIG d   1      -3.038  74.530 116.631  0.00  0.00     0.109 C 
ATOM     16  O   LIG d   1      -4.529  75.526 115.024  0.00  0.00    -0.276 OA
ATOM     17  H   LIG d   1      -4.520  75.885 118.163  0.00  0.00     0.149 HD
ENDBRANCH   6  13
BRANCH   5  18
ATOM     18  N   LIG d   1      -4.784  79.069 117.237  0.00  0.00     0.381 N 
ATOM     19  H   LIG d   1      -5.052  80.033 117.231  0.00  0.00    -0.090 HD
ATOM     20  H   LIG d   1      -4.597  78.788 116.291  0.00  0.00    -0.090 HD
ATOM     21  H   LIG d   1      -3.967  78.948 117.795  0.00  0.00    -0.090 HD
ENDBRANCH   5  18
BRANCH   3  22
ATOM     22  C   LIG d   1      -9.415  79.020 118.457  0.00  0.00     0.382 C 
ATOM     23  O   LIG d   1     -10.580  78.625 118.210  0.00  0.00    -0.241 OA
ATOM     24  O   LIG d   1      -9.248  80.064 119.115  0.00  0.00    -0.241 OA
ENDBRANCH   3  22
TORSDOF 7
ENDMDL
MODEL 6
REMARK VINA RESULT:      -5.1     14.385     16.576
REMARK  7 active torsions:
REMARK  status: ('A' for Active; 'I' for Inactive)
REMARK    1  A    between atoms: C_2  and  C_3 
REMARK    2  A    between atoms: C_3  and  O_6 
REMARK    3  A    between atoms: C_3  and  C_4 
REMARK    4  A    between atoms: C_7  and  O_6 
REMARK    5  A    between atoms: C_9  and  C_10 
REMARK    6  A    between atoms: N_15  and  C_14 
REMARK    7  A    between atoms: N_20  and  C_19 
REMARK       I    between atoms: C_22  and  N_20 
ROOT
ATOM      1  C   LIG d   1      -4.168  90.998 117.548  0.00  0.00     0.161 C 
ATOM      2  C   LIG d   1      -5.044  90.361 116.653  0.00  0.00     0.016 C 
ATOM      3  C   LIG d   1      -6.253  90.939 116.204  0.00  0.00     0.038 C 
ATOM      4  C   LIG d   1      -6.597  92.266 116.503  0.00  0.00     0.028 C 
ATOM      5  C   LIG d   1      -5.992  92.769 117.810  0.00  0.00    -0.047 C 
ATOM      6  C   LIG d   1      -4.472  92.491 117.798  0.00  0.00     0.091 C 
ENDROOT
BRANCH   1   7
ATOM      7  O   LIG d   1      -2.807  90.832 117.102  0.00  0.00    -0.368 OA
BRANCH   7   8
ATOM      8  C   LIG d   1      -1.900  90.206 118.042  0.00  0.00     0.119 C 
BRANCH   8   9
ATOM      9  C   LIG d   1      -0.476  90.686 117.702  0.00  0.00     0.028 C 
ATOM     10  C   LIG d   1       0.425  89.544 117.204  0.00  0.00     0.006 C 
ENDBRANCH   8   9
BRANCH   8  11
ATOM     11  C   LIG d   1      -1.870  88.686 117.859  0.00  0.00     0.028 C 
ATOM     12  C   LIG d   1      -2.332  87.925 119.113  0.00  0.00     0.006 C 
ENDBRANCH   8  11
ENDBRANCH   7   8
ENDBRANCH   1   7
BRANCH   6  13
ATOM     13  N   LIG d   1      -3.815  92.875 119.075  0.00  0.00    -0.311 N 
ATOM     14  C   LIG d   1      -2.750  93.671 119.141  0.00  0.00     0.210 C 
ATOM     15  C   LIG d   1      -2.218  93.925 120.555  0.00  0.00     0.109 C 
ATOM     16  O   LIG d   1      -2.214  94.218 118.165  0.00  0.00    -0.276 OA
ATOM     17  H   LIG d   1      -4.204  92.502 119.919  0.00  0.00     0.149 HD
ENDBRANCH   6  13
BRANCH   5  18
ATOM     18  N   LIG d   1      -6.317  94.203 117.929  0.00  0.00     0.381 N 
ATOM     19  H   LIG d   1      -7.284  94.349 117.719  0.00  0.00    -0.090 HD
ATOM     20  H   LIG d   1      -5.767  94.717 117.263  0.00  0.00    -0.090 HD
ATOM     21  H   LIG d   1      -6.118  94.522 118.851  0.00  0.00    -0.090 HD
ENDBRANCH   5  18
BRANCH   3  22
ATOM     22  C   LIG d   1      -7.153  90.174 115.478  0.00  0.00     0.382 C 
ATOM     23  O   LIG d   1      -7.184  90.261 114.227  0.00  0.00    -0.241 OA
ATOM     24  O   LIG d   1      -7.964  89.430 116.061  0.00  0.00    -0.241 OA
ENDBRANCH   3  22
TORSDOF 7
ENDMDL
MODEL 7
REMARK VINA RESULT:      -5.1      2.193      4.300
REMARK  7 active torsions:
REMARK  status: ('A' for Active; 'I' for Inactive)
REMARK    1  A    between atoms: C_2  and  C_3 
REMARK    2  A    between atoms: C_3  and  O_6 
REMARK    3  A    between atoms: C_3  and  C_4 
REMARK    4  A    between atoms: C_7  and  O_6 
REMARK    5  A    between atoms: C_9  and  C_10 
REMARK    6  A    between atoms: N_15  and  C_14 
REMARK    7  A    between atoms: N_20  and  C_19 
REMARK       I    between atoms: C_22  and  N_20 
ROOT
ATOM      1  C   LIG d   1      -6.596  75.907 117.222  0.00  0.00     0.161 C 
ATOM      2  C   LIG d   1      -5.577  76.496 116.455  0.00  0.00     0.016 C 
ATOM      3  C   LIG d   1      -4.886  75.815 115.426  0.00  0.00     0.038 C 
ATOM      4  C   LIG d   1      -5.274  74.539 114.991  0.00  0.00     0.028 C 
ATOM      5  C   LIG d   1      -5.965  73.715 116.071  0.00  0.00    -0.047 C 
ATOM      6  C   LIG d   1      -7.108  74.554 116.687  0.00  0.00     0.091 C 
ENDROOT
BRANCH   1   7
ATOM      7  O   LIG d   1      -7.691  76.833 117.373  0.00  0.00    -0.368 OA
BRANCH   7   8
ATOM      8  C   LIG d   1      -8.070  77.156 118.733  0.00  0.00     0.119 C 
BRANCH   8   9
ATOM      9  C   LIG d   1      -9.523  76.685 118.933  0.00  0.00     0.028 C 
ATOM     10  C   LIG d   1     -10.282  76.544 117.603  0.00  0.00     0.006 C 
ENDBRANCH   8   9
BRANCH   8  11
ATOM     11  C   LIG d   1      -8.099  78.670 118.959  0.00  0.00     0.028 C 
ATOM     12  C   LIG d   1      -7.454  79.457 117.807  0.00  0.00     0.006 C 
ENDBRANCH   8  11
ENDBRANCH   7   8
ENDBRANCH   1   7
BRANCH   6  13
ATOM     13  N   LIG d   1      -7.783  73.853 117.811  0.00  0.00    -0.311 N 
ATOM     14  C   LIG d   1      -8.868  73.095 117.656  0.00  0.00     0.210 C 
ATOM     15  C   LIG d   1      -9.417  72.480 118.948  0.00  0.00     0.109 C 
ATOM     16  O   LIG d   1      -9.409  72.849 116.568  0.00  0.00    -0.276 OA
ATOM     17  H   LIG d   1      -7.392  73.973 118.724  0.00  0.00     0.149 HD
ENDBRANCH   6  13
BRANCH   5  18
ATOM     18  N   LIG d   1      -6.438  72.466 115.444  0.00  0.00     0.381 N 
ATOM     19  H   LIG d   1      -6.801  71.851 116.146  0.00  0.00    -0.090 HD
ATOM     20  H   LIG d   1      -5.660  72.011 114.999  0.00  0.00    -0.090 HD
ATOM     21  H   LIG d   1      -7.144  72.668 114.772  0.00  0.00    -0.090 HD
ENDBRANCH   5  18
BRANCH   3  22
ATOM     22  C   LIG d   1      -3.768  76.397 114.848  0.00  0.00     0.382 C 
ATOM     23  O   LIG d   1      -2.780  75.687 114.541  0.00  0.00    -0.241 OA
ATOM     24  O   LIG d   1      -3.716  77.629 114.671  0.00  0.00    -0.241 OA
ENDBRANCH   3  22
TORSDOF 7
ENDMDL
MODEL 8
REMARK VINA RESULT:      -5.0      2.451      4.500
REMARK  7 active torsions:
REMARK  status: ('A' for Active; 'I' for Inactive)
REMARK    1  A    between atoms: C_2  and  C_3 
REMARK    2  A    between atoms: C_3  and  O_6 
REMARK    3  A    between atoms: C_3  and  C_4 
REMARK    4  A    between atoms: C_7  and  O_6 
REMARK    5  A    between atoms: C_9  and  C_10 
REMARK    6  A    between atoms: N_15  and  C_14 
REMARK    7  A    between atoms: N_20  and  C_19 
REMARK       I    between atoms: C_22  and  N_20 
ROOT
ATOM      1  C   LIG d   1      -6.583  74.760 118.227  0.00  0.00     0.161 C 
ATOM      2  C   LIG d   1      -5.602  75.476 117.520  0.00  0.00     0.016 C 
ATOM      3  C   LIG d   1      -5.065  75.047 116.285  0.00  0.00     0.038 C 
ATOM      4  C   LIG d   1      -5.585  73.942 115.594  0.00  0.00     0.028 C 
ATOM      5  C   LIG d   1      -6.227  72.904 116.508  0.00  0.00    -0.047 C 
ATOM      6  C   LIG d   1      -7.241  73.611 117.436  0.00  0.00     0.091 C 
ENDROOT
BRANCH   1   7
ATOM      7  O   LIG d   1      -7.588  75.667 118.722  0.00  0.00    -0.368 OA
BRANCH   7   8
ATOM      8  C   LIG d   1      -8.184  76.554 117.744  0.00  0.00     0.119 C 
BRANCH   8   9
ATOM      9  C   LIG d   1      -8.096  77.987 118.304  0.00  0.00     0.028 C 
ATOM     10  C   LIG d   1      -9.471  78.673 118.378  0.00  0.00     0.006 C 
ENDBRANCH   8   9
BRANCH   8  11
ATOM     11  C   LIG d   1      -9.681  76.274 117.578  0.00  0.00     0.028 C 
ATOM     12  C   LIG d   1      -9.989  75.383 116.365  0.00  0.00     0.006 C 
ENDBRANCH   8  11
ENDBRANCH   7   8
ENDBRANCH   1   7
BRANCH   6  13
ATOM     13  N   LIG d   1      -7.854  72.680 118.419  0.00  0.00    -0.311 N 
ATOM     14  C   LIG d   1      -8.940  71.953 118.163  0.00  0.00     0.210 C 
ATOM     15  C   LIG d   1      -9.418  71.074 119.323  0.00  0.00     0.109 C 
ATOM     16  O   LIG d   1      -9.534  71.929 117.075  0.00  0.00    -0.276 OA
ATOM     17  H   LIG d   1      -7.417  72.615 119.318  0.00  0.00     0.149 HD
ENDBRANCH   6  13
BRANCH   5  18
ATOM     18  N   LIG d   1      -6.847  71.877 115.649  0.00  0.00     0.381 N 
ATOM     19  H   LIG d   1      -6.165  71.508 115.016  0.00  0.00    -0.090 HD
ATOM     20  H   LIG d   1      -7.580  72.303 115.110  0.00  0.00    -0.090 HD
ATOM     21  H   LIG d   1      -7.220  71.143 116.210  0.00  0.00    -0.090 HD
ENDBRANCH   5  18
BRANCH   3  22
ATOM     22  C   LIG d   1      -3.969  75.704 115.747  0.00  0.00     0.382 C 
ATOM     23  O   LIG d   1      -3.337  75.191 114.792  0.00  0.00    -0.241 OA
ATOM     24  O   LIG d   1      -3.577  76.782 116.233  0.00  0.00    -0.241 OA
ENDBRANCH   3  22
TORSDOF 7
ENDMDL
MODEL 9
REMARK VINA RESULT:      -5.0     14.241     16.596
REMARK  7 active torsions:
REMARK  status: ('A' for Active; 'I' for Inactive)
REMARK    1  A    between atoms: C_2  and  C_3 
REMARK    2  A    between atoms: C_3  and  O_6 
REMARK    3  A    between atoms: C_3  and  C_4 
REMARK    4  A    between atoms: C_7  and  O_6 
REMARK    5  A    between atoms: C_9  and  C_10 
REMARK    6  A    between atoms: N_15  and  C_14 
REMARK    7  A    between atoms: N_20  and  C_19 
REMARK       I    between atoms: C_22  and  N_20 
ROOT
ATOM      1  C   LIG d   1      -2.748  90.491 117.937  0.00  0.00     0.161 C 
ATOM      2  C   LIG d   1      -3.942  90.206 117.253  0.00  0.00     0.016 C 
ATOM      3  C   LIG d   1      -4.958  91.162 117.029  0.00  0.00     0.038 C 
ATOM      4  C   LIG d   1      -4.783  92.518 117.343  0.00  0.00     0.028 C 
ATOM      5  C   LIG d   1      -3.802  92.753 118.488  0.00  0.00    -0.047 C 
ATOM      6  C   LIG d   1      -2.491  91.992 118.189  0.00  0.00     0.091 C 
ENDROOT
BRANCH   1   7
ATOM      7  O   LIG d   1      -1.633  89.902 117.239  0.00  0.00    -0.368 OA
BRANCH   7   8
ATOM      8  C   LIG d   1      -1.311  88.534 117.593  0.00  0.00     0.119 C 
BRANCH   8   9
ATOM      9  C   LIG d   1      -1.275  88.450 119.131  0.00  0.00     0.028 C 
ATOM     10  C   LIG d   1      -2.230  87.379 119.683  0.00  0.00     0.006 C 
ENDBRANCH   8   9
BRANCH   8  11
ATOM     11  C   LIG d   1       0.100  88.157 117.133  0.00  0.00     0.028 C 
ATOM     12  C   LIG d   1       1.053  89.363 117.084  0.00  0.00     0.006 C 
ENDBRANCH   8  11
ENDBRANCH   7   8
ENDBRANCH   1   7
BRANCH   6  13
ATOM     13  N   LIG d   1      -1.508  92.099 119.298  0.00  0.00    -0.311 N 
ATOM     14  C   LIG d   1      -0.254  92.517 119.129  0.00  0.00     0.210 C 
ATOM     15  C   LIG d   1       0.599  92.533 120.401  0.00  0.00     0.109 C 
ATOM     16  O   LIG d   1       0.223  92.906 118.052  0.00  0.00    -0.276 OA
ATOM     17  H   LIG d   1      -1.820  91.833 120.212  0.00  0.00     0.149 HD
ENDBRANCH   6  13
BRANCH   5  18
ATOM     18  N   LIG d   1      -3.609  94.209 118.618  0.00  0.00     0.381 N 
ATOM     19  H   LIG d   1      -2.775  94.395 119.137  0.00  0.00    -0.090 HD
ATOM     20  H   LIG d   1      -4.387  94.597 119.122  0.00  0.00    -0.090 HD
ATOM     21  H   LIG d   1      -3.547  94.627 117.715  0.00  0.00    -0.090 HD
ENDBRANCH   5  18
BRANCH   3  22
ATOM     22  C   LIG d   1      -6.183  90.758 116.521  0.00  0.00     0.382 C 
ATOM     23  O   LIG d   1      -6.236  89.835 115.672  0.00  0.00    -0.241 OA
ATOM     24  O   LIG d   1      -7.232  91.333 116.867  0.00  0.00    -0.241 OA
ENDBRANCH   3  22
TORSDOF 7
ENDMDL
