MODEL 1
REMARK VINA RESULT:      -5.7      0.000      0.000
REMARK  7 active torsions:
REMARK  status: ('A' for Active; 'I' for Inactive)
REMARK    1  A    between atoms: C_2  and  C_3 
REMARK    2  A    between atoms: C_3  and  O_6 
REMARK    3  A    between atoms: C_3  and  C_4 
REMARK    4  A    between atoms: C_7  and  O_6 
REMARK    5  A    between atoms: C_9  and  C_10 
REMARK    6  A    between atoms: N_15  and  C_14 
REMARK    7  A    between atoms: N_20  and  C_19 
REMARK       I    between atoms: C_22  and  N_20 
ROOT
ATOM      1  C   LIG d   1      -7.320  76.857 117.550  0.00  0.00     0.161 C 
ATOM      2  C   LIG d   1      -8.492  77.576 117.837  0.00  0.00     0.016 C 
ATOM      3  C   LIG d   1      -8.543  78.988 117.902  0.00  0.00     0.038 C 
ATOM      4  C   LIG d   1      -7.450  79.787 117.533  0.00  0.00     0.028 C 
ATOM      5  C   LIG d   1      -6.103  79.097 117.726  0.00  0.00    -0.047 C 
ATOM      6  C   LIG d   1      -6.145  77.714 117.036  0.00  0.00     0.091 C 
ENDROOT
BRANCH   1   7
ATOM      7  O   LIG d   1      -7.613  75.798 116.618  0.00  0.00    -0.368 OA
BRANCH   7   8
ATOM      8  C   LIG d   1      -7.804  74.480 117.190  0.00  0.00     0.119 C 
BRANCH   8   9
ATOM      9  C   LIG d   1      -6.824  73.523 116.484  0.00  0.00     0.028 C 
ATOM     10  C   LIG d   1      -6.146  74.171 115.265  0.00  0.00     0.006 C 
ENDBRANCH   8   9
BRANCH   8  11
ATOM     11  C   LIG d   1      -9.200  73.934 116.877  0.00  0.00     0.028 C 
ATOM     12  C   LIG d   1      -9.228  72.402 116.757  0.00  0.00     0.006 C 
ENDBRANCH   8  11
ENDBRANCH   7   8
ENDBRANCH   1   7
BRANCH   6  13
ATOM     13  N   LIG d   1      -4.895  76.938 117.248  0.00  0.00    -0.311 N 
ATOM     14  C   LIG d   1      -3.886  76.922 116.379  0.00  0.00     0.210 C 
ATOM     15  C   LIG d   1      -2.700  76.040 116.782  0.00  0.00     0.109 C 
ATOM     16  O   LIG d   1      -3.846  77.580 115.329  0.00  0.00    -0.276 OA
ATOM     17  H   LIG d   1      -4.830  76.400 118.090  0.00  0.00     0.149 HD
ENDBRANCH   6  13
BRANCH   5  18
ATOM     18  N   LIG d   1      -5.064  79.987 117.175  0.00  0.00     0.381 N 
ATOM     19  H   LIG d   1      -4.160  79.671 117.463  0.00  0.00    -0.090 HD
ATOM     20  H   LIG d   1      -5.204  80.914 117.537  0.00  0.00    -0.090 HD
ATOM     21  H   LIG d   1      -5.119  80.000 116.180  0.00  0.00    -0.090 HD
ENDBRANCH   5  18
BRANCH   3  22
ATOM     22  C   LIG d   1      -9.685  79.614 118.379  0.00  0.00     0.382 C 
ATOM     23  O   LIG d   1     -10.215  80.538 117.717  0.00  0.00    -0.241 OA
ATOM     24  O   LIG d   1     -10.165  79.295 119.483  0.00  0.00    -0.241 OA
ENDBRANCH   3  22
TORSDOF 7
ENDMDL
MODEL 2
REMARK VINA RESULT:      -5.2      2.095      5.169
REMARK  7 active torsions:
REMARK  status: ('A' for Active; 'I' for Inactive)
REMARK    1  A    between atoms: C_2  and  C_3 
REMARK    2  A    between atoms: C_3  and  O_6 
REMARK    3  A    between atoms: C_3  and  C_4 
REMARK    4  A    between atoms: C_7  and  O_6 
REMARK    5  A    between atoms: C_9  and  C_10 
REMARK    6  A    between atoms: N_15  and  C_14 
REMARK    7  A    between atoms: N_20  and  C_19 
REMARK       I    between atoms: C_22  and  N_20 
ROOT
ATOM      1  C   LIG d   1      -6.946  76.384 117.343  0.00  0.00     0.161 C 
ATOM      2  C   LIG d   1      -7.847  75.335 117.096  0.00  0.00     0.016 C 
ATOM      3  C   LIG d   1      -7.457  73.979 117.009  0.00  0.00     0.038 C 
ATOM      4  C   LIG d   1      -6.154  73.561 117.314  0.00  0.00     0.028 C 
ATOM      5  C   LIG d   1      -5.100  74.637 117.074  0.00  0.00    -0.047 C 
ATOM      6  C   LIG d   1      -5.538  75.936 117.789  0.00  0.00     0.091 C 
ENDROOT
BRANCH   1   7
ATOM      7  O   LIG d   1      -7.510  77.296 118.306  0.00  0.00    -0.368 OA
BRANCH   7   8
ATOM      8  C   LIG d   1      -7.997  78.556 117.782  0.00  0.00     0.119 C 
BRANCH   8   9
ATOM      9  C   LIG d   1      -7.142  79.677 118.402  0.00  0.00     0.028 C 
ATOM     10  C   LIG d   1      -6.166  80.300 117.389  0.00  0.00     0.006 C 
ENDBRANCH   8   9
BRANCH   8  11
ATOM     11  C   LIG d   1      -9.430  78.835 118.245  0.00  0.00     0.028 C 
ATOM     12  C   LIG d   1      -9.816  80.318 118.125  0.00  0.00     0.006 C 
ENDBRANCH   8  11
ENDBRANCH   7   8
ENDBRANCH   1   7
BRANCH   6  13
ATOM     13  N   LIG d   1      -4.606  77.065 117.536  0.00  0.00    -0.311 N 
ATOM     14  C   LIG d   1      -3.609  77.391 118.357  0.00  0.00     0.210 C 
ATOM     15  C   LIG d   1      -2.779  78.601 117.918  0.00  0.00     0.109 C 
ATOM     16  O   LIG d   1      -3.313  76.773 119.391  0.00  0.00    -0.276 OA
ATOM     17  H   LIG d   1      -4.754  77.601 116.703  0.00  0.00     0.149 HD
ENDBRANCH   6  13
BRANCH   5  18
ATOM     18  N   LIG d   1      -3.810  74.115 117.563  0.00  0.00     0.381 N 
ATOM     19  H   LIG d   1      -3.579  74.546 118.436  0.00  0.00    -0.090 HD
ATOM     20  H   LIG d   1      -3.093  74.347 116.898  0.00  0.00    -0.090 HD
ATOM     21  H   LIG d   1      -3.863  73.127 117.675  0.00  0.00    -0.090 HD
ENDBRANCH   5  18
BRANCH   3  22
ATOM     22  C   LIG d   1      -8.368  73.029 116.572  0.00  0.00     0.382 C 
ATOM     23  O   LIG d   1      -8.055  72.237 115.651  0.00  0.00    -0.241 OA
ATOM     24  O   LIG d   1      -9.514  72.983 117.058  0.00  0.00    -0.241 OA
ENDBRANCH   3  22
TORSDOF 7
ENDMDL
MODEL 3
REMARK VINA RESULT:      -5.2      2.320      3.481
REMARK  7 active torsions:
REMARK  status: ('A' for Active; 'I' for Inactive)
REMARK    1  A    between atoms: C_2  and  C_3 
REMARK    2  A    between atoms: C_3  and  O_6 
REMARK    3  A    between atoms: C_3  and  C_4 
REMARK    4  A    between atoms: C_7  and  O_6 
REMARK    5  A    between atoms: C_9  and  C_10 
REMARK    6  A    between atoms: N_15  and  C_14 
REMARK    7  A    between atoms: N_20  and  C_19 
REMARK       I    between atoms: C_22  and  N_20 
ROOT
ATOM      1  C   LIG d   1      -4.825  75.343 117.975  0.00  0.00     0.161 C 
ATOM      2  C   LIG d   1      -5.798  76.330 117.746  0.00  0.00     0.016 C 
ATOM      3  C   LIG d   1      -5.497  77.617 117.243  0.00  0.00     0.038 C 
ATOM      4  C   LIG d   1      -4.213  77.955 116.790  0.00  0.00     0.028 C 
ATOM      5  C   LIG d   1      -3.103  77.163 117.472  0.00  0.00    -0.047 C 
ATOM      6  C   LIG d   1      -3.435  75.656 117.383  0.00  0.00     0.091 C 
ENDROOT
BRANCH   1   7
ATOM      7  O   LIG d   1      -5.299  74.069 117.496  0.00  0.00    -0.368 OA
BRANCH   7   8
ATOM      8  C   LIG d   1      -6.504  74.098 116.694  0.00  0.00     0.119 C 
BRANCH   8   9
ATOM      9  C   LIG d   1      -7.464  73.034 117.261  0.00  0.00     0.028 C 
ATOM     10  C   LIG d   1      -8.402  72.457 116.188  0.00  0.00     0.006 C 
ENDBRANCH   8   9
BRANCH   8  11
ATOM     11  C   LIG d   1      -6.225  73.664 115.252  0.00  0.00     0.028 C 
ATOM     12  C   LIG d   1      -5.507  74.748 114.432  0.00  0.00     0.006 C 
ENDBRANCH   8  11
ENDBRANCH   7   8
ENDBRANCH   1   7
BRANCH   6  13
ATOM     13  N   LIG d   1      -2.441  74.814 118.100  0.00  0.00    -0.311 N 
ATOM     14  C   LIG d   1      -1.403  74.233 117.500  0.00  0.00     0.210 C 
ATOM     15  C   LIG d   1      -0.513  73.392 118.419  0.00  0.00     0.109 C 
ATOM     16  O   LIG d   1      -1.118  74.362 116.300  0.00  0.00    -0.276 OA
ATOM     17  H   LIG d   1      -2.579  74.682 119.083  0.00  0.00     0.149 HD
ENDBRANCH   6  13
BRANCH   5  18
ATOM     18  N   LIG d   1      -1.833  77.515 116.810  0.00  0.00     0.381 N 
ATOM     19  H   LIG d   1      -1.249  76.705 116.744  0.00  0.00    -0.090 HD
ATOM     20  H   LIG d   1      -1.356  78.203 117.366  0.00  0.00    -0.090 HD
ATOM     21  H   LIG d   1      -2.012  77.880 115.900  0.00  0.00    -0.090 HD
ENDBRANCH   5  18
BRANCH   3  22
ATOM     22  C   LIG d   1      -6.480  78.595 117.226  0.00  0.00     0.382 C 
ATOM     23  O   LIG d   1      -6.201  79.758 116.849  0.00  0.00    -0.241 OA
ATOM     24  O   LIG d   1      -7.632  78.340 117.625  0.00  0.00    -0.241 OA
ENDBRANCH   3  22
TORSDOF 7
ENDMDL
MODEL 4
REMARK VINA RESULT:      -5.1      1.859      2.748
REMARK  7 active torsions:
REMARK  status: ('A' for Active; 'I' for Inactive)
REMARK    1  A    between atoms: C_2  and  C_3 
REMARK    2  A    between atoms: C_3  and  O_6 
REMARK    3  A    between atoms: C_3  and  C_4 
REMARK    4  A    between atoms: C_7  and  O_6 
REMARK    5  A    between atoms: C_9  and  C_10 
REMARK    6  A    between atoms: N_15  and  C_14 
REMARK    7  A    between atoms: N_20  and  C_19 
REMARK       I    between atoms: C_22  and  N_20 
ROOT
ATOM      1  C   LIG d   1      -6.214  77.970 117.342  0.00  0.00     0.161 C 
ATOM      2  C   LIG d   1      -7.574  77.797 117.648  0.00  0.00     0.016 C 
ATOM      3  C   LIG d   1      -8.448  78.869 117.940  0.00  0.00     0.038 C 
ATOM      4  C   LIG d   1      -8.054  80.208 117.797  0.00  0.00     0.028 C 
ATOM      5  C   LIG d   1      -6.555  80.421 117.981  0.00  0.00    -0.047 C 
ATOM      6  C   LIG d   1      -5.792  79.430 117.072  0.00  0.00     0.091 C 
ENDROOT
BRANCH   1   7
ATOM      7  O   LIG d   1      -5.853  77.130 116.228  0.00  0.00    -0.368 OA
BRANCH   7   8
ATOM      8  C   LIG d   1      -5.475  75.769 116.552  0.00  0.00     0.119 C 
BRANCH   8   9
ATOM      9  C   LIG d   1      -3.944  75.668 116.408  0.00  0.00     0.028 C 
ATOM     10  C   LIG d   1      -3.321  74.707 117.435  0.00  0.00     0.006 C 
ENDBRANCH   8   9
BRANCH   8  11
ATOM     11  C   LIG d   1      -6.044  74.776 115.535  0.00  0.00     0.028 C 
ATOM     12  C   LIG d   1      -5.343  74.853 114.169  0.00  0.00     0.006 C 
ENDBRANCH   8  11
ENDBRANCH   7   8
ENDBRANCH   1   7
BRANCH   6  13
ATOM     13  N   LIG d   1      -4.319  79.513 117.254  0.00  0.00    -0.311 N 
ATOM     14  C   LIG d   1      -3.527  80.258 116.485  0.00  0.00     0.210 C 
ATOM     15  C   LIG d   1      -2.036  80.185 116.830  0.00  0.00     0.109 C 
ATOM     16  O   LIG d   1      -3.921  80.997 115.570  0.00  0.00    -0.276 OA
ATOM     17  H   LIG d   1      -3.919  78.970 117.993  0.00  0.00     0.149 HD
ENDBRANCH   6  13
BRANCH   5  18
ATOM     18  N   LIG d   1      -6.264  81.833 117.669  0.00  0.00     0.381 N 
ATOM     19  H   LIG d   1      -5.395  81.899 117.178  0.00  0.00    -0.090 HD
ATOM     20  H   LIG d   1      -6.179  82.345 118.530  0.00  0.00    -0.090 HD
ATOM     21  H   LIG d   1      -6.997  82.218 117.116  0.00  0.00    -0.090 HD
ENDBRANCH   5  18
BRANCH   3  22
ATOM     22  C   LIG d   1      -9.723  78.606 118.419  0.00  0.00     0.382 C 
ATOM     23  O   LIG d   1     -10.180  79.268 119.382  0.00  0.00    -0.241 OA
ATOM     24  O   LIG d   1     -10.404  77.685 117.930  0.00  0.00    -0.241 OA
ENDBRANCH   3  22
TORSDOF 7
ENDMDL
MODEL 5
REMARK VINA RESULT:      -4.8      2.840      5.937
REMARK  7 active torsions:
REMARK  status: ('A' for Active; 'I' for Inactive)
REMARK    1  A    between atoms: C_2  and  C_3 
REMARK    2  A    between atoms: C_3  and  O_6 
REMARK    3  A    between atoms: C_3  and  C_4 
REMARK    4  A    between atoms: C_7  and  O_6 
REMARK    5  A    between atoms: C_9  and  C_10 
REMARK    6  A    between atoms: N_15  and  C_14 
REMARK    7  A    between atoms: N_20  and  C_19 
REMARK       I    between atoms: C_22  and  N_20 
ROOT
ATOM      1  C   LIG d   1      -4.038  75.210 117.486  0.00  0.00     0.161 C 
ATOM      2  C   LIG d   1      -2.949  74.326 117.570  0.00  0.00     0.016 C 
ATOM      3  C   LIG d   1      -1.754  74.627 118.263  0.00  0.00     0.038 C 
ATOM      4  C   LIG d   1      -1.625  75.780 119.052  0.00  0.00     0.028 C 
ATOM      5  C   LIG d   1      -2.507  76.934 118.588  0.00  0.00    -0.047 C 
ATOM      6  C   LIG d   1      -3.959  76.426 118.433  0.00  0.00     0.091 C 
ENDROOT
BRANCH   1   7
ATOM      7  O   LIG d   1      -5.269  74.490 117.697  0.00  0.00    -0.368 OA
BRANCH   7   8
ATOM      8  C   LIG d   1      -5.945  74.020 116.505  0.00  0.00     0.119 C 
BRANCH   8   9
ATOM      9  C   LIG d   1      -5.953  75.180 115.490  0.00  0.00     0.028 C 
ATOM     10  C   LIG d   1      -5.383  74.767 114.122  0.00  0.00     0.006 C 
ENDBRANCH   8   9
BRANCH   8  11
ATOM     11  C   LIG d   1      -7.420  73.716 116.784  0.00  0.00     0.028 C 
ATOM     12  C   LIG d   1      -7.921  72.467 116.041  0.00  0.00     0.006 C 
ENDBRANCH   8  11
ENDBRANCH   7   8
ENDBRANCH   1   7
BRANCH   6  13
ATOM     13  N   LIG d   1      -4.872  77.471 117.901  0.00  0.00    -0.311 N 
ATOM     14  C   LIG d   1      -6.024  77.802 118.482  0.00  0.00     0.210 C 
ATOM     15  C   LIG d   1      -6.823  78.891 117.758  0.00  0.00     0.109 C 
ATOM     16  O   LIG d   1      -6.444  77.322 119.545  0.00  0.00    -0.276 OA
ATOM     17  H   LIG d   1      -4.593  77.934 117.058  0.00  0.00     0.149 HD
ENDBRANCH   6  13
BRANCH   5  18
ATOM     18  N   LIG d   1      -2.377  78.021 119.577  0.00  0.00     0.381 N 
ATOM     19  H   LIG d   1      -1.511  77.929 120.069  0.00  0.00    -0.090 HD
ATOM     20  H   LIG d   1      -3.127  77.947 120.241  0.00  0.00    -0.090 HD
ATOM     21  H   LIG d   1      -2.415  78.905 119.119  0.00  0.00    -0.090 HD
ENDBRANCH   5  18
BRANCH   3  22
ATOM     22  C   LIG d   1      -0.657  73.789 118.138  0.00  0.00     0.382 C 
ATOM     23  O   LIG d   1      -0.413  73.235 117.039  0.00  0.00    -0.241 OA
ATOM     24  O   LIG d   1       0.066  73.543 119.122  0.00  0.00    -0.241 OA
ENDBRANCH   3  22
TORSDOF 7
ENDMDL
MODEL 6
REMARK VINA RESULT:      -4.7      2.150      4.863
REMARK  7 active torsions:
REMARK  status: ('A' for Active; 'I' for Inactive)
REMARK    1  A    between atoms: C_2  and  C_3 
REMARK    2  A    between atoms: C_3  and  O_6 
REMARK    3  A    between atoms: C_3  and  C_4 
REMARK    4  A    between atoms: C_7  and  O_6 
REMARK    5  A    between atoms: C_9  and  C_10 
REMARK    6  A    between atoms: N_15  and  C_14 
REMARK    7  A    between atoms: N_20  and  C_19 
REMARK       I    between atoms: C_22  and  N_20 
ROOT
ATOM      1  C   LIG d   1      -6.259  76.620 116.446  0.00  0.00     0.161 C 
ATOM      2  C   LIG d   1      -7.326  75.737 116.683  0.00  0.00     0.016 C 
ATOM      3  C   LIG d   1      -7.152  74.415 117.152  0.00  0.00     0.038 C 
ATOM      4  C   LIG d   1      -5.901  73.933 117.564  0.00  0.00     0.028 C 
ATOM      5  C   LIG d   1      -4.729  74.617 116.869  0.00  0.00    -0.047 C 
ATOM      6  C   LIG d   1      -4.896  76.149 116.995  0.00  0.00     0.091 C 
ENDROOT
BRANCH   1   7
ATOM      7  O   LIG d   1      -6.582  77.926 116.962  0.00  0.00    -0.368 OA
BRANCH   7   8
ATOM      8  C   LIG d   1      -7.376  77.954 118.174  0.00  0.00     0.119 C 
BRANCH   8   9
ATOM      9  C   LIG d   1      -8.441  79.055 118.005  0.00  0.00     0.028 C 
ATOM     10  C   LIG d   1      -9.833  78.602 118.475  0.00  0.00     0.006 C 
ENDBRANCH   8   9
BRANCH   8  11
ATOM     11  C   LIG d   1      -6.536  78.385 119.380  0.00  0.00     0.028 C 
ATOM     12  C   LIG d   1      -6.125  77.203 120.273  0.00  0.00     0.006 C 
ENDBRANCH   8  11
ENDBRANCH   7   8
ENDBRANCH   1   7
BRANCH   6  13
ATOM     13  N   LIG d   1      -3.836  76.896 116.269  0.00  0.00    -0.311 N 
ATOM     14  C   LIG d   1      -3.573  76.724 114.975  0.00  0.00     0.210 C 
ATOM     15  C   LIG d   1      -2.427  77.581 114.429  0.00  0.00     0.109 C 
ATOM     16  O   LIG d   1      -4.201  75.967 114.220  0.00  0.00    -0.276 OA
ATOM     17  H   LIG d   1      -3.298  77.554 116.799  0.00  0.00     0.149 HD
ENDBRANCH   6  13
BRANCH   5  18
ATOM     18  N   LIG d   1      -3.488  74.118 117.490  0.00  0.00     0.381 N 
ATOM     19  H   LIG d   1      -3.686  73.299 118.030  0.00  0.00    -0.090 HD
ATOM     20  H   LIG d   1      -3.127  74.823 118.108  0.00  0.00    -0.090 HD
ATOM     21  H   LIG d   1      -2.815  73.906 116.787  0.00  0.00    -0.090 HD
ENDBRANCH   5  18
BRANCH   3  22
ATOM     22  C   LIG d   1      -8.233  73.546 117.176  0.00  0.00     0.382 C 
ATOM     23  O   LIG d   1      -8.055  72.331 117.431  0.00  0.00    -0.241 OA
ATOM     24  O   LIG d   1      -9.377  73.955 116.903  0.00  0.00    -0.241 OA
ENDBRANCH   3  22
TORSDOF 7
ENDMDL
MODEL 7
REMARK VINA RESULT:      -4.7     12.489     14.343
REMARK  7 active torsions:
REMARK  status: ('A' for Active; 'I' for Inactive)
REMARK    1  A    between atoms: C_2  and  C_3 
REMARK    2  A    between atoms: C_3  and  O_6 
REMARK    3  A    between atoms: C_3  and  C_4 
REMARK    4  A    between atoms: C_7  and  O_6 
REMARK    5  A    between atoms: C_9  and  C_10 
REMARK    6  A    between atoms: N_15  and  C_14 
REMARK    7  A    between atoms: N_20  and  C_19 
REMARK       I    between atoms: C_22  and  N_20 
ROOT
ATOM      1  C   LIG d   1     -16.292  65.566 118.134  0.00  0.00     0.161 C 
ATOM      2  C   LIG d   1     -16.531  66.937 118.328  0.00  0.00     0.016 C 
ATOM      3  C   LIG d   1     -15.657  67.787 119.043  0.00  0.00     0.038 C 
ATOM      4  C   LIG d   1     -14.400  67.351 119.488  0.00  0.00     0.028 C 
ATOM      5  C   LIG d   1     -14.338  65.851 119.756  0.00  0.00    -0.047 C 
ATOM      6  C   LIG d   1     -14.872  65.098 118.516  0.00  0.00     0.091 C 
ENDROOT
BRANCH   1   7
ATOM      7  O   LIG d   1     -16.588  65.206 116.770  0.00  0.00    -0.368 OA
BRANCH   7   8
ATOM      8  C   LIG d   1     -16.866  66.305 115.867  0.00  0.00     0.119 C 
BRANCH   8   9
ATOM      9  C   LIG d   1     -18.083  65.902 115.010  0.00  0.00     0.028 C 
ATOM     10  C   LIG d   1     -17.690  65.026 113.809  0.00  0.00     0.006 C 
ENDBRANCH   8   9
BRANCH   8  11
ATOM     11  C   LIG d   1     -15.721  66.513 114.873  0.00  0.00     0.028 C 
ATOM     12  C   LIG d   1     -15.003  67.858 115.063  0.00  0.00     0.006 C 
ENDBRANCH   8  11
ENDBRANCH   7   8
ENDBRANCH   1   7
BRANCH   6  13
ATOM     13  N   LIG d   1     -14.925  63.628 118.726  0.00  0.00    -0.311 N 
ATOM     14  C   LIG d   1     -13.963  62.796 118.331  0.00  0.00     0.210 C 
ATOM     15  C   LIG d   1     -14.226  61.316 118.627  0.00  0.00     0.109 C 
ATOM     16  O   LIG d   1     -12.902  63.146 117.792  0.00  0.00    -0.276 OA
ATOM     17  H   LIG d   1     -15.737  63.261 119.184  0.00  0.00     0.149 HD
ENDBRANCH   6  13
BRANCH   5  18
ATOM     18  N   LIG d   1     -12.939  65.513 120.079  0.00  0.00     0.381 N 
ATOM     19  H   LIG d   1     -12.690  65.910 120.963  0.00  0.00    -0.090 HD
ATOM     20  H   LIG d   1     -12.339  65.908 119.376  0.00  0.00    -0.090 HD
ATOM     21  H   LIG d   1     -12.825  64.524 120.107  0.00  0.00    -0.090 HD
ENDBRANCH   5  18
BRANCH   3  22
ATOM     22  C   LIG d   1     -16.055  69.077 119.356  0.00  0.00     0.382 C 
ATOM     23  O   LIG d   1     -16.192  69.929 118.444  0.00  0.00    -0.241 OA
ATOM     24  O   LIG d   1     -16.237  69.413 120.541  0.00  0.00    -0.241 OA
ENDBRANCH   3  22
TORSDOF 7
ENDMDL
MODEL 8
REMARK VINA RESULT:      -4.7     12.638     15.214
REMARK  7 active torsions:
REMARK  status: ('A' for Active; 'I' for Inactive)
REMARK    1  A    between atoms: C_2  and  C_3 
REMARK    2  A    between atoms: C_3  and  O_6 
REMARK    3  A    between atoms: C_3  and  C_4 
REMARK    4  A    between atoms: C_7  and  O_6 
REMARK    5  A    between atoms: C_9  and  C_10 
REMARK    6  A    between atoms: N_15  and  C_14 
REMARK    7  A    between atoms: N_20  and  C_19 
REMARK       I    between atoms: C_22  and  N_20 
ROOT
ATOM      1  C   LIG d   1       0.029  90.068 116.415  0.00  0.00     0.161 C 
ATOM      2  C   LIG d   1       1.243  90.642 116.828  0.00  0.00     0.016 C 
ATOM      3  C   LIG d   1       1.330  91.666 117.799  0.00  0.00     0.038 C 
ATOM      4  C   LIG d   1       0.213  92.084 118.538  0.00  0.00     0.028 C 
ATOM      5  C   LIG d   1      -1.108  91.891 117.800  0.00  0.00    -0.047 C 
ATOM      6  C   LIG d   1      -1.189  90.434 117.290  0.00  0.00     0.091 C 
ENDROOT
BRANCH   1   7
ATOM      7  O   LIG d   1       0.170  88.637 116.326  0.00  0.00    -0.368 OA
BRANCH   7   8
ATOM      8  C   LIG d   1      -0.446  87.868 117.388  0.00  0.00     0.119 C 
BRANCH   8   9
ATOM      9  C   LIG d   1       0.686  87.315 118.276  0.00  0.00     0.028 C 
ATOM     10  C   LIG d   1       0.747  88.008 119.648  0.00  0.00     0.006 C 
ENDBRANCH   8   9
BRANCH   8  11
ATOM     11  C   LIG d   1      -1.168  86.635 116.837  0.00  0.00     0.028 C 
ATOM     12  C   LIG d   1      -0.498  86.066 115.576  0.00  0.00     0.006 C 
ENDBRANCH   8  11
ENDBRANCH   7   8
ENDBRANCH   1   7
BRANCH   6  13
ATOM     13  N   LIG d   1      -2.412  90.182 116.484  0.00  0.00    -0.311 N 
ATOM     14  C   LIG d   1      -3.529  89.662 116.990  0.00  0.00     0.210 C 
ATOM     15  C   LIG d   1      -4.666  89.467 115.982  0.00  0.00     0.109 C 
ATOM     16  O   LIG d   1      -3.697  89.374 118.184  0.00  0.00    -0.276 OA
ATOM     17  H   LIG d   1      -2.374  90.417 115.511  0.00  0.00     0.149 HD
ENDBRANCH   6  13
BRANCH   5  18
ATOM     18  N   LIG d   1      -2.195  92.237 118.734  0.00  0.00     0.381 N 
ATOM     19  H   LIG d   1      -2.678  93.050 118.406  0.00  0.00    -0.090 HD
ATOM     20  H   LIG d   1      -1.797  92.448 119.632  0.00  0.00    -0.090 HD
ATOM     21  H   LIG d   1      -2.831  91.475 118.815  0.00  0.00    -0.090 HD
ENDBRANCH   5  18
BRANCH   3  22
ATOM     22  C   LIG d   1       2.538  92.311 118.011  0.00  0.00     0.382 C 
ATOM     23  O   LIG d   1       2.779  92.843 119.122  0.00  0.00    -0.241 OA
ATOM     24  O   LIG d   1       3.373  92.407 117.092  0.00  0.00    -0.241 OA
ENDBRANCH   3  22
TORSDOF 7
ENDMDL
MODEL 9
REMARK VINA RESULT:      -4.6     11.861     14.133
REMARK  7 active torsions:
REMARK  status: ('A' for Active; 'I' for Inactive)
REMARK    1  A    between atoms: C_2  and  C_3 
REMARK    2  A    between atoms: C_3  and  O_6 
REMARK    3  A    between atoms: C_3  and  C_4 
REMARK    4  A    between atoms: C_7  and  O_6 
REMARK    5  A    between atoms: C_9  and  C_10 
REMARK    6  A    between atoms: N_15  and  C_14 
REMARK    7  A    between atoms: N_20  and  C_19 
REMARK       I    between atoms: C_22  and  N_20 
ROOT
ATOM      1  C   LIG d   1      -1.505  89.229 118.546  0.00  0.00     0.161 C 
ATOM      2  C   LIG d   1      -2.811  89.026 118.070  0.00  0.00     0.016 C 
ATOM      3  C   LIG d   1      -3.555  90.019 117.393  0.00  0.00     0.038 C 
ATOM      4  C   LIG d   1      -2.984  91.242 117.011  0.00  0.00     0.028 C 
ATOM      5  C   LIG d   1      -1.835  91.682 117.911  0.00  0.00    -0.047 C 
ATOM      6  C   LIG d   1      -0.825  90.518 118.041  0.00  0.00     0.091 C 
ENDROOT
BRANCH   1   7
ATOM      7  O   LIG d   1      -0.690  88.080 118.241  0.00  0.00    -0.368 OA
BRANCH   7   8
ATOM      8  C   LIG d   1      -0.576  87.733 116.839  0.00  0.00     0.119 C 
BRANCH   8   9
ATOM      9  C   LIG d   1      -0.856  86.223 116.711  0.00  0.00     0.028 C 
ATOM     10  C   LIG d   1      -2.074  85.926 115.822  0.00  0.00     0.006 C 
ENDBRANCH   8   9
BRANCH   8  11
ATOM     11  C   LIG d   1       0.857  87.925 116.332  0.00  0.00     0.028 C 
ATOM     12  C   LIG d   1       1.897  87.899 117.463  0.00  0.00     0.006 C 
ENDBRANCH   8  11
ENDBRANCH   7   8
ENDBRANCH   1   7
BRANCH   6  13
ATOM     13  N   LIG d   1       0.288  90.835 118.973  0.00  0.00    -0.311 N 
ATOM     14  C   LIG d   1       1.448  91.358 118.579  0.00  0.00     0.210 C 
ATOM     15  C   LIG d   1       2.468  91.588 119.699  0.00  0.00     0.109 C 
ATOM     16  O   LIG d   1       1.718  91.683 117.412  0.00  0.00    -0.276 OA
ATOM     17  H   LIG d   1       0.143  90.632 119.942  0.00  0.00     0.149 HD
ENDBRANCH   6  13
BRANCH   5  18
ATOM     18  N   LIG d   1      -1.244  92.897 117.319  0.00  0.00     0.381 N 
ATOM     19  H   LIG d   1      -1.801  93.694 117.554  0.00  0.00    -0.090 HD
ATOM     20  H   LIG d   1      -1.238  92.801 116.319  0.00  0.00    -0.090 HD
ATOM     21  H   LIG d   1      -0.314  93.022 117.654  0.00  0.00    -0.090 HD
ENDBRANCH   5  18
BRANCH   3  22
ATOM     22  C   LIG d   1      -4.900  89.808 117.127  0.00  0.00     0.382 C 
ATOM     23  O   LIG d   1      -5.770  90.223 117.930  0.00  0.00    -0.241 OA
ATOM     24  O   LIG d   1      -5.251  89.170 116.117  0.00  0.00    -0.241 OA
ENDBRANCH   3  22
TORSDOF 7
ENDMDL
