MODEL 1
REMARK VINA RESULT:      -6.1      0.000      0.000
REMARK  7 active torsions:
REMARK  status: ('A' for Active; 'I' for Inactive)
REMARK    1  A    between atoms: C_2  and  C_3 
REMARK    2  A    between atoms: C_3  and  O_6 
REMARK    3  A    between atoms: C_3  and  C_4 
REMARK    4  A    between atoms: C_7  and  O_6 
REMARK    5  A    between atoms: C_9  and  C_10 
REMARK    6  A    between atoms: N_15  and  C_14 
REMARK    7  A    between atoms: N_20  and  C_19 
REMARK       I    between atoms: C_22  and  N_20 
ROOT
ATOM      1  C   LIG d   1      -8.416  74.640 117.737  0.00  0.00     0.161 C 
ATOM      2  C   LIG d   1      -8.020  73.439 117.125  0.00  0.00     0.016 C 
ATOM      3  C   LIG d   1      -8.809  72.265 117.132  0.00  0.00     0.038 C 
ATOM      4  C   LIG d   1     -10.122  72.258 117.624  0.00  0.00     0.028 C 
ATOM      5  C   LIG d   1     -10.372  73.308 118.701  0.00  0.00    -0.047 C 
ATOM      6  C   LIG d   1      -9.892  74.683 118.182  0.00  0.00     0.091 C 
ENDROOT
BRANCH   1   7
ATOM      7  O   LIG d   1      -8.122  75.751 116.867  0.00  0.00    -0.368 OA
BRANCH   7   8
ATOM      8  C   LIG d   1      -6.719  76.009 116.614  0.00  0.00     0.119 C 
BRANCH   8   9
ATOM      9  C   LIG d   1      -6.423  77.450 117.073  0.00  0.00     0.028 C 
ATOM     10  C   LIG d   1      -7.560  78.040 117.925  0.00  0.00     0.006 C 
ENDBRANCH   8   9
BRANCH   8  11
ATOM     11  C   LIG d   1      -6.410  75.990 115.114  0.00  0.00     0.028 C 
ATOM     12  C   LIG d   1      -5.863  74.636 114.636  0.00  0.00     0.006 C 
ENDBRANCH   8  11
ENDBRANCH   7   8
ENDBRANCH   1   7
BRANCH   6  13
ATOM     13  N   LIG d   1     -10.023  75.753 119.206  0.00  0.00    -0.311 N 
ATOM     14  C   LIG d   1     -11.071  76.571 119.281  0.00  0.00     0.210 C 
ATOM     15  C   LIG d   1     -10.995  77.616 120.399  0.00  0.00     0.109 C 
ATOM     16  O   LIG d   1     -12.070  76.510 118.550  0.00  0.00    -0.276 OA
ATOM     17  H   LIG d   1      -9.271  75.852 119.859  0.00  0.00     0.149 HD
ENDBRANCH   6  13
BRANCH   5  18
ATOM     18  N   LIG d   1     -11.810  73.282 119.025  0.00  0.00     0.381 N 
ATOM     19  H   LIG d   1     -12.265  72.568 118.491  0.00  0.00    -0.090 HD
ATOM     20  H   LIG d   1     -12.216  74.168 118.777  0.00  0.00    -0.090 HD
ATOM     21  H   LIG d   1     -11.938  73.110 119.998  0.00  0.00    -0.090 HD
ENDBRANCH   5  18
BRANCH   3  22
ATOM     22  C   LIG d   1      -8.268  71.072 116.678  0.00  0.00     0.382 C 
ATOM     23  O   LIG d   1      -7.323  71.085 115.854  0.00  0.00    -0.241 OA
ATOM     24  O   LIG d   1      -8.744  69.982 117.048  0.00  0.00    -0.241 OA
ENDBRANCH   3  22
TORSDOF 7
ENDMDL
MODEL 2
REMARK VINA RESULT:      -5.8      2.115      3.861
REMARK  7 active torsions:
REMARK  status: ('A' for Active; 'I' for Inactive)
REMARK    1  A    between atoms: C_2  and  C_3 
REMARK    2  A    between atoms: C_3  and  O_6 
REMARK    3  A    between atoms: C_3  and  C_4 
REMARK    4  A    between atoms: C_7  and  O_6 
REMARK    5  A    between atoms: C_9  and  C_10 
REMARK    6  A    between atoms: N_15  and  C_14 
REMARK    7  A    between atoms: N_20  and  C_19 
REMARK       I    between atoms: C_22  and  N_20 
ROOT
ATOM      1  C   LIG d   1      -8.539  74.564 117.876  0.00  0.00     0.161 C 
ATOM      2  C   LIG d   1      -7.388  74.771 117.098  0.00  0.00     0.016 C 
ATOM      3  C   LIG d   1      -6.809  73.770 116.284  0.00  0.00     0.038 C 
ATOM      4  C   LIG d   1      -7.434  72.531 116.075  0.00  0.00     0.028 C 
ATOM      5  C   LIG d   1      -8.327  72.101 117.233  0.00  0.00    -0.047 C 
ATOM      6  C   LIG d   1      -9.297  73.255 117.575  0.00  0.00     0.091 C 
ENDROOT
BRANCH   1   7
ATOM      7  O   LIG d   1      -9.423  75.696 117.750  0.00  0.00    -0.368 OA
BRANCH   7   8
ATOM      8  C   LIG d   1      -9.380  76.661 118.829  0.00  0.00     0.119 C 
BRANCH   8   9
ATOM      9  C   LIG d   1     -10.834  77.050 119.161  0.00  0.00     0.028 C 
ATOM     10  C   LIG d   1     -11.267  76.565 120.555  0.00  0.00     0.006 C 
ENDBRANCH   8   9
BRANCH   8  11
ATOM     11  C   LIG d   1      -8.704  77.962 118.386  0.00  0.00     0.028 C 
ATOM     12  C   LIG d   1      -9.529  79.211 118.734  0.00  0.00     0.006 C 
ENDBRANCH   8  11
ENDBRANCH   7   8
ENDBRANCH   1   7
BRANCH   6  13
ATOM     13  N   LIG d   1     -10.150  72.948 118.752  0.00  0.00    -0.311 N 
ATOM     14  C   LIG d   1     -11.423  73.327 118.854  0.00  0.00     0.210 C 
ATOM     15  C   LIG d   1     -12.115  72.925 120.160  0.00  0.00     0.109 C 
ATOM     16  O   LIG d   1     -12.054  73.931 117.973  0.00  0.00    -0.276 OA
ATOM     17  H   LIG d   1      -9.728  72.434 119.501  0.00  0.00     0.149 HD
ENDBRANCH   6  13
BRANCH   5  18
ATOM     18  N   LIG d   1      -9.021  70.864 116.825  0.00  0.00     0.381 N 
ATOM     19  H   LIG d   1      -9.030  70.214 117.585  0.00  0.00    -0.090 HD
ATOM     20  H   LIG d   1      -8.520  70.448 116.060  0.00  0.00    -0.090 HD
ATOM     21  H   LIG d   1      -9.954  71.073 116.545  0.00  0.00    -0.090 HD
ENDBRANCH   5  18
BRANCH   3  22
ATOM     22  C   LIG d   1      -5.571  73.990 115.700  0.00  0.00     0.382 C 
ATOM     23  O   LIG d   1      -4.563  74.185 116.421  0.00  0.00    -0.241 OA
ATOM     24  O   LIG d   1      -5.457  74.040 114.460  0.00  0.00    -0.241 OA
ENDBRANCH   3  22
TORSDOF 7
ENDMDL
MODEL 3
REMARK VINA RESULT:      -5.3      1.750      2.332
REMARK  7 active torsions:
REMARK  status: ('A' for Active; 'I' for Inactive)
REMARK    1  A    between atoms: C_2  and  C_3 
REMARK    2  A    between atoms: C_3  and  O_6 
REMARK    3  A    between atoms: C_3  and  C_4 
REMARK    4  A    between atoms: C_7  and  O_6 
REMARK    5  A    between atoms: C_9  and  C_10 
REMARK    6  A    between atoms: N_15  and  C_14 
REMARK    7  A    between atoms: N_20  and  C_19 
REMARK       I    between atoms: C_22  and  N_20 
ROOT
ATOM      1  C   LIG d   1      -7.055  74.477 117.800  0.00  0.00     0.161 C 
ATOM      2  C   LIG d   1      -7.139  73.255 117.113  0.00  0.00     0.016 C 
ATOM      3  C   LIG d   1      -8.326  72.492 117.023  0.00  0.00     0.038 C 
ATOM      4  C   LIG d   1      -9.557  72.978 117.488  0.00  0.00     0.028 C 
ATOM      5  C   LIG d   1      -9.419  73.978 118.632  0.00  0.00    -0.047 C 
ATOM      6  C   LIG d   1      -8.414  75.077 118.220  0.00  0.00     0.091 C 
ENDROOT
BRANCH   1   7
ATOM      7  O   LIG d   1      -6.308  75.428 117.017  0.00  0.00    -0.368 OA
BRANCH   7   8
ATOM      8  C   LIG d   1      -5.258  74.881 116.182  0.00  0.00     0.119 C 
BRANCH   8   9
ATOM      9  C   LIG d   1      -3.919  75.117 116.908  0.00  0.00     0.028 C 
ATOM     10  C   LIG d   1      -3.361  73.833 117.542  0.00  0.00     0.006 C 
ENDBRANCH   8   9
BRANCH   8  11
ATOM     11  C   LIG d   1      -5.143  75.645 114.859  0.00  0.00     0.028 C 
ATOM     12  C   LIG d   1      -6.494  75.807 114.145  0.00  0.00     0.006 C 
ENDBRANCH   8  11
ENDBRANCH   7   8
ENDBRANCH   1   7
BRANCH   6  13
ATOM     13  N   LIG d   1      -8.157  76.050 119.314  0.00  0.00    -0.311 N 
ATOM     14  C   LIG d   1      -8.444  77.347 119.223  0.00  0.00     0.210 C 
ATOM     15  C   LIG d   1      -8.080  78.178 120.458  0.00  0.00     0.109 C 
ATOM     16  O   LIG d   1      -8.994  77.884 118.249  0.00  0.00    -0.276 OA
ATOM     17  H   LIG d   1      -7.741  75.694 120.152  0.00  0.00     0.149 HD
ENDBRANCH   6  13
BRANCH   5  18
ATOM     18  N   LIG d   1     -10.765  74.506 118.926  0.00  0.00     0.381 N 
ATOM     19  H   LIG d   1     -10.690  75.336 119.479  0.00  0.00    -0.090 HD
ATOM     20  H   LIG d   1     -11.275  73.820 119.454  0.00  0.00    -0.090 HD
ATOM     21  H   LIG d   1     -11.246  74.707 118.076  0.00  0.00    -0.090 HD
ENDBRANCH   5  18
BRANCH   3  22
ATOM     22  C   LIG d   1      -8.281  71.210 116.496  0.00  0.00     0.382 C 
ATOM     23  O   LIG d   1      -9.189  70.389 116.768  0.00  0.00    -0.241 OA
ATOM     24  O   LIG d   1      -7.321  70.852 115.788  0.00  0.00    -0.241 OA
ENDBRANCH   3  22
TORSDOF 7
ENDMDL
MODEL 4
REMARK VINA RESULT:      -5.3      2.544      4.618
REMARK  7 active torsions:
REMARK  status: ('A' for Active; 'I' for Inactive)
REMARK    1  A    between atoms: C_2  and  C_3 
REMARK    2  A    between atoms: C_3  and  O_6 
REMARK    3  A    between atoms: C_3  and  C_4 
REMARK    4  A    between atoms: C_7  and  O_6 
REMARK    5  A    between atoms: C_9  and  C_10 
REMARK    6  A    between atoms: N_15  and  C_14 
REMARK    7  A    between atoms: N_20  and  C_19 
REMARK       I    between atoms: C_22  and  N_20 
ROOT
ATOM      1  C   LIG d   1      -8.434  75.015 117.602  0.00  0.00     0.161 C 
ATOM      2  C   LIG d   1      -9.704  74.796 118.162  0.00  0.00     0.016 C 
ATOM      3  C   LIG d   1     -10.247  73.509 118.379  0.00  0.00     0.038 C 
ATOM      4  C   LIG d   1      -9.490  72.343 118.189  0.00  0.00     0.028 C 
ATOM      5  C   LIG d   1      -8.386  72.500 117.150  0.00  0.00    -0.047 C 
ATOM      6  C   LIG d   1      -7.550  73.755 117.492  0.00  0.00     0.091 C 
ENDROOT
BRANCH   1   7
ATOM      7  O   LIG d   1      -7.747  76.047 118.337  0.00  0.00    -0.368 OA
BRANCH   7   8
ATOM      8  C   LIG d   1      -7.862  77.391 117.808  0.00  0.00     0.119 C 
BRANCH   8   9
ATOM      9  C   LIG d   1      -6.450  77.846 117.392  0.00  0.00     0.028 C 
ATOM     10  C   LIG d   1      -6.305  79.377 117.385  0.00  0.00     0.006 C 
ENDBRANCH   8   9
BRANCH   8  11
ATOM     11  C   LIG d   1      -8.304  78.380 118.891  0.00  0.00     0.028 C 
ATOM     12  C   LIG d   1      -9.830  78.560 118.946  0.00  0.00     0.006 C 
ENDBRANCH   8  11
ENDBRANCH   7   8
ENDBRANCH   1   7
BRANCH   6  13
ATOM     13  N   LIG d   1      -6.499  74.030 116.477  0.00  0.00    -0.311 N 
ATOM     14  C   LIG d   1      -5.249  74.367 116.789  0.00  0.00     0.210 C 
ATOM     15  C   LIG d   1      -4.331  74.626 115.591  0.00  0.00     0.109 C 
ATOM     16  O   LIG d   1      -4.805  74.443 117.945  0.00  0.00    -0.276 OA
ATOM     17  H   LIG d   1      -6.766  73.961 115.515  0.00  0.00     0.149 HD
ENDBRANCH   6  13
BRANCH   5  18
ATOM     18  N   LIG d   1      -7.591  71.258 117.153  0.00  0.00     0.381 N 
ATOM     19  H   LIG d   1      -7.949  70.625 116.466  0.00  0.00    -0.090 HD
ATOM     20  H   LIG d   1      -7.671  70.823 118.055  0.00  0.00    -0.090 HD
ATOM     21  H   LIG d   1      -6.635  71.464 116.959  0.00  0.00    -0.090 HD
ENDBRANCH   5  18
BRANCH   3  22
ATOM     22  C   LIG d   1     -11.576  73.378 118.753  0.00  0.00     0.382 C 
ATOM     23  O   LIG d   1     -11.918  72.463 119.540  0.00  0.00    -0.241 OA
ATOM     24  O   LIG d   1     -12.443  74.135 118.279  0.00  0.00    -0.241 OA
ENDBRANCH   3  22
TORSDOF 7
ENDMDL
MODEL 5
REMARK VINA RESULT:      -5.1      2.678      6.029
REMARK  7 active torsions:
REMARK  status: ('A' for Active; 'I' for Inactive)
REMARK    1  A    between atoms: C_2  and  C_3 
REMARK    2  A    between atoms: C_3  and  O_6 
REMARK    3  A    between atoms: C_3  and  C_4 
REMARK    4  A    between atoms: C_7  and  O_6 
REMARK    5  A    between atoms: C_9  and  C_10 
REMARK    6  A    between atoms: N_15  and  C_14 
REMARK    7  A    between atoms: N_20  and  C_19 
REMARK       I    between atoms: C_22  and  N_20 
ROOT
ATOM      1  C   LIG d   1      -7.806  75.024 119.138  0.00  0.00     0.161 C 
ATOM      2  C   LIG d   1      -8.897  75.891 119.313  0.00  0.00     0.016 C 
ATOM      3  C   LIG d   1      -9.013  77.138 118.656  0.00  0.00     0.038 C 
ATOM      4  C   LIG d   1      -8.112  77.537 117.658  0.00  0.00     0.028 C 
ATOM      5  C   LIG d   1      -6.725  76.923 117.814  0.00  0.00    -0.047 C 
ATOM      6  C   LIG d   1      -6.868  75.392 117.969  0.00  0.00     0.091 C 
ENDROOT
BRANCH   1   7
ATOM      7  O   LIG d   1      -8.277  73.669 118.996  0.00  0.00    -0.368 OA
BRANCH   7   8
ATOM      8  C   LIG d   1      -8.712  73.282 117.669  0.00  0.00     0.119 C 
BRANCH   8   9
ATOM      9  C   LIG d   1     -10.253  73.266 117.674  0.00  0.00     0.028 C 
ATOM     10  C   LIG d   1     -10.829  72.614 118.942  0.00  0.00     0.006 C 
ENDBRANCH   8   9
BRANCH   8  11
ATOM     11  C   LIG d   1      -8.293  71.846 117.342  0.00  0.00     0.028 C 
ATOM     12  C   LIG d   1      -7.432  71.751 116.073  0.00  0.00     0.006 C 
ENDBRANCH   8  11
ENDBRANCH   7   8
ENDBRANCH   1   7
BRANCH   6  13
ATOM     13  N   LIG d   1      -5.564  74.722 118.212  0.00  0.00    -0.311 N 
ATOM     14  C   LIG d   1      -4.784  74.261 117.235  0.00  0.00     0.210 C 
ATOM     15  C   LIG d   1      -3.491  73.586 117.704  0.00  0.00     0.109 C 
ATOM     16  O   LIG d   1      -5.025  74.375 116.024  0.00  0.00    -0.276 OA
ATOM     17  H   LIG d   1      -5.276  74.615 119.165  0.00  0.00     0.149 HD
ENDBRANCH   6  13
BRANCH   5  18
ATOM     18  N   LIG d   1      -5.930  77.312 116.634  0.00  0.00     0.381 N 
ATOM     19  H   LIG d   1      -4.955  77.278 116.856  0.00  0.00    -0.090 HD
ATOM     20  H   LIG d   1      -6.163  78.257 116.382  0.00  0.00    -0.090 HD
ATOM     21  H   LIG d   1      -6.126  76.700 115.873  0.00  0.00    -0.090 HD
ENDBRANCH   5  18
BRANCH   3  22
ATOM     22  C   LIG d   1     -10.019  78.019 119.026  0.00  0.00     0.382 C 
ATOM     23  O   LIG d   1     -11.196  77.607 119.155  0.00  0.00    -0.241 OA
ATOM     24  O   LIG d   1      -9.771  79.228 119.188  0.00  0.00    -0.241 OA
ENDBRANCH   3  22
TORSDOF 7
ENDMDL
MODEL 6
REMARK VINA RESULT:      -5.0     10.321     13.086
REMARK  7 active torsions:
REMARK  status: ('A' for Active; 'I' for Inactive)
REMARK    1  A    between atoms: C_2  and  C_3 
REMARK    2  A    between atoms: C_3  and  O_6 
REMARK    3  A    between atoms: C_3  and  C_4 
REMARK    4  A    between atoms: C_7  and  O_6 
REMARK    5  A    between atoms: C_9  and  C_10 
REMARK    6  A    between atoms: N_15  and  C_14 
REMARK    7  A    between atoms: N_20  and  C_19 
REMARK       I    between atoms: C_22  and  N_20 
ROOT
ATOM      1  C   LIG d   1     -17.688  66.052 116.918  0.00  0.00     0.161 C 
ATOM      2  C   LIG d   1     -18.581  65.111 117.456  0.00  0.00     0.016 C 
ATOM      3  C   LIG d   1     -18.863  63.868 116.844  0.00  0.00     0.038 C 
ATOM      4  C   LIG d   1     -18.152  63.414 115.723  0.00  0.00     0.028 C 
ATOM      5  C   LIG d   1     -17.602  64.543 114.858  0.00  0.00    -0.047 C 
ATOM      6  C   LIG d   1     -16.819  65.528 115.755  0.00  0.00     0.091 C 
ENDROOT
BRANCH   1   7
ATOM      7  O   LIG d   1     -16.854  66.588 117.964  0.00  0.00    -0.368 OA
BRANCH   7   8
ATOM      8  C   LIG d   1     -16.592  65.707 119.084  0.00  0.00     0.119 C 
BRANCH   8   9
ATOM      9  C   LIG d   1     -16.804  66.522 120.374  0.00  0.00     0.028 C 
ATOM     10  C   LIG d   1     -18.086  67.370 120.328  0.00  0.00     0.006 C 
ENDBRANCH   8   9
BRANCH   8  11
ATOM     11  C   LIG d   1     -15.124  65.270 119.118  0.00  0.00     0.028 C 
ATOM     12  C   LIG d   1     -14.237  66.223 119.935  0.00  0.00     0.006 C 
ENDBRANCH   8  11
ENDBRANCH   7   8
ENDBRANCH   1   7
BRANCH   6  13
ATOM     13  N   LIG d   1     -16.319  66.707 115.001  0.00  0.00    -0.311 N 
ATOM     14  C   LIG d   1     -15.133  67.271 115.224  0.00  0.00     0.210 C 
ATOM     15  C   LIG d   1     -14.821  68.489 114.348  0.00  0.00     0.109 C 
ATOM     16  O   LIG d   1     -14.296  66.858 116.041  0.00  0.00    -0.276 OA
ATOM     17  H   LIG d   1     -16.921  67.087 114.297  0.00  0.00     0.149 HD
ENDBRANCH   6  13
BRANCH   5  18
ATOM     18  N   LIG d   1     -16.769  63.932 113.805  0.00  0.00     0.381 N 
ATOM     19  H   LIG d   1     -17.204  64.057 112.913  0.00  0.00    -0.090 HD
ATOM     20  H   LIG d   1     -16.692  62.946 113.983  0.00  0.00    -0.090 HD
ATOM     21  H   LIG d   1     -15.864  64.348 113.803  0.00  0.00    -0.090 HD
ENDBRANCH   5  18
BRANCH   3  22
ATOM     22  C   LIG d   1     -19.896  63.081 117.332  0.00  0.00     0.382 C 
ATOM     23  O   LIG d   1     -20.941  62.928 116.655  0.00  0.00    -0.241 OA
ATOM     24  O   LIG d   1     -19.813  62.557 118.459  0.00  0.00    -0.241 OA
ENDBRANCH   3  22
TORSDOF 7
ENDMDL
MODEL 7
REMARK VINA RESULT:      -4.8     15.639     18.027
REMARK  7 active torsions:
REMARK  status: ('A' for Active; 'I' for Inactive)
REMARK    1  A    between atoms: C_2  and  C_3 
REMARK    2  A    between atoms: C_3  and  O_6 
REMARK    3  A    between atoms: C_3  and  C_4 
REMARK    4  A    between atoms: C_7  and  O_6 
REMARK    5  A    between atoms: C_9  and  C_10 
REMARK    6  A    between atoms: N_15  and  C_14 
REMARK    7  A    between atoms: N_20  and  C_19 
REMARK       I    between atoms: C_22  and  N_20 
ROOT
ATOM      1  C   LIG d   1      -2.689  90.450 118.022  0.00  0.00     0.161 C 
ATOM      2  C   LIG d   1      -3.934  90.163 117.438  0.00  0.00     0.016 C 
ATOM      3  C   LIG d   1      -4.944  91.132 117.240  0.00  0.00     0.038 C 
ATOM      4  C   LIG d   1      -4.718  92.497 117.477  0.00  0.00     0.028 C 
ATOM      5  C   LIG d   1      -3.655  92.759 118.538  0.00  0.00    -0.047 C 
ATOM      6  C   LIG d   1      -2.383  91.954 118.185  0.00  0.00     0.091 C 
ENDROOT
BRANCH   1   7
ATOM      7  O   LIG d   1      -1.639  89.803 117.278  0.00  0.00    -0.368 OA
BRANCH   7   8
ATOM      8  C   LIG d   1      -1.114  88.579 117.849  0.00  0.00     0.119 C 
BRANCH   8   9
ATOM      9  C   LIG d   1      -1.517  88.552 119.336  0.00  0.00     0.028 C 
ATOM     10  C   LIG d   1      -2.166  87.219 119.744  0.00  0.00     0.006 C 
ENDBRANCH   8   9
BRANCH   8  11
ATOM     11  C   LIG d   1       0.418  88.574 117.844  0.00  0.00     0.028 C 
ATOM     12  C   LIG d   1       1.007  87.227 117.395  0.00  0.00     0.006 C 
ENDBRANCH   8  11
ENDBRANCH   7   8
ENDBRANCH   1   7
BRANCH   6  13
ATOM     13  N   LIG d   1      -1.323  92.088 119.217  0.00  0.00    -0.311 N 
ATOM     14  C   LIG d   1      -0.071  92.449 118.940  0.00  0.00     0.210 C 
ATOM     15  C   LIG d   1       0.869  92.507 120.148  0.00  0.00     0.109 C 
ATOM     16  O   LIG d   1       0.342  92.758 117.812  0.00  0.00    -0.276 OA
ATOM     17  H   LIG d   1      -1.579  91.886 120.164  0.00  0.00     0.149 HD
ENDBRANCH   6  13
BRANCH   5  18
ATOM     18  N   LIG d   1      -3.422  94.215 118.586  0.00  0.00     0.381 N 
ATOM     19  H   LIG d   1      -3.207  94.554 117.669  0.00  0.00    -0.090 HD
ATOM     20  H   LIG d   1      -2.636  94.400 119.183  0.00  0.00    -0.090 HD
ATOM     21  H   LIG d   1      -4.231  94.678 118.937  0.00  0.00    -0.090 HD
ENDBRANCH   5  18
BRANCH   3  22
ATOM     22  C   LIG d   1      -6.209  90.735 116.837  0.00  0.00     0.382 C 
ATOM     23  O   LIG d   1      -7.225  91.212 117.399  0.00  0.00    -0.241 OA
ATOM     24  O   LIG d   1      -6.348  89.871 115.950  0.00  0.00    -0.241 OA
ENDBRANCH   3  22
TORSDOF 7
ENDMDL
MODEL 8
REMARK VINA RESULT:      -4.7      2.499      4.058
REMARK  7 active torsions:
REMARK  status: ('A' for Active; 'I' for Inactive)
REMARK    1  A    between atoms: C_2  and  C_3 
REMARK    2  A    between atoms: C_3  and  O_6 
REMARK    3  A    between atoms: C_3  and  C_4 
REMARK    4  A    between atoms: C_7  and  O_6 
REMARK    5  A    between atoms: C_9  and  C_10 
REMARK    6  A    between atoms: N_15  and  C_14 
REMARK    7  A    between atoms: N_20  and  C_19 
REMARK       I    between atoms: C_22  and  N_20 
ROOT
ATOM      1  C   LIG d   1      -7.402  74.975 117.813  0.00  0.00     0.161 C 
ATOM      2  C   LIG d   1      -6.280  75.293 117.030  0.00  0.00     0.016 C 
ATOM      3  C   LIG d   1      -5.789  74.460 115.999  0.00  0.00     0.038 C 
ATOM      4  C   LIG d   1      -6.481  73.316 115.577  0.00  0.00     0.028 C 
ATOM      5  C   LIG d   1      -7.339  72.690 116.671  0.00  0.00    -0.047 C 
ATOM      6  C   LIG d   1      -8.236  73.784 117.294  0.00  0.00     0.091 C 
ENDROOT
BRANCH   1   7
ATOM      7  O   LIG d   1      -8.236  76.140 117.969  0.00  0.00    -0.368 OA
BRANCH   7   8
ATOM      8  C   LIG d   1      -8.487  76.567 119.330  0.00  0.00     0.119 C 
BRANCH   8   9
ATOM      9  C   LIG d   1      -8.239  78.087 119.392  0.00  0.00     0.028 C 
ATOM     10  C   LIG d   1      -7.930  78.687 118.010  0.00  0.00     0.006 C 
ENDBRANCH   8   9
BRANCH   8  11
ATOM     11  C   LIG d   1      -7.476  75.952 120.302  0.00  0.00     0.028 C 
ATOM     12  C   LIG d   1      -6.262  76.860 120.553  0.00  0.00     0.006 C 
ENDBRANCH   8  11
ENDBRANCH   7   8
ENDBRANCH   1   7
BRANCH   6  13
ATOM     13  N   LIG d   1      -9.047  73.274 118.430  0.00  0.00    -0.311 N 
ATOM     14  C   LIG d   1     -10.363  73.454 118.530  0.00  0.00     0.210 C 
ATOM     15  C   LIG d   1     -11.002  72.865 119.791  0.00  0.00     0.109 C 
ATOM     16  O   LIG d   1     -11.066  74.018 117.678  0.00  0.00    -0.276 OA
ATOM     17  H   LIG d   1      -8.561  72.778 119.151  0.00  0.00     0.149 HD
ENDBRANCH   6  13
BRANCH   5  18
ATOM     18  N   LIG d   1      -8.110  71.591 116.059  0.00  0.00     0.381 N 
ATOM     19  H   LIG d   1      -8.796  71.257 116.706  0.00  0.00    -0.090 HD
ATOM     20  H   LIG d   1      -7.483  70.834 115.845  0.00  0.00    -0.090 HD
ATOM     21  H   LIG d   1      -8.555  71.909 115.226  0.00  0.00    -0.090 HD
ENDBRANCH   5  18
BRANCH   3  22
ATOM     22  C   LIG d   1      -4.570  74.749 115.404  0.00  0.00     0.382 C 
ATOM     23  O   LIG d   1      -4.511  75.579 114.465  0.00  0.00    -0.241 OA
ATOM     24  O   LIG d   1      -3.535  74.158 115.766  0.00  0.00    -0.241 OA
ENDBRANCH   3  22
TORSDOF 7
ENDMDL
MODEL 9
REMARK VINA RESULT:      -4.7      2.147      3.460
REMARK  7 active torsions:
REMARK  status: ('A' for Active; 'I' for Inactive)
REMARK    1  A    between atoms: C_2  and  C_3 
REMARK    2  A    between atoms: C_3  and  O_6 
REMARK    3  A    between atoms: C_3  and  C_4 
REMARK    4  A    between atoms: C_7  and  O_6 
REMARK    5  A    between atoms: C_9  and  C_10 
REMARK    6  A    between atoms: N_15  and  C_14 
REMARK    7  A    between atoms: N_20  and  C_19 
REMARK       I    between atoms: C_22  and  N_20 
ROOT
ATOM      1  C   LIG d   1      -7.936  75.047 119.058  0.00  0.00     0.161 C 
ATOM      2  C   LIG d   1      -8.706  73.883 118.900  0.00  0.00     0.016 C 
ATOM      3  C   LIG d   1     -10.120  73.877 118.916  0.00  0.00     0.038 C 
ATOM      4  C   LIG d   1     -10.866  75.065 118.939  0.00  0.00     0.028 C 
ATOM      5  C   LIG d   1     -10.135  76.226 119.607  0.00  0.00    -0.047 C 
ATOM      6  C   LIG d   1      -8.732  76.366 118.974  0.00  0.00     0.091 C 
ENDROOT
BRANCH   1   7
ATOM      7  O   LIG d   1      -6.856  75.051 118.103  0.00  0.00    -0.368 OA
BRANCH   7   8
ATOM      8  C   LIG d   1      -7.206  74.693 116.744  0.00  0.00     0.119 C 
BRANCH   8   9
ATOM      9  C   LIG d   1      -6.322  73.499 116.337  0.00  0.00     0.028 C 
ATOM     10  C   LIG d   1      -7.136  72.212 116.120  0.00  0.00     0.006 C 
ENDBRANCH   8   9
BRANCH   8  11
ATOM     11  C   LIG d   1      -6.850  75.814 115.763  0.00  0.00     0.028 C 
ATOM     12  C   LIG d   1      -6.029  76.938 116.415  0.00  0.00     0.006 C 
ENDBRANCH   8  11
ENDBRANCH   7   8
ENDBRANCH   1   7
BRANCH   6  13
ATOM     13  N   LIG d   1      -7.919  77.425 119.627  0.00  0.00    -0.311 N 
ATOM     14  C   LIG d   1      -7.852  78.678 119.180  0.00  0.00     0.210 C 
ATOM     15  C   LIG d   1      -6.940  79.605 119.989  0.00  0.00     0.109 C 
ATOM     16  O   LIG d   1      -8.488  79.118 118.211  0.00  0.00    -0.276 OA
ATOM     17  H   LIG d   1      -7.395  77.162 120.439  0.00  0.00     0.149 HD
ENDBRANCH   6  13
BRANCH   5  18
ATOM     18  N   LIG d   1     -10.968  77.432 119.439  0.00  0.00     0.381 N 
ATOM     19  H   LIG d   1     -11.792  77.355 120.001  0.00  0.00    -0.090 HD
ATOM     20  H   LIG d   1     -11.248  77.503 118.476  0.00  0.00    -0.090 HD
ATOM     21  H   LIG d   1     -10.452  78.242 119.703  0.00  0.00    -0.090 HD
ENDBRANCH   5  18
BRANCH   3  22
ATOM     22  C   LIG d   1     -10.802  72.671 118.948  0.00  0.00     0.382 C 
ATOM     23  O   LIG d   1     -10.335  71.670 118.353  0.00  0.00    -0.241 OA
ATOM     24  O   LIG d   1     -11.902  72.582 119.527  0.00  0.00    -0.241 OA
ENDBRANCH   3  22
TORSDOF 7
ENDMDL
