MODEL 1
REMARK VINA RESULT:      -6.4      0.000      0.000
REMARK  7 active torsions:
REMARK  status: ('A' for Active; 'I' for Inactive)
REMARK    1  A    between atoms: C_2  and  C_3 
REMARK    2  A    between atoms: C_3  and  O_6 
REMARK    3  A    between atoms: C_3  and  C_4 
REMARK    4  A    between atoms: C_7  and  O_6 
REMARK    5  A    between atoms: C_9  and  C_10 
REMARK    6  A    between atoms: N_15  and  C_14 
REMARK    7  A    between atoms: N_20  and  C_19 
REMARK       I    between atoms: C_22  and  N_20 
ROOT
ATOM      1  C   LIG d   1      -7.709  75.989 117.803  0.00  0.00     0.161 C 
ATOM      2  C   LIG d   1      -9.004  76.108 118.333  0.00  0.00     0.016 C 
ATOM      3  C   LIG d   1      -9.583  77.343 118.703  0.00  0.00     0.038 C 
ATOM      4  C   LIG d   1      -8.958  78.568 118.424  0.00  0.00     0.028 C 
ATOM      5  C   LIG d   1      -7.438  78.470 118.352  0.00  0.00    -0.047 C 
ATOM      6  C   LIG d   1      -7.055  77.323 117.388  0.00  0.00     0.091 C 
ENDROOT
BRANCH   1   7
ATOM      7  O   LIG d   1      -7.718  75.069 116.693  0.00  0.00    -0.368 OA
BRANCH   7   8
ATOM      8  C   LIG d   1      -7.691  73.661 117.032  0.00  0.00     0.119 C 
BRANCH   8   9
ATOM      9  C   LIG d   1      -6.739  72.964 116.041  0.00  0.00     0.028 C 
ATOM     10  C   LIG d   1      -5.849  73.962 115.282  0.00  0.00     0.006 C 
ENDBRANCH   8   9
BRANCH   8  11
ATOM     11  C   LIG d   1      -9.059  73.008 116.809  0.00  0.00     0.028 C 
ATOM     12  C   LIG d   1      -8.953  71.545 116.351  0.00  0.00     0.006 C 
ENDBRANCH   8  11
ENDBRANCH   7   8
ENDBRANCH   1   7
BRANCH   6  13
ATOM     13  N   LIG d   1      -5.586  77.104 117.324  0.00  0.00    -0.311 N 
ATOM     14  C   LIG d   1      -4.883  77.176 116.196  0.00  0.00     0.210 C 
ATOM     15  C   LIG d   1      -3.384  76.896 116.349  0.00  0.00     0.109 C 
ATOM     16  O   LIG d   1      -5.352  77.477 115.088  0.00  0.00    -0.276 OA
ATOM     17  H   LIG d   1      -5.120  76.886 118.183  0.00  0.00     0.149 HD
ENDBRANCH   6  13
BRANCH   5  18
ATOM     18  N   LIG d   1      -6.927  79.784 117.919  0.00  0.00     0.381 N 
ATOM     19  H   LIG d   1      -6.968  80.431 118.681  0.00  0.00    -0.090 HD
ATOM     20  H   LIG d   1      -7.510  80.132 117.178  0.00  0.00    -0.090 HD
ATOM     21  H   LIG d   1      -5.987  79.696 117.600  0.00  0.00    -0.090 HD
ENDBRANCH   5  18
BRANCH   3  22
ATOM     22  C   LIG d   1     -10.784  77.360 119.395  0.00  0.00     0.382 C 
ATOM     23  O   LIG d   1     -11.823  76.904 118.859  0.00  0.00    -0.241 OA
ATOM     24  O   LIG d   1     -10.852  77.864 120.532  0.00  0.00    -0.241 OA
ENDBRANCH   3  22
TORSDOF 7
ENDMDL
MODEL 2
REMARK VINA RESULT:      -6.1      1.920      4.999
REMARK  7 active torsions:
REMARK  status: ('A' for Active; 'I' for Inactive)
REMARK    1  A    between atoms: C_2  and  C_3 
REMARK    2  A    between atoms: C_3  and  O_6 
REMARK    3  A    between atoms: C_3  and  C_4 
REMARK    4  A    between atoms: C_7  and  O_6 
REMARK    5  A    between atoms: C_9  and  C_10 
REMARK    6  A    between atoms: N_15  and  C_14 
REMARK    7  A    between atoms: N_20  and  C_19 
REMARK       I    between atoms: C_22  and  N_20 
ROOT
ATOM      1  C   LIG d   1      -7.103  76.503 116.782  0.00  0.00     0.161 C 
ATOM      2  C   LIG d   1      -6.069  76.004 115.972  0.00  0.00     0.016 C 
ATOM      3  C   LIG d   1      -4.822  76.652 115.815  0.00  0.00     0.038 C 
ATOM      4  C   LIG d   1      -4.467  77.773 116.581  0.00  0.00     0.028 C 
ATOM      5  C   LIG d   1      -5.665  78.600 117.035  0.00  0.00    -0.047 C 
ATOM      6  C   LIG d   1      -6.693  77.665 117.711  0.00  0.00     0.091 C 
ENDROOT
BRANCH   1   7
ATOM      7  O   LIG d   1      -7.684  75.429 117.548  0.00  0.00    -0.368 OA
BRANCH   7   8
ATOM      8  C   LIG d   1      -8.296  74.360 116.786  0.00  0.00     0.119 C 
BRANCH   8   9
ATOM      9  C   LIG d   1      -9.804  74.370 117.102  0.00  0.00     0.028 C 
ATOM     10  C   LIG d   1     -10.235  75.634 117.864  0.00  0.00     0.006 C 
ENDBRANCH   8   9
BRANCH   8  11
ATOM     11  C   LIG d   1      -7.794  72.989 117.247  0.00  0.00     0.028 C 
ATOM     12  C   LIG d   1      -8.398  71.830 116.438  0.00  0.00     0.006 C 
ENDBRANCH   8  11
ENDBRANCH   7   8
ENDBRANCH   1   7
BRANCH   6  13
ATOM     13  N   LIG d   1      -7.934  78.380 118.110  0.00  0.00    -0.311 N 
ATOM     14  C   LIG d   1      -8.333  78.506 119.374  0.00  0.00     0.210 C 
ATOM     15  C   LIG d   1      -9.651  79.264 119.564  0.00  0.00     0.109 C 
ATOM     16  O   LIG d   1      -7.704  78.091 120.359  0.00  0.00    -0.276 OA
ATOM     17  H   LIG d   1      -8.489  78.775 117.376  0.00  0.00     0.149 HD
ENDBRANCH   6  13
BRANCH   5  18
ATOM     18  N   LIG d   1      -5.163  79.654 117.935  0.00  0.00     0.381 N 
ATOM     19  H   LIG d   1      -5.281  80.551 117.507  0.00  0.00    -0.090 HD
ATOM     20  H   LIG d   1      -4.181  79.507 118.093  0.00  0.00    -0.090 HD
ATOM     21  H   LIG d   1      -5.654  79.625 118.802  0.00  0.00    -0.090 HD
ENDBRANCH   5  18
BRANCH   3  22
ATOM     22  C   LIG d   1      -3.930  76.202 114.854  0.00  0.00     0.382 C 
ATOM     23  O   LIG d   1      -3.749  76.867 113.805  0.00  0.00    -0.241 OA
ATOM     24  O   LIG d   1      -3.337  75.117 115.001  0.00  0.00    -0.241 OA
ENDBRANCH   3  22
TORSDOF 7
ENDMDL
MODEL 3
REMARK VINA RESULT:      -5.8      2.102      4.888
REMARK  7 active torsions:
REMARK  status: ('A' for Active; 'I' for Inactive)
REMARK    1  A    between atoms: C_2  and  C_3 
REMARK    2  A    between atoms: C_3  and  O_6 
REMARK    3  A    between atoms: C_3  and  C_4 
REMARK    4  A    between atoms: C_7  and  O_6 
REMARK    5  A    between atoms: C_9  and  C_10 
REMARK    6  A    between atoms: N_15  and  C_14 
REMARK    7  A    between atoms: N_20  and  C_19 
REMARK       I    between atoms: C_22  and  N_20 
ROOT
ATOM      1  C   LIG d   1      -7.314  76.516 117.502  0.00  0.00     0.161 C 
ATOM      2  C   LIG d   1      -7.424  75.205 117.011  0.00  0.00     0.016 C 
ATOM      3  C   LIG d   1      -8.604  74.432 117.114  0.00  0.00     0.038 C 
ATOM      4  C   LIG d   1      -9.808  74.976 117.585  0.00  0.00     0.028 C 
ATOM      5  C   LIG d   1      -9.610  76.135 118.557  0.00  0.00    -0.047 C 
ATOM      6  C   LIG d   1      -8.650  77.165 117.919  0.00  0.00     0.091 C 
ENDROOT
BRANCH   1   7
ATOM      7  O   LIG d   1      -6.634  77.344 116.537  0.00  0.00    -0.368 OA
BRANCH   7   8
ATOM      8  C   LIG d   1      -5.240  77.030 116.299  0.00  0.00     0.119 C 
BRANCH   8   9
ATOM      9  C   LIG d   1      -4.425  78.309 116.572  0.00  0.00     0.028 C 
ATOM     10  C   LIG d   1      -5.244  79.381 117.310  0.00  0.00     0.006 C 
ENDBRANCH   8   9
BRANCH   8  11
ATOM     11  C   LIG d   1      -4.988  76.696 114.825  0.00  0.00     0.028 C 
ATOM     12  C   LIG d   1      -5.143  75.198 114.520  0.00  0.00     0.006 C 
ENDBRANCH   8  11
ENDBRANCH   7   8
ENDBRANCH   1   7
BRANCH   6  13
ATOM     13  N   LIG d   1      -8.336  78.291 118.837  0.00  0.00    -0.311 N 
ATOM     14  C   LIG d   1      -9.081  79.391 118.931  0.00  0.00     0.210 C 
ATOM     15  C   LIG d   1      -8.568  80.437 119.925  0.00  0.00     0.109 C 
ATOM     16  O   LIG d   1     -10.136  79.585 118.308  0.00  0.00    -0.276 OA
ATOM     17  H   LIG d   1      -7.514  78.203 119.402  0.00  0.00     0.149 HD
ENDBRANCH   6  13
BRANCH   5  18
ATOM     18  N   LIG d   1     -10.940  76.695 118.860  0.00  0.00     0.381 N 
ATOM     19  H   LIG d   1     -11.641  76.203 118.341  0.00  0.00    -0.090 HD
ATOM     20  H   LIG d   1     -10.959  77.659 118.579  0.00  0.00    -0.090 HD
ATOM     21  H   LIG d   1     -11.127  76.621 119.836  0.00  0.00    -0.090 HD
ENDBRANCH   5  18
BRANCH   3  22
ATOM     22  C   LIG d   1      -8.575  73.086 116.781  0.00  0.00     0.382 C 
ATOM     23  O   LIG d   1      -7.627  72.630 116.098  0.00  0.00    -0.241 OA
ATOM     24  O   LIG d   1      -9.508  72.332 117.117  0.00  0.00    -0.241 OA
ENDBRANCH   3  22
TORSDOF 7
ENDMDL
MODEL 4
REMARK VINA RESULT:      -5.6      2.099      4.564
REMARK  7 active torsions:
REMARK  status: ('A' for Active; 'I' for Inactive)
REMARK    1  A    between atoms: C_2  and  C_3 
REMARK    2  A    between atoms: C_3  and  O_6 
REMARK    3  A    between atoms: C_3  and  C_4 
REMARK    4  A    between atoms: C_7  and  O_6 
REMARK    5  A    between atoms: C_9  and  C_10 
REMARK    6  A    between atoms: N_15  and  C_14 
REMARK    7  A    between atoms: N_20  and  C_19 
REMARK       I    between atoms: C_22  and  N_20 
ROOT
ATOM      1  C   LIG d   1      -6.469  76.942 117.033  0.00  0.00     0.161 C 
ATOM      2  C   LIG d   1      -6.936  75.643 116.772  0.00  0.00     0.016 C 
ATOM      3  C   LIG d   1      -8.152  75.135 117.285  0.00  0.00     0.038 C 
ATOM      4  C   LIG d   1      -9.062  75.949 117.975  0.00  0.00     0.028 C 
ATOM      5  C   LIG d   1      -8.403  77.122 118.693  0.00  0.00    -0.047 C 
ATOM      6  C   LIG d   1      -7.501  77.880 117.692  0.00  0.00     0.091 C 
ENDROOT
BRANCH   1   7
ATOM      7  O   LIG d   1      -5.959  77.531 115.821  0.00  0.00    -0.368 OA
BRANCH   7   8
ATOM      8  C   LIG d   1      -4.518  77.658 115.730  0.00  0.00     0.119 C 
BRANCH   8   9
ATOM      9  C   LIG d   1      -4.014  76.549 114.786  0.00  0.00     0.028 C 
ATOM     10  C   LIG d   1      -3.254  75.441 115.534  0.00  0.00     0.006 C 
ENDBRANCH   8   9
BRANCH   8  11
ATOM     11  C   LIG d   1      -3.848  77.376 117.079  0.00  0.00     0.028 C 
ATOM     12  C   LIG d   1      -3.178  78.621 117.682  0.00  0.00     0.006 C 
ENDBRANCH   8  11
ENDBRANCH   7   8
ENDBRANCH   1   7
BRANCH   6  13
ATOM     13  N   LIG d   1      -6.753  78.993 118.333  0.00  0.00    -0.311 N 
ATOM     14  C   LIG d   1      -7.180  80.254 118.343  0.00  0.00     0.210 C 
ATOM     15  C   LIG d   1      -6.247  81.248 119.041  0.00  0.00     0.109 C 
ATOM     16  O   LIG d   1      -8.259  80.639 117.867  0.00  0.00    -0.276 OA
ATOM     17  H   LIG d   1      -5.882  78.764 118.771  0.00  0.00     0.149 HD
ENDBRANCH   6  13
BRANCH   5  18
ATOM     18  N   LIG d   1      -9.478  77.962 119.254  0.00  0.00     0.381 N 
ATOM     19  H   LIG d   1      -9.336  78.082 120.237  0.00  0.00    -0.090 HD
ATOM     20  H   LIG d   1     -10.358  77.499 119.116  0.00  0.00    -0.090 HD
ATOM     21  H   LIG d   1      -9.487  78.850 118.803  0.00  0.00    -0.090 HD
ENDBRANCH   5  18
BRANCH   3  22
ATOM     22  C   LIG d   1      -8.448  73.788 117.143  0.00  0.00     0.382 C 
ATOM     23  O   LIG d   1      -9.623  73.429 116.888  0.00  0.00    -0.241 OA
ATOM     24  O   LIG d   1      -7.565  72.926 117.311  0.00  0.00    -0.241 OA
ENDBRANCH   3  22
TORSDOF 7
ENDMDL
MODEL 5
REMARK VINA RESULT:      -5.4      2.459      4.564
REMARK  7 active torsions:
REMARK  status: ('A' for Active; 'I' for Inactive)
REMARK    1  A    between atoms: C_2  and  C_3 
REMARK    2  A    between atoms: C_3  and  O_6 
REMARK    3  A    between atoms: C_3  and  C_4 
REMARK    4  A    between atoms: C_7  and  O_6 
REMARK    5  A    between atoms: C_9  and  C_10 
REMARK    6  A    between atoms: N_15  and  C_14 
REMARK    7  A    between atoms: N_20  and  C_19 
REMARK       I    between atoms: C_22  and  N_20 
ROOT
ATOM      1  C   LIG d   1      -7.105  76.935 116.874  0.00  0.00     0.161 C 
ATOM      2  C   LIG d   1      -6.659  78.229 117.194  0.00  0.00     0.016 C 
ATOM      3  C   LIG d   1      -7.185  78.990 118.263  0.00  0.00     0.038 C 
ATOM      4  C   LIG d   1      -8.093  78.447 119.184  0.00  0.00     0.028 C 
ATOM      5  C   LIG d   1      -8.944  77.322 118.605  0.00  0.00    -0.047 C 
ATOM      6  C   LIG d   1      -8.015  76.284 117.935  0.00  0.00     0.091 C 
ENDROOT
BRANCH   1   7
ATOM      7  O   LIG d   1      -5.975  76.085 116.593  0.00  0.00    -0.368 OA
BRANCH   7   8
ATOM      8  C   LIG d   1      -5.172  76.451 115.444  0.00  0.00     0.119 C 
BRANCH   8   9
ATOM      9  C   LIG d   1      -5.267  75.297 114.427  0.00  0.00     0.028 C 
ATOM     10  C   LIG d   1      -5.601  73.952 115.095  0.00  0.00     0.006 C 
ENDBRANCH   8   9
BRANCH   8  11
ATOM     11  C   LIG d   1      -3.688  76.549 115.809  0.00  0.00     0.028 C 
ATOM     12  C   LIG d   1      -3.154  77.989 115.752  0.00  0.00     0.006 C 
ENDBRANCH   8  11
ENDBRANCH   7   8
ENDBRANCH   1   7
BRANCH   6  13
ATOM     13  N   LIG d   1      -8.773  75.192 117.269  0.00  0.00    -0.311 N 
ATOM     14  C   LIG d   1      -8.441  73.906 117.364  0.00  0.00     0.210 C 
ATOM     15  C   LIG d   1      -9.344  72.946 116.583  0.00  0.00     0.109 C 
ATOM     16  O   LIG d   1      -7.504  73.466 118.047  0.00  0.00    -0.276 OA
ATOM     17  H   LIG d   1      -9.567  75.457 116.720  0.00  0.00     0.149 HD
ENDBRANCH   6  13
BRANCH   5  18
ATOM     18  N   LIG d   1      -9.745  76.757 119.706  0.00  0.00     0.381 N 
ATOM     19  H   LIG d   1      -9.513  75.792 119.833  0.00  0.00    -0.090 HD
ATOM     20  H   LIG d   1     -10.719  76.817 119.465  0.00  0.00    -0.090 HD
ATOM     21  H   LIG d   1      -9.572  77.261 120.548  0.00  0.00    -0.090 HD
ENDBRANCH   5  18
BRANCH   3  22
ATOM     22  C   LIG d   1      -6.832  80.325 118.395  0.00  0.00     0.382 C 
ATOM     23  O   LIG d   1      -7.394  81.195 117.688  0.00  0.00    -0.241 OA
ATOM     24  O   LIG d   1      -5.927  80.664 119.181  0.00  0.00    -0.241 OA
ENDBRANCH   3  22
TORSDOF 7
ENDMDL
MODEL 6
REMARK VINA RESULT:      -5.2      2.103      5.131
REMARK  7 active torsions:
REMARK  status: ('A' for Active; 'I' for Inactive)
REMARK    1  A    between atoms: C_2  and  C_3 
REMARK    2  A    between atoms: C_3  and  O_6 
REMARK    3  A    between atoms: C_3  and  C_4 
REMARK    4  A    between atoms: C_7  and  O_6 
REMARK    5  A    between atoms: C_9  and  C_10 
REMARK    6  A    between atoms: N_15  and  C_14 
REMARK    7  A    between atoms: N_20  and  C_19 
REMARK       I    between atoms: C_22  and  N_20 
ROOT
ATOM      1  C   LIG d   1      -7.066  77.380 117.491  0.00  0.00     0.161 C 
ATOM      2  C   LIG d   1      -6.453  76.795 116.371  0.00  0.00     0.016 C 
ATOM      3  C   LIG d   1      -5.094  76.992 116.036  0.00  0.00     0.038 C 
ATOM      4  C   LIG d   1      -4.211  77.670 116.890  0.00  0.00     0.028 C 
ATOM      5  C   LIG d   1      -4.899  78.703 117.777  0.00  0.00    -0.047 C 
ATOM      6  C   LIG d   1      -6.092  78.032 118.495  0.00  0.00     0.091 C 
ENDROOT
BRANCH   1   7
ATOM      7  O   LIG d   1      -7.895  76.407 118.158  0.00  0.00    -0.368 OA
BRANCH   7   8
ATOM      8  C   LIG d   1      -9.318  76.498 117.899  0.00  0.00     0.119 C 
BRANCH   8   9
ATOM      9  C   LIG d   1     -10.026  76.660 119.258  0.00  0.00     0.028 C 
ATOM     10  C   LIG d   1     -10.487  78.106 119.510  0.00  0.00     0.006 C 
ENDBRANCH   8   9
BRANCH   8  11
ATOM     11  C   LIG d   1      -9.861  75.192 117.312  0.00  0.00     0.028 C 
ATOM     12  C   LIG d   1      -8.808  74.074 117.269  0.00  0.00     0.006 C 
ENDBRANCH   8  11
ENDBRANCH   7   8
ENDBRANCH   1   7
BRANCH   6  13
ATOM     13  N   LIG d   1      -6.871  78.993 119.318  0.00  0.00    -0.311 N 
ATOM     14  C   LIG d   1      -7.363  80.136 118.842  0.00  0.00     0.210 C 
ATOM     15  C   LIG d   1      -8.119  80.990 119.865  0.00  0.00     0.109 C 
ATOM     16  O   LIG d   1      -7.274  80.507 117.662  0.00  0.00    -0.276 OA
ATOM     17  H   LIG d   1      -7.018  78.756 120.280  0.00  0.00     0.149 HD
ENDBRANCH   6  13
BRANCH   5  18
ATOM     18  N   LIG d   1      -3.887  79.234 118.709  0.00  0.00     0.381 N 
ATOM     19  H   LIG d   1      -3.595  78.513 119.339  0.00  0.00    -0.090 HD
ATOM     20  H   LIG d   1      -4.299  79.976 119.248  0.00  0.00    -0.090 HD
ATOM     21  H   LIG d   1      -3.102  79.579 118.201  0.00  0.00    -0.090 HD
ENDBRANCH   5  18
BRANCH   3  22
ATOM     22  C   LIG d   1      -4.614  76.542 114.816  0.00  0.00     0.382 C 
ATOM     23  O   LIG d   1      -5.358  76.557 113.805  0.00  0.00    -0.241 OA
ATOM     24  O   LIG d   1      -3.461  76.079 114.722  0.00  0.00    -0.241 OA
ENDBRANCH   3  22
TORSDOF 7
ENDMDL
MODEL 7
REMARK VINA RESULT:      -5.1     14.021     16.184
REMARK  7 active torsions:
REMARK  status: ('A' for Active; 'I' for Inactive)
REMARK    1  A    between atoms: C_2  and  C_3 
REMARK    2  A    between atoms: C_3  and  O_6 
REMARK    3  A    between atoms: C_3  and  C_4 
REMARK    4  A    between atoms: C_7  and  O_6 
REMARK    5  A    between atoms: C_9  and  C_10 
REMARK    6  A    between atoms: N_15  and  C_14 
REMARK    7  A    between atoms: N_20  and  C_19 
REMARK       I    between atoms: C_22  and  N_20 
ROOT
ATOM      1  C   LIG d   1      -4.358  91.360 117.764  0.00  0.00     0.161 C 
ATOM      2  C   LIG d   1      -5.198  90.584 116.948  0.00  0.00     0.016 C 
ATOM      3  C   LIG d   1      -6.429  91.050 116.430  0.00  0.00     0.038 C 
ATOM      4  C   LIG d   1      -6.833  92.386 116.571  0.00  0.00     0.028 C 
ATOM      5  C   LIG d   1      -6.261  93.065 117.811  0.00  0.00    -0.047 C 
ATOM      6  C   LIG d   1      -4.730  92.856 117.836  0.00  0.00     0.091 C 
ENDROOT
BRANCH   1   7
ATOM      7  O   LIG d   1      -2.989  91.204 117.344  0.00  0.00    -0.368 OA
BRANCH   7   8
ATOM      8  C   LIG d   1      -2.084  90.631 118.320  0.00  0.00     0.119 C 
BRANCH   8   9
ATOM      9  C   LIG d   1      -0.657  91.077 117.947  0.00  0.00     0.028 C 
ATOM     10  C   LIG d   1       0.306  89.889 117.784  0.00  0.00     0.006 C 
ENDBRANCH   8   9
BRANCH   8  11
ATOM     11  C   LIG d   1      -2.066  89.102 118.232  0.00  0.00     0.028 C 
ATOM     12  C   LIG d   1      -2.897  88.432 119.338  0.00  0.00     0.006 C 
ENDBRANCH   8  11
ENDBRANCH   7   8
ENDBRANCH   1   7
BRANCH   6  13
ATOM     13  N   LIG d   1      -4.101  93.417 119.060  0.00  0.00    -0.311 N 
ATOM     14  C   LIG d   1      -2.997  94.161 119.042  0.00  0.00     0.210 C 
ATOM     15  C   LIG d   1      -2.505  94.622 120.418  0.00  0.00     0.109 C 
ATOM     16  O   LIG d   1      -2.395  94.510 118.015  0.00  0.00    -0.276 OA
ATOM     17  H   LIG d   1      -4.542  93.210 119.935  0.00  0.00     0.149 HD
ENDBRANCH   6  13
BRANCH   5  18
ATOM     18  N   LIG d   1      -6.650  94.487 117.759  0.00  0.00     0.381 N 
ATOM     19  H   LIG d   1      -6.782  94.768 116.808  0.00  0.00    -0.090 HD
ATOM     20  H   LIG d   1      -5.910  95.041 118.153  0.00  0.00    -0.090 HD
ATOM     21  H   LIG d   1      -7.491  94.629 118.275  0.00  0.00    -0.090 HD
ENDBRANCH   5  18
BRANCH   3  22
ATOM     22  C   LIG d   1      -7.288  90.165 115.797  0.00  0.00     0.382 C 
ATOM     23  O   LIG d   1      -8.108  89.497 116.472  0.00  0.00    -0.241 OA
ATOM     24  O   LIG d   1      -7.222  89.993 114.565  0.00  0.00    -0.241 OA
ENDBRANCH   3  22
TORSDOF 7
ENDMDL
MODEL 8
REMARK VINA RESULT:      -5.1      2.432      5.676
REMARK  7 active torsions:
REMARK  status: ('A' for Active; 'I' for Inactive)
REMARK    1  A    between atoms: C_2  and  C_3 
REMARK    2  A    between atoms: C_3  and  O_6 
REMARK    3  A    between atoms: C_3  and  C_4 
REMARK    4  A    between atoms: C_7  and  O_6 
REMARK    5  A    between atoms: C_9  and  C_10 
REMARK    6  A    between atoms: N_15  and  C_14 
REMARK    7  A    between atoms: N_20  and  C_19 
REMARK       I    between atoms: C_22  and  N_20 
ROOT
ATOM      1  C   LIG d   1      -5.092  77.007 115.699  0.00  0.00     0.161 C 
ATOM      2  C   LIG d   1      -4.085  76.105 115.318  0.00  0.00     0.016 C 
ATOM      3  C   LIG d   1      -2.877  75.940 116.034  0.00  0.00     0.038 C 
ATOM      4  C   LIG d   1      -2.658  76.563 117.273  0.00  0.00     0.028 C 
ATOM      5  C   LIG d   1      -3.432  77.866 117.440  0.00  0.00    -0.047 C 
ATOM      6  C   LIG d   1      -4.920  77.613 117.107  0.00  0.00     0.091 C 
ENDROOT
BRANCH   1   7
ATOM      7  O   LIG d   1      -6.383  76.377 115.579  0.00  0.00    -0.368 OA
BRANCH   7   8
ATOM      8  C   LIG d   1      -6.878  75.709 116.766  0.00  0.00     0.119 C 
BRANCH   8   9
ATOM      9  C   LIG d   1      -7.212  74.256 116.374  0.00  0.00     0.028 C 
ATOM     10  C   LIG d   1      -6.110  73.612 115.516  0.00  0.00     0.006 C 
ENDBRANCH   8   9
BRANCH   8  11
ATOM     11  C   LIG d   1      -8.203  76.316 117.235  0.00  0.00     0.028 C 
ATOM     12  C   LIG d   1      -9.329  75.276 117.350  0.00  0.00     0.006 C 
ENDBRANCH   8  11
ENDBRANCH   7   8
ENDBRANCH   1   7
BRANCH   6  13
ATOM     13  N   LIG d   1      -5.733  78.856 117.165  0.00  0.00    -0.311 N 
ATOM     14  C   LIG d   1      -6.370  79.265 118.260  0.00  0.00     0.210 C 
ATOM     15  C   LIG d   1      -7.168  80.562 118.098  0.00  0.00     0.109 C 
ATOM     16  O   LIG d   1      -6.325  78.693 119.360  0.00  0.00    -0.276 OA
ATOM     17  H   LIG d   1      -5.798  79.397 116.325  0.00  0.00     0.149 HD
ENDBRANCH   6  13
BRANCH   5  18
ATOM     18  N   LIG d   1      -3.220  78.335 118.823  0.00  0.00     0.381 N 
ATOM     19  H   LIG d   1      -4.090  78.336 119.317  0.00  0.00    -0.090 HD
ATOM     20  H   LIG d   1      -2.871  79.277 118.797  0.00  0.00    -0.090 HD
ATOM     21  H   LIG d   1      -2.567  77.744 119.287  0.00  0.00    -0.090 HD
ENDBRANCH   5  18
BRANCH   3  22
ATOM     22  C   LIG d   1      -1.855  75.176 115.492  0.00  0.00     0.382 C 
ATOM     23  O   LIG d   1      -1.425  74.174 116.112  0.00  0.00    -0.241 OA
ATOM     24  O   LIG d   1      -1.328  75.502 114.411  0.00  0.00    -0.241 OA
ENDBRANCH   3  22
TORSDOF 7
ENDMDL
MODEL 9
REMARK VINA RESULT:      -5.1     15.379     17.950
REMARK  7 active torsions:
REMARK  status: ('A' for Active; 'I' for Inactive)
REMARK    1  A    between atoms: C_2  and  C_3 
REMARK    2  A    between atoms: C_3  and  O_6 
REMARK    3  A    between atoms: C_3  and  C_4 
REMARK    4  A    between atoms: C_7  and  O_6 
REMARK    5  A    between atoms: C_9  and  C_10 
REMARK    6  A    between atoms: N_15  and  C_14 
REMARK    7  A    between atoms: N_20  and  C_19 
REMARK       I    between atoms: C_22  and  N_20 
ROOT
ATOM      1  C   LIG d   1      -5.157  92.901 118.180  0.00  0.00     0.161 C 
ATOM      2  C   LIG d   1      -5.315  91.733 117.415  0.00  0.00     0.016 C 
ATOM      3  C   LIG d   1      -6.506  91.412 116.724  0.00  0.00     0.038 C 
ATOM      4  C   LIG d   1      -7.574  92.316 116.627  0.00  0.00     0.028 C 
ATOM      5  C   LIG d   1      -7.654  93.287 117.800  0.00  0.00    -0.047 C 
ATOM      6  C   LIG d   1      -6.271  93.951 117.995  0.00  0.00     0.091 C 
ENDROOT
BRANCH   1   7
ATOM      7  O   LIG d   1      -3.867  93.487 117.915  0.00  0.00    -0.368 OA
BRANCH   7   8
ATOM      8  C   LIG d   1      -2.956  93.559 119.040  0.00  0.00     0.119 C 
BRANCH   8   9
ATOM      9  C   LIG d   1      -2.138  94.856 118.891  0.00  0.00     0.028 C 
ATOM     10  C   LIG d   1      -2.803  96.053 119.591  0.00  0.00     0.006 C 
ENDBRANCH   8   9
BRANCH   8  11
ATOM     11  C   LIG d   1      -1.928  92.424 118.998  0.00  0.00     0.028 C 
ATOM     12  C   LIG d   1      -1.545  92.020 117.565  0.00  0.00     0.006 C 
ENDBRANCH   8  11
ENDBRANCH   7   8
ENDBRANCH   1   7
BRANCH   6  13
ATOM     13  N   LIG d   1      -6.238  94.854 119.175  0.00  0.00    -0.311 N 
ATOM     14  C   LIG d   1      -6.544  96.149 119.116  0.00  0.00     0.210 C 
ATOM     15  C   LIG d   1      -6.425  96.903 120.445  0.00  0.00     0.109 C 
ATOM     16  O   LIG d   1      -6.932  96.739 118.096  0.00  0.00    -0.276 OA
ATOM     17  H   LIG d   1      -5.964  94.452 120.050  0.00  0.00     0.149 HD
ENDBRANCH   6  13
BRANCH   5  18
ATOM     18  N   LIG d   1      -8.724  94.257 117.503  0.00  0.00     0.381 N 
ATOM     19  H   LIG d   1      -8.393  94.937 116.847  0.00  0.00    -0.090 HD
ATOM     20  H   LIG d   1      -8.976  94.734 118.351  0.00  0.00    -0.090 HD
ATOM     21  H   LIG d   1      -9.519  93.785 117.130  0.00  0.00    -0.090 HD
ENDBRANCH   5  18
BRANCH   3  22
ATOM     22  C   LIG d   1      -6.652  90.156 116.153  0.00  0.00     0.382 C 
ATOM     23  O   LIG d   1      -5.668  89.596 115.612  0.00  0.00    -0.241 OA
ATOM     24  O   LIG d   1      -7.764  89.597 116.133  0.00  0.00    -0.241 OA
ENDBRANCH   3  22
TORSDOF 7
ENDMDL
