MODEL 1
REMARK VINA RESULT:      -6.1      0.000      0.000
REMARK  7 active torsions:
REMARK  status: ('A' for Active; 'I' for Inactive)
REMARK    1  A    between atoms: C_2  and  C_3 
REMARK    2  A    between atoms: C_3  and  O_6 
REMARK    3  A    between atoms: C_3  and  C_4 
REMARK    4  A    between atoms: C_7  and  O_6 
REMARK    5  A    between atoms: C_9  and  C_10 
REMARK    6  A    between atoms: N_15  and  C_14 
REMARK    7  A    between atoms: N_20  and  C_19 
REMARK       I    between atoms: C_22  and  N_20 
ROOT
ATOM      1  C   LIG d   1      -6.430  75.023 116.828  0.00  0.00     0.161 C 
ATOM      2  C   LIG d   1      -5.218  74.496 116.351  0.00  0.00     0.016 C 
ATOM      3  C   LIG d   1      -3.970  75.137 116.524  0.00  0.00     0.038 C 
ATOM      4  C   LIG d   1      -3.828  76.281 117.323  0.00  0.00     0.028 C 
ATOM      5  C   LIG d   1      -5.096  77.125 117.403  0.00  0.00    -0.047 C 
ATOM      6  C   LIG d   1      -6.280  76.214 117.798  0.00  0.00     0.091 C 
ENDROOT
BRANCH   1   7
ATOM      7  O   LIG d   1      -7.212  73.976 117.437  0.00  0.00    -0.368 OA
BRANCH   7   8
ATOM      8  C   LIG d   1      -8.172  73.315 116.577  0.00  0.00     0.119 C 
BRANCH   8   9
ATOM      9  C   LIG d   1      -9.556  73.445 117.242  0.00  0.00     0.028 C 
ATOM     10  C   LIG d   1     -10.161  74.849 117.070  0.00  0.00     0.006 C 
ENDBRANCH   8   9
BRANCH   8  11
ATOM     11  C   LIG d   1      -7.902  71.810 116.492  0.00  0.00     0.028 C 
ATOM     12  C   LIG d   1      -9.175  70.966 116.667  0.00  0.00     0.006 C 
ENDBRANCH   8  11
ENDBRANCH   7   8
ENDBRANCH   1   7
BRANCH   6  13
ATOM     13  N   LIG d   1      -7.575  76.944 117.817  0.00  0.00    -0.311 N 
ATOM     14  C   LIG d   1      -8.130  77.422 118.929  0.00  0.00     0.210 C 
ATOM     15  C   LIG d   1      -9.477  78.124 118.729  0.00  0.00     0.109 C 
ATOM     16  O   LIG d   1      -7.621  77.359 120.058  0.00  0.00    -0.276 OA
ATOM     17  H   LIG d   1      -8.042  77.067 116.940  0.00  0.00     0.149 HD
ENDBRANCH   6  13
BRANCH   5  18
ATOM     18  N   LIG d   1      -4.850  78.207 118.375  0.00  0.00     0.381 N 
ATOM     19  H   LIG d   1      -5.684  78.745 118.500  0.00  0.00    -0.090 HD
ATOM     20  H   LIG d   1      -4.135  78.813 118.012  0.00  0.00    -0.090 HD
ATOM     21  H   LIG d   1      -4.560  77.823 119.247  0.00  0.00    -0.090 HD
ENDBRANCH   5  18
BRANCH   3  22
ATOM     22  C   LIG d   1      -2.852  74.654 115.860  0.00  0.00     0.382 C 
ATOM     23  O   LIG d   1      -2.780  74.739 114.610  0.00  0.00    -0.241 OA
ATOM     24  O   LIG d   1      -1.935  74.095 116.491  0.00  0.00    -0.241 OA
ENDBRANCH   3  22
TORSDOF 7
ENDMDL
MODEL 2
REMARK VINA RESULT:      -5.7      1.961      5.239
REMARK  7 active torsions:
REMARK  status: ('A' for Active; 'I' for Inactive)
REMARK    1  A    between atoms: C_2  and  C_3 
REMARK    2  A    between atoms: C_3  and  O_6 
REMARK    3  A    between atoms: C_3  and  C_4 
REMARK    4  A    between atoms: C_7  and  O_6 
REMARK    5  A    between atoms: C_9  and  C_10 
REMARK    6  A    between atoms: N_15  and  C_14 
REMARK    7  A    between atoms: N_20  and  C_19 
REMARK       I    between atoms: C_22  and  N_20 
ROOT
ATOM      1  C   LIG d   1      -7.600  76.636 118.166  0.00  0.00     0.161 C 
ATOM      2  C   LIG d   1      -8.795  77.333 118.413  0.00  0.00     0.016 C 
ATOM      3  C   LIG d   1      -8.858  78.736 118.574  0.00  0.00     0.038 C 
ATOM      4  C   LIG d   1      -7.746  79.560 118.347  0.00  0.00     0.028 C 
ATOM      5  C   LIG d   1      -6.414  78.859 118.592  0.00  0.00    -0.047 C 
ATOM      6  C   LIG d   1      -6.394  77.529 117.805  0.00  0.00     0.091 C 
ENDROOT
BRANCH   1   7
ATOM      7  O   LIG d   1      -7.815  75.646 117.141  0.00  0.00    -0.368 OA
BRANCH   7   8
ATOM      8  C   LIG d   1      -7.970  74.279 117.598  0.00  0.00     0.119 C 
BRANCH   8   9
ATOM      9  C   LIG d   1      -6.923  73.423 116.860  0.00  0.00     0.028 C 
ATOM     10  C   LIG d   1      -6.169  74.219 115.781  0.00  0.00     0.006 C 
ENDBRANCH   8   9
BRANCH   8  11
ATOM     11  C   LIG d   1      -9.328  73.704 117.186  0.00  0.00     0.028 C 
ATOM     12  C   LIG d   1      -9.252  72.221 116.793  0.00  0.00     0.006 C 
ENDBRANCH   8  11
ENDBRANCH   7   8
ENDBRANCH   1   7
BRANCH   6  13
ATOM     13  N   LIG d   1      -5.160  76.740 118.056  0.00  0.00    -0.311 N 
ATOM     14  C   LIG d   1      -4.069  76.823 117.295  0.00  0.00     0.210 C 
ATOM     15  C   LIG d   1      -2.915  75.908 117.718  0.00  0.00     0.109 C 
ATOM     16  O   LIG d   1      -3.937  77.591 116.331  0.00  0.00    -0.276 OA
ATOM     17  H   LIG d   1      -5.169  76.114 118.837  0.00  0.00     0.149 HD
ENDBRANCH   6  13
BRANCH   5  18
ATOM     18  N   LIG d   1      -5.341  79.787 118.186  0.00  0.00     0.381 N 
ATOM     19  H   LIG d   1      -4.943  80.219 118.995  0.00  0.00    -0.090 HD
ATOM     20  H   LIG d   1      -5.735  80.506 117.605  0.00  0.00    -0.090 HD
ATOM     21  H   LIG d   1      -4.636  79.294 117.684  0.00  0.00    -0.090 HD
ENDBRANCH   5  18
BRANCH   3  22
ATOM     22  C   LIG d   1     -10.037  79.326 119.005  0.00  0.00     0.382 C 
ATOM     23  O   LIG d   1     -10.542  80.270 118.351  0.00  0.00    -0.241 OA
ATOM     24  O   LIG d   1     -10.578  78.955 120.064  0.00  0.00    -0.241 OA
ENDBRANCH   3  22
TORSDOF 7
ENDMDL
MODEL 3
REMARK VINA RESULT:      -5.5      2.310      5.407
REMARK  7 active torsions:
REMARK  status: ('A' for Active; 'I' for Inactive)
REMARK    1  A    between atoms: C_2  and  C_3 
REMARK    2  A    between atoms: C_3  and  O_6 
REMARK    3  A    between atoms: C_3  and  C_4 
REMARK    4  A    between atoms: C_7  and  O_6 
REMARK    5  A    between atoms: C_9  and  C_10 
REMARK    6  A    between atoms: N_15  and  C_14 
REMARK    7  A    between atoms: N_20  and  C_19 
REMARK       I    between atoms: C_22  and  N_20 
ROOT
ATOM      1  C   LIG d   1      -4.419  75.283 116.164  0.00  0.00     0.161 C 
ATOM      2  C   LIG d   1      -3.938  76.598 116.279  0.00  0.00     0.016 C 
ATOM      3  C   LIG d   1      -4.717  77.670 116.772  0.00  0.00     0.038 C 
ATOM      4  C   LIG d   1      -5.988  77.468 117.329  0.00  0.00     0.028 C 
ATOM      5  C   LIG d   1      -6.707  76.245 116.770  0.00  0.00    -0.047 C 
ATOM      6  C   LIG d   1      -5.766  75.022 116.869  0.00  0.00     0.091 C 
ENDROOT
BRANCH   1   7
ATOM      7  O   LIG d   1      -3.420  74.355 116.632  0.00  0.00    -0.368 OA
BRANCH   7   8
ATOM      8  C   LIG d   1      -2.150  74.930 117.026  0.00  0.00     0.119 C 
BRANCH   8   9
ATOM      9  C   LIG d   1      -1.047  74.209 116.227  0.00  0.00     0.028 C 
ATOM     10  C   LIG d   1      -0.589  75.016 115.000  0.00  0.00     0.006 C 
ENDBRANCH   8   9
BRANCH   8  11
ATOM     11  C   LIG d   1      -1.840  74.641 118.498  0.00  0.00     0.028 C 
ATOM     12  C   LIG d   1      -1.193  73.263 118.711  0.00  0.00     0.006 C 
ENDBRANCH   8  11
ENDBRANCH   7   8
ENDBRANCH   1   7
BRANCH   6  13
ATOM     13  N   LIG d   1      -6.360  73.800 116.268  0.00  0.00    -0.311 N 
ATOM     14  C   LIG d   1      -7.190  72.990 116.922  0.00  0.00     0.210 C 
ATOM     15  C   LIG d   1      -7.671  71.774 116.123  0.00  0.00     0.109 C 
ATOM     16  O   LIG d   1      -7.599  73.180 118.077  0.00  0.00    -0.276 OA
ATOM     17  H   LIG d   1      -6.106  73.587 115.323  0.00  0.00     0.149 HD
ENDBRANCH   6  13
BRANCH   5  18
ATOM     18  N   LIG d   1      -7.957  76.075 117.534  0.00  0.00     0.381 N 
ATOM     19  H   LIG d   1      -8.702  76.563 117.078  0.00  0.00    -0.090 HD
ATOM     20  H   LIG d   1      -7.835  76.471 118.450  0.00  0.00    -0.090 HD
ATOM     21  H   LIG d   1      -8.182  75.107 117.610  0.00  0.00    -0.090 HD
ENDBRANCH   5  18
BRANCH   3  22
ATOM     22  C   LIG d   1      -4.239  78.968 116.675  0.00  0.00     0.382 C 
ATOM     23  O   LIG d   1      -3.625  79.334 115.643  0.00  0.00    -0.241 OA
ATOM     24  O   LIG d   1      -4.374  79.764 117.623  0.00  0.00    -0.241 OA
ENDBRANCH   3  22
TORSDOF 7
ENDMDL
MODEL 4
REMARK VINA RESULT:      -5.5      0.886      1.802
REMARK  7 active torsions:
REMARK  status: ('A' for Active; 'I' for Inactive)
REMARK    1  A    between atoms: C_2  and  C_3 
REMARK    2  A    between atoms: C_3  and  O_6 
REMARK    3  A    between atoms: C_3  and  C_4 
REMARK    4  A    between atoms: C_7  and  O_6 
REMARK    5  A    between atoms: C_9  and  C_10 
REMARK    6  A    between atoms: N_15  and  C_14 
REMARK    7  A    between atoms: N_20  and  C_19 
REMARK       I    between atoms: C_22  and  N_20 
ROOT
ATOM      1  C   LIG d   1      -6.116  75.877 116.196  0.00  0.00     0.161 C 
ATOM      2  C   LIG d   1      -4.967  75.278 115.653  0.00  0.00     0.016 C 
ATOM      3  C   LIG d   1      -3.696  75.334 116.271  0.00  0.00     0.038 C 
ATOM      4  C   LIG d   1      -3.518  75.866 117.556  0.00  0.00     0.028 C 
ATOM      5  C   LIG d   1      -4.550  76.929 117.919  0.00  0.00    -0.047 C 
ATOM      6  C   LIG d   1      -5.965  76.366 117.651  0.00  0.00     0.091 C 
ENDROOT
BRANCH   1   7
ATOM      7  O   LIG d   1      -7.235  74.975 116.084  0.00  0.00    -0.368 OA
BRANCH   7   8
ATOM      8  C   LIG d   1      -7.288  73.901 117.054  0.00  0.00     0.119 C 
BRANCH   8   9
ATOM      9  C   LIG d   1      -7.096  72.577 116.290  0.00  0.00     0.028 C 
ATOM     10  C   LIG d   1      -8.344  71.680 116.348  0.00  0.00     0.006 C 
ENDBRANCH   8   9
BRANCH   8  11
ATOM     11  C   LIG d   1      -8.673  73.800 117.700  0.00  0.00     0.028 C 
ATOM     12  C   LIG d   1      -9.630  74.909 117.234  0.00  0.00     0.006 C 
ENDBRANCH   8  11
ENDBRANCH   7   8
ENDBRANCH   1   7
BRANCH   6  13
ATOM     13  N   LIG d   1      -7.031  77.371 117.901  0.00  0.00    -0.311 N 
ATOM     14  C   LIG d   1      -7.740  77.424 119.027  0.00  0.00     0.210 C 
ATOM     15  C   LIG d   1      -8.804  78.525 119.070  0.00  0.00     0.109 C 
ATOM     16  O   LIG d   1      -7.567  76.683 120.007  0.00  0.00    -0.276 OA
ATOM     17  H   LIG d   1      -7.216  78.031 117.170  0.00  0.00     0.149 HD
ENDBRANCH   6  13
BRANCH   5  18
ATOM     18  N   LIG d   1      -4.333  77.297 119.331  0.00  0.00     0.381 N 
ATOM     19  H   LIG d   1      -3.896  78.196 119.383  0.00  0.00    -0.090 HD
ATOM     20  H   LIG d   1      -3.718  76.623 119.752  0.00  0.00    -0.090 HD
ATOM     21  H   LIG d   1      -5.202  77.314 119.817  0.00  0.00    -0.090 HD
ENDBRANCH   5  18
BRANCH   3  22
ATOM     22  C   LIG d   1      -2.578  74.888 115.582  0.00  0.00     0.382 C 
ATOM     23  O   LIG d   1      -1.841  74.007 116.087  0.00  0.00    -0.241 OA
ATOM     24  O   LIG d   1      -2.272  75.387 114.483  0.00  0.00    -0.241 OA
ENDBRANCH   3  22
TORSDOF 7
ENDMDL
MODEL 5
REMARK VINA RESULT:      -5.4      1.901      5.199
REMARK  7 active torsions:
REMARK  status: ('A' for Active; 'I' for Inactive)
REMARK    1  A    between atoms: C_2  and  C_3 
REMARK    2  A    between atoms: C_3  and  O_6 
REMARK    3  A    between atoms: C_3  and  C_4 
REMARK    4  A    between atoms: C_7  and  O_6 
REMARK    5  A    between atoms: C_9  and  C_10 
REMARK    6  A    between atoms: N_15  and  C_14 
REMARK    7  A    between atoms: N_20  and  C_19 
REMARK       I    between atoms: C_22  and  N_20 
ROOT
ATOM      1  C   LIG d   1      -5.555  74.951 116.643  0.00  0.00     0.161 C 
ATOM      2  C   LIG d   1      -6.324  73.809 116.366  0.00  0.00     0.016 C 
ATOM      3  C   LIG d   1      -7.658  73.644 116.806  0.00  0.00     0.038 C 
ATOM      4  C   LIG d   1      -8.367  74.682 117.428  0.00  0.00     0.028 C 
ATOM      5  C   LIG d   1      -7.472  75.665 118.173  0.00  0.00    -0.047 C 
ATOM      6  C   LIG d   1      -6.348  76.140 117.224  0.00  0.00     0.091 C 
ENDROOT
BRANCH   1   7
ATOM      7  O   LIG d   1      -4.840  75.357 115.459  0.00  0.00    -0.368 OA
BRANCH   7   8
ATOM      8  C   LIG d   1      -3.448  74.960 115.387  0.00  0.00     0.119 C 
BRANCH   8   9
ATOM      9  C   LIG d   1      -2.933  74.815 116.833  0.00  0.00     0.028 C 
ATOM     10  C   LIG d   1      -1.451  74.408 116.890  0.00  0.00     0.006 C 
ENDBRANCH   8   9
BRANCH   8  11
ATOM     11  C   LIG d   1      -2.587  76.060 114.759  0.00  0.00     0.028 C 
ATOM     12  C   LIG d   1      -2.948  77.464 115.269  0.00  0.00     0.006 C 
ENDBRANCH   8  11
ENDBRANCH   7   8
ENDBRANCH   1   7
BRANCH   6  13
ATOM     13  N   LIG d   1      -5.378  77.041 117.900  0.00  0.00    -0.311 N 
ATOM     14  C   LIG d   1      -5.469  78.369 117.872  0.00  0.00     0.210 C 
ATOM     15  C   LIG d   1      -4.354  79.109 118.617  0.00  0.00     0.109 C 
ATOM     16  O   LIG d   1      -6.386  79.004 117.329  0.00  0.00    -0.276 OA
ATOM     17  H   LIG d   1      -4.620  76.609 118.391  0.00  0.00     0.149 HD
ENDBRANCH   6  13
BRANCH   5  18
ATOM     18  N   LIG d   1      -8.326  76.768 118.655  0.00  0.00     0.381 N 
ATOM     19  H   LIG d   1      -9.289  76.528 118.534  0.00  0.00    -0.090 HD
ATOM     20  H   LIG d   1      -8.134  77.590 118.110  0.00  0.00    -0.090 HD
ATOM     21  H   LIG d   1      -8.140  76.947 119.617  0.00  0.00    -0.090 HD
ENDBRANCH   5  18
BRANCH   3  22
ATOM     22  C   LIG d   1      -8.282  72.414 116.660  0.00  0.00     0.382 C 
ATOM     23  O   LIG d   1      -7.854  71.589 115.817  0.00  0.00    -0.241 OA
ATOM     24  O   LIG d   1      -9.296  72.137 117.329  0.00  0.00    -0.241 OA
ENDBRANCH   3  22
TORSDOF 7
ENDMDL
MODEL 6
REMARK VINA RESULT:      -5.3      2.273      4.939
REMARK  7 active torsions:
REMARK  status: ('A' for Active; 'I' for Inactive)
REMARK    1  A    between atoms: C_2  and  C_3 
REMARK    2  A    between atoms: C_3  and  O_6 
REMARK    3  A    between atoms: C_3  and  C_4 
REMARK    4  A    between atoms: C_7  and  O_6 
REMARK    5  A    between atoms: C_9  and  C_10 
REMARK    6  A    between atoms: N_15  and  C_14 
REMARK    7  A    between atoms: N_20  and  C_19 
REMARK       I    between atoms: C_22  and  N_20 
ROOT
ATOM      1  C   LIG d   1      -5.892  76.606 117.643  0.00  0.00     0.161 C 
ATOM      2  C   LIG d   1      -6.457  75.343 117.398  0.00  0.00     0.016 C 
ATOM      3  C   LIG d   1      -7.837  75.067 117.540  0.00  0.00     0.038 C 
ATOM      4  C   LIG d   1      -8.774  76.081 117.792  0.00  0.00     0.028 C 
ATOM      5  C   LIG d   1      -8.189  77.273 118.542  0.00  0.00    -0.047 C 
ATOM      6  C   LIG d   1      -6.914  77.750 117.811  0.00  0.00     0.091 C 
ENDROOT
BRANCH   1   7
ATOM      7  O   LIG d   1      -4.946  76.928 116.604  0.00  0.00    -0.368 OA
BRANCH   7   8
ATOM      8  C   LIG d   1      -4.210  75.812 116.045  0.00  0.00     0.119 C 
BRANCH   8   9
ATOM      9  C   LIG d   1      -2.762  75.908 116.563  0.00  0.00     0.028 C 
ATOM     10  C   LIG d   1      -2.344  74.667 117.370  0.00  0.00     0.006 C 
ENDBRANCH   8   9
BRANCH   8  11
ATOM     11  C   LIG d   1      -4.104  75.921 114.521  0.00  0.00     0.028 C 
ATOM     12  C   LIG d   1      -5.421  75.579 113.806  0.00  0.00     0.006 C 
ENDBRANCH   8  11
ENDBRANCH   7   8
ENDBRANCH   1   7
BRANCH   6  13
ATOM     13  N   LIG d   1      -6.232  78.861 118.525  0.00  0.00    -0.311 N 
ATOM     14  C   LIG d   1      -6.462  80.147 118.270  0.00  0.00     0.210 C 
ATOM     15  C   LIG d   1      -5.638  81.130 119.107  0.00  0.00     0.109 C 
ATOM     16  O   LIG d   1      -7.294  80.568 117.452  0.00  0.00    -0.276 OA
ATOM     17  H   LIG d   1      -5.564  78.609 119.227  0.00  0.00     0.149 HD
ENDBRANCH   6  13
BRANCH   5  18
ATOM     18  N   LIG d   1      -9.236  78.310 118.616  0.00  0.00     0.381 N 
ATOM     19  H   LIG d   1      -9.461  78.496 119.573  0.00  0.00    -0.090 HD
ATOM     20  H   LIG d   1     -10.063  77.970 118.158  0.00  0.00    -0.090 HD
ATOM     21  H   LIG d   1      -8.921  79.144 118.173  0.00  0.00    -0.090 HD
ENDBRANCH   5  18
BRANCH   3  22
ATOM     22  C   LIG d   1      -8.286  73.758 117.469  0.00  0.00     0.382 C 
ATOM     23  O   LIG d   1      -9.460  73.517 117.097  0.00  0.00    -0.241 OA
ATOM     24  O   LIG d   1      -7.548  72.816 117.816  0.00  0.00    -0.241 OA
ENDBRANCH   3  22
TORSDOF 7
ENDMDL
MODEL 7
REMARK VINA RESULT:      -5.1     15.118     17.005
REMARK  7 active torsions:
REMARK  status: ('A' for Active; 'I' for Inactive)
REMARK    1  A    between atoms: C_2  and  C_3 
REMARK    2  A    between atoms: C_3  and  O_6 
REMARK    3  A    between atoms: C_3  and  C_4 
REMARK    4  A    between atoms: C_7  and  O_6 
REMARK    5  A    between atoms: C_9  and  C_10 
REMARK    6  A    between atoms: N_15  and  C_14 
REMARK    7  A    between atoms: N_20  and  C_19 
REMARK       I    between atoms: C_22  and  N_20 
ROOT
ATOM      1  C   LIG d   1      -3.769  90.819 117.559  0.00  0.00     0.161 C 
ATOM      2  C   LIG d   1      -4.682  90.149 116.728  0.00  0.00     0.016 C 
ATOM      3  C   LIG d   1      -6.009  90.589 116.516  0.00  0.00     0.038 C 
ATOM      4  C   LIG d   1      -6.469  91.820 117.006  0.00  0.00     0.028 C 
ATOM      5  C   LIG d   1      -5.742  92.281 118.265  0.00  0.00    -0.047 C 
ATOM      6  C   LIG d   1      -4.218  92.223 118.013  0.00  0.00     0.091 C 
ENDROOT
BRANCH   1   7
ATOM      7  O   LIG d   1      -2.482  90.888 116.914  0.00  0.00    -0.368 OA
BRANCH   7   8
ATOM      8  C   LIG d   1      -1.492  89.931 117.364  0.00  0.00     0.119 C 
BRANCH   8   9
ATOM      9  C   LIG d   1      -1.906  89.462 118.772  0.00  0.00     0.028 C 
ATOM     10  C   LIG d   1      -0.959  89.982 119.866  0.00  0.00     0.006 C 
ENDBRANCH   8   9
BRANCH   8  11
ATOM     11  C   LIG d   1      -0.121  90.590 117.543  0.00  0.00     0.028 C 
ATOM     12  C   LIG d   1       1.020  89.773 116.916  0.00  0.00     0.006 C 
ENDBRANCH   8  11
ENDBRANCH   7   8
ENDBRANCH   1   7
BRANCH   6  13
ATOM     13  N   LIG d   1      -3.430  92.578 119.223  0.00  0.00    -0.311 N 
ATOM     14  C   LIG d   1      -2.385  93.404 119.201  0.00  0.00     0.210 C 
ATOM     15  C   LIG d   1      -1.702  93.618 120.555  0.00  0.00     0.109 C 
ATOM     16  O   LIG d   1      -1.979  94.004 118.194  0.00  0.00    -0.276 OA
ATOM     17  H   LIG d   1      -3.710  92.160 120.088  0.00  0.00     0.149 HD
ENDBRANCH   6  13
BRANCH   5  18
ATOM     18  N   LIG d   1      -6.224  93.638 118.586  0.00  0.00     0.381 N 
ATOM     19  H   LIG d   1      -7.050  93.579 119.149  0.00  0.00    -0.090 HD
ATOM     20  H   LIG d   1      -6.458  94.111 117.731  0.00  0.00    -0.090 HD
ATOM     21  H   LIG d   1      -5.517  94.144 119.073  0.00  0.00    -0.090 HD
ENDBRANCH   5  18
BRANCH   3  22
ATOM     22  C   LIG d   1      -6.904  89.773 115.840  0.00  0.00     0.382 C 
ATOM     23  O   LIG d   1      -7.931  89.350 116.424  0.00  0.00    -0.241 OA
ATOM     24  O   LIG d   1      -6.675  89.420 114.668  0.00  0.00    -0.241 OA
ENDBRANCH   3  22
TORSDOF 7
ENDMDL
MODEL 8
REMARK VINA RESULT:      -5.1      2.936      5.688
REMARK  7 active torsions:
REMARK  status: ('A' for Active; 'I' for Inactive)
REMARK    1  A    between atoms: C_2  and  C_3 
REMARK    2  A    between atoms: C_3  and  O_6 
REMARK    3  A    between atoms: C_3  and  C_4 
REMARK    4  A    between atoms: C_7  and  O_6 
REMARK    5  A    between atoms: C_9  and  C_10 
REMARK    6  A    between atoms: N_15  and  C_14 
REMARK    7  A    between atoms: N_20  and  C_19 
REMARK       I    between atoms: C_22  and  N_20 
ROOT
ATOM      1  C   LIG d   1      -4.695  77.507 116.800  0.00  0.00     0.161 C 
ATOM      2  C   LIG d   1      -5.347  78.700 117.157  0.00  0.00     0.016 C 
ATOM      3  C   LIG d   1      -4.769  79.980 116.996  0.00  0.00     0.038 C 
ATOM      4  C   LIG d   1      -3.552  80.166 116.324  0.00  0.00     0.028 C 
ATOM      5  C   LIG d   1      -2.628  78.955 116.400  0.00  0.00    -0.047 C 
ATOM      6  C   LIG d   1      -3.412  77.697 115.964  0.00  0.00     0.091 C 
ENDROOT
BRANCH   1   7
ATOM      7  O   LIG d   1      -5.615  76.633 116.117  0.00  0.00    -0.368 OA
BRANCH   7   8
ATOM      8  C   LIG d   1      -5.887  75.365 116.762  0.00  0.00     0.119 C 
BRANCH   8   9
ATOM      9  C   LIG d   1      -5.752  74.263 115.693  0.00  0.00     0.028 C 
ATOM     10  C   LIG d   1      -5.358  74.826 114.317  0.00  0.00     0.006 C 
ENDBRANCH   8   9
BRANCH   8  11
ATOM     11  C   LIG d   1      -7.339  75.286 117.244  0.00  0.00     0.028 C 
ATOM     12  C   LIG d   1      -7.796  73.846 117.525  0.00  0.00     0.006 C 
ENDBRANCH   8  11
ENDBRANCH   7   8
ENDBRANCH   1   7
BRANCH   6  13
ATOM     13  N   LIG d   1      -2.606  76.454 116.089  0.00  0.00    -0.311 N 
ATOM     14  C   LIG d   1      -1.942  75.906 115.073  0.00  0.00     0.210 C 
ATOM     15  C   LIG d   1      -1.191  74.615 115.413  0.00  0.00     0.109 C 
ATOM     16  O   LIG d   1      -1.878  76.383 113.930  0.00  0.00    -0.276 OA
ATOM     17  H   LIG d   1      -2.578  76.018 116.989  0.00  0.00     0.149 HD
ENDBRANCH   6  13
BRANCH   5  18
ATOM     18  N   LIG d   1      -1.458  79.233 115.545  0.00  0.00     0.381 N 
ATOM     19  H   LIG d   1      -0.670  79.466 116.115  0.00  0.00    -0.090 HD
ATOM     20  H   LIG d   1      -1.666  80.020 114.956  0.00  0.00    -0.090 HD
ATOM     21  H   LIG d   1      -1.249  78.436 114.984  0.00  0.00    -0.090 HD
ENDBRANCH   5  18
BRANCH   3  22
ATOM     22  C   LIG d   1      -5.393  81.089 117.547  0.00  0.00     0.382 C 
ATOM     23  O   LIG d   1      -4.977  81.569 118.629  0.00  0.00    -0.241 OA
ATOM     24  O   LIG d   1      -6.393  81.589 116.999  0.00  0.00    -0.241 OA
ENDBRANCH   3  22
TORSDOF 7
ENDMDL
MODEL 9
REMARK VINA RESULT:      -5.1      1.647      2.546
REMARK  7 active torsions:
REMARK  status: ('A' for Active; 'I' for Inactive)
REMARK    1  A    between atoms: C_2  and  C_3 
REMARK    2  A    between atoms: C_3  and  O_6 
REMARK    3  A    between atoms: C_3  and  C_4 
REMARK    4  A    between atoms: C_7  and  O_6 
REMARK    5  A    between atoms: C_9  and  C_10 
REMARK    6  A    between atoms: N_15  and  C_14 
REMARK    7  A    between atoms: N_20  and  C_19 
REMARK       I    between atoms: C_22  and  N_20 
ROOT
ATOM      1  C   LIG d   1      -5.174  76.442 116.101  0.00  0.00     0.161 C 
ATOM      2  C   LIG d   1      -4.239  75.428 115.836  0.00  0.00     0.016 C 
ATOM      3  C   LIG d   1      -2.966  75.363 116.448  0.00  0.00     0.038 C 
ATOM      4  C   LIG d   1      -2.598  76.231 117.488  0.00  0.00     0.028 C 
ATOM      5  C   LIG d   1      -3.313  77.577 117.434  0.00  0.00    -0.047 C 
ATOM      6  C   LIG d   1      -4.834  77.333 117.314  0.00  0.00     0.091 C 
ENDROOT
BRANCH   1   7
ATOM      7  O   LIG d   1      -6.487  75.868 116.254  0.00  0.00    -0.368 OA
BRANCH   7   8
ATOM      8  C   LIG d   1      -6.634  74.883 117.307  0.00  0.00     0.119 C 
BRANCH   8   9
ATOM      9  C   LIG d   1      -7.190  73.598 116.664  0.00  0.00     0.028 C 
ATOM     10  C   LIG d   1      -7.804  72.642 117.701  0.00  0.00     0.006 C 
ENDBRANCH   8   9
BRANCH   8  11
ATOM     11  C   LIG d   1      -7.690  75.315 118.329  0.00  0.00     0.028 C 
ATOM     12  C   LIG d   1      -8.592  76.446 117.812  0.00  0.00     0.006 C 
ENDBRANCH   8  11
ENDBRANCH   7   8
ENDBRANCH   1   7
BRANCH   6  13
ATOM     13  N   LIG d   1      -5.601  78.598 117.171  0.00  0.00    -0.311 N 
ATOM     14  C   LIG d   1      -6.171  79.230 118.196  0.00  0.00     0.210 C 
ATOM     15  C   LIG d   1      -6.932  80.507 117.826  0.00  0.00     0.109 C 
ATOM     16  O   LIG d   1      -6.092  78.871 119.380  0.00  0.00    -0.276 OA
ATOM     17  H   LIG d   1      -5.689  78.977 116.248  0.00  0.00     0.149 HD
ENDBRANCH   6  13
BRANCH   5  18
ATOM     18  N   LIG d   1      -2.941  78.327 118.649  0.00  0.00     0.381 N 
ATOM     19  H   LIG d   1      -2.497  79.187 118.393  0.00  0.00    -0.090 HD
ATOM     20  H   LIG d   1      -2.288  77.781 119.181  0.00  0.00    -0.090 HD
ATOM     21  H   LIG d   1      -3.753  78.514 119.195  0.00  0.00    -0.090 HD
ENDBRANCH   5  18
BRANCH   3  22
ATOM     22  C   LIG d   1      -2.030  74.447 115.993  0.00  0.00     0.382 C 
ATOM     23  O   LIG d   1      -2.018  74.111 114.784  0.00  0.00    -0.241 OA
ATOM     24  O   LIG d   1      -1.226  73.919 116.784  0.00  0.00    -0.241 OA
ENDBRANCH   3  22
TORSDOF 7
ENDMDL
