MODEL 1
REMARK VINA RESULT:      -5.5      0.000      0.000
REMARK  7 active torsions:
REMARK  status: ('A' for Active; 'I' for Inactive)
REMARK    1  A    between atoms: C_2  and  C_3 
REMARK    2  A    between atoms: C_3  and  O_6 
REMARK    3  A    between atoms: C_3  and  C_4 
REMARK    4  A    between atoms: C_7  and  O_6 
REMARK    5  A    between atoms: C_9  and  C_10 
REMARK    6  A    between atoms: N_15  and  C_14 
REMARK    7  A    between atoms: N_20  and  C_19 
REMARK       I    between atoms: C_22  and  N_20 
ROOT
ATOM      1  C   LIG d   1       0.315  58.972 119.532  0.00  0.00     0.161 C 
ATOM      2  C   LIG d   1      -0.995  58.531 119.280  0.00  0.00     0.016 C 
ATOM      3  C   LIG d   1      -1.610  58.604 118.009  0.00  0.00     0.038 C 
ATOM      4  C   LIG d   1      -0.898  58.985 116.862  0.00  0.00     0.028 C 
ATOM      5  C   LIG d   1       0.274  59.915 117.158  0.00  0.00    -0.047 C 
ATOM      6  C   LIG d   1       1.145  59.287 118.270  0.00  0.00     0.091 C 
ENDROOT
BRANCH   1   7
ATOM      7  O   LIG d   1       1.003  58.011 120.357  0.00  0.00    -0.368 OA
BRANCH   7   8
ATOM      8  C   LIG d   1       1.646  56.916 119.659  0.00  0.00     0.119 C 
BRANCH   8   9
ATOM      9  C   LIG d   1       0.897  55.623 120.034  0.00  0.00     0.028 C 
ATOM     10  C   LIG d   1       0.256  54.941 118.814  0.00  0.00     0.006 C 
ENDBRANCH   8   9
BRANCH   8  11
ATOM     11  C   LIG d   1       3.082  56.709 120.150  0.00  0.00     0.028 C 
ATOM     12  C   LIG d   1       4.080  56.496 119.001  0.00  0.00     0.006 C 
ENDBRANCH   8  11
ENDBRANCH   7   8
ENDBRANCH   1   7
BRANCH   6  13
ATOM     13  N   LIG d   1       2.266  60.172 118.680  0.00  0.00    -0.311 N 
ATOM     14  C   LIG d   1       3.458  60.168 118.085  0.00  0.00     0.210 C 
ATOM     15  C   LIG d   1       4.479  61.145 118.676  0.00  0.00     0.109 C 
ATOM     16  O   LIG d   1       3.756  59.471 117.103  0.00  0.00    -0.276 OA
ATOM     17  H   LIG d   1       2.101  60.792 119.448  0.00  0.00     0.149 HD
ENDBRANCH   6  13
BRANCH   5  18
ATOM     18  N   LIG d   1       1.009  60.122 115.896  0.00  0.00     0.381 N 
ATOM     19  H   LIG d   1       1.516  60.983 115.936  0.00  0.00    -0.090 HD
ATOM     20  H   LIG d   1       0.349  60.179 115.141  0.00  0.00    -0.090 HD
ATOM     21  H   LIG d   1       1.638  59.365 115.740  0.00  0.00    -0.090 HD
ENDBRANCH   5  18
BRANCH   3  22
ATOM     22  C   LIG d   1      -2.963  58.330 117.883  0.00  0.00     0.382 C 
ATOM     23  O   LIG d   1      -3.759  59.242 117.550  0.00  0.00    -0.241 OA
ATOM     24  O   LIG d   1      -3.405  57.195 118.142  0.00  0.00    -0.241 OA
ENDBRANCH   3  22
TORSDOF 7
ENDMDL
MODEL 2
REMARK VINA RESULT:      -5.4      2.606      4.707
REMARK  7 active torsions:
REMARK  status: ('A' for Active; 'I' for Inactive)
REMARK    1  A    between atoms: C_2  and  C_3 
REMARK    2  A    between atoms: C_3  and  O_6 
REMARK    3  A    between atoms: C_3  and  C_4 
REMARK    4  A    between atoms: C_7  and  O_6 
REMARK    5  A    between atoms: C_9  and  C_10 
REMARK    6  A    between atoms: N_15  and  C_14 
REMARK    7  A    between atoms: N_20  and  C_19 
REMARK       I    between atoms: C_22  and  N_20 
ROOT
ATOM      1  C   LIG d   1       0.996  58.287 118.381  0.00  0.00     0.161 C 
ATOM      2  C   LIG d   1       0.973  59.080 117.222  0.00  0.00     0.016 C 
ATOM      3  C   LIG d   1      -0.186  59.277 116.437  0.00  0.00     0.038 C 
ATOM      4  C   LIG d   1      -1.446  58.815 116.846  0.00  0.00     0.028 C 
ATOM      5  C   LIG d   1      -1.377  57.585 117.745  0.00  0.00    -0.047 C 
ATOM      6  C   LIG d   1      -0.393  57.866 118.904  0.00  0.00     0.091 C 
ENDROOT
BRANCH   1   7
ATOM      7  O   LIG d   1       1.738  58.960 119.418  0.00  0.00    -0.368 OA
BRANCH   7   8
ATOM      8  C   LIG d   1       1.891  60.392 119.266  0.00  0.00     0.119 C 
BRANCH   8   9
ATOM      9  C   LIG d   1       3.360  60.737 119.576  0.00  0.00     0.028 C 
ATOM     10  C   LIG d   1       4.311  60.334 118.435  0.00  0.00     0.006 C 
ENDBRANCH   8   9
BRANCH   8  11
ATOM     11  C   LIG d   1       1.067  61.154 120.308  0.00  0.00     0.028 C 
ATOM     12  C   LIG d   1      -0.367  61.443 119.839  0.00  0.00     0.006 C 
ENDBRANCH   8  11
ENDBRANCH   7   8
ENDBRANCH   1   7
BRANCH   6  13
ATOM     13  N   LIG d   1      -0.203  56.684 119.784  0.00  0.00    -0.311 N 
ATOM     14  C   LIG d   1       0.263  55.514 119.350  0.00  0.00     0.210 C 
ATOM     15  C   LIG d   1       0.363  54.421 120.419  0.00  0.00     0.109 C 
ATOM     16  O   LIG d   1       0.634  55.287 118.189  0.00  0.00    -0.276 OA
ATOM     17  H   LIG d   1      -0.449  56.789 120.749  0.00  0.00     0.149 HD
ENDBRANCH   6  13
BRANCH   5  18
ATOM     18  N   LIG d   1      -2.747  57.294 118.207  0.00  0.00     0.381 N 
ATOM     19  H   LIG d   1      -3.393  57.423 117.454  0.00  0.00    -0.090 HD
ATOM     20  H   LIG d   1      -2.986  57.937 118.942  0.00  0.00    -0.090 HD
ATOM     21  H   LIG d   1      -2.802  56.358 118.544  0.00  0.00    -0.090 HD
ENDBRANCH   5  18
BRANCH   3  22
ATOM     22  C   LIG d   1      -0.084  59.911 115.208  0.00  0.00     0.382 C 
ATOM     23  O   LIG d   1       0.995  59.872 114.570  0.00  0.00    -0.241 OA
ATOM     24  O   LIG d   1      -1.044  60.558 114.749  0.00  0.00    -0.241 OA
ENDBRANCH   3  22
TORSDOF 7
ENDMDL
MODEL 3
REMARK VINA RESULT:      -5.3     18.989     20.546
REMARK  7 active torsions:
REMARK  status: ('A' for Active; 'I' for Inactive)
REMARK    1  A    between atoms: C_2  and  C_3 
REMARK    2  A    between atoms: C_3  and  O_6 
REMARK    3  A    between atoms: C_3  and  C_4 
REMARK    4  A    between atoms: C_7  and  O_6 
REMARK    5  A    between atoms: C_9  and  C_10 
REMARK    6  A    between atoms: N_15  and  C_14 
REMARK    7  A    between atoms: N_20  and  C_19 
REMARK       I    between atoms: C_22  and  N_20 
ROOT
ATOM      1  C   LIG d   1      -6.488  77.084 118.050  0.00  0.00     0.161 C 
ATOM      2  C   LIG d   1      -7.839  76.866 118.370  0.00  0.00     0.016 C 
ATOM      3  C   LIG d   1      -8.814  77.889 118.368  0.00  0.00     0.038 C 
ATOM      4  C   LIG d   1      -8.533  79.180 117.897  0.00  0.00     0.028 C 
ATOM      5  C   LIG d   1      -7.067  79.573 118.043  0.00  0.00    -0.047 C 
ATOM      6  C   LIG d   1      -6.186  78.463 117.426  0.00  0.00     0.091 C 
ENDROOT
BRANCH   1   7
ATOM      7  O   LIG d   1      -6.013  76.030 117.189  0.00  0.00    -0.368 OA
BRANCH   7   8
ATOM      8  C   LIG d   1      -6.970  75.503 116.238  0.00  0.00     0.119 C 
BRANCH   8   9
ATOM      9  C   LIG d   1      -6.916  73.966 116.329  0.00  0.00     0.028 C 
ATOM     10  C   LIG d   1      -8.087  73.385 117.140  0.00  0.00     0.006 C 
ENDBRANCH   8   9
BRANCH   8  11
ATOM     11  C   LIG d   1      -6.568  75.839 114.799  0.00  0.00     0.028 C 
ATOM     12  C   LIG d   1      -5.304  75.092 114.344  0.00  0.00     0.006 C 
ENDBRANCH   8  11
ENDBRANCH   7   8
ENDBRANCH   1   7
BRANCH   6  13
ATOM     13  N   LIG d   1      -4.735  78.728 117.602  0.00  0.00    -0.311 N 
ATOM     14  C   LIG d   1      -3.841  78.594 116.623  0.00  0.00     0.210 C 
ATOM     15  C   LIG d   1      -2.394  78.898 117.023  0.00  0.00     0.109 C 
ATOM     16  O   LIG d   1      -4.114  78.283 115.454  0.00  0.00    -0.276 OA
ATOM     17  H   LIG d   1      -4.430  79.015 118.511  0.00  0.00     0.149 HD
ENDBRANCH   6  13
BRANCH   5  18
ATOM     18  N   LIG d   1      -6.889  80.883 117.389  0.00  0.00     0.381 N 
ATOM     19  H   LIG d   1      -6.750  81.591 118.082  0.00  0.00    -0.090 HD
ATOM     20  H   LIG d   1      -7.723  81.105 116.874  0.00  0.00    -0.090 HD
ATOM     21  H   LIG d   1      -6.107  80.853 116.772  0.00  0.00    -0.090 HD
ENDBRANCH   5  18
BRANCH   3  22
ATOM     22  C   LIG d   1     -10.078  77.635 118.880  0.00  0.00     0.382 C 
ATOM     23  O   LIG d   1     -11.083  77.708 118.133  0.00  0.00    -0.241 OA
ATOM     24  O   LIG d   1     -10.229  77.376 120.089  0.00  0.00    -0.241 OA
ENDBRANCH   3  22
TORSDOF 7
ENDMDL
MODEL 4
REMARK VINA RESULT:      -5.1     18.050     19.969
REMARK  7 active torsions:
REMARK  status: ('A' for Active; 'I' for Inactive)
REMARK    1  A    between atoms: C_2  and  C_3 
REMARK    2  A    between atoms: C_3  and  O_6 
REMARK    3  A    between atoms: C_3  and  C_4 
REMARK    4  A    between atoms: C_7  and  O_6 
REMARK    5  A    between atoms: C_9  and  C_10 
REMARK    6  A    between atoms: N_15  and  C_14 
REMARK    7  A    between atoms: N_20  and  C_19 
REMARK       I    between atoms: C_22  and  N_20 
ROOT
ATOM      1  C   LIG d   1      -5.352  76.904 115.872  0.00  0.00     0.161 C 
ATOM      2  C   LIG d   1      -4.392  75.884 115.775  0.00  0.00     0.016 C 
ATOM      3  C   LIG d   1      -3.328  75.727 116.692  0.00  0.00     0.038 C 
ATOM      4  C   LIG d   1      -3.239  76.494 117.863  0.00  0.00     0.028 C 
ATOM      5  C   LIG d   1      -3.898  77.864 117.741  0.00  0.00    -0.047 C 
ATOM      6  C   LIG d   1      -5.336  77.683 117.204  0.00  0.00     0.091 C 
ENDROOT
BRANCH   1   7
ATOM      7  O   LIG d   1      -6.665  76.365 115.623  0.00  0.00    -0.368 OA
BRANCH   7   8
ATOM      8  C   LIG d   1      -7.312  75.718 116.747  0.00  0.00     0.119 C 
BRANCH   8   9
ATOM      9  C   LIG d   1      -7.161  74.196 116.554  0.00  0.00     0.028 C 
ATOM     10  C   LIG d   1      -8.245  73.400 117.301  0.00  0.00     0.006 C 
ENDBRANCH   8   9
BRANCH   8  11
ATOM     11  C   LIG d   1      -8.821  75.979 116.747  0.00  0.00     0.028 C 
ATOM     12  C   LIG d   1      -9.252  76.985 117.825  0.00  0.00     0.006 C 
ENDBRANCH   8  11
ENDBRANCH   7   8
ENDBRANCH   1   7
BRANCH   6  13
ATOM     13  N   LIG d   1      -6.023  78.981 116.975  0.00  0.00    -0.311 N 
ATOM     14  C   LIG d   1      -6.739  79.606 117.909  0.00  0.00     0.210 C 
ATOM     15  C   LIG d   1      -7.381  80.922 117.458  0.00  0.00     0.109 C 
ATOM     16  O   LIG d   1      -6.877  79.211 119.076  0.00  0.00    -0.276 OA
ATOM     17  H   LIG d   1      -5.938  79.388 116.065  0.00  0.00     0.149 HD
ENDBRANCH   6  13
BRANCH   5  18
ATOM     18  N   LIG d   1      -3.853  78.500 119.071  0.00  0.00     0.381 N 
ATOM     19  H   LIG d   1      -3.278  79.318 119.036  0.00  0.00    -0.090 HD
ATOM     20  H   LIG d   1      -3.446  77.856 119.726  0.00  0.00    -0.090 HD
ATOM     21  H   LIG d   1      -4.773  78.745 119.363  0.00  0.00    -0.090 HD
ENDBRANCH   5  18
BRANCH   3  22
ATOM     22  C   LIG d   1      -2.315  74.819 116.421  0.00  0.00     0.382 C 
ATOM     23  O   LIG d   1      -1.892  74.684 115.248  0.00  0.00    -0.241 OA
ATOM     24  O   LIG d   1      -1.850  74.102 117.328  0.00  0.00    -0.241 OA
ENDBRANCH   3  22
TORSDOF 7
ENDMDL
MODEL 5
REMARK VINA RESULT:      -5.1     32.879     34.556
REMARK  7 active torsions:
REMARK  status: ('A' for Active; 'I' for Inactive)
REMARK    1  A    between atoms: C_2  and  C_3 
REMARK    2  A    between atoms: C_3  and  O_6 
REMARK    3  A    between atoms: C_3  and  C_4 
REMARK    4  A    between atoms: C_7  and  O_6 
REMARK    5  A    between atoms: C_9  and  C_10 
REMARK    6  A    between atoms: N_15  and  C_14 
REMARK    7  A    between atoms: N_20  and  C_19 
REMARK       I    between atoms: C_22  and  N_20 
ROOT
ATOM      1  C   LIG d   1      -5.439  92.156 118.434  0.00  0.00     0.161 C 
ATOM      2  C   LIG d   1      -5.328  91.145 117.465  0.00  0.00     0.016 C 
ATOM      3  C   LIG d   1      -6.015  91.172 116.230  0.00  0.00     0.038 C 
ATOM      4  C   LIG d   1      -6.748  92.293 115.814  0.00  0.00     0.028 C 
ATOM      5  C   LIG d   1      -7.298  93.121 116.971  0.00  0.00    -0.047 C 
ATOM      6  C   LIG d   1      -6.146  93.440 117.951  0.00  0.00     0.091 C 
ENDROOT
BRANCH   1   7
ATOM      7  O   LIG d   1      -4.136  92.471 118.963  0.00  0.00    -0.368 OA
BRANCH   7   8
ATOM      8  C   LIG d   1      -3.087  91.509 118.691  0.00  0.00     0.119 C 
BRANCH   8   9
ATOM      9  C   LIG d   1      -2.831  90.723 119.992  0.00  0.00     0.028 C 
ATOM     10  C   LIG d   1      -3.082  89.215 119.825  0.00  0.00     0.006 C 
ENDBRANCH   8   9
BRANCH   8  11
ATOM     11  C   LIG d   1      -1.762  92.205 118.370  0.00  0.00     0.028 C 
ATOM     12  C   LIG d   1      -0.569  91.236 118.355  0.00  0.00     0.006 C 
ENDBRANCH   8  11
ENDBRANCH   7   8
ENDBRANCH   1   7
BRANCH   6  13
ATOM     13  N   LIG d   1      -6.614  94.175 119.155  0.00  0.00    -0.311 N 
ATOM     14  C   LIG d   1      -6.707  95.503 119.212  0.00  0.00     0.210 C 
ATOM     15  C   LIG d   1      -7.192  96.059 120.554  0.00  0.00     0.109 C 
ATOM     16  O   LIG d   1      -6.464  96.270 118.269  0.00  0.00    -0.276 OA
ATOM     17  H   LIG d   1      -6.862  93.629 119.956  0.00  0.00     0.149 HD
ENDBRANCH   6  13
BRANCH   5  18
ATOM     18  N   LIG d   1      -7.920  94.329 116.397  0.00  0.00     0.381 N 
ATOM     19  H   LIG d   1      -7.483  95.146 116.773  0.00  0.00    -0.090 HD
ATOM     20  H   LIG d   1      -8.892  94.346 116.652  0.00  0.00    -0.090 HD
ATOM     21  H   LIG d   1      -7.830  94.321 115.405  0.00  0.00    -0.090 HD
ENDBRANCH   5  18
BRANCH   3  22
ATOM     22  C   LIG d   1      -6.005  90.051 115.414  0.00  0.00     0.382 C 
ATOM     23  O   LIG d   1      -6.907  89.893 114.556  0.00  0.00    -0.241 OA
ATOM     24  O   LIG d   1      -5.132  89.174 115.555  0.00  0.00    -0.241 OA
ENDBRANCH   3  22
TORSDOF 7
ENDMDL
MODEL 6
REMARK VINA RESULT:      -5.0     19.667     21.450
REMARK  7 active torsions:
REMARK  status: ('A' for Active; 'I' for Inactive)
REMARK    1  A    between atoms: C_2  and  C_3 
REMARK    2  A    between atoms: C_3  and  O_6 
REMARK    3  A    between atoms: C_3  and  C_4 
REMARK    4  A    between atoms: C_7  and  O_6 
REMARK    5  A    between atoms: C_9  and  C_10 
REMARK    6  A    between atoms: N_15  and  C_14 
REMARK    7  A    between atoms: N_20  and  C_19 
REMARK       I    between atoms: C_22  and  N_20 
ROOT
ATOM      1  C   LIG d   1      -6.689  77.942 117.391  0.00  0.00     0.161 C 
ATOM      2  C   LIG d   1      -6.663  76.588 117.015  0.00  0.00     0.016 C 
ATOM      3  C   LIG d   1      -7.792  75.739 117.086  0.00  0.00     0.038 C 
ATOM      4  C   LIG d   1      -9.069  76.229 117.398  0.00  0.00     0.028 C 
ATOM      5  C   LIG d   1      -9.043  77.478 118.271  0.00  0.00    -0.047 C 
ATOM      6  C   LIG d   1      -8.100  78.520 117.628  0.00  0.00     0.091 C 
ENDROOT
BRANCH   1   7
ATOM      7  O   LIG d   1      -5.980  78.733 116.417  0.00  0.00    -0.368 OA
BRANCH   7   8
ATOM      8  C   LIG d   1      -4.687  79.242 116.829  0.00  0.00     0.119 C 
BRANCH   8   9
ATOM      9  C   LIG d   1      -3.611  78.437 116.076  0.00  0.00     0.028 C 
ATOM     10  C   LIG d   1      -2.203  78.657 116.652  0.00  0.00     0.006 C 
ENDBRANCH   8   9
BRANCH   8  11
ATOM     11  C   LIG d   1      -4.430  78.973 118.314  0.00  0.00     0.028 C 
ATOM     12  C   LIG d   1      -4.410  80.258 119.158  0.00  0.00     0.006 C 
ENDBRANCH   8  11
ENDBRANCH   7   8
ENDBRANCH   1   7
BRANCH   6  13
ATOM     13  N   LIG d   1      -7.950  79.741 118.462  0.00  0.00    -0.311 N 
ATOM     14  C   LIG d   1      -7.959  80.976 117.963  0.00  0.00     0.210 C 
ATOM     15  C   LIG d   1      -7.770  82.092 118.995  0.00  0.00     0.109 C 
ATOM     16  O   LIG d   1      -8.138  81.254 116.767  0.00  0.00    -0.276 OA
ATOM     17  H   LIG d   1      -7.832  79.609 119.447  0.00  0.00     0.149 HD
ENDBRANCH   6  13
BRANCH   5  18
ATOM     18  N   LIG d   1     -10.431  77.959 118.404  0.00  0.00     0.381 N 
ATOM     19  H   LIG d   1     -10.756  78.302 117.523  0.00  0.00    -0.090 HD
ATOM     20  H   LIG d   1     -10.451  78.716 119.064  0.00  0.00    -0.090 HD
ATOM     21  H   LIG d   1     -11.019  77.219 118.718  0.00  0.00    -0.090 HD
ENDBRANCH   5  18
BRANCH   3  22
ATOM     22  C   LIG d   1      -7.640  74.376 116.882  0.00  0.00     0.382 C 
ATOM     23  O   LIG d   1      -8.438  73.570 117.419  0.00  0.00    -0.241 OA
ATOM     24  O   LIG d   1      -6.690  73.941 116.205  0.00  0.00    -0.241 OA
ENDBRANCH   3  22
TORSDOF 7
ENDMDL
MODEL 7
REMARK VINA RESULT:      -5.0     31.024     32.661
REMARK  7 active torsions:
REMARK  status: ('A' for Active; 'I' for Inactive)
REMARK    1  A    between atoms: C_2  and  C_3 
REMARK    2  A    between atoms: C_3  and  O_6 
REMARK    3  A    between atoms: C_3  and  C_4 
REMARK    4  A    between atoms: C_7  and  O_6 
REMARK    5  A    between atoms: C_9  and  C_10 
REMARK    6  A    between atoms: N_15  and  C_14 
REMARK    7  A    between atoms: N_20  and  C_19 
REMARK       I    between atoms: C_22  and  N_20 
ROOT
ATOM      1  C   LIG d   1      -4.294  90.365 117.581  0.00  0.00     0.161 C 
ATOM      2  C   LIG d   1      -5.341  90.029 116.707  0.00  0.00     0.016 C 
ATOM      3  C   LIG d   1      -6.341  90.942 116.303  0.00  0.00     0.038 C 
ATOM      4  C   LIG d   1      -6.275  92.305 116.628  0.00  0.00     0.028 C 
ATOM      5  C   LIG d   1      -5.516  92.583 117.921  0.00  0.00    -0.047 C 
ATOM      6  C   LIG d   1      -4.143  91.876 117.858  0.00  0.00     0.091 C 
ENDROOT
BRANCH   1   7
ATOM      7  O   LIG d   1      -3.053  89.820 117.091  0.00  0.00    -0.368 OA
BRANCH   7   8
ATOM      8  C   LIG d   1      -2.714  88.490 117.556  0.00  0.00     0.119 C 
BRANCH   8   9
ATOM      9  C   LIG d   1      -2.691  88.530 119.096  0.00  0.00     0.028 C 
ATOM     10  C   LIG d   1      -2.472  87.140 119.716  0.00  0.00     0.006 C 
ENDBRANCH   8   9
BRANCH   8  11
ATOM     11  C   LIG d   1      -1.292  88.100 117.139  0.00  0.00     0.028 C 
ATOM     12  C   LIG d   1      -0.244  89.150 117.543  0.00  0.00     0.006 C 
ENDBRANCH   8  11
ENDBRANCH   7   8
ENDBRANCH   1   7
BRANCH   6  13
ATOM     13  N   LIG d   1      -3.369  92.027 119.118  0.00  0.00    -0.311 N 
ATOM     14  C   LIG d   1      -2.058  92.258 119.150  0.00  0.00     0.210 C 
ATOM     15  C   LIG d   1      -1.453  92.360 120.554  0.00  0.00     0.109 C 
ATOM     16  O   LIG d   1      -1.344  92.420 118.149  0.00  0.00    -0.276 OA
ATOM     17  H   LIG d   1      -3.876  91.941 119.978  0.00  0.00     0.149 HD
ENDBRANCH   6  13
BRANCH   5  18
ATOM     18  N   LIG d   1      -5.405  94.047 118.067  0.00  0.00     0.381 N 
ATOM     19  H   LIG d   1      -4.685  94.394 117.466  0.00  0.00    -0.090 HD
ATOM     20  H   LIG d   1      -5.155  94.261 119.016  0.00  0.00    -0.090 HD
ATOM     21  H   LIG d   1      -6.274  94.479 117.840  0.00  0.00    -0.090 HD
ENDBRANCH   5  18
BRANCH   3  22
ATOM     22  C   LIG d   1      -7.444  90.486 115.596  0.00  0.00     0.382 C 
ATOM     23  O   LIG d   1      -7.994  89.407 115.922  0.00  0.00    -0.241 OA
ATOM     24  O   LIG d   1      -7.868  91.118 114.610  0.00  0.00    -0.241 OA
ENDBRANCH   3  22
TORSDOF 7
ENDMDL
MODEL 8
REMARK VINA RESULT:      -4.8      2.506      4.213
REMARK  7 active torsions:
REMARK  status: ('A' for Active; 'I' for Inactive)
REMARK    1  A    between atoms: C_2  and  C_3 
REMARK    2  A    between atoms: C_3  and  O_6 
REMARK    3  A    between atoms: C_3  and  C_4 
REMARK    4  A    between atoms: C_7  and  O_6 
REMARK    5  A    between atoms: C_9  and  C_10 
REMARK    6  A    between atoms: N_15  and  C_14 
REMARK    7  A    between atoms: N_20  and  C_19 
REMARK       I    between atoms: C_22  and  N_20 
ROOT
ATOM      1  C   LIG d   1       1.890  58.829 118.582  0.00  0.00     0.161 C 
ATOM      2  C   LIG d   1       1.384  59.570 117.501  0.00  0.00     0.016 C 
ATOM      3  C   LIG d   1       0.281  59.154 116.721  0.00  0.00     0.038 C 
ATOM      4  C   LIG d   1      -0.491  58.034 117.066  0.00  0.00     0.028 C 
ATOM      5  C   LIG d   1       0.287  56.980 117.847  0.00  0.00    -0.047 C 
ATOM      6  C   LIG d   1       0.993  57.660 119.041  0.00  0.00     0.091 C 
ENDROOT
BRANCH   1   7
ATOM      7  O   LIG d   1       2.173  59.708 119.688  0.00  0.00    -0.368 OA
BRANCH   7   8
ATOM      8  C   LIG d   1       3.558  59.780 120.107  0.00  0.00     0.119 C 
BRANCH   8   9
ATOM      9  C   LIG d   1       3.982  61.261 120.053  0.00  0.00     0.028 C 
ATOM     10  C   LIG d   1       4.912  61.562 118.866  0.00  0.00     0.006 C 
ENDBRANCH   8   9
BRANCH   8  11
ATOM     11  C   LIG d   1       4.478  59.059 119.117  0.00  0.00     0.028 C 
ATOM     12  C   LIG d   1       5.424  58.060 119.802  0.00  0.00     0.006 C 
ENDBRANCH   8  11
ENDBRANCH   7   8
ENDBRANCH   1   7
BRANCH   6  13
ATOM     13  N   LIG d   1       1.845  56.715 119.810  0.00  0.00    -0.311 N 
ATOM     14  C   LIG d   1       2.609  55.786 119.238  0.00  0.00     0.210 C 
ATOM     15  C   LIG d   1       3.392  54.903 120.215  0.00  0.00     0.109 C 
ATOM     16  O   LIG d   1       2.738  55.631 118.015  0.00  0.00    -0.276 OA
ATOM     17  H   LIG d   1       1.825  56.791 120.808  0.00  0.00     0.149 HD
ENDBRANCH   6  13
BRANCH   5  18
ATOM     18  N   LIG d   1      -0.669  55.935 118.259  0.00  0.00     0.381 N 
ATOM     19  H   LIG d   1      -1.430  56.350 118.759  0.00  0.00    -0.090 HD
ATOM     20  H   LIG d   1      -0.203  55.291 118.873  0.00  0.00    -0.090 HD
ATOM     21  H   LIG d   1      -1.013  55.452 117.458  0.00  0.00    -0.090 HD
ENDBRANCH   5  18
BRANCH   3  22
ATOM     22  C   LIG d   1      -0.037  59.839 115.558  0.00  0.00     0.382 C 
ATOM     23  O   LIG d   1      -1.174  60.350 115.422  0.00  0.00    -0.241 OA
ATOM     24  O   LIG d   1       0.785  59.915 114.625  0.00  0.00    -0.241 OA
ENDBRANCH   3  22
TORSDOF 7
ENDMDL
MODEL 9
REMARK VINA RESULT:      -4.7     18.314     20.241
REMARK  7 active torsions:
REMARK  status: ('A' for Active; 'I' for Inactive)
REMARK    1  A    between atoms: C_2  and  C_3 
REMARK    2  A    between atoms: C_3  and  O_6 
REMARK    3  A    between atoms: C_3  and  C_4 
REMARK    4  A    between atoms: C_7  and  O_6 
REMARK    5  A    between atoms: C_9  and  C_10 
REMARK    6  A    between atoms: N_15  and  C_14 
REMARK    7  A    between atoms: N_20  and  C_19 
REMARK       I    between atoms: C_22  and  N_20 
ROOT
ATOM      1  C   LIG d   1      -4.524  77.647 116.701  0.00  0.00     0.161 C 
ATOM      2  C   LIG d   1      -3.587  76.618 116.888  0.00  0.00     0.016 C 
ATOM      3  C   LIG d   1      -2.981  76.335 118.134  0.00  0.00     0.038 C 
ATOM      4  C   LIG d   1      -3.388  76.969 119.317  0.00  0.00     0.028 C 
ATOM      5  C   LIG d   1      -3.968  78.361 119.091  0.00  0.00    -0.047 C 
ATOM      6  C   LIG d   1      -5.063  78.277 118.003  0.00  0.00     0.091 C 
ENDROOT
BRANCH   1   7
ATOM      7  O   LIG d   1      -5.614  77.173 115.886  0.00  0.00    -0.368 OA
BRANCH   7   8
ATOM      8  C   LIG d   1      -6.173  75.888 116.254  0.00  0.00     0.119 C 
BRANCH   8   9
ATOM      9  C   LIG d   1      -5.887  74.910 115.099  0.00  0.00     0.028 C 
ATOM     10  C   LIG d   1      -5.476  75.634 113.805  0.00  0.00     0.006 C 
ENDBRANCH   8   9
BRANCH   8  11
ATOM     11  C   LIG d   1      -7.700  75.955 116.360  0.00  0.00     0.028 C 
ATOM     12  C   LIG d   1      -8.293  74.785 117.161  0.00  0.00     0.006 C 
ENDBRANCH   8  11
ENDBRANCH   7   8
ENDBRANCH   1   7
BRANCH   6  13
ATOM     13  N   LIG d   1      -5.624  79.609 117.660  0.00  0.00    -0.311 N 
ATOM     14  C   LIG d   1      -6.929  79.879 117.667  0.00  0.00     0.210 C 
ATOM     15  C   LIG d   1      -7.295  81.310 117.262  0.00  0.00     0.109 C 
ATOM     16  O   LIG d   1      -7.815  79.079 118.002  0.00  0.00    -0.276 OA
ATOM     17  H   LIG d   1      -4.974  80.327 117.406  0.00  0.00     0.149 HD
ENDBRANCH   6  13
BRANCH   5  18
ATOM     18  N   LIG d   1      -4.476  78.848 120.387  0.00  0.00     0.381 N 
ATOM     19  H   LIG d   1      -5.457  79.032 120.318  0.00  0.00    -0.090 HD
ATOM     20  H   LIG d   1      -4.010  79.708 120.616  0.00  0.00    -0.090 HD
ATOM     21  H   LIG d   1      -4.307  78.170 121.096  0.00  0.00    -0.090 HD
ENDBRANCH   5  18
BRANCH   3  22
ATOM     22  C   LIG d   1      -1.927  75.435 118.197  0.00  0.00     0.382 C 
ATOM     23  O   LIG d   1      -0.891  75.728 118.840  0.00  0.00    -0.241 OA
ATOM     24  O   LIG d   1      -1.983  74.353 117.582  0.00  0.00    -0.241 OA
ENDBRANCH   3  22
TORSDOF 7
ENDMDL
