MODEL 1
REMARK VINA RESULT:      -5.3      0.000      0.000
REMARK  7 active torsions:
REMARK  status: ('A' for Active; 'I' for Inactive)
REMARK    1  A    between atoms: C_2  and  C_3 
REMARK    2  A    between atoms: C_3  and  O_6 
REMARK    3  A    between atoms: C_3  and  C_4 
REMARK    4  A    between atoms: C_7  and  O_6 
REMARK    5  A    between atoms: C_9  and  C_10 
REMARK    6  A    between atoms: N_15  and  C_14 
REMARK    7  A    between atoms: N_20  and  C_19 
REMARK       I    between atoms: C_22  and  N_20 
ROOT
ATOM      1  C   LIG d   1      -3.453  75.956 115.794  0.00  0.00     0.161 C 
ATOM      2  C   LIG d   1      -2.403  75.173 115.285  0.00  0.00     0.016 C 
ATOM      3  C   LIG d   1      -1.051  75.588 115.288  0.00  0.00     0.038 C 
ATOM      4  C   LIG d   1      -0.636  76.758 115.941  0.00  0.00     0.028 C 
ATOM      5  C   LIG d   1      -1.724  77.823 116.026  0.00  0.00    -0.047 C 
ATOM      6  C   LIG d   1      -3.005  77.186 116.611  0.00  0.00     0.091 C 
ENDROOT
BRANCH   1   7
ATOM      7  O   LIG d   1      -4.342  75.132 116.574  0.00  0.00    -0.368 OA
BRANCH   7   8
ATOM      8  C   LIG d   1      -5.453  74.538 115.858  0.00  0.00     0.119 C 
BRANCH   8   9
ATOM      9  C   LIG d   1      -6.067  75.633 114.965  0.00  0.00     0.028 C 
ATOM     10  C   LIG d   1      -7.243  76.354 115.645  0.00  0.00     0.006 C 
ENDBRANCH   8   9
BRANCH   8  11
ATOM     11  C   LIG d   1      -6.573  74.120 116.816  0.00  0.00     0.028 C 
ATOM     12  C   LIG d   1      -7.015  72.662 116.615  0.00  0.00     0.006 C 
ENDBRANCH   8  11
ENDBRANCH   7   8
ENDBRANCH   1   7
BRANCH   6  13
ATOM     13  N   LIG d   1      -4.145  78.139 116.650  0.00  0.00    -0.311 N 
ATOM     14  C   LIG d   1      -4.857  78.386 117.748  0.00  0.00     0.210 C 
ATOM     15  C   LIG d   1      -6.002  79.387 117.565  0.00  0.00     0.109 C 
ATOM     16  O   LIG d   1      -4.629  77.895 118.864  0.00  0.00    -0.276 OA
ATOM     17  H   LIG d   1      -4.380  78.605 115.795  0.00  0.00     0.149 HD
ENDBRANCH   6  13
BRANCH   5  18
ATOM     18  N   LIG d   1      -1.201  78.930 116.850  0.00  0.00     0.381 N 
ATOM     19  H   LIG d   1      -1.690  78.963 117.722  0.00  0.00    -0.090 HD
ATOM     20  H   LIG d   1      -1.359  79.797 116.367  0.00  0.00    -0.090 HD
ATOM     21  H   LIG d   1      -0.226  78.803 117.011  0.00  0.00    -0.090 HD
ENDBRANCH   5  18
BRANCH   3  22
ATOM     22  C   LIG d   1      -0.104  74.848 114.596  0.00  0.00     0.382 C 
ATOM     23  O   LIG d   1      -0.461  73.870 113.897  0.00  0.00    -0.241 OA
ATOM     24  O   LIG d   1       1.108  75.120 114.699  0.00  0.00    -0.241 OA
ENDBRANCH   3  22
TORSDOF 7
ENDMDL
MODEL 2
REMARK VINA RESULT:      -5.2      2.566      5.122
REMARK  7 active torsions:
REMARK  status: ('A' for Active; 'I' for Inactive)
REMARK    1  A    between atoms: C_2  and  C_3 
REMARK    2  A    between atoms: C_3  and  O_6 
REMARK    3  A    between atoms: C_3  and  C_4 
REMARK    4  A    between atoms: C_7  and  O_6 
REMARK    5  A    between atoms: C_9  and  C_10 
REMARK    6  A    between atoms: N_15  and  C_14 
REMARK    7  A    between atoms: N_20  and  C_19 
REMARK       I    between atoms: C_22  and  N_20 
ROOT
ATOM      1  C   LIG d   1      -3.290  75.077 115.498  0.00  0.00     0.161 C 
ATOM      2  C   LIG d   1      -2.653  76.310 115.279  0.00  0.00     0.016 C 
ATOM      3  C   LIG d   1      -3.315  77.556 115.375  0.00  0.00     0.038 C 
ATOM      4  C   LIG d   1      -4.631  77.662 115.849  0.00  0.00     0.028 C 
ATOM      5  C   LIG d   1      -5.467  76.412 115.599  0.00  0.00    -0.047 C 
ATOM      6  C   LIG d   1      -4.697  75.179 116.124  0.00  0.00     0.091 C 
ENDROOT
BRANCH   1   7
ATOM      7  O   LIG d   1      -2.446  74.227 116.298  0.00  0.00    -0.368 OA
BRANCH   7   8
ATOM      8  C   LIG d   1      -1.220  74.824 116.788  0.00  0.00     0.119 C 
BRANCH   8   9
ATOM      9  C   LIG d   1      -0.046  74.117 116.083  0.00  0.00     0.028 C 
ATOM     10  C   LIG d   1       0.729  75.058 115.145  0.00  0.00     0.006 C 
ENDBRANCH   8   9
BRANCH   8  11
ATOM     11  C   LIG d   1      -1.022  74.547 118.281  0.00  0.00     0.028 C 
ATOM     12  C   LIG d   1       0.407  74.847 118.759  0.00  0.00     0.006 C 
ENDBRANCH   8  11
ENDBRANCH   7   8
ENDBRANCH   1   7
BRANCH   6  13
ATOM     13  N   LIG d   1      -5.407  73.904 115.843  0.00  0.00    -0.311 N 
ATOM     14  C   LIG d   1      -6.353  73.402 116.635  0.00  0.00     0.210 C 
ATOM     15  C   LIG d   1      -6.943  72.067 116.171  0.00  0.00     0.109 C 
ATOM     16  O   LIG d   1      -6.783  73.952 117.661  0.00  0.00    -0.276 OA
ATOM     17  H   LIG d   1      -5.143  73.408 115.015  0.00  0.00     0.149 HD
ENDBRANCH   6  13
BRANCH   5  18
ATOM     18  N   LIG d   1      -6.770  76.606 116.264  0.00  0.00     0.381 N 
ATOM     19  H   LIG d   1      -7.508  76.508 115.596  0.00  0.00    -0.090 HD
ATOM     20  H   LIG d   1      -6.806  77.537 116.640  0.00  0.00    -0.090 HD
ATOM     21  H   LIG d   1      -6.882  75.939 116.995  0.00  0.00    -0.090 HD
ENDBRANCH   5  18
BRANCH   3  22
ATOM     22  C   LIG d   1      -2.670  78.710 114.957  0.00  0.00     0.382 C 
ATOM     23  O   LIG d   1      -3.338  79.673 114.508  0.00  0.00    -0.241 OA
ATOM     24  O   LIG d   1      -1.427  78.784 114.982  0.00  0.00    -0.241 OA
ENDBRANCH   3  22
TORSDOF 7
ENDMDL
MODEL 3
REMARK VINA RESULT:      -5.1      3.061      6.627
REMARK  7 active torsions:
REMARK  status: ('A' for Active; 'I' for Inactive)
REMARK    1  A    between atoms: C_2  and  C_3 
REMARK    2  A    between atoms: C_3  and  O_6 
REMARK    3  A    between atoms: C_3  and  C_4 
REMARK    4  A    between atoms: C_7  and  O_6 
REMARK    5  A    between atoms: C_9  and  C_10 
REMARK    6  A    between atoms: N_15  and  C_14 
REMARK    7  A    between atoms: N_20  and  C_19 
REMARK       I    between atoms: C_22  and  N_20 
ROOT
ATOM      1  C   LIG d   1      -6.989  77.847 117.562  0.00  0.00     0.161 C 
ATOM      2  C   LIG d   1      -8.343  78.220 117.569  0.00  0.00     0.016 C 
ATOM      3  C   LIG d   1      -8.850  79.296 118.334  0.00  0.00     0.038 C 
ATOM      4  C   LIG d   1      -8.005  80.172 119.031  0.00  0.00     0.028 C 
ATOM      5  C   LIG d   1      -6.688  79.532 119.459  0.00  0.00    -0.047 C 
ATOM      6  C   LIG d   1      -6.035  78.860 118.229  0.00  0.00     0.091 C 
ENDROOT
BRANCH   1   7
ATOM      7  O   LIG d   1      -6.564  77.574 116.212  0.00  0.00    -0.368 OA
BRANCH   7   8
ATOM      8  C   LIG d   1      -6.762  76.217 115.743  0.00  0.00     0.119 C 
BRANCH   8   9
ATOM      9  C   LIG d   1      -6.073  75.275 116.750  0.00  0.00     0.028 C 
ATOM     10  C   LIG d   1      -6.755  73.899 116.827  0.00  0.00     0.006 C 
ENDBRANCH   8   9
BRANCH   8  11
ATOM     11  C   LIG d   1      -6.047  75.978 114.410  0.00  0.00     0.028 C 
ATOM     12  C   LIG d   1      -4.527  75.822 114.569  0.00  0.00     0.006 C 
ENDBRANCH   8  11
ENDBRANCH   7   8
ENDBRANCH   1   7
BRANCH   6  13
ATOM     13  N   LIG d   1      -4.783  78.137 118.577  0.00  0.00    -0.311 N 
ATOM     14  C   LIG d   1      -3.680  78.183 117.832  0.00  0.00     0.210 C 
ATOM     15  C   LIG d   1      -2.509  77.349 118.360  0.00  0.00     0.109 C 
ATOM     16  O   LIG d   1      -3.550  78.860 116.801  0.00  0.00    -0.276 OA
ATOM     17  H   LIG d   1      -4.791  77.588 119.414  0.00  0.00     0.149 HD
ENDBRANCH   6  13
BRANCH   5  18
ATOM     18  N   LIG d   1      -5.850  80.591 120.051  0.00  0.00     0.381 N 
ATOM     19  H   LIG d   1      -5.929  80.568 121.048  0.00  0.00    -0.090 HD
ATOM     20  H   LIG d   1      -6.179  81.485 119.730  0.00  0.00    -0.090 HD
ATOM     21  H   LIG d   1      -4.899  80.463 119.783  0.00  0.00    -0.090 HD
ENDBRANCH   5  18
BRANCH   3  22
ATOM     22  C   LIG d   1     -10.220  79.480 118.438  0.00  0.00     0.382 C 
ATOM     23  O   LIG d   1     -10.961  78.512 118.736  0.00  0.00    -0.241 OA
ATOM     24  O   LIG d   1     -10.729  80.590 118.195  0.00  0.00    -0.241 OA
ENDBRANCH   3  22
TORSDOF 7
ENDMDL
MODEL 4
REMARK VINA RESULT:      -4.7      2.809      3.850
REMARK  7 active torsions:
REMARK  status: ('A' for Active; 'I' for Inactive)
REMARK    1  A    between atoms: C_2  and  C_3 
REMARK    2  A    between atoms: C_3  and  O_6 
REMARK    3  A    between atoms: C_3  and  C_4 
REMARK    4  A    between atoms: C_7  and  O_6 
REMARK    5  A    between atoms: C_9  and  C_10 
REMARK    6  A    between atoms: N_15  and  C_14 
REMARK    7  A    between atoms: N_20  and  C_19 
REMARK       I    between atoms: C_22  and  N_20 
ROOT
ATOM      1  C   LIG d   1      -5.263  78.492 116.854  0.00  0.00     0.161 C 
ATOM      2  C   LIG d   1      -4.176  77.605 116.933  0.00  0.00     0.016 C 
ATOM      3  C   LIG d   1      -3.394  77.436 118.098  0.00  0.00     0.038 C 
ATOM      4  C   LIG d   1      -3.741  78.035 119.318  0.00  0.00     0.028 C 
ATOM      5  C   LIG d   1      -4.531  79.329 119.155  0.00  0.00    -0.047 C 
ATOM      6  C   LIG d   1      -5.725  79.071 118.207  0.00  0.00     0.091 C 
ENDROOT
BRANCH   1   7
ATOM      7  O   LIG d   1      -6.365  77.854 116.179  0.00  0.00    -0.368 OA
BRANCH   7   8
ATOM      8  C   LIG d   1      -6.963  76.724 116.861  0.00  0.00     0.119 C 
BRANCH   8   9
ATOM      9  C   LIG d   1      -6.918  75.524 115.895  0.00  0.00     0.028 C 
ATOM     10  C   LIG d   1      -5.908  74.452 116.338  0.00  0.00     0.006 C 
ENDBRANCH   8   9
BRANCH   8  11
ATOM     11  C   LIG d   1      -8.449  76.964 117.140  0.00  0.00     0.028 C 
ATOM     12  C   LIG d   1      -9.329  75.764 116.755  0.00  0.00     0.006 C 
ENDBRANCH   8  11
ENDBRANCH   7   8
ENDBRANCH   1   7
BRANCH   6  13
ATOM     13  N   LIG d   1      -6.503  80.306 117.926  0.00  0.00    -0.311 N 
ATOM     14  C   LIG d   1      -7.713  80.541 118.430  0.00  0.00     0.210 C 
ATOM     15  C   LIG d   1      -8.347  81.867 117.998  0.00  0.00     0.109 C 
ATOM     16  O   LIG d   1      -8.308  79.793 119.220  0.00  0.00    -0.276 OA
ATOM     17  H   LIG d   1      -6.082  80.982 117.319  0.00  0.00     0.149 HD
ENDBRANCH   6  13
BRANCH   5  18
ATOM     18  N   LIG d   1      -4.945  79.771 120.499  0.00  0.00     0.381 N 
ATOM     19  H   LIG d   1      -5.704  79.205 120.824  0.00  0.00    -0.090 HD
ATOM     20  H   LIG d   1      -5.263  80.723 120.445  0.00  0.00    -0.090 HD
ATOM     21  H   LIG d   1      -4.178  79.705 121.131  0.00  0.00    -0.090 HD
ENDBRANCH   5  18
BRANCH   3  22
ATOM     22  C   LIG d   1      -2.226  76.691 118.039  0.00  0.00     0.382 C 
ATOM     23  O   LIG d   1      -1.827  76.236 116.940  0.00  0.00    -0.241 OA
ATOM     24  O   LIG d   1      -1.590  76.430 119.078  0.00  0.00    -0.241 OA
ENDBRANCH   3  22
TORSDOF 7
ENDMDL
MODEL 5
REMARK VINA RESULT:      -4.4      2.982      3.647
REMARK  7 active torsions:
REMARK  status: ('A' for Active; 'I' for Inactive)
REMARK    1  A    between atoms: C_2  and  C_3 
REMARK    2  A    between atoms: C_3  and  O_6 
REMARK    3  A    between atoms: C_3  and  C_4 
REMARK    4  A    between atoms: C_7  and  O_6 
REMARK    5  A    between atoms: C_9  and  C_10 
REMARK    6  A    between atoms: N_15  and  C_14 
REMARK    7  A    between atoms: N_20  and  C_19 
REMARK       I    between atoms: C_22  and  N_20 
ROOT
ATOM      1  C   LIG d   1      -5.342  78.047 116.744  0.00  0.00     0.161 C 
ATOM      2  C   LIG d   1      -3.961  78.126 116.498  0.00  0.00     0.016 C 
ATOM      3  C   LIG d   1      -3.004  78.377 117.509  0.00  0.00     0.038 C 
ATOM      4  C   LIG d   1      -3.353  78.416 118.867  0.00  0.00     0.028 C 
ATOM      5  C   LIG d   1      -4.796  78.844 119.110  0.00  0.00    -0.047 C 
ATOM      6  C   LIG d   1      -5.730  77.976 118.236  0.00  0.00     0.091 C 
ENDROOT
BRANCH   1   7
ATOM      7  O   LIG d   1      -5.903  76.930 116.027  0.00  0.00    -0.368 OA
BRANCH   7   8
ATOM      8  C   LIG d   1      -5.670  75.621 116.603  0.00  0.00     0.119 C 
BRANCH   8   9
ATOM      9  C   LIG d   1      -4.942  74.771 115.543  0.00  0.00     0.028 C 
ATOM     10  C   LIG d   1      -4.965  75.424 114.151  0.00  0.00     0.006 C 
ENDBRANCH   8   9
BRANCH   8  11
ATOM     11  C   LIG d   1      -6.988  74.889 116.874  0.00  0.00     0.028 C 
ATOM     12  C   LIG d   1      -6.845  73.361 116.807  0.00  0.00     0.006 C 
ENDBRANCH   8  11
ENDBRANCH   7   8
ENDBRANCH   1   7
BRANCH   6  13
ATOM     13  N   LIG d   1      -7.155  78.386 118.350  0.00  0.00    -0.311 N 
ATOM     14  C   LIG d   1      -7.584  79.622 118.104  0.00  0.00     0.210 C 
ATOM     15  C   LIG d   1      -9.088  79.836 118.301  0.00  0.00     0.109 C 
ATOM     16  O   LIG d   1      -6.867  80.555 117.712  0.00  0.00    -0.276 OA
ATOM     17  H   LIG d   1      -7.810  77.683 118.633  0.00  0.00     0.149 HD
ENDBRANCH   6  13
BRANCH   5  18
ATOM     18  N   LIG d   1      -5.064  78.708 120.554  0.00  0.00     0.381 N 
ATOM     19  H   LIG d   1      -5.685  79.433 120.853  0.00  0.00    -0.090 HD
ATOM     20  H   LIG d   1      -4.199  78.806 121.056  0.00  0.00    -0.090 HD
ATOM     21  H   LIG d   1      -5.467  77.816 120.743  0.00  0.00    -0.090 HD
ENDBRANCH   5  18
BRANCH   3  22
ATOM     22  C   LIG d   1      -1.687  78.632 117.159  0.00  0.00     0.382 C 
ATOM     23  O   LIG d   1      -0.793  78.628 118.039  0.00  0.00    -0.241 OA
ATOM     24  O   LIG d   1      -1.388  78.909 115.982  0.00  0.00    -0.241 OA
ENDBRANCH   3  22
TORSDOF 7
ENDMDL
MODEL 6
REMARK VINA RESULT:      -4.4      2.537      5.303
REMARK  7 active torsions:
REMARK  status: ('A' for Active; 'I' for Inactive)
REMARK    1  A    between atoms: C_2  and  C_3 
REMARK    2  A    between atoms: C_3  and  O_6 
REMARK    3  A    between atoms: C_3  and  C_4 
REMARK    4  A    between atoms: C_7  and  O_6 
REMARK    5  A    between atoms: C_9  and  C_10 
REMARK    6  A    between atoms: N_15  and  C_14 
REMARK    7  A    between atoms: N_20  and  C_19 
REMARK       I    between atoms: C_22  and  N_20 
ROOT
ATOM      1  C   LIG d   1      -3.140  76.061 116.929  0.00  0.00     0.161 C 
ATOM      2  C   LIG d   1      -4.193  75.971 116.004  0.00  0.00     0.016 C 
ATOM      3  C   LIG d   1      -5.313  76.834 116.013  0.00  0.00     0.038 C 
ATOM      4  C   LIG d   1      -5.383  77.949 116.862  0.00  0.00     0.028 C 
ATOM      5  C   LIG d   1      -4.583  77.782 118.149  0.00  0.00    -0.047 C 
ATOM      6  C   LIG d   1      -3.145  77.340 117.792  0.00  0.00     0.091 C 
ENDROOT
BRANCH   1   7
ATOM      7  O   LIG d   1      -1.878  75.921 116.248  0.00  0.00    -0.368 OA
BRANCH   7   8
ATOM      8  C   LIG d   1      -1.300  74.592 116.243  0.00  0.00     0.119 C 
BRANCH   8   9
ATOM      9  C   LIG d   1      -0.239  74.544 117.359  0.00  0.00     0.028 C 
ATOM     10  C   LIG d   1      -0.726  73.773 118.598  0.00  0.00     0.006 C 
ENDBRANCH   8   9
BRANCH   8  11
ATOM     11  C   LIG d   1      -0.535  74.322 114.944  0.00  0.00     0.028 C 
ATOM     12  C   LIG d   1       0.805  75.072 114.875  0.00  0.00     0.006 C 
ENDBRANCH   8  11
ENDBRANCH   7   8
ENDBRANCH   1   7
BRANCH   6  13
ATOM     13  N   LIG d   1      -2.318  77.073 118.998  0.00  0.00    -0.311 N 
ATOM     14  C   LIG d   1      -1.132  77.639 119.214  0.00  0.00     0.210 C 
ATOM     15  C   LIG d   1      -0.438  77.209 120.510  0.00  0.00     0.109 C 
ATOM     16  O   LIG d   1      -0.604  78.480 118.472  0.00  0.00    -0.276 OA
ATOM     17  H   LIG d   1      -2.686  76.426 119.668  0.00  0.00     0.149 HD
ENDBRANCH   6  13
BRANCH   5  18
ATOM     18  N   LIG d   1      -4.630  79.066 118.873  0.00  0.00     0.381 N 
ATOM     19  H   LIG d   1      -3.728  79.497 118.858  0.00  0.00    -0.090 HD
ATOM     20  H   LIG d   1      -4.879  78.890 119.831  0.00  0.00    -0.090 HD
ATOM     21  H   LIG d   1      -5.302  79.670 118.453  0.00  0.00    -0.090 HD
ENDBRANCH   5  18
BRANCH   3  22
ATOM     22  C   LIG d   1      -6.398  76.562 115.193  0.00  0.00     0.382 C 
ATOM     23  O   LIG d   1      -6.295  76.702 113.951  0.00  0.00    -0.241 OA
ATOM     24  O   LIG d   1      -7.490  76.220 115.684  0.00  0.00    -0.241 OA
ENDBRANCH   3  22
TORSDOF 7
ENDMDL
MODEL 7
REMARK VINA RESULT:      -4.4      2.464      6.238
REMARK  7 active torsions:
REMARK  status: ('A' for Active; 'I' for Inactive)
REMARK    1  A    between atoms: C_2  and  C_3 
REMARK    2  A    between atoms: C_3  and  O_6 
REMARK    3  A    between atoms: C_3  and  C_4 
REMARK    4  A    between atoms: C_7  and  O_6 
REMARK    5  A    between atoms: C_9  and  C_10 
REMARK    6  A    between atoms: N_15  and  C_14 
REMARK    7  A    between atoms: N_20  and  C_19 
REMARK       I    between atoms: C_22  and  N_20 
ROOT
ATOM      1  C   LIG d   1      -3.454  77.766 116.737  0.00  0.00     0.161 C 
ATOM      2  C   LIG d   1      -4.635  78.397 117.161  0.00  0.00     0.016 C 
ATOM      3  C   LIG d   1      -5.876  77.730 117.273  0.00  0.00     0.038 C 
ATOM      4  C   LIG d   1      -5.989  76.341 117.112  0.00  0.00     0.028 C 
ATOM      5  C   LIG d   1      -4.926  75.750 116.192  0.00  0.00    -0.047 C 
ATOM      6  C   LIG d   1      -3.533  76.227 116.664  0.00  0.00     0.091 C 
ENDROOT
BRANCH   1   7
ATOM      7  O   LIG d   1      -2.354  78.171 117.577  0.00  0.00    -0.368 OA
BRANCH   7   8
ATOM      8  C   LIG d   1      -2.212  77.457 118.829  0.00  0.00     0.119 C 
BRANCH   8   9
ATOM      9  C   LIG d   1      -2.360  78.486 119.967  0.00  0.00     0.028 C 
ATOM     10  C   LIG d   1      -2.054  79.920 119.505  0.00  0.00     0.006 C 
ENDBRANCH   8   9
BRANCH   8  11
ATOM     11  C   LIG d   1      -0.802  76.880 118.985  0.00  0.00     0.028 C 
ATOM     12  C   LIG d   1       0.154  77.333 117.870  0.00  0.00     0.006 C 
ENDBRANCH   8  11
ENDBRANCH   7   8
ENDBRANCH   1   7
BRANCH   6  13
ATOM     13  N   LIG d   1      -2.442  75.762 115.768  0.00  0.00    -0.311 N 
ATOM     14  C   LIG d   1      -1.676  74.705 116.033  0.00  0.00     0.210 C 
ATOM     15  C   LIG d   1      -0.596  74.411 114.987  0.00  0.00     0.109 C 
ATOM     16  O   LIG d   1      -1.809  73.965 117.020  0.00  0.00    -0.276 OA
ATOM     17  H   LIG d   1      -2.286  76.286 114.930  0.00  0.00     0.149 HD
ENDBRANCH   6  13
BRANCH   5  18
ATOM     18  N   LIG d   1      -5.076  74.283 116.223  0.00  0.00     0.381 N 
ATOM     19  H   LIG d   1      -5.013  73.916 115.294  0.00  0.00    -0.090 HD
ATOM     20  H   LIG d   1      -5.984  74.057 116.590  0.00  0.00    -0.090 HD
ATOM     21  H   LIG d   1      -4.368  73.880 116.797  0.00  0.00    -0.090 HD
ENDBRANCH   5  18
BRANCH   3  22
ATOM     22  C   LIG d   1      -7.030  78.462 117.511  0.00  0.00     0.382 C 
ATOM     23  O   LIG d   1      -8.141  77.881 117.564  0.00  0.00    -0.241 OA
ATOM     24  O   LIG d   1      -6.980  79.701 117.628  0.00  0.00    -0.241 OA
ENDBRANCH   3  22
TORSDOF 7
ENDMDL
MODEL 8
REMARK VINA RESULT:      -4.4      3.881      6.301
REMARK  7 active torsions:
REMARK  status: ('A' for Active; 'I' for Inactive)
REMARK    1  A    between atoms: C_2  and  C_3 
REMARK    2  A    between atoms: C_3  and  O_6 
REMARK    3  A    between atoms: C_3  and  C_4 
REMARK    4  A    between atoms: C_7  and  O_6 
REMARK    5  A    between atoms: C_9  and  C_10 
REMARK    6  A    between atoms: N_15  and  C_14 
REMARK    7  A    between atoms: N_20  and  C_19 
REMARK       I    between atoms: C_22  and  N_20 
ROOT
ATOM      1  C   LIG d   1      -6.662  79.033 118.379  0.00  0.00     0.161 C 
ATOM      2  C   LIG d   1      -5.440  79.587 118.794  0.00  0.00     0.016 C 
ATOM      3  C   LIG d   1      -4.191  78.957 118.588  0.00  0.00     0.038 C 
ATOM      4  C   LIG d   1      -4.065  77.795 117.813  0.00  0.00     0.028 C 
ATOM      5  C   LIG d   1      -5.324  76.934 117.805  0.00  0.00    -0.047 C 
ATOM      6  C   LIG d   1      -6.536  77.820 117.435  0.00  0.00     0.091 C 
ENDROOT
BRANCH   1   7
ATOM      7  O   LIG d   1      -7.481  80.055 117.776  0.00  0.00    -0.368 OA
BRANCH   7   8
ATOM      8  C   LIG d   1      -8.284  80.848 118.684  0.00  0.00     0.119 C 
BRANCH   8   9
ATOM      9  C   LIG d   1      -9.752  80.729 118.230  0.00  0.00     0.028 C 
ATOM     10  C   LIG d   1     -10.392  79.397 118.658  0.00  0.00     0.006 C 
ENDBRANCH   8   9
BRANCH   8  11
ATOM     11  C   LIG d   1      -7.944  82.337 118.573  0.00  0.00     0.028 C 
ATOM     12  C   LIG d   1      -7.416  82.928 119.889  0.00  0.00     0.006 C 
ENDBRANCH   8  11
ENDBRANCH   7   8
ENDBRANCH   1   7
BRANCH   6  13
ATOM     13  N   LIG d   1      -7.820  77.074 117.486  0.00  0.00    -0.311 N 
ATOM     14  C   LIG d   1      -8.300  76.371 116.462  0.00  0.00     0.210 C 
ATOM     15  C   LIG d   1      -9.651  75.694 116.719  0.00  0.00     0.109 C 
ATOM     16  O   LIG d   1      -7.721  76.216 115.376  0.00  0.00    -0.276 OA
ATOM     17  H   LIG d   1      -8.340  77.119 118.340  0.00  0.00     0.149 HD
ENDBRANCH   6  13
BRANCH   5  18
ATOM     18  N   LIG d   1      -5.103  75.830 116.852  0.00  0.00     0.381 N 
ATOM     19  H   LIG d   1      -5.882  75.758 116.229  0.00  0.00    -0.090 HD
ATOM     20  H   LIG d   1      -5.028  74.968 117.364  0.00  0.00    -0.090 HD
ATOM     21  H   LIG d   1      -4.267  75.990 116.333  0.00  0.00    -0.090 HD
ENDBRANCH   5  18
BRANCH   3  22
ATOM     22  C   LIG d   1      -3.054  79.470 119.194  0.00  0.00     0.382 C 
ATOM     23  O   LIG d   1      -1.918  79.106 118.807  0.00  0.00    -0.241 OA
ATOM     24  O   LIG d   1      -3.151  80.259 120.154  0.00  0.00    -0.241 OA
ENDBRANCH   3  22
TORSDOF 7
ENDMDL
MODEL 9
REMARK VINA RESULT:      -4.3      2.578      6.757
REMARK  7 active torsions:
REMARK  status: ('A' for Active; 'I' for Inactive)
REMARK    1  A    between atoms: C_2  and  C_3 
REMARK    2  A    between atoms: C_3  and  O_6 
REMARK    3  A    between atoms: C_3  and  C_4 
REMARK    4  A    between atoms: C_7  and  O_6 
REMARK    5  A    between atoms: C_9  and  C_10 
REMARK    6  A    between atoms: N_15  and  C_14 
REMARK    7  A    between atoms: N_20  and  C_19 
REMARK       I    between atoms: C_22  and  N_20 
ROOT
ATOM      1  C   LIG d   1      -4.862  78.976 117.281  0.00  0.00     0.161 C 
ATOM      2  C   LIG d   1      -5.951  79.615 117.899  0.00  0.00     0.016 C 
ATOM      3  C   LIG d   1      -7.264  79.090 117.897  0.00  0.00     0.038 C 
ATOM      4  C   LIG d   1      -7.550  77.808 117.404  0.00  0.00     0.028 C 
ATOM      5  C   LIG d   1      -6.580  77.346 116.322  0.00  0.00    -0.047 C 
ATOM      6  C   LIG d   1      -5.133  77.524 116.834  0.00  0.00     0.091 C 
ENDROOT
BRANCH   1   7
ATOM      7  O   LIG d   1      -3.710  79.028 118.145  0.00  0.00    -0.368 OA
BRANCH   7   8
ATOM      8  C   LIG d   1      -3.619  77.987 119.149  0.00  0.00     0.119 C 
BRANCH   8   9
ATOM      9  C   LIG d   1      -3.706  78.667 120.530  0.00  0.00     0.028 C 
ATOM     10  C   LIG d   1      -3.223  80.127 120.496  0.00  0.00     0.006 C 
ENDBRANCH   8   9
BRANCH   8  11
ATOM     11  C   LIG d   1      -2.250  77.302 119.119  0.00  0.00     0.028 C 
ATOM     12  C   LIG d   1      -1.298  77.918 118.081  0.00  0.00     0.006 C 
ENDBRANCH   8  11
ENDBRANCH   7   8
ENDBRANCH   1   7
BRANCH   6  13
ATOM     13  N   LIG d   1      -4.120  77.174 115.805  0.00  0.00    -0.311 N 
ATOM     14  C   LIG d   1      -3.528  75.982 115.734  0.00  0.00     0.210 C 
ATOM     15  C   LIG d   1      -2.499  75.837 114.609  0.00  0.00     0.109 C 
ATOM     16  O   LIG d   1      -3.782  75.022 116.476  0.00  0.00    -0.276 OA
ATOM     17  H   LIG d   1      -3.877  77.885 115.143  0.00  0.00     0.149 HD
ENDBRANCH   6  13
BRANCH   5  18
ATOM     18  N   LIG d   1      -6.910  75.945 115.997  0.00  0.00     0.381 N 
ATOM     19  H   LIG d   1      -6.101  75.481 115.636  0.00  0.00    -0.090 HD
ATOM     20  H   LIG d   1      -7.622  75.935 115.288  0.00  0.00    -0.090 HD
ATOM     21  H   LIG d   1      -7.236  75.474 116.812  0.00  0.00    -0.090 HD
ENDBRANCH   5  18
BRANCH   3  22
ATOM     22  C   LIG d   1      -8.315  79.868 118.358  0.00  0.00     0.382 C 
ATOM     23  O   LIG d   1      -8.874  79.586 119.445  0.00  0.00    -0.241 OA
ATOM     24  O   LIG d   1      -8.739  80.822 117.679  0.00  0.00    -0.241 OA
ENDBRANCH   3  22
TORSDOF 7
ENDMDL
