MODEL 1
REMARK VINA RESULT:      -5.8      0.000      0.000
REMARK  7 active torsions:
REMARK  status: ('A' for Active; 'I' for Inactive)
REMARK    1  A    between atoms: C_2  and  C_3 
REMARK    2  A    between atoms: C_3  and  O_6 
REMARK    3  A    between atoms: C_3  and  C_4 
REMARK    4  A    between atoms: C_7  and  O_6 
REMARK    5  A    between atoms: C_9  and  C_10 
REMARK    6  A    between atoms: N_15  and  C_14 
REMARK    7  A    between atoms: N_20  and  C_19 
REMARK       I    between atoms: C_22  and  N_20 
ROOT
ATOM      1  C   LIG d   1      -7.240  75.973 117.367  0.00  0.00     0.161 C 
ATOM      2  C   LIG d   1      -8.543  76.269 117.800  0.00  0.00     0.016 C 
ATOM      3  C   LIG d   1      -8.940  77.547 118.255  0.00  0.00     0.038 C 
ATOM      4  C   LIG d   1      -8.094  78.662 118.165  0.00  0.00     0.028 C 
ATOM      5  C   LIG d   1      -6.612  78.303 118.206  0.00  0.00    -0.047 C 
ATOM      6  C   LIG d   1      -6.333  77.203 117.157  0.00  0.00     0.091 C 
ENDROOT
BRANCH   1   7
ATOM      7  O   LIG d   1      -7.293  75.178 116.165  0.00  0.00    -0.368 OA
BRANCH   7   8
ATOM      8  C   LIG d   1      -6.714  73.853 116.252  0.00  0.00     0.119 C 
BRANCH   8   9
ATOM      9  C   LIG d   1      -5.797  73.667 115.027  0.00  0.00     0.028 C 
ATOM     10  C   LIG d   1      -5.709  74.936 114.163  0.00  0.00     0.006 C 
ENDBRANCH   8   9
BRANCH   8  11
ATOM     11  C   LIG d   1      -7.787  72.767 116.123  0.00  0.00     0.028 C 
ATOM     12  C   LIG d   1      -7.271  71.372 116.508  0.00  0.00     0.006 C 
ENDBRANCH   8  11
ENDBRANCH   7   8
ENDBRANCH   1   7
BRANCH   6  13
ATOM     13  N   LIG d   1      -4.923  76.734 117.189  0.00  0.00    -0.311 N 
ATOM     14  C   LIG d   1      -3.968  77.227 116.403  0.00  0.00     0.210 C 
ATOM     15  C   LIG d   1      -2.587  76.588 116.584  0.00  0.00     0.109 C 
ATOM     16  O   LIG d   1      -4.126  78.154 115.595  0.00  0.00    -0.276 OA
ATOM     17  H   LIG d   1      -4.700  76.005 117.838  0.00  0.00     0.149 HD
ENDBRANCH   6  13
BRANCH   5  18
ATOM     18  N   LIG d   1      -5.847  79.541 117.965  0.00  0.00     0.381 N 
ATOM     19  H   LIG d   1      -4.948  79.315 117.587  0.00  0.00    -0.090 HD
ATOM     20  H   LIG d   1      -5.710  80.015 118.840  0.00  0.00    -0.090 HD
ATOM     21  H   LIG d   1      -6.342  80.131 117.333  0.00  0.00    -0.090 HD
ENDBRANCH   5  18
BRANCH   3  22
ATOM     22  C   LIG d   1     -10.184  77.711 118.844  0.00  0.00     0.382 C 
ATOM     23  O   LIG d   1     -11.089  76.864 118.645  0.00  0.00    -0.241 OA
ATOM     24  O   LIG d   1     -10.428  78.717 119.537  0.00  0.00    -0.241 OA
ENDBRANCH   3  22
TORSDOF 7
ENDMDL
MODEL 2
REMARK VINA RESULT:      -5.7     14.359     16.249
REMARK  7 active torsions:
REMARK  status: ('A' for Active; 'I' for Inactive)
REMARK    1  A    between atoms: C_2  and  C_3 
REMARK    2  A    between atoms: C_3  and  O_6 
REMARK    3  A    between atoms: C_3  and  C_4 
REMARK    4  A    between atoms: C_7  and  O_6 
REMARK    5  A    between atoms: C_9  and  C_10 
REMARK    6  A    between atoms: N_15  and  C_14 
REMARK    7  A    between atoms: N_20  and  C_19 
REMARK       I    between atoms: C_22  and  N_20 
ROOT
ATOM      1  C   LIG d   1      -5.933  91.691 119.412  0.00  0.00     0.161 C 
ATOM      2  C   LIG d   1      -7.269  92.109 119.528  0.00  0.00     0.016 C 
ATOM      3  C   LIG d   1      -7.656  93.466 119.606  0.00  0.00     0.038 C 
ATOM      4  C   LIG d   1      -6.738  94.511 119.421  0.00  0.00     0.028 C 
ATOM      5  C   LIG d   1      -5.310  94.138 119.806  0.00  0.00    -0.047 C 
ATOM      6  C   LIG d   1      -4.928  92.819 119.096  0.00  0.00     0.091 C 
ENDROOT
BRANCH   1   7
ATOM      7  O   LIG d   1      -5.832  90.642 118.429  0.00  0.00    -0.368 OA
BRANCH   7   8
ATOM      8  C   LIG d   1      -6.160  91.010 117.067  0.00  0.00     0.119 C 
BRANCH   8   9
ATOM      9  C   LIG d   1      -7.206  90.002 116.553  0.00  0.00     0.028 C 
ATOM     10  C   LIG d   1      -7.357  90.041 115.023  0.00  0.00     0.006 C 
ENDBRANCH   8   9
BRANCH   8  11
ATOM     11  C   LIG d   1      -4.952  90.849 116.140  0.00  0.00     0.028 C 
ATOM     12  C   LIG d   1      -3.822  90.022 116.772  0.00  0.00     0.006 C 
ENDBRANCH   8  11
ENDBRANCH   7   8
ENDBRANCH   1   7
BRANCH   6  13
ATOM     13  N   LIG d   1      -3.576  92.338 119.484  0.00  0.00    -0.311 N 
ATOM     14  C   LIG d   1      -2.478  92.586 118.772  0.00  0.00     0.210 C 
ATOM     15  C   LIG d   1      -1.190  91.981 119.339  0.00  0.00     0.109 C 
ATOM     16  O   LIG d   1      -2.443  93.277 117.743  0.00  0.00    -0.276 OA
ATOM     17  H   LIG d   1      -3.508  91.796 120.323  0.00  0.00     0.149 HD
ENDBRANCH   6  13
BRANCH   5  18
ATOM     18  N   LIG d   1      -4.439  95.268 119.434  0.00  0.00     0.381 N 
ATOM     19  H   LIG d   1      -4.269  95.255 118.448  0.00  0.00    -0.090 HD
ATOM     20  H   LIG d   1      -3.558  95.169 119.907  0.00  0.00    -0.090 HD
ATOM     21  H   LIG d   1      -4.868  96.130 119.692  0.00  0.00    -0.090 HD
ENDBRANCH   5  18
BRANCH   3  22
ATOM     22  C   LIG d   1      -8.969  93.790 119.913  0.00  0.00     0.382 C 
ATOM     23  O   LIG d   1      -9.682  92.979 120.552  0.00  0.00    -0.241 OA
ATOM     24  O   LIG d   1      -9.463  94.864 119.521  0.00  0.00    -0.241 OA
ENDBRANCH   3  22
TORSDOF 7
ENDMDL
MODEL 3
REMARK VINA RESULT:      -5.6      1.872      5.072
REMARK  7 active torsions:
REMARK  status: ('A' for Active; 'I' for Inactive)
REMARK    1  A    between atoms: C_2  and  C_3 
REMARK    2  A    between atoms: C_3  and  O_6 
REMARK    3  A    between atoms: C_3  and  C_4 
REMARK    4  A    between atoms: C_7  and  O_6 
REMARK    5  A    between atoms: C_9  and  C_10 
REMARK    6  A    between atoms: N_15  and  C_14 
REMARK    7  A    between atoms: N_20  and  C_19 
REMARK       I    between atoms: C_22  and  N_20 
ROOT
ATOM      1  C   LIG d   1      -6.518  76.156 115.790  0.00  0.00     0.161 C 
ATOM      2  C   LIG d   1      -5.310  75.751 115.197  0.00  0.00     0.016 C 
ATOM      3  C   LIG d   1      -4.045  75.946 115.797  0.00  0.00     0.038 C 
ATOM      4  C   LIG d   1      -3.913  76.428 117.108  0.00  0.00     0.028 C 
ATOM      5  C   LIG d   1      -5.071  77.317 117.547  0.00  0.00    -0.047 C 
ATOM      6  C   LIG d   1      -6.402  76.581 117.268  0.00  0.00     0.091 C 
ENDROOT
BRANCH   1   7
ATOM      7  O   LIG d   1      -7.506  75.117 115.644  0.00  0.00    -0.368 OA
BRANCH   7   8
ATOM      8  C   LIG d   1      -7.446  74.039 116.610  0.00  0.00     0.119 C 
BRANCH   8   9
ATOM      9  C   LIG d   1      -6.792  72.829 115.914  0.00  0.00     0.028 C 
ATOM     10  C   LIG d   1      -7.393  71.491 116.377  0.00  0.00     0.006 C 
ENDBRANCH   8   9
BRANCH   8  11
ATOM     11  C   LIG d   1      -8.848  73.569 117.009  0.00  0.00     0.028 C 
ATOM     12  C   LIG d   1      -9.865  74.719 117.077  0.00  0.00     0.006 C 
ENDBRANCH   8  11
ENDBRANCH   7   8
ENDBRANCH   1   7
BRANCH   6  13
ATOM     13  N   LIG d   1      -7.589  77.416 117.590  0.00  0.00    -0.311 N 
ATOM     14  C   LIG d   1      -8.195  77.401 118.776  0.00  0.00     0.210 C 
ATOM     15  C   LIG d   1      -9.414  78.323 118.891  0.00  0.00     0.109 C 
ATOM     16  O   LIG d   1      -7.821  76.736 119.754  0.00  0.00    -0.276 OA
ATOM     17  H   LIG d   1      -7.941  78.008 116.864  0.00  0.00     0.149 HD
ENDBRANCH   6  13
BRANCH   5  18
ATOM     18  N   LIG d   1      -4.874  77.635 118.974  0.00  0.00     0.381 N 
ATOM     19  H   LIG d   1      -5.740  77.536 119.466  0.00  0.00    -0.090 HD
ATOM     20  H   LIG d   1      -4.572  78.590 119.056  0.00  0.00    -0.090 HD
ATOM     21  H   LIG d   1      -4.189  77.027 119.367  0.00  0.00    -0.090 HD
ENDBRANCH   5  18
BRANCH   3  22
ATOM     22  C   LIG d   1      -2.892  75.696 115.068  0.00  0.00     0.382 C 
ATOM     23  O   LIG d   1      -1.912  75.138 115.617  0.00  0.00    -0.241 OA
ATOM     24  O   LIG d   1      -2.804  76.062 113.881  0.00  0.00    -0.241 OA
ENDBRANCH   3  22
TORSDOF 7
ENDMDL
MODEL 4
REMARK VINA RESULT:      -5.4     14.528     17.215
REMARK  7 active torsions:
REMARK  status: ('A' for Active; 'I' for Inactive)
REMARK    1  A    between atoms: C_2  and  C_3 
REMARK    2  A    between atoms: C_3  and  O_6 
REMARK    3  A    between atoms: C_3  and  C_4 
REMARK    4  A    between atoms: C_7  and  O_6 
REMARK    5  A    between atoms: C_9  and  C_10 
REMARK    6  A    between atoms: N_15  and  C_14 
REMARK    7  A    between atoms: N_20  and  C_19 
REMARK       I    between atoms: C_22  and  N_20 
ROOT
ATOM      1  C   LIG d   1      -5.885  92.932 118.292  0.00  0.00     0.161 C 
ATOM      2  C   LIG d   1      -6.558  91.940 117.560  0.00  0.00     0.016 C 
ATOM      3  C   LIG d   1      -5.899  90.877 116.901  0.00  0.00     0.038 C 
ATOM      4  C   LIG d   1      -4.524  90.648 117.056  0.00  0.00     0.028 C 
ATOM      5  C   LIG d   1      -3.731  91.911 117.371  0.00  0.00    -0.047 C 
ATOM      6  C   LIG d   1      -4.395  92.636 118.564  0.00  0.00     0.091 C 
ENDROOT
BRANCH   1   7
ATOM      7  O   LIG d   1      -6.580  93.183 119.529  0.00  0.00    -0.368 OA
BRANCH   7   8
ATOM      8  C   LIG d   1      -7.252  94.463 119.634  0.00  0.00     0.119 C 
BRANCH   8   9
ATOM      9  C   LIG d   1      -8.761  94.184 119.772  0.00  0.00     0.028 C 
ATOM     10  C   LIG d   1      -9.050  92.892 120.555  0.00  0.00     0.006 C 
ENDBRANCH   8   9
BRANCH   8  11
ATOM     11  C   LIG d   1      -7.105  95.277 118.345  0.00  0.00     0.028 C 
ATOM     12  C   LIG d   1      -8.408  95.982 117.935  0.00  0.00     0.006 C 
ENDBRANCH   8  11
ENDBRANCH   7   8
ENDBRANCH   1   7
BRANCH   6  13
ATOM     13  N   LIG d   1      -3.731  93.926 118.885  0.00  0.00    -0.311 N 
ATOM     14  C   LIG d   1      -2.765  94.048 119.794  0.00  0.00     0.210 C 
ATOM     15  C   LIG d   1      -2.231  95.471 119.983  0.00  0.00     0.109 C 
ATOM     16  O   LIG d   1      -2.278  93.107 120.438  0.00  0.00    -0.276 OA
ATOM     17  H   LIG d   1      -4.044  94.736 118.386  0.00  0.00     0.149 HD
ENDBRANCH   6  13
BRANCH   5  18
ATOM     18  N   LIG d   1      -2.338  91.507 117.643  0.00  0.00     0.381 N 
ATOM     19  H   LIG d   1      -1.853  91.363 116.780  0.00  0.00    -0.090 HD
ATOM     20  H   LIG d   1      -2.344  90.640 118.150  0.00  0.00    -0.090 HD
ATOM     21  H   LIG d   1      -1.878  92.210 118.178  0.00  0.00    -0.090 HD
ENDBRANCH   5  18
BRANCH   3  22
ATOM     22  C   LIG d   1      -6.612  90.053 116.043  0.00  0.00     0.382 C 
ATOM     23  O   LIG d   1      -7.786  89.716 116.329  0.00  0.00    -0.241 OA
ATOM     24  O   LIG d   1      -6.080  89.606 115.009  0.00  0.00    -0.241 OA
ENDBRANCH   3  22
TORSDOF 7
ENDMDL
MODEL 5
REMARK VINA RESULT:      -5.3      2.106      4.595
REMARK  7 active torsions:
REMARK  status: ('A' for Active; 'I' for Inactive)
REMARK    1  A    between atoms: C_2  and  C_3 
REMARK    2  A    between atoms: C_3  and  O_6 
REMARK    3  A    between atoms: C_3  and  C_4 
REMARK    4  A    between atoms: C_7  and  O_6 
REMARK    5  A    between atoms: C_9  and  C_10 
REMARK    6  A    between atoms: N_15  and  C_14 
REMARK    7  A    between atoms: N_20  and  C_19 
REMARK       I    between atoms: C_22  and  N_20 
ROOT
ATOM      1  C   LIG d   1      -5.913  75.793 116.440  0.00  0.00     0.161 C 
ATOM      2  C   LIG d   1      -6.355  74.514 116.066  0.00  0.00     0.016 C 
ATOM      3  C   LIG d   1      -7.603  73.976 116.458  0.00  0.00     0.038 C 
ATOM      4  C   LIG d   1      -8.563  74.746 117.132  0.00  0.00     0.028 C 
ATOM      5  C   LIG d   1      -7.961  75.871 117.966  0.00  0.00    -0.047 C 
ATOM      6  C   LIG d   1      -6.993  76.689 117.082  0.00  0.00     0.091 C 
ENDROOT
BRANCH   1   7
ATOM      7  O   LIG d   1      -5.320  76.457 115.306  0.00  0.00    -0.368 OA
BRANCH   7   8
ATOM      8  C   LIG d   1      -3.884  76.645 115.356  0.00  0.00     0.119 C 
BRANCH   8   9
ATOM      9  C   LIG d   1      -3.256  75.699 114.315  0.00  0.00     0.028 C 
ATOM     10  C   LIG d   1      -1.719  75.741 114.335  0.00  0.00     0.006 C 
ENDBRANCH   8   9
BRANCH   8  11
ATOM     11  C   LIG d   1      -3.311  76.201 116.706  0.00  0.00     0.028 C 
ATOM     12  C   LIG d   1      -2.730  77.369 117.519  0.00  0.00     0.006 C 
ENDBRANCH   8  11
ENDBRANCH   7   8
ENDBRANCH   1   7
BRANCH   6  13
ATOM     13  N   LIG d   1      -6.296  77.759 117.843  0.00  0.00    -0.311 N 
ATOM     14  C   LIG d   1      -6.805  78.976 118.030  0.00  0.00     0.210 C 
ATOM     15  C   LIG d   1      -5.913  79.933 118.826  0.00  0.00     0.109 C 
ATOM     16  O   LIG d   1      -7.923  79.342 117.639  0.00  0.00    -0.276 OA
ATOM     17  H   LIG d   1      -5.396  77.537 118.221  0.00  0.00     0.149 HD
ENDBRANCH   6  13
BRANCH   5  18
ATOM     18  N   LIG d   1      -9.075  76.675 118.501  0.00  0.00     0.381 N 
ATOM     19  H   LIG d   1      -9.176  76.505 119.482  0.00  0.00    -0.090 HD
ATOM     20  H   LIG d   1      -9.926  76.396 118.044  0.00  0.00    -0.090 HD
ATOM     21  H   LIG d   1      -8.905  77.643 118.340  0.00  0.00    -0.090 HD
ENDBRANCH   5  18
BRANCH   3  22
ATOM     22  C   LIG d   1      -7.884  72.641 116.212  0.00  0.00     0.382 C 
ATOM     23  O   LIG d   1      -7.007  71.899 115.706  0.00  0.00    -0.241 OA
ATOM     24  O   LIG d   1      -9.017  72.180 116.447  0.00  0.00    -0.241 OA
ENDBRANCH   3  22
TORSDOF 7
ENDMDL
MODEL 6
REMARK VINA RESULT:      -5.2      2.147      4.312
REMARK  7 active torsions:
REMARK  status: ('A' for Active; 'I' for Inactive)
REMARK    1  A    between atoms: C_2  and  C_3 
REMARK    2  A    between atoms: C_3  and  O_6 
REMARK    3  A    between atoms: C_3  and  C_4 
REMARK    4  A    between atoms: C_7  and  O_6 
REMARK    5  A    between atoms: C_9  and  C_10 
REMARK    6  A    between atoms: N_15  and  C_14 
REMARK    7  A    between atoms: N_20  and  C_19 
REMARK       I    between atoms: C_22  and  N_20 
ROOT
ATOM      1  C   LIG d   1      -6.700  76.262 116.925  0.00  0.00     0.161 C 
ATOM      2  C   LIG d   1      -7.363  77.349 117.519  0.00  0.00     0.016 C 
ATOM      3  C   LIG d   1      -8.709  77.298 117.950  0.00  0.00     0.038 C 
ATOM      4  C   LIG d   1      -9.442  76.102 117.953  0.00  0.00     0.028 C 
ATOM      5  C   LIG d   1      -8.978  75.104 116.897  0.00  0.00    -0.047 C 
ATOM      6  C   LIG d   1      -7.449  74.916 117.022  0.00  0.00     0.091 C 
ENDROOT
BRANCH   1   7
ATOM      7  O   LIG d   1      -5.374  76.139 117.475  0.00  0.00    -0.368 OA
BRANCH   7   8
ATOM      8  C   LIG d   1      -4.300  76.705 116.684  0.00  0.00     0.119 C 
BRANCH   8   9
ATOM      9  C   LIG d   1      -3.600  75.542 115.954  0.00  0.00     0.028 C 
ATOM     10  C   LIG d   1      -3.955  75.490 114.459  0.00  0.00     0.006 C 
ENDBRANCH   8   9
BRANCH   8  11
ATOM     11  C   LIG d   1      -3.223  77.332 117.574  0.00  0.00     0.028 C 
ATOM     12  C   LIG d   1      -3.673  78.656 118.211  0.00  0.00     0.006 C 
ENDBRANCH   8  11
ENDBRANCH   7   8
ENDBRANCH   1   7
BRANCH   6  13
ATOM     13  N   LIG d   1      -6.900  74.020 115.971  0.00  0.00    -0.311 N 
ATOM     14  C   LIG d   1      -6.790  72.700 116.117  0.00  0.00     0.210 C 
ATOM     15  C   LIG d   1      -6.180  71.966 114.920  0.00  0.00     0.109 C 
ATOM     16  O   LIG d   1      -7.170  72.065 117.112  0.00  0.00    -0.276 OA
ATOM     17  H   LIG d   1      -6.597  74.448 115.119  0.00  0.00     0.149 HD
ENDBRANCH   6  13
BRANCH   5  18
ATOM     18  N   LIG d   1      -9.733  73.854 117.103  0.00  0.00     0.381 N 
ATOM     19  H   LIG d   1     -10.709  74.057 117.188  0.00  0.00    -0.090 HD
ATOM     20  H   LIG d   1      -9.425  73.426 117.959  0.00  0.00    -0.090 HD
ATOM     21  H   LIG d   1      -9.580  73.234 116.339  0.00  0.00    -0.090 HD
ENDBRANCH   5  18
BRANCH   3  22
ATOM     22  C   LIG d   1      -9.348  78.463 118.346  0.00  0.00     0.382 C 
ATOM     23  O   LIG d   1      -8.769  79.569 118.221  0.00  0.00    -0.241 OA
ATOM     24  O   LIG d   1     -10.477  78.418 118.869  0.00  0.00    -0.241 OA
ENDBRANCH   3  22
TORSDOF 7
ENDMDL
MODEL 7
REMARK VINA RESULT:      -5.0      2.304      4.630
REMARK  7 active torsions:
REMARK  status: ('A' for Active; 'I' for Inactive)
REMARK    1  A    between atoms: C_2  and  C_3 
REMARK    2  A    between atoms: C_3  and  O_6 
REMARK    3  A    between atoms: C_3  and  C_4 
REMARK    4  A    between atoms: C_7  and  O_6 
REMARK    5  A    between atoms: C_9  and  C_10 
REMARK    6  A    between atoms: N_15  and  C_14 
REMARK    7  A    between atoms: N_20  and  C_19 
REMARK       I    between atoms: C_22  and  N_20 
ROOT
ATOM      1  C   LIG d   1      -6.228  76.169 116.455  0.00  0.00     0.161 C 
ATOM      2  C   LIG d   1      -7.526  75.900 116.920  0.00  0.00     0.016 C 
ATOM      3  C   LIG d   1      -8.132  74.625 116.843  0.00  0.00     0.038 C 
ATOM      4  C   LIG d   1      -7.420  73.489 116.431  0.00  0.00     0.028 C 
ATOM      5  C   LIG d   1      -6.271  73.807 115.480  0.00  0.00    -0.047 C 
ATOM      6  C   LIG d   1      -5.395  74.918 116.104  0.00  0.00     0.091 C 
ENDROOT
BRANCH   1   7
ATOM      7  O   LIG d   1      -5.525  76.986 117.412  0.00  0.00    -0.368 OA
BRANCH   7   8
ATOM      8  C   LIG d   1      -5.258  78.351 117.010  0.00  0.00     0.119 C 
BRANCH   8   9
ATOM      9  C   LIG d   1      -3.728  78.531 116.970  0.00  0.00     0.028 C 
ATOM     10  C   LIG d   1      -3.244  79.144 115.645  0.00  0.00     0.006 C 
ENDBRANCH   8   9
BRANCH   8  11
ATOM     11  C   LIG d   1      -5.756  79.349 118.060  0.00  0.00     0.028 C 
ATOM     12  C   LIG d   1      -7.288  79.375 118.178  0.00  0.00     0.006 C 
ENDBRANCH   8  11
ENDBRANCH   7   8
ENDBRANCH   1   7
BRANCH   6  13
ATOM     13  N   LIG d   1      -4.296  75.348 115.201  0.00  0.00    -0.311 N 
ATOM     14  C   LIG d   1      -3.006  75.226 115.507  0.00  0.00     0.210 C 
ATOM     15  C   LIG d   1      -2.037  75.750 114.443  0.00  0.00     0.109 C 
ATOM     16  O   LIG d   1      -2.571  74.703 116.544  0.00  0.00    -0.276 OA
ATOM     17  H   LIG d   1      -4.559  75.754 114.324  0.00  0.00     0.149 HD
ENDBRANCH   6  13
BRANCH   5  18
ATOM     18  N   LIG d   1      -5.531  72.554 115.240  0.00  0.00     0.381 N 
ATOM     19  H   LIG d   1      -4.553  72.748 115.160  0.00  0.00    -0.090 HD
ATOM     20  H   LIG d   1      -5.845  72.151 114.375  0.00  0.00    -0.090 HD
ATOM     21  H   LIG d   1      -5.690  71.916 115.989  0.00  0.00    -0.090 HD
ENDBRANCH   5  18
BRANCH   3  22
ATOM     22  C   LIG d   1      -9.479  74.485 117.144  0.00  0.00     0.382 C 
ATOM     23  O   LIG d   1     -10.129  75.465 117.582  0.00  0.00    -0.241 OA
ATOM     24  O   LIG d   1     -10.041  73.380 117.026  0.00  0.00    -0.241 OA
ENDBRANCH   3  22
TORSDOF 7
ENDMDL
MODEL 8
REMARK VINA RESULT:      -4.9      2.346      6.183
REMARK  7 active torsions:
REMARK  status: ('A' for Active; 'I' for Inactive)
REMARK    1  A    between atoms: C_2  and  C_3 
REMARK    2  A    between atoms: C_3  and  O_6 
REMARK    3  A    between atoms: C_3  and  C_4 
REMARK    4  A    between atoms: C_7  and  O_6 
REMARK    5  A    between atoms: C_9  and  C_10 
REMARK    6  A    between atoms: N_15  and  C_14 
REMARK    7  A    between atoms: N_20  and  C_19 
REMARK       I    between atoms: C_22  and  N_20 
ROOT
ATOM      1  C   LIG d   1      -6.839  77.238 117.449  0.00  0.00     0.161 C 
ATOM      2  C   LIG d   1      -6.136  76.514 116.471  0.00  0.00     0.016 C 
ATOM      3  C   LIG d   1      -6.658  75.369 115.826  0.00  0.00     0.038 C 
ATOM      4  C   LIG d   1      -7.986  74.956 116.008  0.00  0.00     0.028 C 
ATOM      5  C   LIG d   1      -8.565  75.355 117.361  0.00  0.00    -0.047 C 
ATOM      6  C   LIG d   1      -8.331  76.867 117.580  0.00  0.00     0.091 C 
ENDROOT
BRANCH   1   7
ATOM      7  O   LIG d   1      -6.693  78.652 117.211  0.00  0.00    -0.368 OA
BRANCH   7   8
ATOM      8  C   LIG d   1      -5.871  79.376 118.159  0.00  0.00     0.119 C 
BRANCH   8   9
ATOM      9  C   LIG d   1      -5.414  78.374 119.236  0.00  0.00     0.028 C 
ATOM     10  C   LIG d   1      -4.936  79.071 120.521  0.00  0.00     0.006 C 
ENDBRANCH   8   9
BRANCH   8  11
ATOM     11  C   LIG d   1      -6.687  80.434 118.908  0.00  0.00     0.028 C 
ATOM     12  C   LIG d   1      -7.342  81.458 117.968  0.00  0.00     0.006 C 
ENDBRANCH   8  11
ENDBRANCH   7   8
ENDBRANCH   1   7
BRANCH   6  13
ATOM     13  N   LIG d   1      -8.792  77.324 118.917  0.00  0.00    -0.311 N 
ATOM     14  C   LIG d   1      -9.647  78.331 119.093  0.00  0.00     0.210 C 
ATOM     15  C   LIG d   1      -9.974  78.652 120.555  0.00  0.00     0.109 C 
ATOM     16  O   LIG d   1     -10.189  78.967 118.177  0.00  0.00    -0.276 OA
ATOM     17  H   LIG d   1      -8.426  76.843 119.715  0.00  0.00     0.149 HD
ENDBRANCH   6  13
BRANCH   5  18
ATOM     18  N   LIG d   1      -9.992  74.984 117.362  0.00  0.00     0.381 N 
ATOM     19  H   LIG d   1     -10.382  75.140 118.271  0.00  0.00    -0.090 HD
ATOM     20  H   LIG d   1     -10.074  74.006 117.148  0.00  0.00    -0.090 HD
ATOM     21  H   LIG d   1     -10.485  75.523 116.685  0.00  0.00    -0.090 HD
ENDBRANCH   5  18
BRANCH   3  22
ATOM     22  C   LIG d   1      -5.834  74.601 115.018  0.00  0.00     0.382 C 
ATOM     23  O   LIG d   1      -5.667  74.914 113.814  0.00  0.00    -0.241 OA
ATOM     24  O   LIG d   1      -5.290  73.574 115.465  0.00  0.00    -0.241 OA
ENDBRANCH   3  22
TORSDOF 7
ENDMDL
MODEL 9
REMARK VINA RESULT:      -4.3      2.505      5.757
REMARK  7 active torsions:
REMARK  status: ('A' for Active; 'I' for Inactive)
REMARK    1  A    between atoms: C_2  and  C_3 
REMARK    2  A    between atoms: C_3  and  O_6 
REMARK    3  A    between atoms: C_3  and  C_4 
REMARK    4  A    between atoms: C_7  and  O_6 
REMARK    5  A    between atoms: C_9  and  C_10 
REMARK    6  A    between atoms: N_15  and  C_14 
REMARK    7  A    between atoms: N_20  and  C_19 
REMARK       I    between atoms: C_22  and  N_20 
ROOT
ATOM      1  C   LIG d   1      -6.375  78.758 118.004  0.00  0.00     0.161 C 
ATOM      2  C   LIG d   1      -5.688  79.931 118.361  0.00  0.00     0.016 C 
ATOM      3  C   LIG d   1      -4.362  80.208 117.958  0.00  0.00     0.038 C 
ATOM      4  C   LIG d   1      -3.680  79.396 117.039  0.00  0.00     0.028 C 
ATOM      5  C   LIG d   1      -4.149  77.945 117.050  0.00  0.00    -0.047 C 
ATOM      6  C   LIG d   1      -5.688  77.913 116.911  0.00  0.00     0.091 C 
ENDROOT
BRANCH   1   7
ATOM      7  O   LIG d   1      -7.724  79.083 117.612  0.00  0.00    -0.368 OA
BRANCH   7   8
ATOM      8  C   LIG d   1      -8.742  78.909 118.628  0.00  0.00     0.119 C 
BRANCH   8   9
ATOM      9  C   LIG d   1      -9.395  77.532 118.399  0.00  0.00     0.028 C 
ATOM     10  C   LIG d   1     -10.645  77.324 119.270  0.00  0.00     0.006 C 
ENDBRANCH   8   9
BRANCH   8  11
ATOM     11  C   LIG d   1      -9.874  79.928 118.462  0.00  0.00     0.028 C 
ATOM     12  C   LIG d   1      -9.426  81.202 117.730  0.00  0.00     0.006 C 
ENDBRANCH   8  11
ENDBRANCH   7   8
ENDBRANCH   1   7
BRANCH   6  13
ATOM     13  N   LIG d   1      -6.236  76.535 116.997  0.00  0.00    -0.311 N 
ATOM     14  C   LIG d   1      -6.512  75.788 115.929  0.00  0.00     0.210 C 
ATOM     15  C   LIG d   1      -7.089  74.403 116.240  0.00  0.00     0.109 C 
ATOM     16  O   LIG d   1      -6.302  76.128 114.755  0.00  0.00    -0.276 OA
ATOM     17  H   LIG d   1      -6.407  76.168 117.913  0.00  0.00     0.149 HD
ENDBRANCH   6  13
BRANCH   5  18
ATOM     18  N   LIG d   1      -3.454  77.245 115.953  0.00  0.00     0.381 N 
ATOM     19  H   LIG d   1      -4.111  76.995 115.241  0.00  0.00    -0.090 HD
ATOM     20  H   LIG d   1      -3.044  76.402 116.314  0.00  0.00    -0.090 HD
ATOM     21  H   LIG d   1      -2.745  77.830 115.569  0.00  0.00    -0.090 HD
ENDBRANCH   5  18
BRANCH   3  22
ATOM     22  C   LIG d   1      -3.689  81.289 118.508  0.00  0.00     0.382 C 
ATOM     23  O   LIG d   1      -4.323  82.318 118.843  0.00  0.00    -0.241 OA
ATOM     24  O   LIG d   1      -2.450  81.265 118.632  0.00  0.00    -0.241 OA
ENDBRANCH   3  22
TORSDOF 7
ENDMDL
