MODEL 1
REMARK VINA RESULT:      -5.1      0.000      0.000
REMARK  7 active torsions:
REMARK  status: ('A' for Active; 'I' for Inactive)
REMARK    1  A    between atoms: C_2  and  C_3 
REMARK    2  A    between atoms: C_3  and  O_6 
REMARK    3  A    between atoms: C_3  and  C_4 
REMARK    4  A    between atoms: C_7  and  O_6 
REMARK    5  A    between atoms: C_9  and  C_10 
REMARK    6  A    between atoms: N_15  and  C_14 
REMARK    7  A    between atoms: N_20  and  C_19 
REMARK       I    between atoms: C_22  and  N_20 
ROOT
ATOM      1  C   LIG d   1      -6.417  76.223 117.395  0.00  0.00     0.161 C 
ATOM      2  C   LIG d   1      -7.466  77.145 117.548  0.00  0.00     0.016 C 
ATOM      3  C   LIG d   1      -7.278  78.546 117.544  0.00  0.00     0.038 C 
ATOM      4  C   LIG d   1      -6.039  79.127 117.233  0.00  0.00     0.028 C 
ATOM      5  C   LIG d   1      -4.850  78.234 117.569  0.00  0.00    -0.047 C 
ATOM      6  C   LIG d   1      -5.077  76.839 116.943  0.00  0.00     0.091 C 
ENDROOT
BRANCH   1   7
ATOM      7  O   LIG d   1      -6.817  75.174 116.490  0.00  0.00    -0.368 OA
BRANCH   7   8
ATOM      8  C   LIG d   1      -7.050  73.874 117.085  0.00  0.00     0.119 C 
BRANCH   8   9
ATOM      9  C   LIG d   1      -6.502  72.814 116.111  0.00  0.00     0.028 C 
ATOM     10  C   LIG d   1      -5.469  73.396 115.131  0.00  0.00     0.006 C 
ENDBRANCH   8   9
BRANCH   8  11
ATOM     11  C   LIG d   1      -8.548  73.577 117.207  0.00  0.00     0.028 C 
ATOM     12  C   LIG d   1      -8.893  72.113 116.892  0.00  0.00     0.006 C 
ENDBRANCH   8  11
ENDBRANCH   7   8
ENDBRANCH   1   7
BRANCH   6  13
ATOM     13  N   LIG d   1      -3.999  75.877 117.295  0.00  0.00    -0.311 N 
ATOM     14  C   LIG d   1      -2.947  75.638 116.515  0.00  0.00     0.210 C 
ATOM     15  C   LIG d   1      -1.964  74.596 117.057  0.00  0.00     0.109 C 
ATOM     16  O   LIG d   1      -2.717  76.214 115.440  0.00  0.00    -0.276 OA
ATOM     17  H   LIG d   1      -4.090  75.389 118.164  0.00  0.00     0.149 HD
ENDBRANCH   6  13
BRANCH   5  18
ATOM     18  N   LIG d   1      -3.635  78.902 117.068  0.00  0.00     0.381 N 
ATOM     19  H   LIG d   1      -3.440  79.711 117.623  0.00  0.00    -0.090 HD
ATOM     20  H   LIG d   1      -3.794  79.200 116.122  0.00  0.00    -0.090 HD
ATOM     21  H   LIG d   1      -2.862  78.274 117.101  0.00  0.00    -0.090 HD
ENDBRANCH   5  18
BRANCH   3  22
ATOM     22  C   LIG d   1      -8.328  79.382 117.893  0.00  0.00     0.382 C 
ATOM     23  O   LIG d   1      -9.302  78.928 118.540  0.00  0.00    -0.241 OA
ATOM     24  O   LIG d   1      -8.334  80.574 117.531  0.00  0.00    -0.241 OA
ENDBRANCH   3  22
TORSDOF 7
ENDMDL
MODEL 2
REMARK VINA RESULT:      -4.9      2.616      5.515
REMARK  7 active torsions:
REMARK  status: ('A' for Active; 'I' for Inactive)
REMARK    1  A    between atoms: C_2  and  C_3 
REMARK    2  A    between atoms: C_3  and  O_6 
REMARK    3  A    between atoms: C_3  and  C_4 
REMARK    4  A    between atoms: C_7  and  O_6 
REMARK    5  A    between atoms: C_9  and  C_10 
REMARK    6  A    between atoms: N_15  and  C_14 
REMARK    7  A    between atoms: N_20  and  C_19 
REMARK       I    between atoms: C_22  and  N_20 
ROOT
ATOM      1  C   LIG d   1      -3.539  75.079 116.042  0.00  0.00     0.161 C 
ATOM      2  C   LIG d   1      -4.429  74.011 115.836  0.00  0.00     0.016 C 
ATOM      3  C   LIG d   1      -5.815  74.092 116.099  0.00  0.00     0.038 C 
ATOM      4  C   LIG d   1      -6.435  75.302 116.445  0.00  0.00     0.028 C 
ATOM      5  C   LIG d   1      -5.502  76.280 117.152  0.00  0.00    -0.047 C 
ATOM      6  C   LIG d   1      -4.214  76.440 116.313  0.00  0.00     0.091 C 
ENDROOT
BRANCH   1   7
ATOM      7  O   LIG d   1      -2.634  75.183 114.925  0.00  0.00    -0.368 OA
BRANCH   7   8
ATOM      8  C   LIG d   1      -1.250  74.845 115.192  0.00  0.00     0.119 C 
BRANCH   8   9
ATOM      9  C   LIG d   1      -1.158  74.404 116.666  0.00  0.00     0.028 C 
ATOM     10  C   LIG d   1       0.194  73.753 117.001  0.00  0.00     0.006 C 
ENDBRANCH   8   9
BRANCH   8  11
ATOM     11  C   LIG d   1      -0.344  76.074 115.079  0.00  0.00     0.028 C 
ATOM     12  C   LIG d   1      -0.922  77.158 114.155  0.00  0.00     0.006 C 
ENDBRANCH   8  11
ENDBRANCH   7   8
ENDBRANCH   1   7
BRANCH   6  13
ATOM     13  N   LIG d   1      -3.212  77.315 116.975  0.00  0.00    -0.311 N 
ATOM     14  C   LIG d   1      -3.098  78.618 116.726  0.00  0.00     0.210 C 
ATOM     15  C   LIG d   1      -1.986  79.330 117.503  0.00  0.00     0.109 C 
ATOM     16  O   LIG d   1      -3.834  79.259 115.960  0.00  0.00    -0.276 OA
ATOM     17  H   LIG d   1      -2.594  76.883 117.635  0.00  0.00     0.149 HD
ENDBRANCH   6  13
BRANCH   5  18
ATOM     18  N   LIG d   1      -6.237  77.546 117.331  0.00  0.00     0.381 N 
ATOM     19  H   LIG d   1      -7.159  77.460 116.952  0.00  0.00    -0.090 HD
ATOM     20  H   LIG d   1      -5.757  78.274 116.831  0.00  0.00    -0.090 HD
ATOM     21  H   LIG d   1      -6.289  77.776 118.299  0.00  0.00    -0.090 HD
ENDBRANCH   5  18
BRANCH   3  22
ATOM     22  C   LIG d   1      -6.591  72.944 116.055  0.00  0.00     0.382 C 
ATOM     23  O   LIG d   1      -6.264  71.995 115.302  0.00  0.00    -0.241 OA
ATOM     24  O   LIG d   1      -7.638  72.862 116.725  0.00  0.00    -0.241 OA
ENDBRANCH   3  22
TORSDOF 7
ENDMDL
MODEL 3
REMARK VINA RESULT:      -4.5      3.096      5.710
REMARK  7 active torsions:
REMARK  status: ('A' for Active; 'I' for Inactive)
REMARK    1  A    between atoms: C_2  and  C_3 
REMARK    2  A    between atoms: C_3  and  O_6 
REMARK    3  A    between atoms: C_3  and  C_4 
REMARK    4  A    between atoms: C_7  and  O_6 
REMARK    5  A    between atoms: C_9  and  C_10 
REMARK    6  A    between atoms: N_15  and  C_14 
REMARK    7  A    between atoms: N_20  and  C_19 
REMARK       I    between atoms: C_22  and  N_20 
ROOT
ATOM      1  C   LIG d   1      -2.978  74.808 115.767  0.00  0.00     0.161 C 
ATOM      2  C   LIG d   1      -2.249  75.997 115.601  0.00  0.00     0.016 C 
ATOM      3  C   LIG d   1      -2.852  77.272 115.504  0.00  0.00     0.038 C 
ATOM      4  C   LIG d   1      -4.225  77.462 115.718  0.00  0.00     0.028 C 
ATOM      5  C   LIG d   1      -5.065  76.233 115.387  0.00  0.00    -0.047 C 
ATOM      6  C   LIG d   1      -4.469  75.006 116.115  0.00  0.00     0.091 C 
ENDROOT
BRANCH   1   7
ATOM      7  O   LIG d   1      -2.340  73.977 116.757  0.00  0.00    -0.368 OA
BRANCH   7   8
ATOM      8  C   LIG d   1      -1.228  74.574 117.468  0.00  0.00     0.119 C 
BRANCH   8   9
ATOM      9  C   LIG d   1      -0.016  73.637 117.303  0.00  0.00     0.028 C 
ATOM     10  C   LIG d   1       0.966  74.131 116.226  0.00  0.00     0.006 C 
ENDBRANCH   8   9
BRANCH   8  11
ATOM     11  C   LIG d   1      -1.495  74.628 118.975  0.00  0.00     0.028 C 
ATOM     12  C   LIG d   1      -0.733  75.765 119.675  0.00  0.00     0.006 C 
ENDBRANCH   8  11
ENDBRANCH   7   8
ENDBRANCH   1   7
BRANCH   6  13
ATOM     13  N   LIG d   1      -5.181  73.746 115.778  0.00  0.00    -0.311 N 
ATOM     14  C   LIG d   1      -6.346  73.395 116.319  0.00  0.00     0.210 C 
ATOM     15  C   LIG d   1      -6.898  72.046 115.848  0.00  0.00     0.109 C 
ATOM     16  O   LIG d   1      -6.991  74.088 117.121  0.00  0.00    -0.276 OA
ATOM     17  H   LIG d   1      -4.743  73.139 115.113  0.00  0.00     0.149 HD
ENDBRANCH   6  13
BRANCH   5  18
ATOM     18  N   LIG d   1      -6.455  76.522 115.787  0.00  0.00     0.381 N 
ATOM     19  H   LIG d   1      -6.752  75.866 116.481  0.00  0.00    -0.090 HD
ATOM     20  H   LIG d   1      -7.052  76.423 114.984  0.00  0.00    -0.090 HD
ATOM     21  H   LIG d   1      -6.521  77.449 116.146  0.00  0.00    -0.090 HD
ENDBRANCH   5  18
BRANCH   3  22
ATOM     22  C   LIG d   1      -2.083  78.371 115.149  0.00  0.00     0.382 C 
ATOM     23  O   LIG d   1      -2.638  79.460 114.870  0.00  0.00    -0.241 OA
ATOM     24  O   LIG d   1      -0.845  78.273 115.061  0.00  0.00    -0.241 OA
ENDBRANCH   3  22
TORSDOF 7
ENDMDL
MODEL 4
REMARK VINA RESULT:      -4.5     22.567     25.158
REMARK  7 active torsions:
REMARK  status: ('A' for Active; 'I' for Inactive)
REMARK    1  A    between atoms: C_2  and  C_3 
REMARK    2  A    between atoms: C_3  and  O_6 
REMARK    3  A    between atoms: C_3  and  C_4 
REMARK    4  A    between atoms: C_7  and  O_6 
REMARK    5  A    between atoms: C_9  and  C_10 
REMARK    6  A    between atoms: N_15  and  C_14 
REMARK    7  A    between atoms: N_20  and  C_19 
REMARK       I    between atoms: C_22  and  N_20 
ROOT
ATOM      1  C   LIG d   1     -17.031  98.001 116.780  0.00  0.00     0.161 C 
ATOM      2  C   LIG d   1     -15.869  98.787 116.709  0.00  0.00     0.016 C 
ATOM      3  C   LIG d   1     -15.686  99.822 115.763  0.00  0.00     0.038 C 
ATOM      4  C   LIG d   1     -16.721 100.244 114.916  0.00  0.00     0.028 C 
ATOM      5  C   LIG d   1     -17.736  99.148 114.608  0.00  0.00    -0.047 C 
ATOM      6  C   LIG d   1     -18.215  98.520 115.937  0.00  0.00     0.091 C 
ENDROOT
BRANCH   1   7
ATOM      7  O   LIG d   1     -17.429  97.840 118.156  0.00  0.00    -0.368 OA
BRANCH   7   8
ATOM      8  C   LIG d   1     -17.283  96.509 118.709  0.00  0.00     0.119 C 
BRANCH   8   9
ATOM      9  C   LIG d   1     -18.614  96.145 119.397  0.00  0.00     0.028 C 
ATOM     10  C   LIG d   1     -19.562  97.350 119.514  0.00  0.00     0.006 C 
ENDBRANCH   8   9
BRANCH   8  11
ATOM     11  C   LIG d   1     -16.231  96.480 119.821  0.00  0.00     0.028 C 
ATOM     12  C   LIG d   1     -15.923  95.057 120.314  0.00  0.00     0.006 C 
ENDBRANCH   8  11
ENDBRANCH   7   8
ENDBRANCH   1   7
BRANCH   6  13
ATOM     13  N   LIG d   1     -19.147  97.382 115.722  0.00  0.00    -0.311 N 
ATOM     14  C   LIG d   1     -20.468  97.481 115.859  0.00  0.00     0.210 C 
ATOM     15  C   LIG d   1     -21.243  96.183 115.612  0.00  0.00     0.109 C 
ATOM     16  O   LIG d   1     -21.075  98.528 116.131  0.00  0.00    -0.276 OA
ATOM     17  H   LIG d   1     -18.742  96.502 115.469  0.00  0.00     0.149 HD
ENDBRANCH   6  13
BRANCH   5  18
ATOM     18  N   LIG d   1     -18.830  99.760 113.830  0.00  0.00     0.381 N 
ATOM     19  H   LIG d   1     -18.722  99.538 112.861  0.00  0.00    -0.090 HD
ATOM     20  H   LIG d   1     -18.783 100.758 113.933  0.00  0.00    -0.090 HD
ATOM     21  H   LIG d   1     -19.710  99.426 114.158  0.00  0.00    -0.090 HD
ENDBRANCH   5  18
BRANCH   3  22
ATOM     22  C   LIG d   1     -14.442 100.420 115.631  0.00  0.00     0.382 C 
ATOM     23  O   LIG d   1     -14.306 101.430 114.899  0.00  0.00    -0.241 OA
ATOM     24  O   LIG d   1     -13.445  99.936 116.200  0.00  0.00    -0.241 OA
ENDBRANCH   3  22
TORSDOF 7
ENDMDL
MODEL 5
REMARK VINA RESULT:      -4.5      4.337      5.953
REMARK  7 active torsions:
REMARK  status: ('A' for Active; 'I' for Inactive)
REMARK    1  A    between atoms: C_2  and  C_3 
REMARK    2  A    between atoms: C_3  and  O_6 
REMARK    3  A    between atoms: C_3  and  C_4 
REMARK    4  A    between atoms: C_7  and  O_6 
REMARK    5  A    between atoms: C_9  and  C_10 
REMARK    6  A    between atoms: N_15  and  C_14 
REMARK    7  A    between atoms: N_20  and  C_19 
REMARK       I    between atoms: C_22  and  N_20 
ROOT
ATOM      1  C   LIG d   1      -1.458  75.387 115.967  0.00  0.00     0.161 C 
ATOM      2  C   LIG d   1      -2.192  75.762 117.104  0.00  0.00     0.016 C 
ATOM      3  C   LIG d   1      -1.638  76.488 118.183  0.00  0.00     0.038 C 
ATOM      4  C   LIG d   1      -0.342  77.023 118.130  0.00  0.00     0.028 C 
ATOM      5  C   LIG d   1       0.599  76.239 117.220  0.00  0.00    -0.047 C 
ATOM      6  C   LIG d   1      -0.073  76.057 115.841  0.00  0.00     0.091 C 
ENDROOT
BRANCH   1   7
ATOM      7  O   LIG d   1      -2.240  75.626 114.780  0.00  0.00    -0.368 OA
BRANCH   7   8
ATOM      8  C   LIG d   1      -3.148  76.754 114.831  0.00  0.00     0.119 C 
BRANCH   8   9
ATOM      9  C   LIG d   1      -4.467  76.316 114.166  0.00  0.00     0.028 C 
ATOM     10  C   LIG d   1      -4.875  74.885 114.556  0.00  0.00     0.006 C 
ENDBRANCH   8   9
BRANCH   8  11
ATOM     11  C   LIG d   1      -2.634  77.922 113.984  0.00  0.00     0.028 C 
ATOM     12  C   LIG d   1      -2.125  79.096 114.834  0.00  0.00     0.006 C 
ENDBRANCH   8  11
ENDBRANCH   7   8
ENDBRANCH   1   7
BRANCH   6  13
ATOM     13  N   LIG d   1       0.745  75.228 114.917  0.00  0.00    -0.311 N 
ATOM     14  C   LIG d   1       0.937  73.921 115.080  0.00  0.00     0.210 C 
ATOM     15  C   LIG d   1       1.830  73.261 114.024  0.00  0.00     0.109 C 
ATOM     16  O   LIG d   1       0.426  73.238 115.981  0.00  0.00    -0.276 OA
ATOM     17  H   LIG d   1       1.170  75.696 114.140  0.00  0.00     0.149 HD
ENDBRANCH   6  13
BRANCH   5  18
ATOM     18  N   LIG d   1       1.872  76.982 117.150  0.00  0.00     0.381 N 
ATOM     19  H   LIG d   1       1.788  77.845 117.649  0.00  0.00    -0.090 HD
ATOM     20  H   LIG d   1       2.072  77.193 116.188  0.00  0.00    -0.090 HD
ATOM     21  H   LIG d   1       2.608  76.435 117.538  0.00  0.00    -0.090 HD
ENDBRANCH   5  18
BRANCH   3  22
ATOM     22  C   LIG d   1      -2.370  76.652 119.349  0.00  0.00     0.382 C 
ATOM     23  O   LIG d   1      -3.463  77.267 119.322  0.00  0.00    -0.241 OA
ATOM     24  O   LIG d   1      -1.930  76.231 120.436  0.00  0.00    -0.241 OA
ENDBRANCH   3  22
TORSDOF 7
ENDMDL
MODEL 6
REMARK VINA RESULT:      -4.4      1.993      3.041
REMARK  7 active torsions:
REMARK  status: ('A' for Active; 'I' for Inactive)
REMARK    1  A    between atoms: C_2  and  C_3 
REMARK    2  A    between atoms: C_3  and  O_6 
REMARK    3  A    between atoms: C_3  and  C_4 
REMARK    4  A    between atoms: C_7  and  O_6 
REMARK    5  A    between atoms: C_9  and  C_10 
REMARK    6  A    between atoms: N_15  and  C_14 
REMARK    7  A    between atoms: N_20  and  C_19 
REMARK       I    between atoms: C_22  and  N_20 
ROOT
ATOM      1  C   LIG d   1      -5.449  78.026 117.240  0.00  0.00     0.161 C 
ATOM      2  C   LIG d   1      -6.813  78.362 117.193  0.00  0.00     0.016 C 
ATOM      3  C   LIG d   1      -7.363  79.476 117.868  0.00  0.00     0.038 C 
ATOM      4  C   LIG d   1      -6.557  80.422 118.517  0.00  0.00     0.028 C 
ATOM      5  C   LIG d   1      -5.234  79.851 119.016  0.00  0.00    -0.047 C 
ATOM      6  C   LIG d   1      -4.537  79.110 117.852  0.00  0.00     0.091 C 
ENDROOT
BRANCH   1   7
ATOM      7  O   LIG d   1      -4.988  77.669 115.921  0.00  0.00    -0.368 OA
BRANCH   7   8
ATOM      8  C   LIG d   1      -4.480  76.321 115.767  0.00  0.00     0.119 C 
BRANCH   8   9
ATOM      9  C   LIG d   1      -3.234  76.397 114.865  0.00  0.00     0.028 C 
ATOM     10  C   LIG d   1      -2.067  75.552 115.403  0.00  0.00     0.006 C 
ENDBRANCH   8   9
BRANCH   8  11
ATOM     11  C   LIG d   1      -5.475  75.434 115.012  0.00  0.00     0.028 C 
ATOM     12  C   LIG d   1      -5.607  74.032 115.627  0.00  0.00     0.006 C 
ENDBRANCH   8  11
ENDBRANCH   7   8
ENDBRANCH   1   7
BRANCH   6  13
ATOM     13  N   LIG d   1      -3.275  78.448 118.275  0.00  0.00    -0.311 N 
ATOM     14  C   LIG d   1      -2.119  78.593 117.630  0.00  0.00     0.210 C 
ATOM     15  C   LIG d   1      -0.945  77.808 118.222  0.00  0.00     0.109 C 
ATOM     16  O   LIG d   1      -1.947  79.323 116.642  0.00  0.00    -0.276 OA
ATOM     17  H   LIG d   1      -3.317  77.862 119.086  0.00  0.00     0.149 HD
ENDBRANCH   6  13
BRANCH   5  18
ATOM     18  N   LIG d   1      -4.436  80.972 119.547  0.00  0.00     0.381 N 
ATOM     19  H   LIG d   1      -3.915  81.398 118.807  0.00  0.00    -0.090 HD
ATOM     20  H   LIG d   1      -3.786  80.615 120.226  0.00  0.00    -0.090 HD
ATOM     21  H   LIG d   1      -5.035  81.645 119.973  0.00  0.00    -0.090 HD
ENDBRANCH   5  18
BRANCH   3  22
ATOM     22  C   LIG d   1      -8.740  79.630 117.931  0.00  0.00     0.382 C 
ATOM     23  O   LIG d   1      -9.243  80.779 117.932  0.00  0.00    -0.241 OA
ATOM     24  O   LIG d   1      -9.482  78.635 118.032  0.00  0.00    -0.241 OA
ENDBRANCH   3  22
TORSDOF 7
ENDMDL
MODEL 7
REMARK VINA RESULT:      -4.3     14.639     17.924
REMARK  7 active torsions:
REMARK  status: ('A' for Active; 'I' for Inactive)
REMARK    1  A    between atoms: C_2  and  C_3 
REMARK    2  A    between atoms: C_3  and  O_6 
REMARK    3  A    between atoms: C_3  and  C_4 
REMARK    4  A    between atoms: C_7  and  O_6 
REMARK    5  A    between atoms: C_9  and  C_10 
REMARK    6  A    between atoms: N_15  and  C_14 
REMARK    7  A    between atoms: N_20  and  C_19 
REMARK       I    between atoms: C_22  and  N_20 
ROOT
ATOM      1  C   LIG d   1      11.294  78.519 114.812  0.00  0.00     0.161 C 
ATOM      2  C   LIG d   1       9.912  78.520 115.062  0.00  0.00     0.016 C 
ATOM      3  C   LIG d   1       9.149  77.340 115.221  0.00  0.00     0.038 C 
ATOM      4  C   LIG d   1       9.749  76.074 115.292  0.00  0.00     0.028 C 
ATOM      5  C   LIG d   1      11.074  75.988 114.542  0.00  0.00    -0.047 C 
ATOM      6  C   LIG d   1      11.984  77.152 114.997  0.00  0.00     0.091 C 
ENDROOT
BRANCH   1   7
ATOM      7  O   LIG d   1      11.938  79.519 115.626  0.00  0.00    -0.368 OA
BRANCH   7   8
ATOM      8  C   LIG d   1      11.371  79.732 116.942  0.00  0.00     0.119 C 
BRANCH   8   9
ATOM      9  C   LIG d   1      11.624  81.204 117.323  0.00  0.00     0.028 C 
ATOM     10  C   LIG d   1      10.350  81.911 117.813  0.00  0.00     0.006 C 
ENDBRANCH   8   9
BRANCH   8  11
ATOM     11  C   LIG d   1      12.103  78.906 118.004  0.00  0.00     0.028 C 
ATOM     12  C   LIG d   1      11.211  77.828 118.639  0.00  0.00     0.006 C 
ENDBRANCH   8  11
ENDBRANCH   7   8
ENDBRANCH   1   7
BRANCH   6  13
ATOM     13  N   LIG d   1      13.269  77.191 114.250  0.00  0.00    -0.311 N 
ATOM     14  C   LIG d   1      14.462  77.180 114.843  0.00  0.00     0.210 C 
ATOM     15  C   LIG d   1      15.658  77.247 113.888  0.00  0.00     0.109 C 
ATOM     16  O   LIG d   1      14.643  77.089 116.066  0.00  0.00    -0.276 OA
ATOM     17  H   LIG d   1      13.215  77.235 113.251  0.00  0.00     0.149 HD
ENDBRANCH   6  13
BRANCH   5  18
ATOM     18  N   LIG d   1      11.655  74.659 114.814  0.00  0.00     0.381 N 
ATOM     19  H   LIG d   1      10.929  74.018 115.065  0.00  0.00    -0.090 HD
ATOM     20  H   LIG d   1      12.291  74.735 115.587  0.00  0.00    -0.090 HD
ATOM     21  H   LIG d   1      12.137  74.327 114.008  0.00  0.00    -0.090 HD
ENDBRANCH   5  18
BRANCH   3  22
ATOM     22  C   LIG d   1       7.766  77.417 115.272  0.00  0.00     0.382 C 
ATOM     23  O   LIG d   1       7.160  78.275 114.584  0.00  0.00    -0.241 OA
ATOM     24  O   LIG d   1       7.119  76.671 116.030  0.00  0.00    -0.241 OA
ENDBRANCH   3  22
TORSDOF 7
ENDMDL
MODEL 8
REMARK VINA RESULT:      -4.2      2.498      4.882
REMARK  7 active torsions:
REMARK  status: ('A' for Active; 'I' for Inactive)
REMARK    1  A    between atoms: C_2  and  C_3 
REMARK    2  A    between atoms: C_3  and  O_6 
REMARK    3  A    between atoms: C_3  and  C_4 
REMARK    4  A    between atoms: C_7  and  O_6 
REMARK    5  A    between atoms: C_9  and  C_10 
REMARK    6  A    between atoms: N_15  and  C_14 
REMARK    7  A    between atoms: N_20  and  C_19 
REMARK       I    between atoms: C_22  and  N_20 
ROOT
ATOM      1  C   LIG d   1      -3.440  76.784 117.330  0.00  0.00     0.161 C 
ATOM      2  C   LIG d   1      -4.671  77.412 117.585  0.00  0.00     0.016 C 
ATOM      3  C   LIG d   1      -5.866  77.084 116.905  0.00  0.00     0.038 C 
ATOM      4  C   LIG d   1      -5.944  75.994 116.026  0.00  0.00     0.028 C 
ATOM      5  C   LIG d   1      -4.614  75.655 115.362  0.00  0.00    -0.047 C 
ATOM      6  C   LIG d   1      -3.528  75.518 116.454  0.00  0.00     0.091 C 
ENDROOT
BRANCH   1   7
ATOM      7  O   LIG d   1      -2.776  76.487 118.575  0.00  0.00    -0.368 OA
BRANCH   7   8
ATOM      8  C   LIG d   1      -1.566  77.236 118.847  0.00  0.00     0.119 C 
BRANCH   8   9
ATOM      9  C   LIG d   1      -0.539  76.255 119.443  0.00  0.00     0.028 C 
ATOM     10  C   LIG d   1      -1.203  75.138 120.267  0.00  0.00     0.006 C 
ENDBRANCH   8   9
BRANCH   8  11
ATOM     11  C   LIG d   1      -1.796  78.292 119.932  0.00  0.00     0.028 C 
ATOM     12  C   LIG d   1      -2.118  79.679 119.355  0.00  0.00     0.006 C 
ENDBRANCH   8  11
ENDBRANCH   7   8
ENDBRANCH   1   7
BRANCH   6  13
ATOM     13  N   LIG d   1      -2.179  75.270 115.884  0.00  0.00    -0.311 N 
ATOM     14  C   LIG d   1      -1.363  74.312 116.321  0.00  0.00     0.210 C 
ATOM     15  C   LIG d   1      -0.009  74.241 115.608  0.00  0.00     0.109 C 
ATOM     16  O   LIG d   1      -1.644  73.494 117.209  0.00  0.00    -0.276 OA
ATOM     17  H   LIG d   1      -1.882  75.867 115.137  0.00  0.00     0.149 HD
ENDBRANCH   6  13
BRANCH   5  18
ATOM     18  N   LIG d   1      -4.808  74.419 114.581  0.00  0.00     0.381 N 
ATOM     19  H   LIG d   1      -5.732  74.402 114.197  0.00  0.00    -0.090 HD
ATOM     20  H   LIG d   1      -4.705  73.628 115.192  0.00  0.00    -0.090 HD
ATOM     21  H   LIG d   1      -4.135  74.370 113.847  0.00  0.00    -0.090 HD
ENDBRANCH   5  18
BRANCH   3  22
ATOM     22  C   LIG d   1      -6.992  77.876 117.074  0.00  0.00     0.382 C 
ATOM     23  O   LIG d   1      -8.126  77.345 117.155  0.00  0.00    -0.241 OA
ATOM     24  O   LIG d   1      -6.892  79.117 117.101  0.00  0.00    -0.241 OA
ENDBRANCH   3  22
TORSDOF 7
ENDMDL
MODEL 9
REMARK VINA RESULT:      -4.2     13.717     16.167
REMARK  7 active torsions:
REMARK  status: ('A' for Active; 'I' for Inactive)
REMARK    1  A    between atoms: C_2  and  C_3 
REMARK    2  A    between atoms: C_3  and  O_6 
REMARK    3  A    between atoms: C_3  and  C_4 
REMARK    4  A    between atoms: C_7  and  O_6 
REMARK    5  A    between atoms: C_9  and  C_10 
REMARK    6  A    between atoms: N_15  and  C_14 
REMARK    7  A    between atoms: N_20  and  C_19 
REMARK       I    between atoms: C_22  and  N_20 
ROOT
ATOM      1  C   LIG d   1       2.839  88.785 117.332  0.00  0.00     0.161 C 
ATOM      2  C   LIG d   1       3.235  89.843 118.167  0.00  0.00     0.016 C 
ATOM      3  C   LIG d   1       4.529  90.412 118.141  0.00  0.00     0.038 C 
ATOM      4  C   LIG d   1       5.475  90.059 117.166  0.00  0.00     0.028 C 
ATOM      5  C   LIG d   1       5.291  88.644 116.628  0.00  0.00    -0.047 C 
ATOM      6  C   LIG d   1       3.821  88.462 116.187  0.00  0.00     0.091 C 
ENDROOT
BRANCH   1   7
ATOM      7  O   LIG d   1       1.522  89.046 116.805  0.00  0.00    -0.368 OA
BRANCH   7   8
ATOM      8  C   LIG d   1       0.495  89.352 117.780  0.00  0.00     0.119 C 
BRANCH   8   9
ATOM      9  C   LIG d   1      -0.495  88.171 117.795  0.00  0.00     0.028 C 
ATOM     10  C   LIG d   1      -1.644  88.382 118.795  0.00  0.00     0.006 C 
ENDBRANCH   8   9
BRANCH   8  11
ATOM     11  C   LIG d   1      -0.332  90.569 117.354  0.00  0.00     0.028 C 
ATOM     12  C   LIG d   1      -0.101  91.791 118.256  0.00  0.00     0.006 C 
ENDBRANCH   8  11
ENDBRANCH   7   8
ENDBRANCH   1   7
BRANCH   6  13
ATOM     13  N   LIG d   1       3.534  87.079 115.725  0.00  0.00    -0.311 N 
ATOM     14  C   LIG d   1       2.862  86.802 114.609  0.00  0.00     0.210 C 
ATOM     15  C   LIG d   1       2.660  85.310 114.329  0.00  0.00     0.109 C 
ATOM     16  O   LIG d   1       2.443  87.651 113.808  0.00  0.00    -0.276 OA
ATOM     17  H   LIG d   1       3.866  86.329 116.300  0.00  0.00     0.149 HD
ENDBRANCH   6  13
BRANCH   5  18
ATOM     18  N   LIG d   1       6.253  88.458 115.525  0.00  0.00     0.381 N 
ATOM     19  H   LIG d   1       7.079  88.011 115.869  0.00  0.00    -0.090 HD
ATOM     20  H   LIG d   1       6.509  89.359 115.162  0.00  0.00    -0.090 HD
ATOM     21  H   LIG d   1       5.843  87.906 114.805  0.00  0.00    -0.090 HD
ENDBRANCH   5  18
BRANCH   3  22
ATOM     22  C   LIG d   1       4.902  91.317 119.123  0.00  0.00     0.382 C 
ATOM     23  O   LIG d   1       4.152  91.517 120.108  0.00  0.00    -0.241 OA
ATOM     24  O   LIG d   1       5.959  91.967 119.014  0.00  0.00    -0.241 OA
ENDBRANCH   3  22
TORSDOF 7
ENDMDL
