MODEL 1
REMARK VINA RESULT:      -6.1      0.000      0.000
REMARK  7 active torsions:
REMARK  status: ('A' for Active; 'I' for Inactive)
REMARK    1  A    between atoms: C_2  and  C_3 
REMARK    2  A    between atoms: C_3  and  O_6 
REMARK    3  A    between atoms: C_3  and  C_4 
REMARK    4  A    between atoms: C_7  and  O_6 
REMARK    5  A    between atoms: C_9  and  C_10 
REMARK    6  A    between atoms: N_15  and  C_14 
REMARK    7  A    between atoms: N_20  and  C_19 
REMARK       I    between atoms: C_22  and  N_20 
ROOT
ATOM      1  C   LIG d   1      -7.044  76.051 115.698  0.00  0.00     0.161 C 
ATOM      2  C   LIG d   1      -5.822  75.924 115.018  0.00  0.00     0.016 C 
ATOM      3  C   LIG d   1      -4.575  76.271 115.587  0.00  0.00     0.038 C 
ATOM      4  C   LIG d   1      -4.450  76.630 116.938  0.00  0.00     0.028 C 
ATOM      5  C   LIG d   1      -5.714  77.257 117.517  0.00  0.00    -0.047 C 
ATOM      6  C   LIG d   1      -6.917  76.335 117.209  0.00  0.00     0.091 C 
ENDROOT
BRANCH   1   7
ATOM      7  O   LIG d   1      -7.852  74.878 115.475  0.00  0.00    -0.368 OA
BRANCH   7   8
ATOM      8  C   LIG d   1      -7.848  73.891 116.535  0.00  0.00     0.119 C 
BRANCH   8   9
ATOM      9  C   LIG d   1      -7.097  72.652 116.011  0.00  0.00     0.028 C 
ATOM     10  C   LIG d   1      -8.029  71.447 115.800  0.00  0.00     0.006 C 
ENDBRANCH   8   9
BRANCH   8  11
ATOM     11  C   LIG d   1      -9.266  73.403 116.848  0.00  0.00     0.028 C 
ATOM     12  C   LIG d   1     -10.348  74.412 116.431  0.00  0.00     0.006 C 
ENDBRANCH   8  11
ENDBRANCH   7   8
ENDBRANCH   1   7
BRANCH   6  13
ATOM     13  N   LIG d   1      -8.207  76.915 117.668  0.00  0.00    -0.311 N 
ATOM     14  C   LIG d   1      -8.770  76.615 118.837  0.00  0.00     0.210 C 
ATOM     15  C   LIG d   1     -10.110  77.309 119.105  0.00  0.00     0.109 C 
ATOM     16  O   LIG d   1      -8.273  75.866 119.691  0.00  0.00    -0.276 OA
ATOM     17  H   LIG d   1      -8.664  77.557 117.050  0.00  0.00     0.149 HD
ENDBRANCH   6  13
BRANCH   5  18
ATOM     18  N   LIG d   1      -5.492  77.454 118.962  0.00  0.00     0.381 N 
ATOM     19  H   LIG d   1      -6.289  77.901 119.369  0.00  0.00    -0.090 HD
ATOM     20  H   LIG d   1      -4.695  78.053 119.089  0.00  0.00    -0.090 HD
ATOM     21  H   LIG d   1      -5.332  76.577 119.405  0.00  0.00    -0.090 HD
ENDBRANCH   5  18
BRANCH   3  22
ATOM     22  C   LIG d   1      -3.440  76.300 114.791  0.00  0.00     0.382 C 
ATOM     23  O   LIG d   1      -3.105  77.363 114.215  0.00  0.00    -0.241 OA
ATOM     24  O   LIG d   1      -2.772  75.265 114.605  0.00  0.00    -0.241 OA
ENDBRANCH   3  22
TORSDOF 7
ENDMDL
MODEL 2
REMARK VINA RESULT:      -6.0      1.019      1.869
REMARK  7 active torsions:
REMARK  status: ('A' for Active; 'I' for Inactive)
REMARK    1  A    between atoms: C_2  and  C_3 
REMARK    2  A    between atoms: C_3  and  O_6 
REMARK    3  A    between atoms: C_3  and  C_4 
REMARK    4  A    between atoms: C_7  and  O_6 
REMARK    5  A    between atoms: C_9  and  C_10 
REMARK    6  A    between atoms: N_15  and  C_14 
REMARK    7  A    between atoms: N_20  and  C_19 
REMARK       I    between atoms: C_22  and  N_20 
ROOT
ATOM      1  C   LIG d   1      -6.680  75.329 116.662  0.00  0.00     0.161 C 
ATOM      2  C   LIG d   1      -5.443  75.240 116.000  0.00  0.00     0.016 C 
ATOM      3  C   LIG d   1      -4.329  76.049 116.321  0.00  0.00     0.038 C 
ATOM      4  C   LIG d   1      -4.329  76.904 117.434  0.00  0.00     0.028 C 
ATOM      5  C   LIG d   1      -5.721  77.394 117.820  0.00  0.00    -0.047 C 
ATOM      6  C   LIG d   1      -6.664  76.177 117.951  0.00  0.00     0.091 C 
ENDROOT
BRANCH   1   7
ATOM      7  O   LIG d   1      -7.182  74.006 116.938  0.00  0.00    -0.368 OA
BRANCH   7   8
ATOM      8  C   LIG d   1      -7.790  73.310 115.823  0.00  0.00     0.119 C 
BRANCH   8   9
ATOM      9  C   LIG d   1      -9.251  73.004 116.209  0.00  0.00     0.028 C 
ATOM     10  C   LIG d   1     -10.076  74.281 116.438  0.00  0.00     0.006 C 
ENDBRANCH   8   9
BRANCH   8  11
ATOM     11  C   LIG d   1      -7.137  71.943 115.596  0.00  0.00     0.028 C 
ATOM     12  C   LIG d   1      -5.997  71.992 114.565  0.00  0.00     0.006 C 
ENDBRANCH   8  11
ENDBRANCH   7   8
ENDBRANCH   1   7
BRANCH   6  13
ATOM     13  N   LIG d   1      -8.065  76.574 118.245  0.00  0.00    -0.311 N 
ATOM     14  C   LIG d   1      -8.712  76.216 119.353  0.00  0.00     0.210 C 
ATOM     15  C   LIG d   1     -10.157  76.717 119.448  0.00  0.00     0.109 C 
ATOM     16  O   LIG d   1      -8.216  75.559 120.280  0.00  0.00    -0.276 OA
ATOM     17  H   LIG d   1      -8.534  77.135 117.560  0.00  0.00     0.149 HD
ENDBRANCH   6  13
BRANCH   5  18
ATOM     18  N   LIG d   1      -5.590  78.161 119.074  0.00  0.00     0.381 N 
ATOM     19  H   LIG d   1      -4.676  78.563 119.131  0.00  0.00    -0.090 HD
ATOM     20  H   LIG d   1      -5.709  77.536 119.851  0.00  0.00    -0.090 HD
ATOM     21  H   LIG d   1      -6.279  78.880 119.107  0.00  0.00    -0.090 HD
ENDBRANCH   5  18
BRANCH   3  22
ATOM     22  C   LIG d   1      -3.212  76.038 115.500  0.00  0.00     0.382 C 
ATOM     23  O   LIG d   1      -2.218  76.748 115.783  0.00  0.00    -0.241 OA
ATOM     24  O   LIG d   1      -3.203  75.359 114.455  0.00  0.00    -0.241 OA
ENDBRANCH   3  22
TORSDOF 7
ENDMDL
MODEL 3
REMARK VINA RESULT:      -5.9     15.873     17.995
REMARK  7 active torsions:
REMARK  status: ('A' for Active; 'I' for Inactive)
REMARK    1  A    between atoms: C_2  and  C_3 
REMARK    2  A    between atoms: C_3  and  O_6 
REMARK    3  A    between atoms: C_3  and  C_4 
REMARK    4  A    between atoms: C_7  and  O_6 
REMARK    5  A    between atoms: C_9  and  C_10 
REMARK    6  A    between atoms: N_15  and  C_14 
REMARK    7  A    between atoms: N_20  and  C_19 
REMARK       I    between atoms: C_22  and  N_20 
ROOT
ATOM      1  C   LIG d   1      -6.067  92.926 117.569  0.00  0.00     0.161 C 
ATOM      2  C   LIG d   1      -7.395  92.769 117.138  0.00  0.00     0.016 C 
ATOM      3  C   LIG d   1      -7.833  91.683 116.347  0.00  0.00     0.038 C 
ATOM      4  C   LIG d   1      -7.000  90.592 116.058  0.00  0.00     0.028 C 
ATOM      5  C   LIG d   1      -5.517  90.950 116.046  0.00  0.00    -0.047 C 
ATOM      6  C   LIG d   1      -5.168  91.690 117.357  0.00  0.00     0.091 C 
ENDROOT
BRANCH   1   7
ATOM      7  O   LIG d   1      -6.047  93.329 118.953  0.00  0.00    -0.368 OA
BRANCH   7   8
ATOM      8  C   LIG d   1      -5.556  94.665 119.221  0.00  0.00     0.119 C 
BRANCH   8   9
ATOM      9  C   LIG d   1      -4.591  94.573 120.419  0.00  0.00     0.028 C 
ATOM     10  C   LIG d   1      -3.272  95.324 120.170  0.00  0.00     0.006 C 
ENDBRANCH   8   9
BRANCH   8  11
ATOM     11  C   LIG d   1      -6.685  95.592 119.680  0.00  0.00     0.028 C 
ATOM     12  C   LIG d   1      -7.090  96.615 118.607  0.00  0.00     0.006 C 
ENDBRANCH   8  11
ENDBRANCH   7   8
ENDBRANCH   1   7
BRANCH   6  13
ATOM     13  N   LIG d   1      -3.756  92.150 117.390  0.00  0.00    -0.311 N 
ATOM     14  C   LIG d   1      -2.923  91.889 118.396  0.00  0.00     0.210 C 
ATOM     15  C   LIG d   1      -1.516  92.473 118.239  0.00  0.00     0.109 C 
ATOM     16  O   LIG d   1      -3.206  91.202 119.389  0.00  0.00    -0.276 OA
ATOM     17  H   LIG d   1      -3.433  92.687 116.610  0.00  0.00     0.149 HD
ENDBRANCH   6  13
BRANCH   5  18
ATOM     18  N   LIG d   1      -4.758  89.697 115.869  0.00  0.00     0.381 N 
ATOM     19  H   LIG d   1      -3.777  89.888 115.902  0.00  0.00    -0.090 HD
ATOM     20  H   LIG d   1      -4.974  89.311 114.966  0.00  0.00    -0.090 HD
ATOM     21  H   LIG d   1      -5.002  89.047 116.583  0.00  0.00    -0.090 HD
ENDBRANCH   5  18
BRANCH   3  22
ATOM     22  C   LIG d   1      -9.109  91.700 115.803  0.00  0.00     0.382 C 
ATOM     23  O   LIG d   1      -9.825  92.723 115.916  0.00  0.00    -0.241 OA
ATOM     24  O   LIG d   1      -9.568  90.689 115.239  0.00  0.00    -0.241 OA
ENDBRANCH   3  22
TORSDOF 7
ENDMDL
MODEL 4
REMARK VINA RESULT:      -5.6      2.425      5.980
REMARK  7 active torsions:
REMARK  status: ('A' for Active; 'I' for Inactive)
REMARK    1  A    between atoms: C_2  and  C_3 
REMARK    2  A    between atoms: C_3  and  O_6 
REMARK    3  A    between atoms: C_3  and  C_4 
REMARK    4  A    between atoms: C_7  and  O_6 
REMARK    5  A    between atoms: C_9  and  C_10 
REMARK    6  A    between atoms: N_15  and  C_14 
REMARK    7  A    between atoms: N_20  and  C_19 
REMARK       I    between atoms: C_22  and  N_20 
ROOT
ATOM      1  C   LIG d   1      -7.346  76.350 117.389  0.00  0.00     0.161 C 
ATOM      2  C   LIG d   1      -8.279  77.133 118.089  0.00  0.00     0.016 C 
ATOM      3  C   LIG d   1      -9.638  76.773 118.244  0.00  0.00     0.038 C 
ATOM      4  C   LIG d   1     -10.124  75.523 117.834  0.00  0.00     0.028 C 
ATOM      5  C   LIG d   1      -9.338  74.916 116.677  0.00  0.00    -0.047 C 
ATOM      6  C   LIG d   1      -7.833  74.931 117.031  0.00  0.00     0.091 C 
ENDROOT
BRANCH   1   7
ATOM      7  O   LIG d   1      -6.111  76.285 118.128  0.00  0.00    -0.368 OA
BRANCH   7   8
ATOM      8  C   LIG d   1      -5.056  77.175 117.687  0.00  0.00     0.119 C 
BRANCH   8   9
ATOM      9  C   LIG d   1      -4.006  76.319 116.952  0.00  0.00     0.028 C 
ATOM     10  C   LIG d   1      -4.165  76.380 115.423  0.00  0.00     0.006 C 
ENDBRANCH   8   9
BRANCH   8  11
ATOM     11  C   LIG d   1      -4.315  77.793 118.876  0.00  0.00     0.028 C 
ATOM     12  C   LIG d   1      -5.255  78.516 119.854  0.00  0.00     0.006 C 
ENDBRANCH   8  11
ENDBRANCH   7   8
ENDBRANCH   1   7
BRANCH   6  13
ATOM     13  N   LIG d   1      -6.984  74.431 115.918  0.00  0.00    -0.311 N 
ATOM     14  C   LIG d   1      -6.647  73.151 115.770  0.00  0.00     0.210 C 
ATOM     15  C   LIG d   1      -5.748  72.854 114.566  0.00  0.00     0.109 C 
ATOM     16  O   LIG d   1      -7.034  72.229 116.504  0.00  0.00    -0.276 OA
ATOM     17  H   LIG d   1      -6.652  75.108 115.259  0.00  0.00     0.149 HD
ENDBRANCH   6  13
BRANCH   5  18
ATOM     18  N   LIG d   1      -9.864  73.558 116.444  0.00  0.00     0.381 N 
ATOM     19  H   LIG d   1     -10.269  73.203 117.287  0.00  0.00    -0.090 HD
ATOM     20  H   LIG d   1      -9.104  72.956 116.180  0.00  0.00    -0.090 HD
ATOM     21  H   LIG d   1     -10.548  73.577 115.721  0.00  0.00    -0.090 HD
ENDBRANCH   5  18
BRANCH   3  22
ATOM     22  C   LIG d   1     -10.534  77.686 118.778  0.00  0.00     0.382 C 
ATOM     23  O   LIG d   1     -10.253  78.909 118.787  0.00  0.00    -0.241 OA
ATOM     24  O   LIG d   1     -11.601  77.298 119.291  0.00  0.00    -0.241 OA
ENDBRANCH   3  22
TORSDOF 7
ENDMDL
MODEL 5
REMARK VINA RESULT:      -5.6     15.852     17.797
REMARK  7 active torsions:
REMARK  status: ('A' for Active; 'I' for Inactive)
REMARK    1  A    between atoms: C_2  and  C_3 
REMARK    2  A    between atoms: C_3  and  O_6 
REMARK    3  A    between atoms: C_3  and  C_4 
REMARK    4  A    between atoms: C_7  and  O_6 
REMARK    5  A    between atoms: C_9  and  C_10 
REMARK    6  A    between atoms: N_15  and  C_14 
REMARK    7  A    between atoms: N_20  and  C_19 
REMARK       I    between atoms: C_22  and  N_20 
ROOT
ATOM      1  C   LIG d   1      -6.141  92.335 117.967  0.00  0.00     0.161 C 
ATOM      2  C   LIG d   1      -5.696  91.322 117.101  0.00  0.00     0.016 C 
ATOM      3  C   LIG d   1      -6.424  90.893 115.967  0.00  0.00     0.038 C 
ATOM      4  C   LIG d   1      -7.582  91.557 115.534  0.00  0.00     0.028 C 
ATOM      5  C   LIG d   1      -8.335  92.257 116.660  0.00  0.00    -0.047 C 
ATOM      6  C   LIG d   1      -7.347  93.146 117.449  0.00  0.00     0.091 C 
ENDROOT
BRANCH   1   7
ATOM      7  O   LIG d   1      -5.047  93.216 118.291  0.00  0.00    -0.368 OA
BRANCH   7   8
ATOM      8  C   LIG d   1      -4.363  92.949 119.540  0.00  0.00     0.119 C 
BRANCH   8   9
ATOM      9  C   LIG d   1      -4.817  94.016 120.555  0.00  0.00     0.028 C 
ATOM     10  C   LIG d   1      -4.328  95.426 120.182  0.00  0.00     0.006 C 
ENDBRANCH   8   9
BRANCH   8  11
ATOM     11  C   LIG d   1      -2.850  93.142 119.399  0.00  0.00     0.028 C 
ATOM     12  C   LIG d   1      -2.364  92.995 117.948  0.00  0.00     0.006 C 
ENDBRANCH   8  11
ENDBRANCH   7   8
ENDBRANCH   1   7
BRANCH   6  13
ATOM     13  N   LIG d   1      -7.985  93.801 118.620  0.00  0.00    -0.311 N 
ATOM     14  C   LIG d   1      -7.851  95.097 118.899  0.00  0.00     0.210 C 
ATOM     15  C   LIG d   1      -8.575  95.565 120.165  0.00  0.00     0.109 C 
ATOM     16  O   LIG d   1      -7.227  95.909 118.200  0.00  0.00    -0.276 OA
ATOM     17  H   LIG d   1      -8.535  93.222 119.224  0.00  0.00     0.149 HD
ENDBRANCH   6  13
BRANCH   5  18
ATOM     18  N   LIG d   1      -9.440  93.020 116.050  0.00  0.00     0.381 N 
ATOM     19  H   LIG d   1      -9.558  92.741 115.097  0.00  0.00    -0.090 HD
ATOM     20  H   LIG d   1      -9.207  93.998 116.066  0.00  0.00    -0.090 HD
ATOM     21  H   LIG d   1     -10.283  92.864 116.557  0.00  0.00    -0.090 HD
ENDBRANCH   5  18
BRANCH   3  22
ATOM     22  C   LIG d   1      -6.015  89.763 115.275  0.00  0.00     0.382 C 
ATOM     23  O   LIG d   1      -6.592  89.438 114.209  0.00  0.00    -0.241 OA
ATOM     24  O   LIG d   1      -5.107  89.041 115.727  0.00  0.00    -0.241 OA
ENDBRANCH   3  22
TORSDOF 7
ENDMDL
MODEL 6
REMARK VINA RESULT:      -5.3      1.512      2.322
REMARK  7 active torsions:
REMARK  status: ('A' for Active; 'I' for Inactive)
REMARK    1  A    between atoms: C_2  and  C_3 
REMARK    2  A    between atoms: C_3  and  O_6 
REMARK    3  A    between atoms: C_3  and  C_4 
REMARK    4  A    between atoms: C_7  and  O_6 
REMARK    5  A    between atoms: C_9  and  C_10 
REMARK    6  A    between atoms: N_15  and  C_14 
REMARK    7  A    between atoms: N_20  and  C_19 
REMARK       I    between atoms: C_22  and  N_20 
ROOT
ATOM      1  C   LIG d   1      -7.379  75.844 116.914  0.00  0.00     0.161 C 
ATOM      2  C   LIG d   1      -6.603  75.495 115.796  0.00  0.00     0.016 C 
ATOM      3  C   LIG d   1      -5.252  75.881 115.637  0.00  0.00     0.038 C 
ATOM      4  C   LIG d   1      -4.536  76.517 116.662  0.00  0.00     0.028 C 
ATOM      5  C   LIG d   1      -5.419  77.333 117.601  0.00  0.00    -0.047 C 
ATOM      6  C   LIG d   1      -6.584  76.443 118.093  0.00  0.00     0.091 C 
ENDROOT
BRANCH   1   7
ATOM      7  O   LIG d   1      -8.143  74.703 117.353  0.00  0.00    -0.368 OA
BRANCH   7   8
ATOM      8  C   LIG d   1      -8.959  74.057 116.346  0.00  0.00     0.119 C 
BRANCH   8   9
ATOM      9  C   LIG d   1     -10.428  74.420 116.638  0.00  0.00     0.028 C 
ATOM     10  C   LIG d   1     -10.558  75.642 117.564  0.00  0.00     0.006 C 
ENDBRANCH   8   9
BRANCH   8  11
ATOM     11  C   LIG d   1      -8.888  72.532 116.466  0.00  0.00     0.028 C 
ATOM     12  C   LIG d   1      -7.781  71.917 115.594  0.00  0.00     0.006 C 
ENDBRANCH   8  11
ENDBRANCH   7   8
ENDBRANCH   1   7
BRANCH   6  13
ATOM     13  N   LIG d   1      -7.542  77.188 118.950  0.00  0.00    -0.311 N 
ATOM     14  C   LIG d   1      -8.005  78.400 118.650  0.00  0.00     0.210 C 
ATOM     15  C   LIG d   1      -8.969  78.998 119.680  0.00  0.00     0.109 C 
ATOM     16  O   LIG d   1      -7.734  79.024 117.613  0.00  0.00    -0.276 OA
ATOM     17  H   LIG d   1      -7.839  76.742 119.796  0.00  0.00     0.149 HD
ENDBRANCH   6  13
BRANCH   5  18
ATOM     18  N   LIG d   1      -4.566  77.827 118.697  0.00  0.00     0.381 N 
ATOM     19  H   LIG d   1      -3.604  77.787 118.423  0.00  0.00    -0.090 HD
ATOM     20  H   LIG d   1      -4.690  77.234 119.499  0.00  0.00    -0.090 HD
ATOM     21  H   LIG d   1      -4.814  78.764 118.927  0.00  0.00    -0.090 HD
ENDBRANCH   5  18
BRANCH   3  22
ATOM     22  C   LIG d   1      -4.614  75.664 114.425  0.00  0.00     0.382 C 
ATOM     23  O   LIG d   1      -4.789  74.585 113.808  0.00  0.00    -0.241 OA
ATOM     24  O   LIG d   1      -3.832  76.515 113.961  0.00  0.00    -0.241 OA
ENDBRANCH   3  22
TORSDOF 7
ENDMDL
MODEL 7
REMARK VINA RESULT:      -5.3     15.048     16.620
REMARK  7 active torsions:
REMARK  status: ('A' for Active; 'I' for Inactive)
REMARK    1  A    between atoms: C_2  and  C_3 
REMARK    2  A    between atoms: C_3  and  O_6 
REMARK    3  A    between atoms: C_3  and  C_4 
REMARK    4  A    between atoms: C_7  and  O_6 
REMARK    5  A    between atoms: C_9  and  C_10 
REMARK    6  A    between atoms: N_15  and  C_14 
REMARK    7  A    between atoms: N_20  and  C_19 
REMARK       I    between atoms: C_22  and  N_20 
ROOT
ATOM      1  C   LIG d   1      -5.408  91.892 117.197  0.00  0.00     0.161 C 
ATOM      2  C   LIG d   1      -4.564  90.772 117.107  0.00  0.00     0.016 C 
ATOM      3  C   LIG d   1      -3.459  90.561 117.963  0.00  0.00     0.038 C 
ATOM      4  C   LIG d   1      -3.211  91.385 119.071  0.00  0.00     0.028 C 
ATOM      5  C   LIG d   1      -3.736  92.806 118.899  0.00  0.00    -0.047 C 
ATOM      6  C   LIG d   1      -5.220  92.744 118.469  0.00  0.00     0.091 C 
ENDROOT
BRANCH   1   7
ATOM      7  O   LIG d   1      -6.783  91.478 117.070  0.00  0.00    -0.368 OA
BRANCH   7   8
ATOM      8  C   LIG d   1      -7.301  91.392 115.719  0.00  0.00     0.119 C 
BRANCH   8   9
ATOM      9  C   LIG d   1      -8.710  92.016 115.723  0.00  0.00     0.028 C 
ATOM     10  C   LIG d   1      -8.854  93.132 116.771  0.00  0.00     0.006 C 
ENDBRANCH   8   9
BRANCH   8  11
ATOM     11  C   LIG d   1      -7.503  89.935 115.292  0.00  0.00     0.028 C 
ATOM     12  C   LIG d   1      -8.606  89.227 116.095  0.00  0.00     0.006 C 
ENDBRANCH   8  11
ENDBRANCH   7   8
ENDBRANCH   1   7
BRANCH   6  13
ATOM     13  N   LIG d   1      -5.788  94.090 118.198  0.00  0.00    -0.311 N 
ATOM     14  C   LIG d   1      -6.444  94.806 119.109  0.00  0.00     0.210 C 
ATOM     15  C   LIG d   1      -6.965  96.159 118.615  0.00  0.00     0.109 C 
ATOM     16  O   LIG d   1      -6.615  94.464 120.289  0.00  0.00    -0.276 OA
ATOM     17  H   LIG d   1      -5.668  94.458 117.274  0.00  0.00     0.149 HD
ENDBRANCH   6  13
BRANCH   5  18
ATOM     18  N   LIG d   1      -3.533  93.514 120.177  0.00  0.00     0.381 N 
ATOM     19  H   LIG d   1      -4.415  93.659 120.628  0.00  0.00    -0.090 HD
ATOM     20  H   LIG d   1      -3.123  94.412 119.990  0.00  0.00    -0.090 HD
ATOM     21  H   LIG d   1      -2.933  92.983 120.769  0.00  0.00    -0.090 HD
ENDBRANCH   5  18
BRANCH   3  22
ATOM     22  C   LIG d   1      -2.564  89.538 117.690  0.00  0.00     0.382 C 
ATOM     23  O   LIG d   1      -1.345  89.794 117.539  0.00  0.00    -0.241 OA
ATOM     24  O   LIG d   1      -2.966  88.367 117.548  0.00  0.00    -0.241 OA
ENDBRANCH   3  22
TORSDOF 7
ENDMDL
MODEL 8
REMARK VINA RESULT:      -5.3     15.569     17.653
REMARK  7 active torsions:
REMARK  status: ('A' for Active; 'I' for Inactive)
REMARK    1  A    between atoms: C_2  and  C_3 
REMARK    2  A    between atoms: C_3  and  O_6 
REMARK    3  A    between atoms: C_3  and  C_4 
REMARK    4  A    between atoms: C_7  and  O_6 
REMARK    5  A    between atoms: C_9  and  C_10 
REMARK    6  A    between atoms: N_15  and  C_14 
REMARK    7  A    between atoms: N_20  and  C_19 
REMARK       I    between atoms: C_22  and  N_20 
ROOT
ATOM      1  C   LIG d   1      -6.004  92.541 118.188  0.00  0.00     0.161 C 
ATOM      2  C   LIG d   1      -6.502  93.535 119.046  0.00  0.00     0.016 C 
ATOM      3  C   LIG d   1      -7.788  94.107 118.912  0.00  0.00     0.038 C 
ATOM      4  C   LIG d   1      -8.727  93.611 117.995  0.00  0.00     0.028 C 
ATOM      5  C   LIG d   1      -8.093  92.952 116.775  0.00  0.00    -0.047 C 
ATOM      6  C   LIG d   1      -7.055  91.910 117.251  0.00  0.00     0.091 C 
ENDROOT
BRANCH   1   7
ATOM      7  O   LIG d   1      -5.340  91.519 118.957  0.00  0.00    -0.368 OA
BRANCH   7   8
ATOM      8  C   LIG d   1      -3.904  91.654 119.092  0.00  0.00     0.119 C 
BRANCH   8   9
ATOM      9  C   LIG d   1      -3.389  92.393 117.842  0.00  0.00     0.028 C 
ATOM     10  C   LIG d   1      -2.304  93.429 118.179  0.00  0.00     0.006 C 
ENDBRANCH   8   9
BRANCH   8  11
ATOM     11  C   LIG d   1      -3.211  90.288 119.070  0.00  0.00     0.028 C 
ATOM     12  C   LIG d   1      -3.260  89.617 117.689  0.00  0.00     0.006 C 
ENDBRANCH   8  11
ENDBRANCH   7   8
ENDBRANCH   1   7
BRANCH   6  13
ATOM     13  N   LIG d   1      -6.327  91.278 116.119  0.00  0.00    -0.311 N 
ATOM     14  C   LIG d   1      -6.440  89.989 115.804  0.00  0.00     0.210 C 
ATOM     15  C   LIG d   1      -5.588  89.537 114.614  0.00  0.00     0.109 C 
ATOM     16  O   LIG d   1      -7.191  89.184 116.376  0.00  0.00    -0.276 OA
ATOM     17  H   LIG d   1      -5.720  91.865 115.582  0.00  0.00     0.149 HD
ENDBRANCH   6  13
BRANCH   5  18
ATOM     18  N   LIG d   1      -9.180  92.360 115.972  0.00  0.00     0.381 N 
ATOM     19  H   LIG d   1      -8.852  91.533 115.515  0.00  0.00    -0.090 HD
ATOM     20  H   LIG d   1      -9.461  93.020 115.268  0.00  0.00    -0.090 HD
ATOM     21  H   LIG d   1      -9.955  92.139 116.558  0.00  0.00    -0.090 HD
ENDBRANCH   5  18
BRANCH   3  22
ATOM     22  C   LIG d   1      -8.132  95.213 119.674  0.00  0.00     0.382 C 
ATOM     23  O   LIG d   1      -9.260  95.272 120.220  0.00  0.00    -0.241 OA
ATOM     24  O   LIG d   1      -7.345  96.172 119.787  0.00  0.00    -0.241 OA
ENDBRANCH   3  22
TORSDOF 7
ENDMDL
MODEL 9
REMARK VINA RESULT:      -5.1      2.325      4.016
REMARK  7 active torsions:
REMARK  status: ('A' for Active; 'I' for Inactive)
REMARK    1  A    between atoms: C_2  and  C_3 
REMARK    2  A    between atoms: C_3  and  O_6 
REMARK    3  A    between atoms: C_3  and  C_4 
REMARK    4  A    between atoms: C_7  and  O_6 
REMARK    5  A    between atoms: C_9  and  C_10 
REMARK    6  A    between atoms: N_15  and  C_14 
REMARK    7  A    between atoms: N_20  and  C_19 
REMARK       I    between atoms: C_22  and  N_20 
ROOT
ATOM      1  C   LIG d   1      -6.095  76.463 117.082  0.00  0.00     0.161 C 
ATOM      2  C   LIG d   1      -4.769  76.730 117.460  0.00  0.00     0.016 C 
ATOM      3  C   LIG d   1      -3.646  76.170 116.808  0.00  0.00     0.038 C 
ATOM      4  C   LIG d   1      -3.771  75.418 115.631  0.00  0.00     0.028 C 
ATOM      5  C   LIG d   1      -5.114  74.707 115.506  0.00  0.00    -0.047 C 
ATOM      6  C   LIG d   1      -6.248  75.733 115.731  0.00  0.00     0.091 C 
ENDROOT
BRANCH   1   7
ATOM      7  O   LIG d   1      -6.859  77.685 117.080  0.00  0.00    -0.368 OA
BRANCH   7   8
ATOM      8  C   LIG d   1      -7.585  77.985 118.298  0.00  0.00     0.119 C 
BRANCH   8   9
ATOM      9  C   LIG d   1      -8.905  77.192 118.257  0.00  0.00     0.028 C 
ATOM     10  C   LIG d   1      -8.956  76.082 119.321  0.00  0.00     0.006 C 
ENDBRANCH   8   9
BRANCH   8  11
ATOM     11  C   LIG d   1      -7.998  79.459 118.351  0.00  0.00     0.028 C 
ATOM     12  C   LIG d   1      -9.403  79.663 118.942  0.00  0.00     0.006 C 
ENDBRANCH   8  11
ENDBRANCH   7   8
ENDBRANCH   1   7
BRANCH   6  13
ATOM     13  N   LIG d   1      -7.595  75.104 115.710  0.00  0.00    -0.311 N 
ATOM     14  C   LIG d   1      -7.919  74.040 116.443  0.00  0.00     0.210 C 
ATOM     15  C   LIG d   1      -9.354  73.539 116.255  0.00  0.00     0.109 C 
ATOM     16  O   LIG d   1      -7.164  73.484 117.254  0.00  0.00    -0.276 OA
ATOM     17  H   LIG d   1      -8.279  75.511 115.102  0.00  0.00     0.149 HD
ENDBRANCH   6  13
BRANCH   5  18
ATOM     18  N   LIG d   1      -5.162  74.075 114.174  0.00  0.00     0.381 N 
ATOM     19  H   LIG d   1      -5.664  74.663 113.538  0.00  0.00    -0.090 HD
ATOM     20  H   LIG d   1      -5.651  73.200 114.247  0.00  0.00    -0.090 HD
ATOM     21  H   LIG d   1      -4.238  73.920 113.836  0.00  0.00    -0.090 HD
ENDBRANCH   5  18
BRANCH   3  22
ATOM     22  C   LIG d   1      -2.383  76.328 117.358  0.00  0.00     0.382 C 
ATOM     23  O   LIG d   1      -2.006  77.459 117.749  0.00  0.00    -0.241 OA
ATOM     24  O   LIG d   1      -1.599  75.363 117.427  0.00  0.00    -0.241 OA
ENDBRANCH   3  22
TORSDOF 7
ENDMDL
