MODEL 1
REMARK VINA RESULT:      -6.1      0.000      0.000
REMARK  7 active torsions:
REMARK  status: ('A' for Active; 'I' for Inactive)
REMARK    1  A    between atoms: C_2  and  C_3 
REMARK    2  A    between atoms: C_3  and  O_6 
REMARK    3  A    between atoms: C_3  and  C_4 
REMARK    4  A    between atoms: C_7  and  O_6 
REMARK    5  A    between atoms: C_9  and  C_10 
REMARK    6  A    between atoms: N_15  and  C_14 
REMARK    7  A    between atoms: N_20  and  C_19 
REMARK       I    between atoms: C_22  and  N_20 
ROOT
ATOM      1  C   LIG d   1      -7.863  75.919 117.341  0.00  0.00     0.161 C 
ATOM      2  C   LIG d   1      -8.903  76.686 117.892  0.00  0.00     0.016 C 
ATOM      3  C   LIG d   1      -8.806  78.078 118.120  0.00  0.00     0.038 C 
ATOM      4  C   LIG d   1      -7.709  78.829 117.671  0.00  0.00     0.028 C 
ATOM      5  C   LIG d   1      -6.422  78.018 117.565  0.00  0.00    -0.047 C 
ATOM      6  C   LIG d   1      -6.701  76.739 116.742  0.00  0.00     0.091 C 
ENDROOT
BRANCH   1   7
ATOM      7  O   LIG d   1      -8.395  75.011 116.356  0.00  0.00    -0.368 OA
BRANCH   7   8
ATOM      8  C   LIG d   1      -8.298  73.600 116.673  0.00  0.00     0.119 C 
BRANCH   8   9
ATOM      9  C   LIG d   1      -7.243  72.986 115.733  0.00  0.00     0.028 C 
ATOM     10  C   LIG d   1      -6.901  71.533 116.104  0.00  0.00     0.006 C 
ENDBRANCH   8   9
BRANCH   8  11
ATOM     11  C   LIG d   1      -9.604  72.866 116.351  0.00  0.00     0.028 C 
ATOM     12  C   LIG d   1     -10.852  73.714 116.645  0.00  0.00     0.006 C 
ENDBRANCH   8  11
ENDBRANCH   7   8
ENDBRANCH   1   7
BRANCH   6  13
ATOM     13  N   LIG d   1      -5.515  75.847 116.661  0.00  0.00    -0.311 N 
ATOM     14  C   LIG d   1      -4.648  75.870 115.651  0.00  0.00     0.210 C 
ATOM     15  C   LIG d   1      -3.507  74.853 115.755  0.00  0.00     0.109 C 
ATOM     16  O   LIG d   1      -4.696  76.659 114.695  0.00  0.00    -0.276 OA
ATOM     17  H   LIG d   1      -5.382  75.197 117.411  0.00  0.00     0.149 HD
ENDBRANCH   6  13
BRANCH   5  18
ATOM     18  N   LIG d   1      -5.397  78.885 116.955  0.00  0.00     0.381 N 
ATOM     19  H   LIG d   1      -4.744  78.329 116.442  0.00  0.00    -0.090 HD
ATOM     20  H   LIG d   1      -4.899  79.362 117.686  0.00  0.00    -0.090 HD
ATOM     21  H   LIG d   1      -5.828  79.549 116.350  0.00  0.00    -0.090 HD
ENDBRANCH   5  18
BRANCH   3  22
ATOM     22  C   LIG d   1      -9.796  78.727 118.842  0.00  0.00     0.382 C 
ATOM     23  O   LIG d   1     -10.190  79.863 118.484  0.00  0.00    -0.241 OA
ATOM     24  O   LIG d   1     -10.270  78.209 119.871  0.00  0.00    -0.241 OA
ENDBRANCH   3  22
TORSDOF 7
ENDMDL
MODEL 2
REMARK VINA RESULT:      -5.8      2.241      4.734
REMARK  7 active torsions:
REMARK  status: ('A' for Active; 'I' for Inactive)
REMARK    1  A    between atoms: C_2  and  C_3 
REMARK    2  A    between atoms: C_3  and  O_6 
REMARK    3  A    between atoms: C_3  and  C_4 
REMARK    4  A    between atoms: C_7  and  O_6 
REMARK    5  A    between atoms: C_9  and  C_10 
REMARK    6  A    between atoms: N_15  and  C_14 
REMARK    7  A    between atoms: N_20  and  C_19 
REMARK       I    between atoms: C_22  and  N_20 
ROOT
ATOM      1  C   LIG d   1      -7.095  75.790 115.880  0.00  0.00     0.161 C 
ATOM      2  C   LIG d   1      -8.413  75.515 116.283  0.00  0.00     0.016 C 
ATOM      3  C   LIG d   1      -8.872  74.219 116.610  0.00  0.00     0.038 C 
ATOM      4  C   LIG d   1      -8.000  73.124 116.703  0.00  0.00     0.028 C 
ATOM      5  C   LIG d   1      -6.766  73.257 115.816  0.00  0.00    -0.047 C 
ATOM      6  C   LIG d   1      -6.101  74.627 116.082  0.00  0.00     0.091 C 
ENDROOT
BRANCH   1   7
ATOM      7  O   LIG d   1      -6.618  76.977 116.544  0.00  0.00    -0.368 OA
BRANCH   7   8
ATOM      8  C   LIG d   1      -7.330  77.365 117.745  0.00  0.00     0.119 C 
BRANCH   8   9
ATOM      9  C   LIG d   1      -7.439  78.902 117.743  0.00  0.00     0.028 C 
ATOM     10  C   LIG d   1      -8.846  79.390 118.126  0.00  0.00     0.006 C 
ENDBRANCH   8   9
BRANCH   8  11
ATOM     11  C   LIG d   1      -6.529  77.017 119.004  0.00  0.00     0.028 C 
ATOM     12  C   LIG d   1      -7.126  75.835 119.783  0.00  0.00     0.006 C 
ENDBRANCH   8  11
ENDBRANCH   7   8
ENDBRANCH   1   7
BRANCH   6  13
ATOM     13  N   LIG d   1      -4.935  74.873 115.195  0.00  0.00    -0.311 N 
ATOM     14  C   LIG d   1      -3.682  74.565 115.529  0.00  0.00     0.210 C 
ATOM     15  C   LIG d   1      -2.627  74.921 114.477  0.00  0.00     0.109 C 
ATOM     16  O   LIG d   1      -3.349  74.001 116.582  0.00  0.00    -0.276 OA
ATOM     17  H   LIG d   1      -5.118  75.299 114.308  0.00  0.00     0.149 HD
ENDBRANCH   6  13
BRANCH   5  18
ATOM     18  N   LIG d   1      -5.879  72.116 116.114  0.00  0.00     0.381 N 
ATOM     19  H   LIG d   1      -5.382  72.287 116.965  0.00  0.00    -0.090 HD
ATOM     20  H   LIG d   1      -5.209  72.023 115.371  0.00  0.00    -0.090 HD
ATOM     21  H   LIG d   1      -6.414  71.280 116.195  0.00  0.00    -0.090 HD
ENDBRANCH   5  18
BRANCH   3  22
ATOM     22  C   LIG d   1     -10.227  74.000 116.810  0.00  0.00     0.382 C 
ATOM     23  O   LIG d   1     -10.731  72.888 116.522  0.00  0.00    -0.241 OA
ATOM     24  O   LIG d   1     -10.959  74.915 117.234  0.00  0.00    -0.241 OA
ENDBRANCH   3  22
TORSDOF 7
ENDMDL
MODEL 3
REMARK VINA RESULT:      -5.8      1.722      4.985
REMARK  7 active torsions:
REMARK  status: ('A' for Active; 'I' for Inactive)
REMARK    1  A    between atoms: C_2  and  C_3 
REMARK    2  A    between atoms: C_3  and  O_6 
REMARK    3  A    between atoms: C_3  and  C_4 
REMARK    4  A    between atoms: C_7  and  O_6 
REMARK    5  A    between atoms: C_9  and  C_10 
REMARK    6  A    between atoms: N_15  and  C_14 
REMARK    7  A    between atoms: N_20  and  C_19 
REMARK       I    between atoms: C_22  and  N_20 
ROOT
ATOM      1  C   LIG d   1      -6.644  75.895 115.572  0.00  0.00     0.161 C 
ATOM      2  C   LIG d   1      -5.484  75.278 115.074  0.00  0.00     0.016 C 
ATOM      3  C   LIG d   1      -4.267  75.217 115.791  0.00  0.00     0.038 C 
ATOM      4  C   LIG d   1      -4.170  75.639 117.126  0.00  0.00     0.028 C 
ATOM      5  C   LIG d   1      -5.176  76.725 117.492  0.00  0.00    -0.047 C 
ATOM      6  C   LIG d   1      -6.590  76.263 117.069  0.00  0.00     0.091 C 
ENDROOT
BRANCH   1   7
ATOM      7  O   LIG d   1      -7.792  75.068 115.300  0.00  0.00    -0.368 OA
BRANCH   7   8
ATOM      8  C   LIG d   1      -8.216  74.194 116.375  0.00  0.00     0.119 C 
BRANCH   8   9
ATOM      9  C   LIG d   1      -8.027  72.742 115.894  0.00  0.00     0.028 C 
ATOM     10  C   LIG d   1      -6.803  72.067 116.533  0.00  0.00     0.006 C 
ENDBRANCH   8   9
BRANCH   8  11
ATOM     11  C   LIG d   1      -9.716  74.337 116.651  0.00  0.00     0.028 C 
ATOM     12  C   LIG d   1     -10.483  73.017 116.476  0.00  0.00     0.006 C 
ENDBRANCH   8  11
ENDBRANCH   7   8
ENDBRANCH   1   7
BRANCH   6  13
ATOM     13  N   LIG d   1      -7.623  77.303 117.315  0.00  0.00    -0.311 N 
ATOM     14  C   LIG d   1      -8.350  77.365 118.429  0.00  0.00     0.210 C 
ATOM     15  C   LIG d   1      -9.374  78.504 118.471  0.00  0.00     0.109 C 
ATOM     16  O   LIG d   1      -8.222  76.604 119.400  0.00  0.00    -0.276 OA
ATOM     17  H   LIG d   1      -7.770  77.979 116.592  0.00  0.00     0.149 HD
ENDBRANCH   6  13
BRANCH   5  18
ATOM     18  N   LIG d   1      -5.058  76.972 118.941  0.00  0.00     0.381 N 
ATOM     19  H   LIG d   1      -4.291  76.447 119.313  0.00  0.00    -0.090 HD
ATOM     20  H   LIG d   1      -5.900  76.663 119.394  0.00  0.00    -0.090 HD
ATOM     21  H   LIG d   1      -4.918  77.943 119.111  0.00  0.00    -0.090 HD
ENDBRANCH   5  18
BRANCH   3  22
ATOM     22  C   LIG d   1      -3.119  74.765 115.159  0.00  0.00     0.382 C 
ATOM     23  O   LIG d   1      -2.228  74.179 115.820  0.00  0.00    -0.241 OA
ATOM     24  O   LIG d   1      -2.943  74.974 113.944  0.00  0.00    -0.241 OA
ENDBRANCH   3  22
TORSDOF 7
ENDMDL
MODEL 4
REMARK VINA RESULT:      -5.7      2.514      5.300
REMARK  7 active torsions:
REMARK  status: ('A' for Active; 'I' for Inactive)
REMARK    1  A    between atoms: C_2  and  C_3 
REMARK    2  A    between atoms: C_3  and  O_6 
REMARK    3  A    between atoms: C_3  and  C_4 
REMARK    4  A    between atoms: C_7  and  O_6 
REMARK    5  A    between atoms: C_9  and  C_10 
REMARK    6  A    between atoms: N_15  and  C_14 
REMARK    7  A    between atoms: N_20  and  C_19 
REMARK       I    between atoms: C_22  and  N_20 
ROOT
ATOM      1  C   LIG d   1      -6.086  74.679 116.554  0.00  0.00     0.161 C 
ATOM      2  C   LIG d   1      -6.728  73.507 116.122  0.00  0.00     0.016 C 
ATOM      3  C   LIG d   1      -8.117  73.282 116.268  0.00  0.00     0.038 C 
ATOM      4  C   LIG d   1      -8.987  74.285 116.721  0.00  0.00     0.028 C 
ATOM      5  C   LIG d   1      -8.314  75.301 117.638  0.00  0.00    -0.047 C 
ATOM      6  C   LIG d   1      -7.035  75.829 116.950  0.00  0.00     0.091 C 
ENDROOT
BRANCH   1   7
ATOM      7  O   LIG d   1      -5.153  75.123 115.549  0.00  0.00    -0.368 OA
BRANCH   7   8
ATOM      8  C   LIG d   1      -3.811  74.583 115.642  0.00  0.00     0.119 C 
BRANCH   8   9
ATOM      9  C   LIG d   1      -3.145  75.209 116.882  0.00  0.00     0.028 C 
ATOM     10  C   LIG d   1      -1.936  74.394 117.373  0.00  0.00     0.006 C 
ENDBRANCH   8   9
BRANCH   8  11
ATOM     11  C   LIG d   1      -2.951  75.022 114.453  0.00  0.00     0.028 C 
ATOM     12  C   LIG d   1      -3.426  76.344 113.830  0.00  0.00     0.006 C 
ENDBRANCH   8  11
ENDBRANCH   7   8
ENDBRANCH   1   7
BRANCH   6  13
ATOM     13  N   LIG d   1      -6.271  76.766 117.815  0.00  0.00    -0.311 N 
ATOM     14  C   LIG d   1      -5.763  77.917 117.379  0.00  0.00     0.210 C 
ATOM     15  C   LIG d   1      -4.993  78.723 118.430  0.00  0.00     0.109 C 
ATOM     16  O   LIG d   1      -5.903  78.362 116.230  0.00  0.00    -0.276 OA
ATOM     17  H   LIG d   1      -6.137  76.498 118.770  0.00  0.00     0.149 HD
ENDBRANCH   6  13
BRANCH   5  18
ATOM     18  N   LIG d   1      -9.298  76.363 117.924  0.00  0.00     0.381 N 
ATOM     19  H   LIG d   1      -9.105  77.164 117.358  0.00  0.00    -0.090 HD
ATOM     20  H   LIG d   1      -9.215  76.631 118.889  0.00  0.00    -0.090 HD
ATOM     21  H   LIG d   1     -10.220  76.032 117.742  0.00  0.00    -0.090 HD
ENDBRANCH   5  18
BRANCH   3  22
ATOM     22  C   LIG d   1      -8.642  72.028 115.995  0.00  0.00     0.382 C 
ATOM     23  O   LIG d   1      -9.880  71.838 116.067  0.00  0.00    -0.241 OA
ATOM     24  O   LIG d   1      -7.890  71.074 115.720  0.00  0.00    -0.241 OA
ENDBRANCH   3  22
TORSDOF 7
ENDMDL
MODEL 5
REMARK VINA RESULT:      -5.4     13.711     16.882
REMARK  7 active torsions:
REMARK  status: ('A' for Active; 'I' for Inactive)
REMARK    1  A    between atoms: C_2  and  C_3 
REMARK    2  A    between atoms: C_3  and  O_6 
REMARK    3  A    between atoms: C_3  and  C_4 
REMARK    4  A    between atoms: C_7  and  O_6 
REMARK    5  A    between atoms: C_9  and  C_10 
REMARK    6  A    between atoms: N_15  and  C_14 
REMARK    7  A    between atoms: N_20  and  C_19 
REMARK       I    between atoms: C_22  and  N_20 
ROOT
ATOM      1  C   LIG d   1      -6.193  92.301 117.296  0.00  0.00     0.161 C 
ATOM      2  C   LIG d   1      -7.065  91.410 116.649  0.00  0.00     0.016 C 
ATOM      3  C   LIG d   1      -6.667  90.140 116.172  0.00  0.00     0.038 C 
ATOM      4  C   LIG d   1      -5.398  89.609 116.446  0.00  0.00     0.028 C 
ATOM      5  C   LIG d   1      -4.328  90.676 116.656  0.00  0.00    -0.047 C 
ATOM      6  C   LIG d   1      -4.834  91.694 117.703  0.00  0.00     0.091 C 
ENDROOT
BRANCH   1   7
ATOM      7  O   LIG d   1      -6.847  92.878 118.444  0.00  0.00    -0.368 OA
BRANCH   7   8
ATOM      8  C   LIG d   1      -7.470  94.170 118.239  0.00  0.00     0.119 C 
BRANCH   8   9
ATOM      9  C   LIG d   1      -6.490  95.243 118.753  0.00  0.00     0.028 C 
ATOM     10  C   LIG d   1      -7.068  96.664 118.647  0.00  0.00     0.006 C 
ENDBRANCH   8   9
BRANCH   8  11
ATOM     11  C   LIG d   1      -8.728  94.325 119.099  0.00  0.00     0.028 C 
ATOM     12  C   LIG d   1      -8.518  93.865 120.550  0.00  0.00     0.006 C 
ENDBRANCH   8  11
ENDBRANCH   7   8
ENDBRANCH   1   7
BRANCH   6  13
ATOM     13  N   LIG d   1      -3.883  92.818 117.906  0.00  0.00    -0.311 N 
ATOM     14  C   LIG d   1      -2.954  92.829 118.861  0.00  0.00     0.210 C 
ATOM     15  C   LIG d   1      -2.090  94.094 118.908  0.00  0.00     0.109 C 
ATOM     16  O   LIG d   1      -2.743  91.898 119.653  0.00  0.00    -0.276 OA
ATOM     17  H   LIG d   1      -3.963  93.601 117.288  0.00  0.00     0.149 HD
ENDBRANCH   6  13
BRANCH   5  18
ATOM     18  N   LIG d   1      -3.089  89.989 117.068  0.00  0.00     0.381 N 
ATOM     19  H   LIG d   1      -3.263  89.439 117.886  0.00  0.00    -0.090 HD
ATOM     20  H   LIG d   1      -2.395  90.680 117.295  0.00  0.00    -0.090 HD
ATOM     21  H   LIG d   1      -2.760  89.407 116.330  0.00  0.00    -0.090 HD
ENDBRANCH   5  18
BRANCH   3  22
ATOM     22  C   LIG d   1      -7.531  89.403 115.376  0.00  0.00     0.382 C 
ATOM     23  O   LIG d   1      -7.169  89.032 114.234  0.00  0.00    -0.241 OA
ATOM     24  O   LIG d   1      -8.684  89.142 115.769  0.00  0.00    -0.241 OA
ENDBRANCH   3  22
TORSDOF 7
ENDMDL
MODEL 6
REMARK VINA RESULT:      -5.3      2.284      5.360
REMARK  7 active torsions:
REMARK  status: ('A' for Active; 'I' for Inactive)
REMARK    1  A    between atoms: C_2  and  C_3 
REMARK    2  A    between atoms: C_3  and  O_6 
REMARK    3  A    between atoms: C_3  and  C_4 
REMARK    4  A    between atoms: C_7  and  O_6 
REMARK    5  A    between atoms: C_9  and  C_10 
REMARK    6  A    between atoms: N_15  and  C_14 
REMARK    7  A    between atoms: N_20  and  C_19 
REMARK       I    between atoms: C_22  and  N_20 
ROOT
ATOM      1  C   LIG d   1      -5.445  75.264 116.585  0.00  0.00     0.161 C 
ATOM      2  C   LIG d   1      -4.329  74.682 115.962  0.00  0.00     0.016 C 
ATOM      3  C   LIG d   1      -2.994  74.960 116.339  0.00  0.00     0.038 C 
ATOM      4  C   LIG d   1      -2.689  75.730 117.471  0.00  0.00     0.028 C 
ATOM      5  C   LIG d   1      -3.771  76.745 117.824  0.00  0.00    -0.047 C 
ATOM      6  C   LIG d   1      -5.134  76.020 117.894  0.00  0.00     0.091 C 
ENDROOT
BRANCH   1   7
ATOM      7  O   LIG d   1      -6.456  74.262 116.813  0.00  0.00    -0.368 OA
BRANCH   7   8
ATOM      8  C   LIG d   1      -7.386  74.036 115.725  0.00  0.00     0.119 C 
BRANCH   8   9
ATOM      9  C   LIG d   1      -8.488  75.108 115.829  0.00  0.00     0.028 C 
ATOM     10  C   LIG d   1      -9.251  75.039 117.163  0.00  0.00     0.006 C 
ENDBRANCH   8   9
BRANCH   8  11
ATOM     11  C   LIG d   1      -8.109  72.695 115.880  0.00  0.00     0.028 C 
ATOM     12  C   LIG d   1      -7.147  71.527 116.150  0.00  0.00     0.006 C 
ENDBRANCH   8  11
ENDBRANCH   7   8
ENDBRANCH   1   7
BRANCH   6  13
ATOM     13  N   LIG d   1      -6.260  76.955 118.152  0.00  0.00    -0.311 N 
ATOM     14  C   LIG d   1      -6.564  77.975 117.351  0.00  0.00     0.210 C 
ATOM     15  C   LIG d   1      -7.751  78.828 117.811  0.00  0.00     0.109 C 
ATOM     16  O   LIG d   1      -5.984  78.235 116.286  0.00  0.00    -0.276 OA
ATOM     17  H   LIG d   1      -6.803  76.799 118.978  0.00  0.00     0.149 HD
ENDBRANCH   6  13
BRANCH   5  18
ATOM     18  N   LIG d   1      -3.387  77.380 119.099  0.00  0.00     0.381 N 
ATOM     19  H   LIG d   1      -3.670  76.801 119.864  0.00  0.00    -0.090 HD
ATOM     20  H   LIG d   1      -3.862  78.262 119.178  0.00  0.00    -0.090 HD
ATOM     21  H   LIG d   1      -2.401  77.521 119.126  0.00  0.00    -0.090 HD
ENDBRANCH   5  18
BRANCH   3  22
ATOM     22  C   LIG d   1      -1.949  74.498 115.554  0.00  0.00     0.382 C 
ATOM     23  O   LIG d   1      -1.956  74.703 114.316  0.00  0.00    -0.241 OA
ATOM     24  O   LIG d   1      -1.020  73.841 116.062  0.00  0.00    -0.241 OA
ENDBRANCH   3  22
TORSDOF 7
ENDMDL
MODEL 7
REMARK VINA RESULT:      -5.2     13.960     16.554
REMARK  7 active torsions:
REMARK  status: ('A' for Active; 'I' for Inactive)
REMARK    1  A    between atoms: C_2  and  C_3 
REMARK    2  A    between atoms: C_3  and  O_6 
REMARK    3  A    between atoms: C_3  and  C_4 
REMARK    4  A    between atoms: C_7  and  O_6 
REMARK    5  A    between atoms: C_9  and  C_10 
REMARK    6  A    between atoms: N_15  and  C_14 
REMARK    7  A    between atoms: N_20  and  C_19 
REMARK       I    between atoms: C_22  and  N_20 
ROOT
ATOM      1  C   LIG d   1      -4.989  91.039 117.800  0.00  0.00     0.161 C 
ATOM      2  C   LIG d   1      -4.970  90.123 116.736  0.00  0.00     0.016 C 
ATOM      3  C   LIG d   1      -5.874  90.173 115.650  0.00  0.00     0.038 C 
ATOM      4  C   LIG d   1      -6.767  91.240 115.477  0.00  0.00     0.028 C 
ATOM      5  C   LIG d   1      -7.164  91.916 116.785  0.00  0.00    -0.047 C 
ATOM      6  C   LIG d   1      -5.884  92.276 117.573  0.00  0.00     0.091 C 
ENDROOT
BRANCH   1   7
ATOM      7  O   LIG d   1      -3.644  91.446 118.119  0.00  0.00    -0.368 OA
BRANCH   7   8
ATOM      8  C   LIG d   1      -3.139  91.025 119.410  0.00  0.00     0.119 C 
BRANCH   8   9
ATOM      9  C   LIG d   1      -2.188  92.126 119.917  0.00  0.00     0.028 C 
ATOM     10  C   LIG d   1      -2.307  93.425 119.102  0.00  0.00     0.006 C 
ENDBRANCH   8   9
BRANCH   8  11
ATOM     11  C   LIG d   1      -2.274  89.767 119.286  0.00  0.00     0.028 C 
ATOM     12  C   LIG d   1      -1.476  89.719 117.974  0.00  0.00     0.006 C 
ENDBRANCH   8  11
ENDBRANCH   7   8
ENDBRANCH   1   7
BRANCH   6  13
ATOM     13  N   LIG d   1      -6.185  92.864 118.904  0.00  0.00    -0.311 N 
ATOM     14  C   LIG d   1      -6.497  94.146 119.085  0.00  0.00     0.210 C 
ATOM     15  C   LIG d   1      -6.751  94.551 120.541  0.00  0.00     0.109 C 
ATOM     16  O   LIG d   1      -6.620  94.980 118.175  0.00  0.00    -0.276 OA
ATOM     17  H   LIG d   1      -6.139  92.252 119.695  0.00  0.00     0.149 HD
ENDBRANCH   6  13
BRANCH   5  18
ATOM     18  N   LIG d   1      -7.986  93.093 116.447  0.00  0.00     0.381 N 
ATOM     19  H   LIG d   1      -8.332  93.008 115.512  0.00  0.00    -0.090 HD
ATOM     20  H   LIG d   1      -7.411  93.916 116.496  0.00  0.00    -0.090 HD
ATOM     21  H   LIG d   1      -8.747  93.172 117.085  0.00  0.00    -0.090 HD
ENDBRANCH   5  18
BRANCH   3  22
ATOM     22  C   LIG d   1      -5.916  89.125 114.742  0.00  0.00     0.382 C 
ATOM     23  O   LIG d   1      -4.981  88.289 114.706  0.00  0.00    -0.241 OA
ATOM     24  O   LIG d   1      -6.856  89.030 113.930  0.00  0.00    -0.241 OA
ENDBRANCH   3  22
TORSDOF 7
ENDMDL
MODEL 8
REMARK VINA RESULT:      -4.9     14.088     16.787
REMARK  7 active torsions:
REMARK  status: ('A' for Active; 'I' for Inactive)
REMARK    1  A    between atoms: C_2  and  C_3 
REMARK    2  A    between atoms: C_3  and  O_6 
REMARK    3  A    between atoms: C_3  and  C_4 
REMARK    4  A    between atoms: C_7  and  O_6 
REMARK    5  A    between atoms: C_9  and  C_10 
REMARK    6  A    between atoms: N_15  and  C_14 
REMARK    7  A    between atoms: N_20  and  C_19 
REMARK       I    between atoms: C_22  and  N_20 
ROOT
ATOM      1  C   LIG d   1      -4.710  92.337 118.654  0.00  0.00     0.161 C 
ATOM      2  C   LIG d   1      -4.903  93.433 119.511  0.00  0.00     0.016 C 
ATOM      3  C   LIG d   1      -6.037  94.276 119.452  0.00  0.00     0.038 C 
ATOM      4  C   LIG d   1      -7.133  93.988 118.625  0.00  0.00     0.028 C 
ATOM      5  C   LIG d   1      -6.762  93.180 117.386  0.00  0.00    -0.047 C 
ATOM      6  C   LIG d   1      -5.947  91.941 117.821  0.00  0.00     0.091 C 
ENDROOT
BRANCH   1   7
ATOM      7  O   LIG d   1      -4.231  91.205 119.408  0.00  0.00    -0.368 OA
BRANCH   7   8
ATOM      8  C   LIG d   1      -2.792  91.051 119.482  0.00  0.00     0.119 C 
BRANCH   8   9
ATOM      9  C   LIG d   1      -2.182  91.828 118.298  0.00  0.00     0.028 C 
ATOM     10  C   LIG d   1      -0.772  92.357 118.608  0.00  0.00     0.006 C 
ENDBRANCH   8   9
BRANCH   8  11
ATOM     11  C   LIG d   1      -2.376  89.593 119.268  0.00  0.00     0.028 C 
ATOM     12  C   LIG d   1      -2.792  89.051 117.891  0.00  0.00     0.006 C 
ENDBRANCH   8  11
ENDBRANCH   7   8
ENDBRANCH   1   7
BRANCH   6  13
ATOM     13  N   LIG d   1      -5.471  91.140 116.662  0.00  0.00    -0.311 N 
ATOM     14  C   LIG d   1      -6.163  90.132 116.134  0.00  0.00     0.210 C 
ATOM     15  C   LIG d   1      -5.482  89.427 114.957  0.00  0.00     0.109 C 
ATOM     16  O   LIG d   1      -7.291  89.776 116.508  0.00  0.00    -0.276 OA
ATOM     17  H   LIG d   1      -4.579  91.382 116.276  0.00  0.00     0.149 HD
ENDBRANCH   6  13
BRANCH   5  18
ATOM     18  N   LIG d   1      -8.014  92.833 116.688  0.00  0.00     0.381 N 
ATOM     19  H   LIG d   1      -7.946  93.088 115.723  0.00  0.00    -0.090 HD
ATOM     20  H   LIG d   1      -8.770  93.353 117.099  0.00  0.00    -0.090 HD
ATOM     21  H   LIG d   1      -8.190  91.856 116.770  0.00  0.00    -0.090 HD
ENDBRANCH   5  18
BRANCH   3  22
ATOM     22  C   LIG d   1      -6.063  95.445 120.197  0.00  0.00     0.382 C 
ATOM     23  O   LIG d   1      -4.989  95.985 120.555  0.00  0.00    -0.241 OA
ATOM     24  O   LIG d   1      -7.148  95.942 120.554  0.00  0.00    -0.241 OA
ENDBRANCH   3  22
TORSDOF 7
ENDMDL
MODEL 9
REMARK VINA RESULT:      -4.7      2.147      4.895
REMARK  7 active torsions:
REMARK  status: ('A' for Active; 'I' for Inactive)
REMARK    1  A    between atoms: C_2  and  C_3 
REMARK    2  A    between atoms: C_3  and  O_6 
REMARK    3  A    between atoms: C_3  and  C_4 
REMARK    4  A    between atoms: C_7  and  O_6 
REMARK    5  A    between atoms: C_9  and  C_10 
REMARK    6  A    between atoms: N_15  and  C_14 
REMARK    7  A    between atoms: N_20  and  C_19 
REMARK       I    between atoms: C_22  and  N_20 
ROOT
ATOM      1  C   LIG d   1      -6.021  76.701 116.158  0.00  0.00     0.161 C 
ATOM      2  C   LIG d   1      -7.149  75.863 116.157  0.00  0.00     0.016 C 
ATOM      3  C   LIG d   1      -7.071  74.454 116.238  0.00  0.00     0.038 C 
ATOM      4  C   LIG d   1      -5.858  73.791 116.478  0.00  0.00     0.028 C 
ATOM      5  C   LIG d   1      -4.639  74.560 115.981  0.00  0.00    -0.047 C 
ATOM      6  C   LIG d   1      -4.697  76.003 116.532  0.00  0.00     0.091 C 
ENDROOT
BRANCH   1   7
ATOM      7  O   LIG d   1      -6.253  77.831 117.023  0.00  0.00    -0.368 OA
BRANCH   7   8
ATOM      8  C   LIG d   1      -7.395  77.732 117.909  0.00  0.00     0.119 C 
BRANCH   8   9
ATOM      9  C   LIG d   1      -8.121  79.091 117.881  0.00  0.00     0.028 C 
ATOM     10  C   LIG d   1      -9.540  79.009 118.469  0.00  0.00     0.006 C 
ENDBRANCH   8   9
BRANCH   8  11
ATOM     11  C   LIG d   1      -6.956  77.536 119.363  0.00  0.00     0.028 C 
ATOM     12  C   LIG d   1      -6.725  76.060 119.722  0.00  0.00     0.006 C 
ENDBRANCH   8  11
ENDBRANCH   7   8
ENDBRANCH   1   7
BRANCH   6  13
ATOM     13  N   LIG d   1      -3.584  76.848 116.025  0.00  0.00    -0.311 N 
ATOM     14  C   LIG d   1      -3.363  77.070 114.730  0.00  0.00     0.210 C 
ATOM     15  C   LIG d   1      -2.150  77.954 114.424  0.00  0.00     0.109 C 
ATOM     16  O   LIG d   1      -4.074  76.644 113.808  0.00  0.00    -0.276 OA
ATOM     17  H   LIG d   1      -2.976  77.258 116.706  0.00  0.00     0.149 HD
ENDBRANCH   6  13
BRANCH   5  18
ATOM     18  N   LIG d   1      -3.438  73.822 116.418  0.00  0.00     0.381 N 
ATOM     19  H   LIG d   1      -3.572  73.477 117.348  0.00  0.00    -0.090 HD
ATOM     20  H   LIG d   1      -2.655  74.451 116.425  0.00  0.00    -0.090 HD
ATOM     21  H   LIG d   1      -3.260  73.063 115.797  0.00  0.00    -0.090 HD
ENDBRANCH   5  18
BRANCH   3  22
ATOM     22  C   LIG d   1      -8.211  73.690 116.037  0.00  0.00     0.382 C 
ATOM     23  O   LIG d   1      -9.344  74.195 116.221  0.00  0.00    -0.241 OA
ATOM     24  O   LIG d   1      -8.119  72.490 115.716  0.00  0.00    -0.241 OA
ENDBRANCH   3  22
TORSDOF 7
ENDMDL
