MODEL 1
REMARK VINA RESULT:      -6.0      0.000      0.000
REMARK  7 active torsions:
REMARK  status: ('A' for Active; 'I' for Inactive)
REMARK    1  A    between atoms: C_2  and  C_3 
REMARK    2  A    between atoms: C_3  and  O_6 
REMARK    3  A    between atoms: C_3  and  C_4 
REMARK    4  A    between atoms: C_7  and  O_6 
REMARK    5  A    between atoms: C_9  and  C_10 
REMARK    6  A    between atoms: N_15  and  C_14 
REMARK    7  A    between atoms: N_20  and  C_19 
REMARK       I    between atoms: C_22  and  N_20 
ROOT
ATOM      1  C   LIG d   1      -7.308  76.833 117.610  0.00  0.00     0.161 C 
ATOM      2  C   LIG d   1      -8.658  77.044 117.935  0.00  0.00     0.016 C 
ATOM      3  C   LIG d   1      -9.160  78.276 118.412  0.00  0.00     0.038 C 
ATOM      4  C   LIG d   1      -8.368  79.433 118.454  0.00  0.00     0.028 C 
ATOM      5  C   LIG d   1      -6.880  79.143 118.615  0.00  0.00    -0.047 C 
ATOM      6  C   LIG d   1      -6.451  78.114 117.544  0.00  0.00     0.091 C 
ENDROOT
BRANCH   1   7
ATOM      7  O   LIG d   1      -7.212  76.101 116.372  0.00  0.00    -0.368 OA
BRANCH   7   8
ATOM      8  C   LIG d   1      -6.588  74.795 116.451  0.00  0.00     0.119 C 
BRANCH   8   9
ATOM      9  C   LIG d   1      -5.988  74.485 115.065  0.00  0.00     0.028 C 
ATOM     10  C   LIG d   1      -5.812  75.748 114.206  0.00  0.00     0.006 C 
ENDBRANCH   8   9
BRANCH   8  11
ATOM     11  C   LIG d   1      -7.625  73.696 116.699  0.00  0.00     0.028 C 
ATOM     12  C   LIG d   1      -7.275  72.376 115.994  0.00  0.00     0.006 C 
ENDBRANCH   8  11
ENDBRANCH   7   8
ENDBRANCH   1   7
BRANCH   6  13
ATOM     13  N   LIG d   1      -5.027  77.711 117.683  0.00  0.00    -0.311 N 
ATOM     14  C   LIG d   1      -4.109  77.925 116.743  0.00  0.00     0.210 C 
ATOM     15  C   LIG d   1      -2.705  77.413 117.081  0.00  0.00     0.109 C 
ATOM     16  O   LIG d   1      -4.316  78.520 115.675  0.00  0.00    -0.276 OA
ATOM     17  H   LIG d   1      -4.765  77.250 118.532  0.00  0.00     0.149 HD
ENDBRANCH   6  13
BRANCH   5  18
ATOM     18  N   LIG d   1      -6.161  80.426 118.504  0.00  0.00     0.381 N 
ATOM     19  H   LIG d   1      -5.209  80.260 118.246  0.00  0.00    -0.090 HD
ATOM     20  H   LIG d   1      -6.170  80.882 119.400  0.00  0.00    -0.090 HD
ATOM     21  H   LIG d   1      -6.601  81.006 117.824  0.00  0.00    -0.090 HD
ENDBRANCH   5  18
BRANCH   3  22
ATOM     22  C   LIG d   1     -10.459  78.350 118.892  0.00  0.00     0.382 C 
ATOM     23  O   LIG d   1     -11.317  77.519 118.508  0.00  0.00    -0.241 OA
ATOM     24  O   LIG d   1     -10.795  79.263 119.669  0.00  0.00    -0.241 OA
ENDBRANCH   3  22
TORSDOF 7
ENDMDL
MODEL 2
REMARK VINA RESULT:      -6.0      2.461      5.487
REMARK  7 active torsions:
REMARK  status: ('A' for Active; 'I' for Inactive)
REMARK    1  A    between atoms: C_2  and  C_3 
REMARK    2  A    between atoms: C_3  and  O_6 
REMARK    3  A    between atoms: C_3  and  C_4 
REMARK    4  A    between atoms: C_7  and  O_6 
REMARK    5  A    between atoms: C_9  and  C_10 
REMARK    6  A    between atoms: N_15  and  C_14 
REMARK    7  A    between atoms: N_20  and  C_19 
REMARK       I    between atoms: C_22  and  N_20 
ROOT
ATOM      1  C   LIG d   1      -5.380  75.569 116.834  0.00  0.00     0.161 C 
ATOM      2  C   LIG d   1      -4.257  74.803 116.481  0.00  0.00     0.016 C 
ATOM      3  C   LIG d   1      -2.929  75.183 116.784  0.00  0.00     0.038 C 
ATOM      4  C   LIG d   1      -2.642  76.289 117.599  0.00  0.00     0.028 C 
ATOM      5  C   LIG d   1      -3.716  77.370 117.553  0.00  0.00    -0.047 C 
ATOM      6  C   LIG d   1      -5.093  76.722 117.820  0.00  0.00     0.091 C 
ENDROOT
BRANCH   1   7
ATOM      7  O   LIG d   1      -6.414  74.710 117.355  0.00  0.00    -0.368 OA
BRANCH   7   8
ATOM      8  C   LIG d   1      -7.329  74.152 116.381  0.00  0.00     0.119 C 
BRANCH   8   9
ATOM      9  C   LIG d   1      -8.758  74.343 116.926  0.00  0.00     0.028 C 
ATOM     10  C   LIG d   1      -9.110  75.824 117.145  0.00  0.00     0.006 C 
ENDBRANCH   8   9
BRANCH   8  11
ATOM     11  C   LIG d   1      -7.145  72.638 116.246  0.00  0.00     0.028 C 
ATOM     12  C   LIG d   1      -8.480  71.876 116.216  0.00  0.00     0.006 C 
ENDBRANCH   8  11
ENDBRANCH   7   8
ENDBRANCH   1   7
BRANCH   6  13
ATOM     13  N   LIG d   1      -6.210  77.696 117.709  0.00  0.00    -0.311 N 
ATOM     14  C   LIG d   1      -6.688  78.383 118.745  0.00  0.00     0.210 C 
ATOM     15  C   LIG d   1      -7.855  79.320 118.416  0.00  0.00     0.109 C 
ATOM     16  O   LIG d   1      -6.237  78.329 119.899  0.00  0.00    -0.276 OA
ATOM     17  H   LIG d   1      -6.615  77.825 116.803  0.00  0.00     0.149 HD
ENDBRANCH   6  13
BRANCH   5  18
ATOM     18  N   LIG d   1      -3.357  78.397 118.549  0.00  0.00     0.381 N 
ATOM     19  H   LIG d   1      -2.905  79.166 118.096  0.00  0.00    -0.090 HD
ATOM     20  H   LIG d   1      -2.715  77.998 119.210  0.00  0.00    -0.090 HD
ATOM     21  H   LIG d   1      -4.175  78.715 119.021  0.00  0.00    -0.090 HD
ENDBRANCH   5  18
BRANCH   3  22
ATOM     22  C   LIG d   1      -1.870  74.476 116.236  0.00  0.00     0.382 C 
ATOM     23  O   LIG d   1      -1.683  74.488 114.996  0.00  0.00    -0.241 OA
ATOM     24  O   LIG d   1      -1.125  73.790 116.962  0.00  0.00    -0.241 OA
ENDBRANCH   3  22
TORSDOF 7
ENDMDL
MODEL 3
REMARK VINA RESULT:      -5.9      2.708      3.992
REMARK  7 active torsions:
REMARK  status: ('A' for Active; 'I' for Inactive)
REMARK    1  A    between atoms: C_2  and  C_3 
REMARK    2  A    between atoms: C_3  and  O_6 
REMARK    3  A    between atoms: C_3  and  C_4 
REMARK    4  A    between atoms: C_7  and  O_6 
REMARK    5  A    between atoms: C_9  and  C_10 
REMARK    6  A    between atoms: N_15  and  C_14 
REMARK    7  A    between atoms: N_20  and  C_19 
REMARK       I    between atoms: C_22  and  N_20 
ROOT
ATOM      1  C   LIG d   1      -4.241  75.943 117.445  0.00  0.00     0.161 C 
ATOM      2  C   LIG d   1      -5.316  76.831 117.614  0.00  0.00     0.016 C 
ATOM      3  C   LIG d   1      -5.288  78.177 117.181  0.00  0.00     0.038 C 
ATOM      4  C   LIG d   1      -4.234  78.686 116.408  0.00  0.00     0.028 C 
ATOM      5  C   LIG d   1      -2.908  77.972 116.648  0.00  0.00    -0.047 C 
ATOM      6  C   LIG d   1      -3.126  76.448 116.506  0.00  0.00     0.091 C 
ENDROOT
BRANCH   1   7
ATOM      7  O   LIG d   1      -4.731  74.663 116.997  0.00  0.00    -0.368 OA
BRANCH   7   8
ATOM      8  C   LIG d   1      -6.026  74.669 116.346  0.00  0.00     0.119 C 
BRANCH   8   9
ATOM      9  C   LIG d   1      -6.855  73.522 116.955  0.00  0.00     0.028 C 
ATOM     10  C   LIG d   1      -7.248  72.463 115.911  0.00  0.00     0.006 C 
ENDBRANCH   8   9
BRANCH   8  11
ATOM     11  C   LIG d   1      -5.901  74.333 114.857  0.00  0.00     0.028 C 
ATOM     12  C   LIG d   1      -5.667  75.576 113.983  0.00  0.00     0.006 C 
ENDBRANCH   8  11
ENDBRANCH   7   8
ENDBRANCH   1   7
BRANCH   6  13
ATOM     13  N   LIG d   1      -1.897  75.669 116.807  0.00  0.00    -0.311 N 
ATOM     14  C   LIG d   1      -1.480  74.642 116.069  0.00  0.00     0.210 C 
ATOM     15  C   LIG d   1      -0.200  73.964 116.567  0.00  0.00     0.109 C 
ATOM     16  O   LIG d   1      -2.032  74.248 115.030  0.00  0.00    -0.276 OA
ATOM     17  H   LIG d   1      -1.371  75.941 117.615  0.00  0.00     0.149 HD
ENDBRANCH   6  13
BRANCH   5  18
ATOM     18  N   LIG d   1      -1.931  78.509 115.682  0.00  0.00     0.381 N 
ATOM     19  H   LIG d   1      -1.819  79.492 115.825  0.00  0.00    -0.090 HD
ATOM     20  H   LIG d   1      -2.282  78.364 114.751  0.00  0.00    -0.090 HD
ATOM     21  H   LIG d   1      -1.055  78.047 115.790  0.00  0.00    -0.090 HD
ENDBRANCH   5  18
BRANCH   3  22
ATOM     22  C   LIG d   1      -6.307  79.040 117.555  0.00  0.00     0.382 C 
ATOM     23  O   LIG d   1      -7.261  78.619 118.253  0.00  0.00    -0.241 OA
ATOM     24  O   LIG d   1      -6.306  80.224 117.167  0.00  0.00    -0.241 OA
ENDBRANCH   3  22
TORSDOF 7
ENDMDL
MODEL 4
REMARK VINA RESULT:      -5.6      2.734      4.711
REMARK  7 active torsions:
REMARK  status: ('A' for Active; 'I' for Inactive)
REMARK    1  A    between atoms: C_2  and  C_3 
REMARK    2  A    between atoms: C_3  and  O_6 
REMARK    3  A    between atoms: C_3  and  C_4 
REMARK    4  A    between atoms: C_7  and  O_6 
REMARK    5  A    between atoms: C_9  and  C_10 
REMARK    6  A    between atoms: N_15  and  C_14 
REMARK    7  A    between atoms: N_20  and  C_19 
REMARK       I    between atoms: C_22  and  N_20 
ROOT
ATOM      1  C   LIG d   1      -5.561  75.268 117.100  0.00  0.00     0.161 C 
ATOM      2  C   LIG d   1      -6.117  74.044 116.692  0.00  0.00     0.016 C 
ATOM      3  C   LIG d   1      -7.509  73.809 116.611  0.00  0.00     0.038 C 
ATOM      4  C   LIG d   1      -8.446  74.838 116.790  0.00  0.00     0.028 C 
ATOM      5  C   LIG d   1      -7.948  75.960 117.695  0.00  0.00    -0.047 C 
ATOM      6  C   LIG d   1      -6.566  76.435 117.192  0.00  0.00     0.091 C 
ENDROOT
BRANCH   1   7
ATOM      7  O   LIG d   1      -4.463  75.619 116.235  0.00  0.00    -0.368 OA
BRANCH   7   8
ATOM      8  C   LIG d   1      -3.138  75.293 116.722  0.00  0.00     0.119 C 
BRANCH   8   9
ATOM      9  C   LIG d   1      -2.487  76.604 117.203  0.00  0.00     0.028 C 
ATOM     10  C   LIG d   1      -2.427  76.702 118.736  0.00  0.00     0.006 C 
ENDBRANCH   8   9
BRANCH   8  11
ATOM     11  C   LIG d   1      -2.239  74.783 115.592  0.00  0.00     0.028 C 
ATOM     12  C   LIG d   1      -0.846  74.360 116.085  0.00  0.00     0.006 C 
ENDBRANCH   8  11
ENDBRANCH   7   8
ENDBRANCH   1   7
BRANCH   6  13
ATOM     13  N   LIG d   1      -5.969  77.474 118.071  0.00  0.00    -0.311 N 
ATOM     14  C   LIG d   1      -5.495  78.634 117.618  0.00  0.00     0.210 C 
ATOM     15  C   LIG d   1      -4.904  79.554 118.691  0.00  0.00     0.109 C 
ATOM     16  O   LIG d   1      -5.537  79.001 116.435  0.00  0.00    -0.276 OA
ATOM     17  H   LIG d   1      -5.924  77.271 119.050  0.00  0.00     0.149 HD
ENDBRANCH   6  13
BRANCH   5  18
ATOM     18  N   LIG d   1      -8.966  77.027 117.683  0.00  0.00     0.381 N 
ATOM     19  H   LIG d   1      -9.878  76.626 117.777  0.00  0.00    -0.090 HD
ATOM     20  H   LIG d   1      -8.923  77.508 116.802  0.00  0.00    -0.090 HD
ATOM     21  H   LIG d   1      -8.798  77.667 118.428  0.00  0.00    -0.090 HD
ENDBRANCH   5  18
BRANCH   3  22
ATOM     22  C   LIG d   1      -7.977  72.523 116.388  0.00  0.00     0.382 C 
ATOM     23  O   LIG d   1      -7.170  71.566 116.311  0.00  0.00    -0.241 OA
ATOM     24  O   LIG d   1      -9.194  72.315 116.218  0.00  0.00    -0.241 OA
ENDBRANCH   3  22
TORSDOF 7
ENDMDL
MODEL 5
REMARK VINA RESULT:      -5.6      2.740      6.055
REMARK  7 active torsions:
REMARK  status: ('A' for Active; 'I' for Inactive)
REMARK    1  A    between atoms: C_2  and  C_3 
REMARK    2  A    between atoms: C_3  and  O_6 
REMARK    3  A    between atoms: C_3  and  C_4 
REMARK    4  A    between atoms: C_7  and  O_6 
REMARK    5  A    between atoms: C_9  and  C_10 
REMARK    6  A    between atoms: N_15  and  C_14 
REMARK    7  A    between atoms: N_20  and  C_19 
REMARK       I    between atoms: C_22  and  N_20 
ROOT
ATOM      1  C   LIG d   1      -4.255  76.164 115.983  0.00  0.00     0.161 C 
ATOM      2  C   LIG d   1      -3.252  75.332 115.459  0.00  0.00     0.016 C 
ATOM      3  C   LIG d   1      -2.076  74.991 116.165  0.00  0.00     0.038 C 
ATOM      4  C   LIG d   1      -1.892  75.340 117.511  0.00  0.00     0.028 C 
ATOM      5  C   LIG d   1      -2.646  76.602 117.918  0.00  0.00    -0.047 C 
ATOM      6  C   LIG d   1      -4.125  76.463 117.491  0.00  0.00     0.091 C 
ENDROOT
BRANCH   1   7
ATOM      7  O   LIG d   1      -5.553  75.606 115.693  0.00  0.00    -0.368 OA
BRANCH   7   8
ATOM      8  C   LIG d   1      -5.926  74.432 116.455  0.00  0.00     0.119 C 
BRANCH   8   9
ATOM      9  C   LIG d   1      -6.438  73.376 115.456  0.00  0.00     0.028 C 
ATOM     10  C   LIG d   1      -7.235  72.255 116.145  0.00  0.00     0.006 C 
ENDBRANCH   8   9
BRANCH   8  11
ATOM     11  C   LIG d   1      -7.111  74.722 117.381  0.00  0.00     0.028 C 
ATOM     12  C   LIG d   1      -8.001  75.867 116.870  0.00  0.00     0.006 C 
ENDBRANCH   8  11
ENDBRANCH   7   8
ENDBRANCH   1   7
BRANCH   6  13
ATOM     13  N   LIG d   1      -4.915  77.689 117.776  0.00  0.00    -0.311 N 
ATOM     14  C   LIG d   1      -5.629  77.859 118.888  0.00  0.00     0.210 C 
ATOM     15  C   LIG d   1      -6.385  79.188 118.973  0.00  0.00     0.109 C 
ATOM     16  O   LIG d   1      -5.682  77.049 119.825  0.00  0.00    -0.276 OA
ATOM     17  H   LIG d   1      -4.903  78.411 117.083  0.00  0.00     0.149 HD
ENDBRANCH   6  13
BRANCH   5  18
ATOM     18  N   LIG d   1      -2.478  76.771 119.374  0.00  0.00     0.381 N 
ATOM     19  H   LIG d   1      -2.882  77.640 119.663  0.00  0.00    -0.090 HD
ATOM     20  H   LIG d   1      -1.496  76.793 119.588  0.00  0.00    -0.090 HD
ATOM     21  H   LIG d   1      -2.914  76.017 119.857  0.00  0.00    -0.090 HD
ENDBRANCH   5  18
BRANCH   3  22
ATOM     22  C   LIG d   1      -1.049  74.327 115.511  0.00  0.00     0.382 C 
ATOM     23  O   LIG d   1      -0.377  73.459 116.118  0.00  0.00    -0.241 OA
ATOM     24  O   LIG d   1      -0.757  74.617 114.335  0.00  0.00    -0.241 OA
ENDBRANCH   3  22
TORSDOF 7
ENDMDL
MODEL 6
REMARK VINA RESULT:      -5.4      2.146      4.945
REMARK  7 active torsions:
REMARK  status: ('A' for Active; 'I' for Inactive)
REMARK    1  A    between atoms: C_2  and  C_3 
REMARK    2  A    between atoms: C_3  and  O_6 
REMARK    3  A    between atoms: C_3  and  C_4 
REMARK    4  A    between atoms: C_7  and  O_6 
REMARK    5  A    between atoms: C_9  and  C_10 
REMARK    6  A    between atoms: N_15  and  C_14 
REMARK    7  A    between atoms: N_20  and  C_19 
REMARK       I    between atoms: C_22  and  N_20 
ROOT
ATOM      1  C   LIG d   1      -6.869  76.330 117.215  0.00  0.00     0.161 C 
ATOM      2  C   LIG d   1      -7.737  75.242 117.022  0.00  0.00     0.016 C 
ATOM      3  C   LIG d   1      -7.292  73.936 116.715  0.00  0.00     0.038 C 
ATOM      4  C   LIG d   1      -5.932  73.594 116.729  0.00  0.00     0.028 C 
ATOM      5  C   LIG d   1      -5.009  74.768 116.421  0.00  0.00    -0.047 C 
ATOM      6  C   LIG d   1      -5.378  75.952 117.343  0.00  0.00     0.091 C 
ENDROOT
BRANCH   1   7
ATOM      7  O   LIG d   1      -7.292  77.096 118.360  0.00  0.00    -0.368 OA
BRANCH   7   8
ATOM      8  C   LIG d   1      -7.920  78.371 118.076  0.00  0.00     0.119 C 
BRANCH   8   9
ATOM      9  C   LIG d   1      -6.930  79.477 118.489  0.00  0.00     0.028 C 
ATOM     10  C   LIG d   1      -6.081  79.079 119.709  0.00  0.00     0.006 C 
ENDBRANCH   8   9
BRANCH   8  11
ATOM     11  C   LIG d   1      -9.159  78.588 118.951  0.00  0.00     0.028 C 
ATOM     12  C   LIG d   1     -10.318  77.647 118.586  0.00  0.00     0.006 C 
ENDBRANCH   8  11
ENDBRANCH   7   8
ENDBRANCH   1   7
BRANCH   6  13
ATOM     13  N   LIG d   1      -4.579  77.170 117.050  0.00  0.00    -0.311 N 
ATOM     14  C   LIG d   1      -3.439  77.466 117.672  0.00  0.00     0.210 C 
ATOM     15  C   LIG d   1      -2.785  78.780 117.232  0.00  0.00     0.109 C 
ATOM     16  O   LIG d   1      -2.890  76.750 118.523  0.00  0.00    -0.276 OA
ATOM     17  H   LIG d   1      -4.935  77.792 116.350  0.00  0.00     0.149 HD
ENDBRANCH   6  13
BRANCH   5  18
ATOM     18  N   LIG d   1      -3.620  74.304 116.604  0.00  0.00     0.381 N 
ATOM     19  H   LIG d   1      -3.522  73.378 116.238  0.00  0.00    -0.090 HD
ATOM     20  H   LIG d   1      -3.413  74.278 117.587  0.00  0.00    -0.090 HD
ATOM     21  H   LIG d   1      -2.990  74.921 116.141  0.00  0.00    -0.090 HD
ENDBRANCH   5  18
BRANCH   3  22
ATOM     22  C   LIG d   1      -8.212  72.964 116.351  0.00  0.00     0.382 C 
ATOM     23  O   LIG d   1      -7.830  71.938 115.738  0.00  0.00    -0.241 OA
ATOM     24  O   LIG d   1      -9.424  73.122 116.589  0.00  0.00    -0.241 OA
ENDBRANCH   3  22
TORSDOF 7
ENDMDL
MODEL 7
REMARK VINA RESULT:      -5.4     14.158     16.994
REMARK  7 active torsions:
REMARK  status: ('A' for Active; 'I' for Inactive)
REMARK    1  A    between atoms: C_2  and  C_3 
REMARK    2  A    between atoms: C_3  and  O_6 
REMARK    3  A    between atoms: C_3  and  C_4 
REMARK    4  A    between atoms: C_7  and  O_6 
REMARK    5  A    between atoms: C_9  and  C_10 
REMARK    6  A    between atoms: N_15  and  C_14 
REMARK    7  A    between atoms: N_20  and  C_19 
REMARK       I    between atoms: C_22  and  N_20 
ROOT
ATOM      1  C   LIG d   1      -5.764  92.793 118.343  0.00  0.00     0.161 C 
ATOM      2  C   LIG d   1      -4.627  93.508 118.755  0.00  0.00     0.016 C 
ATOM      3  C   LIG d   1      -3.314  93.187 118.341  0.00  0.00     0.038 C 
ATOM      4  C   LIG d   1      -3.062  92.215 117.361  0.00  0.00     0.028 C 
ATOM      5  C   LIG d   1      -4.131  91.130 117.294  0.00  0.00    -0.047 C 
ATOM      6  C   LIG d   1      -5.520  91.801 117.187  0.00  0.00     0.091 C 
ENDROOT
BRANCH   1   7
ATOM      7  O   LIG d   1      -6.821  93.711 118.000  0.00  0.00    -0.368 OA
BRANCH   7   8
ATOM      8  C   LIG d   1      -6.972  94.862 118.868  0.00  0.00     0.119 C 
BRANCH   8   9
ATOM      9  C   LIG d   1      -7.988  94.486 119.963  0.00  0.00     0.028 C 
ATOM     10  C   LIG d   1      -9.348  95.175 119.764  0.00  0.00     0.006 C 
ENDBRANCH   8   9
BRANCH   8  11
ATOM     11  C   LIG d   1      -7.598  96.044 118.122  0.00  0.00     0.028 C 
ATOM     12  C   LIG d   1      -6.765  97.330 118.236  0.00  0.00     0.006 C 
ENDBRANCH   8  11
ENDBRANCH   7   8
ENDBRANCH   1   7
BRANCH   6  13
ATOM     13  N   LIG d   1      -6.629  90.812 117.201  0.00  0.00    -0.311 N 
ATOM     14  C   LIG d   1      -7.104  90.226 116.103  0.00  0.00     0.210 C 
ATOM     15  C   LIG d   1      -8.263  89.253 116.338  0.00  0.00     0.109 C 
ATOM     16  O   LIG d   1      -6.653  90.396 114.960  0.00  0.00    -0.276 OA
ATOM     17  H   LIG d   1      -7.033  90.592 118.091  0.00  0.00     0.149 HD
ENDBRANCH   6  13
BRANCH   5  18
ATOM     18  N   LIG d   1      -3.816  90.264 116.142  0.00  0.00     0.381 N 
ATOM     19  H   LIG d   1      -4.445  90.461 115.389  0.00  0.00    -0.090 HD
ATOM     20  H   LIG d   1      -3.940  89.305 116.414  0.00  0.00    -0.090 HD
ATOM     21  H   LIG d   1      -2.876  90.416 115.849  0.00  0.00    -0.090 HD
ENDBRANCH   5  18
BRANCH   3  22
ATOM     22  C   LIG d   1      -2.232  93.814 118.940  0.00  0.00     0.382 C 
ATOM     23  O   LIG d   1      -1.885  93.491 120.102  0.00  0.00    -0.241 OA
ATOM     24  O   LIG d   1      -1.627  94.729 118.351  0.00  0.00    -0.241 OA
ENDBRANCH   3  22
TORSDOF 7
ENDMDL
MODEL 8
REMARK VINA RESULT:      -5.3      2.659      5.899
REMARK  7 active torsions:
REMARK  status: ('A' for Active; 'I' for Inactive)
REMARK    1  A    between atoms: C_2  and  C_3 
REMARK    2  A    between atoms: C_3  and  O_6 
REMARK    3  A    between atoms: C_3  and  C_4 
REMARK    4  A    between atoms: C_7  and  O_6 
REMARK    5  A    between atoms: C_9  and  C_10 
REMARK    6  A    between atoms: N_15  and  C_14 
REMARK    7  A    between atoms: N_20  and  C_19 
REMARK       I    between atoms: C_22  and  N_20 
ROOT
ATOM      1  C   LIG d   1      -5.388  76.619 117.764  0.00  0.00     0.161 C 
ATOM      2  C   LIG d   1      -4.495  77.683 117.970  0.00  0.00     0.016 C 
ATOM      3  C   LIG d   1      -3.139  77.649 117.572  0.00  0.00     0.038 C 
ATOM      4  C   LIG d   1      -2.618  76.600 116.801  0.00  0.00     0.028 C 
ATOM      5  C   LIG d   1      -3.350  75.277 117.005  0.00  0.00    -0.047 C 
ATOM      6  C   LIG d   1      -4.867  75.510 116.825  0.00  0.00     0.091 C 
ENDROOT
BRANCH   1   7
ATOM      7  O   LIG d   1      -6.651  77.125 117.289  0.00  0.00    -0.368 OA
BRANCH   7   8
ATOM      8  C   LIG d   1      -7.593  77.544 118.307  0.00  0.00     0.119 C 
BRANCH   8   9
ATOM      9  C   LIG d   1      -8.996  77.099 117.851  0.00  0.00     0.028 C 
ATOM     10  C   LIG d   1      -8.978  75.731 117.149  0.00  0.00     0.006 C 
ENDBRANCH   8   9
BRANCH   8  11
ATOM     11  C   LIG d   1      -7.664  79.071 118.405  0.00  0.00     0.028 C 
ATOM     12  C   LIG d   1      -9.105  79.595 118.513  0.00  0.00     0.006 C 
ENDBRANCH   8  11
ENDBRANCH   7   8
ENDBRANCH   1   7
BRANCH   6  13
ATOM     13  N   LIG d   1      -5.664  74.284 117.091  0.00  0.00    -0.311 N 
ATOM     14  C   LIG d   1      -6.320  73.616 116.144  0.00  0.00     0.210 C 
ATOM     15  C   LIG d   1      -7.096  72.391 116.637  0.00  0.00     0.109 C 
ATOM     16  O   LIG d   1      -6.307  73.904 114.938  0.00  0.00    -0.276 OA
ATOM     17  H   LIG d   1      -5.704  73.963 118.039  0.00  0.00     0.149 HD
ENDBRANCH   6  13
BRANCH   5  18
ATOM     18  N   LIG d   1      -2.795  74.308 116.042  0.00  0.00     0.381 N 
ATOM     19  H   LIG d   1      -2.689  73.416 116.482  0.00  0.00    -0.090 HD
ATOM     20  H   LIG d   1      -1.889  74.624 115.747  0.00  0.00    -0.090 HD
ATOM     21  H   LIG d   1      -3.399  74.227 115.254  0.00  0.00    -0.090 HD
ENDBRANCH   5  18
BRANCH   3  22
ATOM     22  C   LIG d   1      -2.277  78.656 117.981  0.00  0.00     0.382 C 
ATOM     23  O   LIG d   1      -1.151  78.776 117.440  0.00  0.00    -0.241 OA
ATOM     24  O   LIG d   1      -2.593  79.418 118.914  0.00  0.00    -0.241 OA
ENDBRANCH   3  22
TORSDOF 7
ENDMDL
MODEL 9
REMARK VINA RESULT:      -5.3     13.816     16.410
REMARK  7 active torsions:
REMARK  status: ('A' for Active; 'I' for Inactive)
REMARK    1  A    between atoms: C_2  and  C_3 
REMARK    2  A    between atoms: C_3  and  O_6 
REMARK    3  A    between atoms: C_3  and  C_4 
REMARK    4  A    between atoms: C_7  and  O_6 
REMARK    5  A    between atoms: C_9  and  C_10 
REMARK    6  A    between atoms: N_15  and  C_14 
REMARK    7  A    between atoms: N_20  and  C_19 
REMARK       I    between atoms: C_22  and  N_20 
ROOT
ATOM      1  C   LIG d   1      -5.864  92.908 117.207  0.00  0.00     0.161 C 
ATOM      2  C   LIG d   1      -6.539  92.332 116.119  0.00  0.00     0.016 C 
ATOM      3  C   LIG d   1      -6.187  91.083 115.558  0.00  0.00     0.038 C 
ATOM      4  C   LIG d   1      -5.225  90.250 116.147  0.00  0.00     0.028 C 
ATOM      5  C   LIG d   1      -4.172  91.011 116.945  0.00  0.00    -0.047 C 
ATOM      6  C   LIG d   1      -4.883  91.964 117.933  0.00  0.00     0.091 C 
ENDROOT
BRANCH   1   7
ATOM      7  O   LIG d   1      -6.817  93.455 118.140  0.00  0.00    -0.368 OA
BRANCH   7   8
ATOM      8  C   LIG d   1      -6.838  94.898 118.258  0.00  0.00     0.119 C 
BRANCH   8   9
ATOM      9  C   LIG d   1      -6.295  95.257 119.655  0.00  0.00     0.028 C 
ATOM     10  C   LIG d   1      -5.059  96.170 119.587  0.00  0.00     0.006 C 
ENDBRANCH   8   9
BRANCH   8  11
ATOM     11  C   LIG d   1      -8.271  95.439 118.229  0.00  0.00     0.028 C 
ATOM     12  C   LIG d   1      -8.923  95.472 119.621  0.00  0.00     0.006 C 
ENDBRANCH   8  11
ENDBRANCH   7   8
ENDBRANCH   1   7
BRANCH   6  13
ATOM     13  N   LIG d   1      -3.926  92.809 118.695  0.00  0.00    -0.311 N 
ATOM     14  C   LIG d   1      -3.484  92.500 119.913  0.00  0.00     0.210 C 
ATOM     15  C   LIG d   1      -2.518  93.518 120.527  0.00  0.00     0.109 C 
ATOM     16  O   LIG d   1      -3.776  91.464 120.530  0.00  0.00    -0.276 OA
ATOM     17  H   LIG d   1      -3.613  93.652 118.256  0.00  0.00     0.149 HD
ENDBRANCH   6  13
BRANCH   5  18
ATOM     18  N   LIG d   1      -3.315  90.016 117.617  0.00  0.00     0.381 N 
ATOM     19  H   LIG d   1      -3.697  89.100 117.491  0.00  0.00    -0.090 HD
ATOM     20  H   LIG d   1      -3.295  90.216 118.602  0.00  0.00    -0.090 HD
ATOM     21  H   LIG d   1      -2.392  90.053 117.244  0.00  0.00    -0.090 HD
ENDBRANCH   5  18
BRANCH   3  22
ATOM     22  C   LIG d   1      -6.774  90.673 114.370  0.00  0.00     0.382 C 
ATOM     23  O   LIG d   1      -7.636  91.396 113.815  0.00  0.00    -0.241 OA
ATOM     24  O   LIG d   1      -6.485  89.569 113.870  0.00  0.00    -0.241 OA
ENDBRANCH   3  22
TORSDOF 7
ENDMDL
