MODEL 1
REMARK VINA RESULT:      -6.0      0.000      0.000
REMARK  7 active torsions:
REMARK  status: ('A' for Active; 'I' for Inactive)
REMARK    1  A    between atoms: C_2  and  C_3 
REMARK    2  A    between atoms: C_3  and  O_6 
REMARK    3  A    between atoms: C_3  and  C_4 
REMARK    4  A    between atoms: C_7  and  O_6 
REMARK    5  A    between atoms: C_9  and  C_10 
REMARK    6  A    between atoms: N_15  and  C_14 
REMARK    7  A    between atoms: N_20  and  C_19 
REMARK       I    between atoms: C_22  and  N_20 
ROOT
ATOM      1  C   LIG d   1      -8.097  75.407 117.554  0.00  0.00     0.161 C 
ATOM      2  C   LIG d   1      -9.245  76.083 117.999  0.00  0.00     0.016 C 
ATOM      3  C   LIG d   1      -9.317  77.489 118.132  0.00  0.00     0.038 C 
ATOM      4  C   LIG d   1      -8.289  78.330 117.681  0.00  0.00     0.028 C 
ATOM      5  C   LIG d   1      -6.915  77.668 117.695  0.00  0.00    -0.047 C 
ATOM      6  C   LIG d   1      -7.003  76.315 116.953  0.00  0.00     0.091 C 
ENDROOT
BRANCH   1   7
ATOM      7  O   LIG d   1      -8.469  74.380 116.613  0.00  0.00    -0.368 OA
BRANCH   7   8
ATOM      8  C   LIG d   1      -8.562  73.034 117.142  0.00  0.00     0.119 C 
BRANCH   8   9
ATOM      9  C   LIG d   1      -7.169  72.389 117.015  0.00  0.00     0.028 C 
ATOM     10  C   LIG d   1      -6.646  72.402 115.568  0.00  0.00     0.006 C 
ENDBRANCH   8   9
BRANCH   8  11
ATOM     11  C   LIG d   1      -9.491  72.164 116.290  0.00  0.00     0.028 C 
ATOM     12  C   LIG d   1      -9.648  70.740 116.845  0.00  0.00     0.006 C 
ENDBRANCH   8  11
ENDBRANCH   7   8
ENDBRANCH   1   7
BRANCH   6  13
ATOM     13  N   LIG d   1      -5.722  75.562 116.992  0.00  0.00    -0.311 N 
ATOM     14  C   LIG d   1      -4.801  75.632 116.033  0.00  0.00     0.210 C 
ATOM     15  C   LIG d   1      -3.562  74.760 116.261  0.00  0.00     0.109 C 
ATOM     16  O   LIG d   1      -4.878  76.359 115.031  0.00  0.00    -0.276 OA
ATOM     17  H   LIG d   1      -5.564  74.972 117.786  0.00  0.00     0.149 HD
ENDBRANCH   6  13
BRANCH   5  18
ATOM     18  N   LIG d   1      -5.962  78.607 117.074  0.00  0.00     0.381 N 
ATOM     19  H   LIG d   1      -5.244  78.843 117.729  0.00  0.00    -0.090 HD
ATOM     20  H   LIG d   1      -6.450  79.448 116.824  0.00  0.00    -0.090 HD
ATOM     21  H   LIG d   1      -5.558  78.195 116.261  0.00  0.00    -0.090 HD
ENDBRANCH   5  18
BRANCH   3  22
ATOM     22  C   LIG d   1     -10.413  78.065 118.757  0.00  0.00     0.382 C 
ATOM     23  O   LIG d   1     -11.375  77.347 119.122  0.00  0.00    -0.241 OA
ATOM     24  O   LIG d   1     -10.470  79.298 118.922  0.00  0.00    -0.241 OA
ENDBRANCH   3  22
TORSDOF 7
ENDMDL
MODEL 2
REMARK VINA RESULT:      -5.5      2.279      4.978
REMARK  7 active torsions:
REMARK  status: ('A' for Active; 'I' for Inactive)
REMARK    1  A    between atoms: C_2  and  C_3 
REMARK    2  A    between atoms: C_3  and  O_6 
REMARK    3  A    between atoms: C_3  and  C_4 
REMARK    4  A    between atoms: C_7  and  O_6 
REMARK    5  A    between atoms: C_9  and  C_10 
REMARK    6  A    between atoms: N_15  and  C_14 
REMARK    7  A    between atoms: N_20  and  C_19 
REMARK       I    between atoms: C_22  and  N_20 
ROOT
ATOM      1  C   LIG d   1      -6.424  74.782 117.844  0.00  0.00     0.161 C 
ATOM      2  C   LIG d   1      -6.791  73.541 117.298  0.00  0.00     0.016 C 
ATOM      3  C   LIG d   1      -8.111  73.224 116.903  0.00  0.00     0.038 C 
ATOM      4  C   LIG d   1      -9.131  74.186 116.888  0.00  0.00     0.028 C 
ATOM      5  C   LIG d   1      -8.924  75.305 117.903  0.00  0.00    -0.047 C 
ATOM      6  C   LIG d   1      -7.501  75.882 117.731  0.00  0.00     0.091 C 
ENDROOT
BRANCH   1   7
ATOM      7  O   LIG d   1      -5.187  75.229 117.254  0.00  0.00    -0.368 OA
BRANCH   7   8
ATOM      8  C   LIG d   1      -4.705  74.460 116.124  0.00  0.00     0.119 C 
BRANCH   8   9
ATOM      9  C   LIG d   1      -3.232  74.105 116.401  0.00  0.00     0.028 C 
ATOM     10  C   LIG d   1      -2.294  75.311 116.224  0.00  0.00     0.006 C 
ENDBRANCH   8   9
BRANCH   8  11
ATOM     11  C   LIG d   1      -4.686  75.302 114.845  0.00  0.00     0.028 C 
ATOM     12  C   LIG d   1      -6.075  75.438 114.201  0.00  0.00     0.006 C 
ENDBRANCH   8  11
ENDBRANCH   7   8
ENDBRANCH   1   7
BRANCH   6  13
ATOM     13  N   LIG d   1      -7.186  76.925 118.742  0.00  0.00    -0.311 N 
ATOM     14  C   LIG d   1      -6.937  78.196 118.431  0.00  0.00     0.210 C 
ATOM     15  C   LIG d   1      -6.615  79.102 119.623  0.00  0.00     0.109 C 
ATOM     16  O   LIG d   1      -6.985  78.665 117.284  0.00  0.00    -0.276 OA
ATOM     17  H   LIG d   1      -7.157  76.637 119.701  0.00  0.00     0.149 HD
ENDBRANCH   6  13
BRANCH   5  18
ATOM     18  N   LIG d   1      -9.984  76.307 117.684  0.00  0.00     0.381 N 
ATOM     19  H   LIG d   1      -9.633  77.053 117.119  0.00  0.00    -0.090 HD
ATOM     20  H   LIG d   1     -10.261  76.687 118.573  0.00  0.00    -0.090 HD
ATOM     21  H   LIG d   1     -10.768  75.883 117.239  0.00  0.00    -0.090 HD
ENDBRANCH   5  18
BRANCH   3  22
ATOM     22  C   LIG d   1      -8.430  71.920 116.556  0.00  0.00     0.382 C 
ATOM     23  O   LIG d   1      -7.759  71.322 115.680  0.00  0.00    -0.241 OA
ATOM     24  O   LIG d   1      -9.407  71.349 117.075  0.00  0.00    -0.241 OA
ENDBRANCH   3  22
TORSDOF 7
ENDMDL
MODEL 3
REMARK VINA RESULT:      -5.4      1.882      5.145
REMARK  7 active torsions:
REMARK  status: ('A' for Active; 'I' for Inactive)
REMARK    1  A    between atoms: C_2  and  C_3 
REMARK    2  A    between atoms: C_3  and  O_6 
REMARK    3  A    between atoms: C_3  and  C_4 
REMARK    4  A    between atoms: C_7  and  O_6 
REMARK    5  A    between atoms: C_9  and  C_10 
REMARK    6  A    between atoms: N_15  and  C_14 
REMARK    7  A    between atoms: N_20  and  C_19 
REMARK       I    between atoms: C_22  and  N_20 
ROOT
ATOM      1  C   LIG d   1      -7.954  75.503 117.116  0.00  0.00     0.161 C 
ATOM      2  C   LIG d   1      -8.580  74.249 117.030  0.00  0.00     0.016 C 
ATOM      3  C   LIG d   1      -7.897  73.060 116.686  0.00  0.00     0.038 C 
ATOM      4  C   LIG d   1      -6.501  73.020 116.551  0.00  0.00     0.028 C 
ATOM      5  C   LIG d   1      -5.895  74.355 116.133  0.00  0.00    -0.047 C 
ATOM      6  C   LIG d   1      -6.412  75.460 117.081  0.00  0.00     0.091 C 
ENDROOT
BRANCH   1   7
ATOM      7  O   LIG d   1      -8.409  76.197 118.295  0.00  0.00    -0.368 OA
BRANCH   7   8
ATOM      8  C   LIG d   1      -9.240  77.361 118.069  0.00  0.00     0.119 C 
BRANCH   8   9
ATOM      9  C   LIG d   1      -8.578  78.550 118.792  0.00  0.00     0.028 C 
ATOM     10  C   LIG d   1      -8.033  79.603 117.813  0.00  0.00     0.006 C 
ENDBRANCH   8   9
BRANCH   8  11
ATOM     11  C   LIG d   1     -10.615  77.202 118.726  0.00  0.00     0.028 C 
ATOM     12  C   LIG d   1     -10.839  78.185 119.885  0.00  0.00     0.006 C 
ENDBRANCH   8  11
ENDBRANCH   7   8
ENDBRANCH   1   7
BRANCH   6  13
ATOM     13  N   LIG d   1      -5.933  76.812 116.691  0.00  0.00    -0.311 N 
ATOM     14  C   LIG d   1      -4.854  77.388 117.217  0.00  0.00     0.210 C 
ATOM     15  C   LIG d   1      -4.548  78.793 116.689  0.00  0.00     0.109 C 
ATOM     16  O   LIG d   1      -4.102  76.855 118.048  0.00  0.00    -0.276 OA
ATOM     17  H   LIG d   1      -6.466  77.303 116.000  0.00  0.00     0.149 HD
ENDBRANCH   6  13
BRANCH   5  18
ATOM     18  N   LIG d   1      -4.427  74.207 116.164  0.00  0.00     0.381 N 
ATOM     19  H   LIG d   1      -4.136  73.573 115.447  0.00  0.00    -0.090 HD
ATOM     20  H   LIG d   1      -4.158  73.824 117.053  0.00  0.00    -0.090 HD
ATOM     21  H   LIG d   1      -3.992  75.093 116.030  0.00  0.00    -0.090 HD
ENDBRANCH   5  18
BRANCH   3  22
ATOM     22  C   LIG d   1      -8.617  71.902 116.434  0.00  0.00     0.382 C 
ATOM     23  O   LIG d   1      -8.110  70.782 116.684  0.00  0.00    -0.241 OA
ATOM     24  O   LIG d   1      -9.749  71.961 115.918  0.00  0.00    -0.241 OA
ENDBRANCH   3  22
TORSDOF 7
ENDMDL
MODEL 4
REMARK VINA RESULT:      -5.4      1.966      5.329
REMARK  7 active torsions:
REMARK  status: ('A' for Active; 'I' for Inactive)
REMARK    1  A    between atoms: C_2  and  C_3 
REMARK    2  A    between atoms: C_3  and  O_6 
REMARK    3  A    between atoms: C_3  and  C_4 
REMARK    4  A    between atoms: C_7  and  O_6 
REMARK    5  A    between atoms: C_9  and  C_10 
REMARK    6  A    between atoms: N_15  and  C_14 
REMARK    7  A    between atoms: N_20  and  C_19 
REMARK       I    between atoms: C_22  and  N_20 
ROOT
ATOM      1  C   LIG d   1      -5.851  75.827 115.888  0.00  0.00     0.161 C 
ATOM      2  C   LIG d   1      -4.756  74.982 115.642  0.00  0.00     0.016 C 
ATOM      3  C   LIG d   1      -3.587  74.972 116.436  0.00  0.00     0.038 C 
ATOM      4  C   LIG d   1      -3.494  75.705 117.629  0.00  0.00     0.028 C 
ATOM      5  C   LIG d   1      -4.373  76.952 117.643  0.00  0.00    -0.047 C 
ATOM      6  C   LIG d   1      -5.814  76.554 117.248  0.00  0.00     0.091 C 
ENDROOT
BRANCH   1   7
ATOM      7  O   LIG d   1      -7.080  75.088 115.748  0.00  0.00    -0.368 OA
BRANCH   7   8
ATOM      8  C   LIG d   1      -7.292  74.017 116.702  0.00  0.00     0.119 C 
BRANCH   8   9
ATOM      9  C   LIG d   1      -7.069  72.686 115.959  0.00  0.00     0.028 C 
ATOM     10  C   LIG d   1      -8.284  71.748 116.059  0.00  0.00     0.006 C 
ENDBRANCH   8   9
BRANCH   8  11
ATOM     11  C   LIG d   1      -8.746  73.977 117.180  0.00  0.00     0.028 C 
ATOM     12  C   LIG d   1      -9.415  75.361 117.171  0.00  0.00     0.006 C 
ENDBRANCH   8  11
ENDBRANCH   7   8
ENDBRANCH   1   7
BRANCH   6  13
ATOM     13  N   LIG d   1      -6.720  77.728 117.156  0.00  0.00    -0.311 N 
ATOM     14  C   LIG d   1      -7.463  78.163 118.172  0.00  0.00     0.210 C 
ATOM     15  C   LIG d   1      -8.343  79.377 117.858  0.00  0.00     0.109 C 
ATOM     16  O   LIG d   1      -7.453  77.678 119.314  0.00  0.00    -0.276 OA
ATOM     17  H   LIG d   1      -6.767  78.200 116.274  0.00  0.00     0.149 HD
ENDBRANCH   6  13
BRANCH   5  18
ATOM     18  N   LIG d   1      -4.285  77.543 118.991  0.00  0.00     0.381 N 
ATOM     19  H   LIG d   1      -3.707  78.360 118.966  0.00  0.00    -0.090 HD
ATOM     20  H   LIG d   1      -3.862  76.876 119.612  0.00  0.00    -0.090 HD
ATOM     21  H   LIG d   1      -5.195  77.782 119.319  0.00  0.00    -0.090 HD
ENDBRANCH   5  18
BRANCH   3  22
ATOM     22  C   LIG d   1      -2.478  74.252 116.018  0.00  0.00     0.382 C 
ATOM     23  O   LIG d   1      -2.034  74.404 114.854  0.00  0.00    -0.241 OA
ATOM     24  O   LIG d   1      -1.942  73.420 116.775  0.00  0.00    -0.241 OA
ENDBRANCH   3  22
TORSDOF 7
ENDMDL
MODEL 5
REMARK VINA RESULT:      -5.0      3.427      6.345
REMARK  7 active torsions:
REMARK  status: ('A' for Active; 'I' for Inactive)
REMARK    1  A    between atoms: C_2  and  C_3 
REMARK    2  A    between atoms: C_3  and  O_6 
REMARK    3  A    between atoms: C_3  and  C_4 
REMARK    4  A    between atoms: C_7  and  O_6 
REMARK    5  A    between atoms: C_9  and  C_10 
REMARK    6  A    between atoms: N_15  and  C_14 
REMARK    7  A    between atoms: N_20  and  C_19 
REMARK       I    between atoms: C_22  and  N_20 
ROOT
ATOM      1  C   LIG d   1      -3.580  74.883 115.519  0.00  0.00     0.161 C 
ATOM      2  C   LIG d   1      -2.942  76.132 115.450  0.00  0.00     0.016 C 
ATOM      3  C   LIG d   1      -3.587  77.353 115.755  0.00  0.00     0.038 C 
ATOM      4  C   LIG d   1      -4.879  77.394 116.298  0.00  0.00     0.028 C 
ATOM      5  C   LIG d   1      -5.738  76.195 115.910  0.00  0.00    -0.047 C 
ATOM      6  C   LIG d   1      -4.956  74.897 116.217  0.00  0.00     0.091 C 
ENDROOT
BRANCH   1   7
ATOM      7  O   LIG d   1      -2.709  73.923 116.150  0.00  0.00    -0.368 OA
BRANCH   7   8
ATOM      8  C   LIG d   1      -1.301  74.263 116.178  0.00  0.00     0.119 C 
BRANCH   8   9
ATOM      9  C   LIG d   1      -0.598  73.416 115.100  0.00  0.00     0.028 C 
ATOM     10  C   LIG d   1       0.454  74.218 114.316  0.00  0.00     0.006 C 
ENDBRANCH   8   9
BRANCH   8  11
ATOM     11  C   LIG d   1      -0.654  73.851 117.504  0.00  0.00     0.028 C 
ATOM     12  C   LIG d   1      -1.032  74.781 118.667  0.00  0.00     0.006 C 
ENDBRANCH   8  11
ENDBRANCH   7   8
ENDBRANCH   1   7
BRANCH   6  13
ATOM     13  N   LIG d   1      -5.691  73.678 115.789  0.00  0.00    -0.311 N 
ATOM     14  C   LIG d   1      -6.557  73.032 116.568  0.00  0.00     0.210 C 
ATOM     15  C   LIG d   1      -7.189  71.787 115.938  0.00  0.00     0.109 C 
ATOM     16  O   LIG d   1      -6.886  73.391 117.708  0.00  0.00    -0.276 OA
ATOM     17  H   LIG d   1      -5.507  73.336 114.866  0.00  0.00     0.149 HD
ENDBRANCH   6  13
BRANCH   5  18
ATOM     18  N   LIG d   1      -7.007  76.295 116.654  0.00  0.00     0.381 N 
ATOM     19  H   LIG d   1      -7.706  76.721 116.077  0.00  0.00    -0.090 HD
ATOM     20  H   LIG d   1      -6.866  76.879 117.460  0.00  0.00    -0.090 HD
ATOM     21  H   LIG d   1      -7.308  75.390 116.939  0.00  0.00    -0.090 HD
ENDBRANCH   5  18
BRANCH   3  22
ATOM     22  C   LIG d   1      -2.951  78.554 115.477  0.00  0.00     0.382 C 
ATOM     23  O   LIG d   1      -1.698  78.615 115.480  0.00  0.00    -0.241 OA
ATOM     24  O   LIG d   1      -3.615  79.587 115.268  0.00  0.00    -0.241 OA
ENDBRANCH   3  22
TORSDOF 7
ENDMDL
MODEL 6
REMARK VINA RESULT:      -4.9      1.739      2.918
REMARK  7 active torsions:
REMARK  status: ('A' for Active; 'I' for Inactive)
REMARK    1  A    between atoms: C_2  and  C_3 
REMARK    2  A    between atoms: C_3  and  O_6 
REMARK    3  A    between atoms: C_3  and  C_4 
REMARK    4  A    between atoms: C_7  and  O_6 
REMARK    5  A    between atoms: C_9  and  C_10 
REMARK    6  A    between atoms: N_15  and  C_14 
REMARK    7  A    between atoms: N_20  and  C_19 
REMARK       I    between atoms: C_22  and  N_20 
ROOT
ATOM      1  C   LIG d   1      -6.784  76.740 116.873  0.00  0.00     0.161 C 
ATOM      2  C   LIG d   1      -8.132  76.874 117.246  0.00  0.00     0.016 C 
ATOM      3  C   LIG d   1      -8.672  78.058 117.800  0.00  0.00     0.038 C 
ATOM      4  C   LIG d   1      -7.930  79.246 117.878  0.00  0.00     0.028 C 
ATOM      5  C   LIG d   1      -6.426  79.015 117.982  0.00  0.00    -0.047 C 
ATOM      6  C   LIG d   1      -5.986  78.061 116.848  0.00  0.00     0.091 C 
ENDROOT
BRANCH   1   7
ATOM      7  O   LIG d   1      -6.694  76.076 115.597  0.00  0.00    -0.368 OA
BRANCH   7   8
ATOM      8  C   LIG d   1      -6.212  74.710 115.623  0.00  0.00     0.119 C 
BRANCH   8   9
ATOM      9  C   LIG d   1      -6.071  74.296 117.101  0.00  0.00     0.028 C 
ATOM     10  C   LIG d   1      -6.948  73.083 117.457  0.00  0.00     0.006 C 
ENDBRANCH   8   9
BRANCH   8  11
ATOM     11  C   LIG d   1      -4.802  74.605 115.036  0.00  0.00     0.028 C 
ATOM     12  C   LIG d   1      -3.723  74.397 116.111  0.00  0.00     0.006 C 
ENDBRANCH   8  11
ENDBRANCH   7   8
ENDBRANCH   1   7
BRANCH   6  13
ATOM     13  N   LIG d   1      -4.542  77.715 116.927  0.00  0.00    -0.311 N 
ATOM     14  C   LIG d   1      -3.595  78.368 116.256  0.00  0.00     0.210 C 
ATOM     15  C   LIG d   1      -2.173  77.837 116.463  0.00  0.00     0.109 C 
ATOM     16  O   LIG d   1      -3.793  79.356 115.533  0.00  0.00    -0.276 OA
ATOM     17  H   LIG d   1      -4.289  76.946 117.515  0.00  0.00     0.149 HD
ENDBRANCH   6  13
BRANCH   5  18
ATOM     18  N   LIG d   1      -5.768  80.333 117.917  0.00  0.00     0.381 N 
ATOM     19  H   LIG d   1      -5.523  80.543 116.969  0.00  0.00    -0.090 HD
ATOM     20  H   LIG d   1      -4.923  80.302 118.461  0.00  0.00    -0.090 HD
ATOM     21  H   LIG d   1      -6.376  81.036 118.274  0.00  0.00    -0.090 HD
ENDBRANCH   5  18
BRANCH   3  22
ATOM     22  C   LIG d   1      -9.958  78.049 118.319  0.00  0.00     0.382 C 
ATOM     23  O   LIG d   1     -10.418  79.077 118.871  0.00  0.00    -0.241 OA
ATOM     24  O   LIG d   1     -10.647  77.012 118.281  0.00  0.00    -0.241 OA
ENDBRANCH   3  22
TORSDOF 7
ENDMDL
MODEL 7
REMARK VINA RESULT:      -4.9      2.190      5.587
REMARK  7 active torsions:
REMARK  status: ('A' for Active; 'I' for Inactive)
REMARK    1  A    between atoms: C_2  and  C_3 
REMARK    2  A    between atoms: C_3  and  O_6 
REMARK    3  A    between atoms: C_3  and  C_4 
REMARK    4  A    between atoms: C_7  and  O_6 
REMARK    5  A    between atoms: C_9  and  C_10 
REMARK    6  A    between atoms: N_15  and  C_14 
REMARK    7  A    between atoms: N_20  and  C_19 
REMARK       I    between atoms: C_22  and  N_20 
ROOT
ATOM      1  C   LIG d   1      -6.488  76.556 117.053  0.00  0.00     0.161 C 
ATOM      2  C   LIG d   1      -6.826  75.219 116.783  0.00  0.00     0.016 C 
ATOM      3  C   LIG d   1      -8.101  74.669 117.051  0.00  0.00     0.038 C 
ATOM      4  C   LIG d   1      -9.178  75.465 117.470  0.00  0.00     0.028 C 
ATOM      5  C   LIG d   1      -8.749  76.713 118.234  0.00  0.00    -0.047 C 
ATOM      6  C   LIG d   1      -7.683  77.466 117.405  0.00  0.00     0.091 C 
ENDROOT
BRANCH   1   7
ATOM      7  O   LIG d   1      -5.750  77.106 115.944  0.00  0.00    -0.368 OA
BRANCH   7   8
ATOM      8  C   LIG d   1      -4.306  77.068 116.058  0.00  0.00     0.119 C 
BRANCH   8   9
ATOM      9  C   LIG d   1      -3.804  78.525 116.075  0.00  0.00     0.028 C 
ATOM     10  C   LIG d   1      -3.639  79.072 117.503  0.00  0.00     0.006 C 
ENDBRANCH   8   9
BRANCH   8  11
ATOM     11  C   LIG d   1      -3.665  76.433 114.821  0.00  0.00     0.028 C 
ATOM     12  C   LIG d   1      -2.619  77.343 114.158  0.00  0.00     0.006 C 
ENDBRANCH   8  11
ENDBRANCH   7   8
ENDBRANCH   1   7
BRANCH   6  13
ATOM     13  N   LIG d   1      -7.148  78.655 118.118  0.00  0.00    -0.311 N 
ATOM     14  C   LIG d   1      -7.623  79.888 117.948  0.00  0.00     0.210 C 
ATOM     15  C   LIG d   1      -6.914  80.973 118.765  0.00  0.00     0.109 C 
ATOM     16  O   LIG d   1      -8.584  80.181 117.222  0.00  0.00    -0.276 OA
ATOM     17  H   LIG d   1      -6.386  78.503 118.750  0.00  0.00     0.149 HD
ENDBRANCH   6  13
BRANCH   5  18
ATOM     18  N   LIG d   1      -9.959  77.517 118.488  0.00  0.00     0.381 N 
ATOM     19  H   LIG d   1      -9.890  77.959 119.384  0.00  0.00    -0.090 HD
ATOM     20  H   LIG d   1     -10.758  76.909 118.498  0.00  0.00    -0.090 HD
ATOM     21  H   LIG d   1     -10.065  78.207 117.777  0.00  0.00    -0.090 HD
ENDBRANCH   5  18
BRANCH   3  22
ATOM     22  C   LIG d   1      -8.297  73.301 116.939  0.00  0.00     0.382 C 
ATOM     23  O   LIG d   1      -7.319  72.519 117.020  0.00  0.00    -0.241 OA
ATOM     24  O   LIG d   1      -9.433  72.842 116.714  0.00  0.00    -0.241 OA
ENDBRANCH   3  22
TORSDOF 7
ENDMDL
MODEL 8
REMARK VINA RESULT:      -4.9      2.227      4.519
REMARK  7 active torsions:
REMARK  status: ('A' for Active; 'I' for Inactive)
REMARK    1  A    between atoms: C_2  and  C_3 
REMARK    2  A    between atoms: C_3  and  O_6 
REMARK    3  A    between atoms: C_3  and  C_4 
REMARK    4  A    between atoms: C_7  and  O_6 
REMARK    5  A    between atoms: C_9  and  C_10 
REMARK    6  A    between atoms: N_15  and  C_14 
REMARK    7  A    between atoms: N_20  and  C_19 
REMARK       I    between atoms: C_22  and  N_20 
ROOT
ATOM      1  C   LIG d   1      -5.888  76.173 116.751  0.00  0.00     0.161 C 
ATOM      2  C   LIG d   1      -5.929  77.526 117.125  0.00  0.00     0.016 C 
ATOM      3  C   LIG d   1      -7.101  78.173 117.580  0.00  0.00     0.038 C 
ATOM      4  C   LIG d   1      -8.285  77.467 117.837  0.00  0.00     0.028 C 
ATOM      5  C   LIG d   1      -8.431  76.203 116.996  0.00  0.00    -0.047 C 
ATOM      6  C   LIG d   1      -7.143  75.359 117.130  0.00  0.00     0.091 C 
ENDROOT
BRANCH   1   7
ATOM      7  O   LIG d   1      -4.706  75.552 117.292  0.00  0.00    -0.368 OA
BRANCH   7   8
ATOM      8  C   LIG d   1      -3.828  74.909 116.335  0.00  0.00     0.119 C 
BRANCH   8   9
ATOM      9  C   LIG d   1      -2.378  75.220 116.755  0.00  0.00     0.028 C 
ATOM     10  C   LIG d   1      -1.539  73.946 116.954  0.00  0.00     0.006 C 
ENDBRANCH   8   9
BRANCH   8  11
ATOM     11  C   LIG d   1      -3.985  75.518 114.939  0.00  0.00     0.028 C 
ATOM     12  C   LIG d   1      -2.934  76.598 114.638  0.00  0.00     0.006 C 
ENDBRANCH   8  11
ENDBRANCH   7   8
ENDBRANCH   1   7
BRANCH   6  13
ATOM     13  N   LIG d   1      -7.169  74.146 116.272  0.00  0.00    -0.311 N 
ATOM     14  C   LIG d   1      -7.040  72.909 116.748  0.00  0.00     0.210 C 
ATOM     15  C   LIG d   1      -7.074  71.802 115.690  0.00  0.00     0.109 C 
ATOM     16  O   LIG d   1      -6.933  72.621 117.950  0.00  0.00    -0.276 OA
ATOM     17  H   LIG d   1      -7.283  74.286 115.287  0.00  0.00     0.149 HD
ENDBRANCH   6  13
BRANCH   5  18
ATOM     18  N   LIG d   1      -9.638  75.494 117.463  0.00  0.00     0.381 N 
ATOM     19  H   LIG d   1     -10.176  76.095 118.054  0.00  0.00    -0.090 HD
ATOM     20  H   LIG d   1      -9.357  74.693 117.999  0.00  0.00    -0.090 HD
ATOM     21  H   LIG d   1     -10.187  75.205 116.683  0.00  0.00    -0.090 HD
ENDBRANCH   5  18
BRANCH   3  22
ATOM     22  C   LIG d   1      -7.106  79.550 117.745  0.00  0.00     0.382 C 
ATOM     23  O   LIG d   1      -7.878  80.078 118.580  0.00  0.00    -0.241 OA
ATOM     24  O   LIG d   1      -6.380  80.274 117.037  0.00  0.00    -0.241 OA
ENDBRANCH   3  22
TORSDOF 7
ENDMDL
MODEL 9
REMARK VINA RESULT:      -4.7      2.343      5.221
REMARK  7 active torsions:
REMARK  status: ('A' for Active; 'I' for Inactive)
REMARK    1  A    between atoms: C_2  and  C_3 
REMARK    2  A    between atoms: C_3  and  O_6 
REMARK    3  A    between atoms: C_3  and  C_4 
REMARK    4  A    between atoms: C_7  and  O_6 
REMARK    5  A    between atoms: C_9  and  C_10 
REMARK    6  A    between atoms: N_15  and  C_14 
REMARK    7  A    between atoms: N_20  and  C_19 
REMARK       I    between atoms: C_22  and  N_20 
ROOT
ATOM      1  C   LIG d   1      -6.508  77.379 116.917  0.00  0.00     0.161 C 
ATOM      2  C   LIG d   1      -5.230  77.648 116.399  0.00  0.00     0.016 C 
ATOM      3  C   LIG d   1      -4.484  78.802 116.731  0.00  0.00     0.038 C 
ATOM      4  C   LIG d   1      -4.904  79.696 117.727  0.00  0.00     0.028 C 
ATOM      5  C   LIG d   1      -6.417  79.731 117.910  0.00  0.00    -0.047 C 
ATOM      6  C   LIG d   1      -6.935  78.286 118.090  0.00  0.00     0.091 C 
ENDROOT
BRANCH   1   7
ATOM      7  O   LIG d   1      -6.598  75.992 117.298  0.00  0.00    -0.368 OA
BRANCH   7   8
ATOM      8  C   LIG d   1      -7.459  75.161 116.481  0.00  0.00     0.119 C 
BRANCH   8   9
ATOM      9  C   LIG d   1      -8.641  74.712 117.361  0.00  0.00     0.028 C 
ATOM     10  C   LIG d   1      -9.159  73.315 116.981  0.00  0.00     0.006 C 
ENDBRANCH   8   9
BRANCH   8  11
ATOM     11  C   LIG d   1      -6.752  73.868 116.062  0.00  0.00     0.028 C 
ATOM     12  C   LIG d   1      -5.241  73.899 116.340  0.00  0.00     0.006 C 
ENDBRANCH   8  11
ENDBRANCH   7   8
ENDBRANCH   1   7
BRANCH   6  13
ATOM     13  N   LIG d   1      -8.416  78.223 118.191  0.00  0.00    -0.311 N 
ATOM     14  C   LIG d   1      -9.074  78.240 119.349  0.00  0.00     0.210 C 
ATOM     15  C   LIG d   1     -10.598  78.146 119.229  0.00  0.00     0.109 C 
ATOM     16  O   LIG d   1      -8.541  78.356 120.463  0.00  0.00    -0.276 OA
ATOM     17  H   LIG d   1      -8.930  78.159 117.333  0.00  0.00     0.149 HD
ENDBRANCH   6  13
BRANCH   5  18
ATOM     18  N   LIG d   1      -6.706  80.597 119.069  0.00  0.00     0.381 N 
ATOM     19  H   LIG d   1      -6.554  80.090 119.917  0.00  0.00    -0.090 HD
ATOM     20  H   LIG d   1      -7.671  80.874 119.035  0.00  0.00    -0.090 HD
ATOM     21  H   LIG d   1      -6.121  81.403 119.046  0.00  0.00    -0.090 HD
ENDBRANCH   5  18
BRANCH   3  22
ATOM     22  C   LIG d   1      -3.320  79.092 116.034  0.00  0.00     0.382 C 
ATOM     23  O   LIG d   1      -2.294  79.461 116.653  0.00  0.00    -0.241 OA
ATOM     24  O   LIG d   1      -3.298  79.031 114.790  0.00  0.00    -0.241 OA
ENDBRANCH   3  22
TORSDOF 7
ENDMDL
