MODEL 1
REMARK VINA RESULT:      -5.8      0.000      0.000
REMARK  7 active torsions:
REMARK  status: ('A' for Active; 'I' for Inactive)
REMARK    1  A    between atoms: C_2  and  C_3 
REMARK    2  A    between atoms: C_3  and  O_6 
REMARK    3  A    between atoms: C_3  and  C_4 
REMARK    4  A    between atoms: C_7  and  O_6 
REMARK    5  A    between atoms: C_9  and  C_10 
REMARK    6  A    between atoms: N_15  and  C_14 
REMARK    7  A    between atoms: N_20  and  C_19 
REMARK       I    between atoms: C_22  and  N_20 
ROOT
ATOM      1  C   LIG d   1      -5.883  92.687 117.330  0.00  0.00     0.161 C 
ATOM      2  C   LIG d   1      -6.944  91.874 116.899  0.00  0.00     0.016 C 
ATOM      3  C   LIG d   1      -6.783  90.520 116.522  0.00  0.00     0.038 C 
ATOM      4  C   LIG d   1      -5.569  89.841 116.698  0.00  0.00     0.028 C 
ATOM      5  C   LIG d   1      -4.350  90.757 116.654  0.00  0.00    -0.047 C 
ATOM      6  C   LIG d   1      -4.571  91.932 117.634  0.00  0.00     0.091 C 
ENDROOT
BRANCH   1   7
ATOM      7  O   LIG d   1      -6.293  93.458 118.476  0.00  0.00    -0.368 OA
BRANCH   7   8
ATOM      8  C   LIG d   1      -6.518  94.871 118.247  0.00  0.00     0.119 C 
BRANCH   8   9
ATOM      9  C   LIG d   1      -5.476  95.646 119.076  0.00  0.00     0.028 C 
ATOM     10  C   LIG d   1      -5.014  94.864 120.317  0.00  0.00     0.006 C 
ENDBRANCH   8   9
BRANCH   8  11
ATOM     11  C   LIG d   1      -7.880  95.314 118.789  0.00  0.00     0.028 C 
ATOM     12  C   LIG d   1      -8.806  94.131 119.114  0.00  0.00     0.006 C 
ENDBRANCH   8  11
ENDBRANCH   7   8
ENDBRANCH   1   7
BRANCH   6  13
ATOM     13  N   LIG d   1      -3.463  92.921 117.591  0.00  0.00    -0.311 N 
ATOM     14  C   LIG d   1      -2.428  92.899 118.429  0.00  0.00     0.210 C 
ATOM     15  C   LIG d   1      -1.406  94.022 118.225  0.00  0.00     0.109 C 
ATOM     16  O   LIG d   1      -2.241  92.036 119.300  0.00  0.00    -0.276 OA
ATOM     17  H   LIG d   1      -3.518  93.638 116.895  0.00  0.00     0.149 HD
ENDBRANCH   6  13
BRANCH   5  18
ATOM     18  N   LIG d   1      -3.167  89.941 116.987  0.00  0.00     0.381 N 
ATOM     19  H   LIG d   1      -3.089  89.180 116.343  0.00  0.00    -0.090 HD
ATOM     20  H   LIG d   1      -3.283  89.563 117.911  0.00  0.00    -0.090 HD
ATOM     21  H   LIG d   1      -2.345  90.503 116.951  0.00  0.00    -0.090 HD
ENDBRANCH   5  18
BRANCH   3  22
ATOM     22  C   LIG d   1      -7.836  89.843 115.926  0.00  0.00     0.382 C 
ATOM     23  O   LIG d   1      -8.311  90.254 114.840  0.00  0.00    -0.241 OA
ATOM     24  O   LIG d   1      -8.347  88.853 116.483  0.00  0.00    -0.241 OA
ENDBRANCH   3  22
TORSDOF 7
ENDMDL
MODEL 2
REMARK VINA RESULT:      -5.6      0.692      1.661
REMARK  7 active torsions:
REMARK  status: ('A' for Active; 'I' for Inactive)
REMARK    1  A    between atoms: C_2  and  C_3 
REMARK    2  A    between atoms: C_3  and  O_6 
REMARK    3  A    between atoms: C_3  and  C_4 
REMARK    4  A    between atoms: C_7  and  O_6 
REMARK    5  A    between atoms: C_9  and  C_10 
REMARK    6  A    between atoms: N_15  and  C_14 
REMARK    7  A    between atoms: N_20  and  C_19 
REMARK       I    between atoms: C_22  and  N_20 
ROOT
ATOM      1  C   LIG d   1      -6.091  92.447 118.044  0.00  0.00     0.161 C 
ATOM      2  C   LIG d   1      -7.089  91.642 117.471  0.00  0.00     0.016 C 
ATOM      3  C   LIG d   1      -6.812  90.475 116.722  0.00  0.00     0.038 C 
ATOM      4  C   LIG d   1      -5.516  89.948 116.622  0.00  0.00     0.028 C 
ATOM      5  C   LIG d   1      -4.422  91.002 116.759  0.00  0.00    -0.047 C 
ATOM      6  C   LIG d   1      -4.678  91.828 118.040  0.00  0.00     0.091 C 
ENDROOT
BRANCH   1   7
ATOM      7  O   LIG d   1      -6.472  92.818 119.384  0.00  0.00    -0.368 OA
BRANCH   7   8
ATOM      8  C   LIG d   1      -6.904  94.188 119.569  0.00  0.00     0.119 C 
BRANCH   8   9
ATOM      9  C   LIG d   1      -8.437  94.216 119.412  0.00  0.00     0.028 C 
ATOM     10  C   LIG d   1      -8.901  95.242 118.365  0.00  0.00     0.006 C 
ENDBRANCH   8   9
BRANCH   8  11
ATOM     11  C   LIG d   1      -6.366  95.096 118.458  0.00  0.00     0.028 C 
ATOM     12  C   LIG d   1      -5.319  96.101 118.964  0.00  0.00     0.006 C 
ENDBRANCH   8  11
ENDBRANCH   7   8
ENDBRANCH   1   7
BRANCH   6  13
ATOM     13  N   LIG d   1      -3.701  92.936 118.205  0.00  0.00    -0.311 N 
ATOM     14  C   LIG d   1      -2.587  92.829 118.927  0.00  0.00     0.210 C 
ATOM     15  C   LIG d   1      -1.728  94.096 118.983  0.00  0.00     0.109 C 
ATOM     16  O   LIG d   1      -2.212  91.795 119.500  0.00  0.00    -0.276 OA
ATOM     17  H   LIG d   1      -3.911  93.801 117.748  0.00  0.00     0.149 HD
ENDBRANCH   6  13
BRANCH   5  18
ATOM     18  N   LIG d   1      -3.125  90.298 116.774  0.00  0.00     0.381 N 
ATOM     19  H   LIG d   1      -2.629  90.485 115.926  0.00  0.00    -0.090 HD
ATOM     20  H   LIG d   1      -3.293  89.309 116.831  0.00  0.00    -0.090 HD
ATOM     21  H   LIG d   1      -2.585  90.597 117.556  0.00  0.00    -0.090 HD
ENDBRANCH   5  18
BRANCH   3  22
ATOM     22  C   LIG d   1      -7.835  89.844 116.029  0.00  0.00     0.382 C 
ATOM     23  O   LIG d   1      -8.232  90.312 114.935  0.00  0.00    -0.241 OA
ATOM     24  O   LIG d   1      -8.394  88.839 116.506  0.00  0.00    -0.241 OA
ENDBRANCH   3  22
TORSDOF 7
ENDMDL
MODEL 3
REMARK VINA RESULT:      -5.3      2.076      4.976
REMARK  7 active torsions:
REMARK  status: ('A' for Active; 'I' for Inactive)
REMARK    1  A    between atoms: C_2  and  C_3 
REMARK    2  A    between atoms: C_3  and  O_6 
REMARK    3  A    between atoms: C_3  and  C_4 
REMARK    4  A    between atoms: C_7  and  O_6 
REMARK    5  A    between atoms: C_9  and  C_10 
REMARK    6  A    between atoms: N_15  and  C_14 
REMARK    7  A    between atoms: N_20  and  C_19 
REMARK       I    between atoms: C_22  and  N_20 
ROOT
ATOM      1  C   LIG d   1      -6.725  91.013 118.332  0.00  0.00     0.161 C 
ATOM      2  C   LIG d   1      -7.479  92.183 118.141  0.00  0.00     0.016 C 
ATOM      3  C   LIG d   1      -6.982  93.480 118.406  0.00  0.00     0.038 C 
ATOM      4  C   LIG d   1      -5.638  93.706 118.739  0.00  0.00     0.028 C 
ATOM      5  C   LIG d   1      -4.978  92.519 119.431  0.00  0.00    -0.047 C 
ATOM      6  C   LIG d   1      -5.222  91.247 118.587  0.00  0.00     0.091 C 
ENDROOT
BRANCH   1   7
ATOM      7  O   LIG d   1      -6.911  90.125 117.212  0.00  0.00    -0.368 OA
BRANCH   7   8
ATOM      8  C   LIG d   1      -6.977  90.750 115.907  0.00  0.00     0.119 C 
BRANCH   8   9
ATOM      9  C   LIG d   1      -7.975  89.942 115.056  0.00  0.00     0.028 C 
ATOM     10  C   LIG d   1      -8.920  89.085 115.916  0.00  0.00     0.006 C 
ENDBRANCH   8   9
BRANCH   8  11
ATOM     11  C   LIG d   1      -5.638  90.644 115.170  0.00  0.00     0.028 C 
ATOM     12  C   LIG d   1      -4.939  89.294 115.397  0.00  0.00     0.006 C 
ENDBRANCH   8  11
ENDBRANCH   7   8
ENDBRANCH   1   7
BRANCH   6  13
ATOM     13  N   LIG d   1      -4.681  90.024 119.236  0.00  0.00    -0.311 N 
ATOM     14  C   LIG d   1      -3.497  89.495 118.931  0.00  0.00     0.210 C 
ATOM     15  C   LIG d   1      -3.139  88.222 119.704  0.00  0.00     0.109 C 
ATOM     16  O   LIG d   1      -2.696  89.977 118.117  0.00  0.00    -0.276 OA
ATOM     17  H   LIG d   1      -5.252  89.585 119.932  0.00  0.00     0.149 HD
ENDBRANCH   6  13
BRANCH   5  18
ATOM     18  N   LIG d   1      -3.547  92.838 119.596  0.00  0.00     0.381 N 
ATOM     19  H   LIG d   1      -3.448  93.722 120.053  0.00  0.00    -0.090 HD
ATOM     20  H   LIG d   1      -3.122  92.904 118.687  0.00  0.00    -0.090 HD
ATOM     21  H   LIG d   1      -3.098  92.127 120.130  0.00  0.00    -0.090 HD
ENDBRANCH   5  18
BRANCH   3  22
ATOM     22  C   LIG d   1      -7.845  94.566 118.378  0.00  0.00     0.382 C 
ATOM     23  O   LIG d   1      -7.444  95.695 118.748  0.00  0.00    -0.241 OA
ATOM     24  O   LIG d   1      -9.032  94.420 118.031  0.00  0.00    -0.241 OA
ENDBRANCH   3  22
TORSDOF 7
ENDMDL
MODEL 4
REMARK VINA RESULT:      -5.1      2.272      4.546
REMARK  7 active torsions:
REMARK  status: ('A' for Active; 'I' for Inactive)
REMARK    1  A    between atoms: C_2  and  C_3 
REMARK    2  A    between atoms: C_3  and  O_6 
REMARK    3  A    between atoms: C_3  and  C_4 
REMARK    4  A    between atoms: C_7  and  O_6 
REMARK    5  A    between atoms: C_9  and  C_10 
REMARK    6  A    between atoms: N_15  and  C_14 
REMARK    7  A    between atoms: N_20  and  C_19 
REMARK       I    between atoms: C_22  and  N_20 
ROOT
ATOM      1  C   LIG d   1      -4.210  90.593 117.800  0.00  0.00     0.161 C 
ATOM      2  C   LIG d   1      -5.259  90.052 117.038  0.00  0.00     0.016 C 
ATOM      3  C   LIG d   1      -6.379  90.803 116.611  0.00  0.00     0.038 C 
ATOM      4  C   LIG d   1      -6.452  92.192 116.791  0.00  0.00     0.028 C 
ATOM      5  C   LIG d   1      -5.657  92.690 117.994  0.00  0.00    -0.047 C 
ATOM      6  C   LIG d   1      -4.218  92.132 117.910  0.00  0.00     0.091 C 
ENDROOT
BRANCH   1   7
ATOM      7  O   LIG d   1      -2.945  90.134 117.284  0.00  0.00    -0.368 OA
BRANCH   7   8
ATOM      8  C   LIG d   1      -2.104  89.408 118.214  0.00  0.00     0.119 C 
BRANCH   8   9
ATOM      9  C   LIG d   1      -0.703  89.298 117.581  0.00  0.00     0.028 C 
ATOM     10  C   LIG d   1       0.037  90.646 117.555  0.00  0.00     0.006 C 
ENDBRANCH   8   9
BRANCH   8  11
ATOM     11  C   LIG d   1      -2.584  87.964 118.389  0.00  0.00     0.028 C 
ATOM     12  C   LIG d   1      -3.037  87.657 119.825  0.00  0.00     0.006 C 
ENDBRANCH   8  11
ENDBRANCH   7   8
ENDBRANCH   1   7
BRANCH   6  13
ATOM     13  N   LIG d   1      -3.397  92.502 119.093  0.00  0.00    -0.311 N 
ATOM     14  C   LIG d   1      -2.262  93.193 119.010  0.00  0.00     0.210 C 
ATOM     15  C   LIG d   1      -1.562  93.451 120.348  0.00  0.00     0.109 C 
ATOM     16  O   LIG d   1      -1.784  93.645 117.958  0.00  0.00    -0.276 OA
ATOM     17  H   LIG d   1      -3.728  92.203 119.989  0.00  0.00     0.149 HD
ENDBRANCH   6  13
BRANCH   5  18
ATOM     18  N   LIG d   1      -5.708  94.164 117.982  0.00  0.00     0.381 N 
ATOM     19  H   LIG d   1      -4.782  94.534 117.895  0.00  0.00    -0.090 HD
ATOM     20  H   LIG d   1      -6.095  94.483 118.852  0.00  0.00    -0.090 HD
ATOM     21  H   LIG d   1      -6.272  94.480 117.224  0.00  0.00    -0.090 HD
ENDBRANCH   5  18
BRANCH   3  22
ATOM     22  C   LIG d   1      -7.460  90.156 116.032  0.00  0.00     0.382 C 
ATOM     23  O   LIG d   1      -8.028  90.657 115.032  0.00  0.00    -0.241 OA
ATOM     24  O   LIG d   1      -7.901  89.100 116.523  0.00  0.00    -0.241 OA
ENDBRANCH   3  22
TORSDOF 7
ENDMDL
MODEL 5
REMARK VINA RESULT:      -4.7      1.919      4.606
REMARK  7 active torsions:
REMARK  status: ('A' for Active; 'I' for Inactive)
REMARK    1  A    between atoms: C_2  and  C_3 
REMARK    2  A    between atoms: C_3  and  O_6 
REMARK    3  A    between atoms: C_3  and  C_4 
REMARK    4  A    between atoms: C_7  and  O_6 
REMARK    5  A    between atoms: C_9  and  C_10 
REMARK    6  A    between atoms: N_15  and  C_14 
REMARK    7  A    between atoms: N_20  and  C_19 
REMARK       I    between atoms: C_22  and  N_20 
ROOT
ATOM      1  C   LIG d   1      -5.575  92.380 117.967  0.00  0.00     0.161 C 
ATOM      2  C   LIG d   1      -6.867  92.927 117.890  0.00  0.00     0.016 C 
ATOM      3  C   LIG d   1      -7.201  94.209 118.384  0.00  0.00     0.038 C 
ATOM      4  C   LIG d   1      -6.225  95.098 118.856  0.00  0.00     0.028 C 
ATOM      5  C   LIG d   1      -4.991  94.401 119.418  0.00  0.00    -0.047 C 
ATOM      6  C   LIG d   1      -4.474  93.380 118.379  0.00  0.00     0.091 C 
ENDROOT
BRANCH   1   7
ATOM      7  O   LIG d   1      -5.236  91.748 116.717  0.00  0.00    -0.368 OA
BRANCH   7   8
ATOM      8  C   LIG d   1      -5.341  90.304 116.684  0.00  0.00     0.119 C 
BRANCH   8   9
ATOM      9  C   LIG d   1      -3.921  89.732 116.854  0.00  0.00     0.028 C 
ATOM     10  C   LIG d   1      -3.671  89.190 118.272  0.00  0.00     0.006 C 
ENDBRANCH   8   9
BRANCH   8  11
ATOM     11  C   LIG d   1      -5.816  89.811 115.314  0.00  0.00     0.028 C 
ATOM     12  C   LIG d   1      -7.269  90.208 115.008  0.00  0.00     0.006 C 
ENDBRANCH   8  11
ENDBRANCH   7   8
ENDBRANCH   1   7
BRANCH   6  13
ATOM     13  N   LIG d   1      -3.318  92.594 118.883  0.00  0.00    -0.311 N 
ATOM     14  C   LIG d   1      -2.051  92.889 118.598  0.00  0.00     0.210 C 
ATOM     15  C   LIG d   1      -1.014  91.937 119.202  0.00  0.00     0.109 C 
ATOM     16  O   LIG d   1      -1.686  93.866 117.928  0.00  0.00    -0.276 OA
ATOM     17  H   LIG d   1      -3.522  91.801 119.459  0.00  0.00     0.149 HD
ENDBRANCH   6  13
BRANCH   5  18
ATOM     18  N   LIG d   1      -4.000  95.444 119.746  0.00  0.00     0.381 N 
ATOM     19  H   LIG d   1      -3.326  95.080 120.390  0.00  0.00    -0.090 HD
ATOM     20  H   LIG d   1      -4.473  96.214 120.186  0.00  0.00    -0.090 HD
ATOM     21  H   LIG d   1      -3.544  95.754 118.917  0.00  0.00    -0.090 HD
ENDBRANCH   5  18
BRANCH   3  22
ATOM     22  C   LIG d   1      -8.531  94.597 118.445  0.00  0.00     0.382 C 
ATOM     23  O   LIG d   1      -8.838  95.805 118.307  0.00  0.00    -0.241 OA
ATOM     24  O   LIG d   1      -9.423  93.760 118.681  0.00  0.00    -0.241 OA
ENDBRANCH   3  22
TORSDOF 7
ENDMDL
MODEL 6
REMARK VINA RESULT:      -4.6      1.868      4.175
REMARK  7 active torsions:
REMARK  status: ('A' for Active; 'I' for Inactive)
REMARK    1  A    between atoms: C_2  and  C_3 
REMARK    2  A    between atoms: C_3  and  O_6 
REMARK    3  A    between atoms: C_3  and  C_4 
REMARK    4  A    between atoms: C_7  and  O_6 
REMARK    5  A    between atoms: C_9  and  C_10 
REMARK    6  A    between atoms: N_15  and  C_14 
REMARK    7  A    between atoms: N_20  and  C_19 
REMARK       I    between atoms: C_22  and  N_20 
ROOT
ATOM      1  C   LIG d   1      -4.526  91.985 117.837  0.00  0.00     0.161 C 
ATOM      2  C   LIG d   1      -4.951  90.925 117.019  0.00  0.00     0.016 C 
ATOM      3  C   LIG d   1      -6.259  90.825 116.492  0.00  0.00     0.038 C 
ATOM      4  C   LIG d   1      -7.193  91.863 116.625  0.00  0.00     0.028 C 
ATOM      5  C   LIG d   1      -6.973  92.722 117.866  0.00  0.00    -0.047 C 
ATOM      6  C   LIG d   1      -5.497  93.182 117.901  0.00  0.00     0.091 C 
ENDROOT
BRANCH   1   7
ATOM      7  O   LIG d   1      -3.216  92.424 117.427  0.00  0.00    -0.368 OA
BRANCH   7   8
ATOM      8  C   LIG d   1      -2.175  92.351 118.432  0.00  0.00     0.119 C 
BRANCH   8   9
ATOM      9  C   LIG d   1      -1.220  93.537 118.196  0.00  0.00     0.028 C 
ATOM     10  C   LIG d   1      -1.585  94.764 119.049  0.00  0.00     0.006 C 
ENDBRANCH   8   9
BRANCH   8  11
ATOM     11  C   LIG d   1      -1.316  91.096 118.255  0.00  0.00     0.028 C 
ATOM     12  C   LIG d   1      -1.789  89.922 119.126  0.00  0.00     0.006 C 
ENDBRANCH   8  11
ENDBRANCH   7   8
ENDBRANCH   1   7
BRANCH   6  13
ATOM     13  N   LIG d   1      -5.175  93.958 119.127  0.00  0.00    -0.311 N 
ATOM     14  C   LIG d   1      -5.279  95.283 119.205  0.00  0.00     0.210 C 
ATOM     15  C   LIG d   1      -4.878  95.886 120.555  0.00  0.00     0.109 C 
ATOM     16  O   LIG d   1      -5.697  96.014 118.294  0.00  0.00    -0.276 OA
ATOM     17  H   LIG d   1      -4.858  93.441 119.924  0.00  0.00     0.149 HD
ENDBRANCH   6  13
BRANCH   5  18
ATOM     18  N   LIG d   1      -7.927  93.845 117.806  0.00  0.00     0.381 N 
ATOM     19  H   LIG d   1      -8.368  93.868 116.908  0.00  0.00    -0.090 HD
ATOM     20  H   LIG d   1      -7.425  94.706 117.933  0.00  0.00    -0.090 HD
ATOM     21  H   LIG d   1      -8.615  93.745 118.520  0.00  0.00    -0.090 HD
ENDBRANCH   5  18
BRANCH   3  22
ATOM     22  C   LIG d   1      -6.657  89.658 115.857  0.00  0.00     0.382 C 
ATOM     23  O   LIG d   1      -5.971  89.191 114.917  0.00  0.00    -0.241 OA
ATOM     24  O   LIG d   1      -7.717  89.091 116.184  0.00  0.00    -0.241 OA
ENDBRANCH   3  22
TORSDOF 7
ENDMDL
MODEL 7
REMARK VINA RESULT:      -4.6     13.888     16.553
REMARK  7 active torsions:
REMARK  status: ('A' for Active; 'I' for Inactive)
REMARK    1  A    between atoms: C_2  and  C_3 
REMARK    2  A    between atoms: C_3  and  O_6 
REMARK    3  A    between atoms: C_3  and  C_4 
REMARK    4  A    between atoms: C_7  and  O_6 
REMARK    5  A    between atoms: C_9  and  C_10 
REMARK    6  A    between atoms: N_15  and  C_14 
REMARK    7  A    between atoms: N_20  and  C_19 
REMARK       I    between atoms: C_22  and  N_20 
ROOT
ATOM      1  C   LIG d   1      -2.939  77.381 116.229  0.00  0.00     0.161 C 
ATOM      2  C   LIG d   1      -2.302  76.429 115.415  0.00  0.00     0.016 C 
ATOM      3  C   LIG d   1      -1.402  75.458 115.913  0.00  0.00     0.038 C 
ATOM      4  C   LIG d   1      -1.194  75.276 117.288  0.00  0.00     0.028 C 
ATOM      5  C   LIG d   1      -1.427  76.539 118.109  0.00  0.00    -0.047 C 
ATOM      6  C   LIG d   1      -2.810  77.126 117.745  0.00  0.00     0.091 C 
ENDROOT
BRANCH   1   7
ATOM      7  O   LIG d   1      -4.327  77.491 115.855  0.00  0.00    -0.368 OA
BRANCH   7   8
ATOM      8  C   LIG d   1      -5.216  76.485 116.400  0.00  0.00     0.119 C 
BRANCH   8   9
ATOM      9  C   LIG d   1      -5.867  75.751 115.212  0.00  0.00     0.028 C 
ATOM     10  C   LIG d   1      -5.310  74.330 115.023  0.00  0.00     0.006 C 
ENDBRANCH   8   9
BRANCH   8  11
ATOM     11  C   LIG d   1      -6.377  77.123 117.168  0.00  0.00     0.028 C 
ATOM     12  C   LIG d   1      -7.649  76.262 117.148  0.00  0.00     0.006 C 
ENDBRANCH   8  11
ENDBRANCH   7   8
ENDBRANCH   1   7
BRANCH   6  13
ATOM     13  N   LIG d   1      -3.082  78.411 118.441  0.00  0.00    -0.311 N 
ATOM     14  C   LIG d   1      -3.757  78.495 119.586  0.00  0.00     0.210 C 
ATOM     15  C   LIG d   1      -3.942  79.918 120.124  0.00  0.00     0.109 C 
ATOM     16  O   LIG d   1      -4.192  77.525 120.224  0.00  0.00    -0.276 OA
ATOM     17  H   LIG d   1      -2.737  79.246 118.009  0.00  0.00     0.149 HD
ENDBRANCH   6  13
BRANCH   5  18
ATOM     18  N   LIG d   1      -1.310  76.174 119.533  0.00  0.00     0.381 N 
ATOM     19  H   LIG d   1      -0.362  76.279 119.833  0.00  0.00    -0.090 HD
ATOM     20  H   LIG d   1      -1.571  75.209 119.643  0.00  0.00    -0.090 HD
ATOM     21  H   LIG d   1      -1.907  76.751 120.083  0.00  0.00    -0.090 HD
ENDBRANCH   5  18
BRANCH   3  22
ATOM     22  C   LIG d   1      -0.669  74.683 115.027  0.00  0.00     0.382 C 
ATOM     23  O   LIG d   1      -0.598  75.010 113.818  0.00  0.00    -0.241 OA
ATOM     24  O   LIG d   1      -0.115  73.636 115.413  0.00  0.00    -0.241 OA
ENDBRANCH   3  22
TORSDOF 7
ENDMDL
MODEL 8
REMARK VINA RESULT:      -4.4     13.313     15.540
REMARK  7 active torsions:
REMARK  status: ('A' for Active; 'I' for Inactive)
REMARK    1  A    between atoms: C_2  and  C_3 
REMARK    2  A    between atoms: C_3  and  O_6 
REMARK    3  A    between atoms: C_3  and  C_4 
REMARK    4  A    between atoms: C_7  and  O_6 
REMARK    5  A    between atoms: C_9  and  C_10 
REMARK    6  A    between atoms: N_15  and  C_14 
REMARK    7  A    between atoms: N_20  and  C_19 
REMARK       I    between atoms: C_22  and  N_20 
ROOT
ATOM      1  C   LIG d   1      -4.500  77.394 117.057  0.00  0.00     0.161 C 
ATOM      2  C   LIG d   1      -5.865  77.699 117.191  0.00  0.00     0.016 C 
ATOM      3  C   LIG d   1      -6.373  78.581 118.171  0.00  0.00     0.038 C 
ATOM      4  C   LIG d   1      -5.528  79.341 118.994  0.00  0.00     0.028 C 
ATOM      5  C   LIG d   1      -4.171  78.689 119.235  0.00  0.00    -0.047 C 
ATOM      6  C   LIG d   1      -3.553  78.299 117.873  0.00  0.00     0.091 C 
ENDROOT
BRANCH   1   7
ATOM      7  O   LIG d   1      -4.130  77.409 115.664  0.00  0.00    -0.368 OA
BRANCH   7   8
ATOM      8  C   LIG d   1      -3.876  76.117 115.059  0.00  0.00     0.119 C 
BRANCH   8   9
ATOM      9  C   LIG d   1      -5.216  75.594 114.506  0.00  0.00     0.028 C 
ATOM     10  C   LIG d   1      -5.581  74.209 115.067  0.00  0.00     0.006 C 
ENDBRANCH   8   9
BRANCH   8  11
ATOM     11  C   LIG d   1      -3.439  75.087 116.105  0.00  0.00     0.028 C 
ATOM     12  C   LIG d   1      -1.939  74.759 116.028  0.00  0.00     0.006 C 
ENDBRANCH   8  11
ENDBRANCH   7   8
ENDBRANCH   1   7
BRANCH   6  13
ATOM     13  N   LIG d   1      -2.261  77.579 118.023  0.00  0.00    -0.311 N 
ATOM     14  C   LIG d   1      -1.077  78.187 118.007  0.00  0.00     0.210 C 
ATOM     15  C   LIG d   1       0.131  77.256 118.157  0.00  0.00     0.109 C 
ATOM     16  O   LIG d   1      -0.912  79.413 117.916  0.00  0.00    -0.276 OA
ATOM     17  H   LIG d   1      -2.303  76.584 118.133  0.00  0.00     0.149 HD
ENDBRANCH   6  13
BRANCH   5  18
ATOM     18  N   LIG d   1      -3.344  79.649 119.991  0.00  0.00     0.381 N 
ATOM     19  H   LIG d   1      -3.715  80.572 119.888  0.00  0.00    -0.090 HD
ATOM     20  H   LIG d   1      -2.411  79.640 119.617  0.00  0.00    -0.090 HD
ATOM     21  H   LIG d   1      -3.325  79.397 120.955  0.00  0.00    -0.090 HD
ENDBRANCH   5  18
BRANCH   3  22
ATOM     22  C   LIG d   1      -7.743  78.680 118.363  0.00  0.00     0.382 C 
ATOM     23  O   LIG d   1      -8.385  77.702 118.816  0.00  0.00    -0.241 OA
ATOM     24  O   LIG d   1      -8.351  79.720 118.047  0.00  0.00    -0.241 OA
ENDBRANCH   3  22
TORSDOF 7
ENDMDL
MODEL 9
REMARK VINA RESULT:      -4.4     14.228     15.657
REMARK  7 active torsions:
REMARK  status: ('A' for Active; 'I' for Inactive)
REMARK    1  A    between atoms: C_2  and  C_3 
REMARK    2  A    between atoms: C_3  and  O_6 
REMARK    3  A    between atoms: C_3  and  C_4 
REMARK    4  A    between atoms: C_7  and  O_6 
REMARK    5  A    between atoms: C_9  and  C_10 
REMARK    6  A    between atoms: N_15  and  C_14 
REMARK    7  A    between atoms: N_20  and  C_19 
REMARK       I    between atoms: C_22  and  N_20 
ROOT
ATOM      1  C   LIG d   1      -2.575  78.103 116.671  0.00  0.00     0.161 C 
ATOM      2  C   LIG d   1      -3.698  77.413 116.185  0.00  0.00     0.016 C 
ATOM      3  C   LIG d   1      -3.611  76.213 115.441  0.00  0.00     0.038 C 
ATOM      4  C   LIG d   1      -2.395  75.538 115.261  0.00  0.00     0.028 C 
ATOM      5  C   LIG d   1      -1.180  76.458 115.301  0.00  0.00    -0.047 C 
ATOM      6  C   LIG d   1      -1.247  77.323 116.581  0.00  0.00     0.091 C 
ENDROOT
BRANCH   1   7
ATOM      7  O   LIG d   1      -2.814  78.531 118.027  0.00  0.00    -0.368 OA
BRANCH   7   8
ATOM      8  C   LIG d   1      -3.702  77.697 118.811  0.00  0.00     0.119 C 
BRANCH   8   9
ATOM      9  C   LIG d   1      -4.728  78.624 119.490  0.00  0.00     0.028 C 
ATOM     10  C   LIG d   1      -6.156  78.407 118.962  0.00  0.00     0.006 C 
ENDBRANCH   8   9
BRANCH   8  11
ATOM     11  C   LIG d   1      -2.955  77.010 119.957  0.00  0.00     0.028 C 
ATOM     12  C   LIG d   1      -2.358  75.653 119.551  0.00  0.00     0.006 C 
ENDBRANCH   8  11
ENDBRANCH   7   8
ENDBRANCH   1   7
BRANCH   6  13
ATOM     13  N   LIG d   1      -0.139  78.311 116.656  0.00  0.00    -0.311 N 
ATOM     14  C   LIG d   1       0.692  78.404 117.693  0.00  0.00     0.210 C 
ATOM     15  C   LIG d   1       1.751  79.504 117.576  0.00  0.00     0.109 C 
ATOM     16  O   LIG d   1       0.672  77.658 118.683  0.00  0.00    -0.276 OA
ATOM     17  H   LIG d   1      -0.031  78.936 115.880  0.00  0.00     0.149 HD
ENDBRANCH   6  13
BRANCH   5  18
ATOM     18  N   LIG d   1       0.025  75.609 115.240  0.00  0.00     0.381 N 
ATOM     19  H   LIG d   1      -0.125  74.854 114.601  0.00  0.00    -0.090 HD
ATOM     20  H   LIG d   1       0.196  75.222 116.151  0.00  0.00    -0.090 HD
ATOM     21  H   LIG d   1       0.809  76.150 114.949  0.00  0.00    -0.090 HD
ENDBRANCH   5  18
BRANCH   3  22
ATOM     22  C   LIG d   1      -4.746  75.698 114.833  0.00  0.00     0.382 C 
ATOM     23  O   LIG d   1      -4.763  74.505 114.445  0.00  0.00    -0.241 OA
ATOM     24  O   LIG d   1      -5.738  76.424 114.628  0.00  0.00    -0.241 OA
ENDBRANCH   3  22
TORSDOF 7
ENDMDL
