MODEL 1
REMARK VINA RESULT:      -5.3      0.000      0.000
REMARK  7 active torsions:
REMARK  status: ('A' for Active; 'I' for Inactive)
REMARK    1  A    between atoms: C_2  and  C_3 
REMARK    2  A    between atoms: C_3  and  O_6 
REMARK    3  A    between atoms: C_3  and  C_4 
REMARK    4  A    between atoms: C_7  and  O_6 
REMARK    5  A    between atoms: C_9  and  C_10 
REMARK    6  A    between atoms: N_15  and  C_14 
REMARK    7  A    between atoms: N_20  and  C_19 
REMARK       I    between atoms: C_22  and  N_20 
ROOT
ATOM      1  C   LIG d   1      -3.807  76.963 115.579  0.00  0.00     0.161 C 
ATOM      2  C   LIG d   1      -2.786  76.019 115.384  0.00  0.00     0.016 C 
ATOM      3  C   LIG d   1      -1.995  75.500 116.435  0.00  0.00     0.038 C 
ATOM      4  C   LIG d   1      -2.275  75.778 117.781  0.00  0.00     0.028 C 
ATOM      5  C   LIG d   1      -2.973  77.117 117.990  0.00  0.00    -0.047 C 
ATOM      6  C   LIG d   1      -4.201  77.195 117.054  0.00  0.00     0.091 C 
ENDROOT
BRANCH   1   7
ATOM      7  O   LIG d   1      -4.966  76.598 114.803  0.00  0.00    -0.368 OA
BRANCH   7   8
ATOM      8  C   LIG d   1      -5.874  75.653 115.420  0.00  0.00     0.119 C 
BRANCH   8   9
ATOM      9  C   LIG d   1      -5.686  74.298 114.710  0.00  0.00     0.028 C 
ATOM     10  C   LIG d   1      -6.100  73.110 115.594  0.00  0.00     0.006 C 
ENDBRANCH   8   9
BRANCH   8  11
ATOM     11  C   LIG d   1      -7.335  76.041 115.173  0.00  0.00     0.028 C 
ATOM     12  C   LIG d   1      -8.170  76.070 116.463  0.00  0.00     0.006 C 
ENDBRANCH   8  11
ENDBRANCH   7   8
ENDBRANCH   1   7
BRANCH   6  13
ATOM     13  N   LIG d   1      -4.893  78.507 117.134  0.00  0.00    -0.311 N 
ATOM     14  C   LIG d   1      -5.914  78.749 117.955  0.00  0.00     0.210 C 
ATOM     15  C   LIG d   1      -6.495  80.163 117.864  0.00  0.00     0.109 C 
ATOM     16  O   LIG d   1      -6.371  77.937 118.772  0.00  0.00    -0.276 OA
ATOM     17  H   LIG d   1      -4.566  79.233 116.527  0.00  0.00     0.149 HD
ENDBRANCH   6  13
BRANCH   5  18
ATOM     18  N   LIG d   1      -3.329  77.216 119.418  0.00  0.00     0.381 N 
ATOM     19  H   LIG d   1      -4.303  77.423 119.511  0.00  0.00    -0.090 HD
ATOM     20  H   LIG d   1      -2.805  77.968 119.832  0.00  0.00    -0.090 HD
ATOM     21  H   LIG d   1      -3.118  76.360 119.882  0.00  0.00    -0.090 HD
ENDBRANCH   5  18
BRANCH   3  22
ATOM     22  C   LIG d   1      -0.885  74.723 116.140  0.00  0.00     0.382 C 
ATOM     23  O   LIG d   1      -0.817  74.116 115.043  0.00  0.00    -0.241 OA
ATOM     24  O   LIG d   1       0.030  74.585 116.974  0.00  0.00    -0.241 OA
ENDBRANCH   3  22
TORSDOF 7
ENDMDL
MODEL 2
REMARK VINA RESULT:      -5.1      2.473      5.897
REMARK  7 active torsions:
REMARK  status: ('A' for Active; 'I' for Inactive)
REMARK    1  A    between atoms: C_2  and  C_3 
REMARK    2  A    between atoms: C_3  and  O_6 
REMARK    3  A    between atoms: C_3  and  C_4 
REMARK    4  A    between atoms: C_7  and  O_6 
REMARK    5  A    between atoms: C_9  and  C_10 
REMARK    6  A    between atoms: N_15  and  C_14 
REMARK    7  A    between atoms: N_20  and  C_19 
REMARK       I    between atoms: C_22  and  N_20 
ROOT
ATOM      1  C   LIG d   1      -7.158  77.666 117.414  0.00  0.00     0.161 C 
ATOM      2  C   LIG d   1      -8.444  78.231 117.452  0.00  0.00     0.016 C 
ATOM      3  C   LIG d   1      -8.802  79.294 118.314  0.00  0.00     0.038 C 
ATOM      4  C   LIG d   1      -7.851  79.968 119.094  0.00  0.00     0.028 C 
ATOM      5  C   LIG d   1      -6.649  79.105 119.463  0.00  0.00    -0.047 C 
ATOM      6  C   LIG d   1      -6.079  78.462 118.178  0.00  0.00     0.091 C 
ENDROOT
BRANCH   1   7
ATOM      7  O   LIG d   1      -6.755  77.461 116.046  0.00  0.00    -0.368 OA
BRANCH   7   8
ATOM      8  C   LIG d   1      -7.127  76.192 115.455  0.00  0.00     0.119 C 
BRANCH   8   9
ATOM      9  C   LIG d   1      -7.170  75.148 116.588  0.00  0.00     0.028 C 
ATOM     10  C   LIG d   1      -6.818  73.734 116.097  0.00  0.00     0.006 C 
ENDBRANCH   8   9
BRANCH   8  11
ATOM     11  C   LIG d   1      -6.053  75.693 114.484  0.00  0.00     0.028 C 
ATOM     12  C   LIG d   1      -4.685  76.354 114.717  0.00  0.00     0.006 C 
ENDBRANCH   8  11
ENDBRANCH   7   8
ENDBRANCH   1   7
BRANCH   6  13
ATOM     13  N   LIG d   1      -4.952  77.535 118.460  0.00  0.00    -0.311 N 
ATOM     14  C   LIG d   1      -3.709  77.741 118.029  0.00  0.00     0.210 C 
ATOM     15  C   LIG d   1      -2.702  76.652 118.414  0.00  0.00     0.109 C 
ATOM     16  O   LIG d   1      -3.337  78.738 117.392  0.00  0.00    -0.276 OA
ATOM     17  H   LIG d   1      -5.158  76.716 118.998  0.00  0.00     0.149 HD
ENDBRANCH   6  13
BRANCH   5  18
ATOM     18  N   LIG d   1      -5.676  79.970 120.157  0.00  0.00     0.381 N 
ATOM     19  H   LIG d   1      -4.937  80.220 119.530  0.00  0.00    -0.090 HD
ATOM     20  H   LIG d   1      -5.277  79.460 120.926  0.00  0.00    -0.090 HD
ATOM     21  H   LIG d   1      -6.128  80.792 120.493  0.00  0.00    -0.090 HD
ENDBRANCH   5  18
BRANCH   3  22
ATOM     22  C   LIG d   1     -10.132  79.665 118.430  0.00  0.00     0.382 C 
ATOM     23  O   LIG d   1     -10.543  80.709 117.868  0.00  0.00    -0.241 OA
ATOM     24  O   LIG d   1     -10.917  78.995 119.127  0.00  0.00    -0.241 OA
ENDBRANCH   3  22
TORSDOF 7
ENDMDL
MODEL 3
REMARK VINA RESULT:      -5.0      2.442      4.519
REMARK  7 active torsions:
REMARK  status: ('A' for Active; 'I' for Inactive)
REMARK    1  A    between atoms: C_2  and  C_3 
REMARK    2  A    between atoms: C_3  and  O_6 
REMARK    3  A    between atoms: C_3  and  C_4 
REMARK    4  A    between atoms: C_7  and  O_6 
REMARK    5  A    between atoms: C_9  and  C_10 
REMARK    6  A    between atoms: N_15  and  C_14 
REMARK    7  A    between atoms: N_20  and  C_19 
REMARK       I    between atoms: C_22  and  N_20 
ROOT
ATOM      1  C   LIG d   1      -4.936  77.607 116.585  0.00  0.00     0.161 C 
ATOM      2  C   LIG d   1      -4.971  76.383 115.896  0.00  0.00     0.016 C 
ATOM      3  C   LIG d   1      -6.135  75.590 115.778  0.00  0.00     0.038 C 
ATOM      4  C   LIG d   1      -7.389  76.043 116.215  0.00  0.00     0.028 C 
ATOM      5  C   LIG d   1      -7.305  77.045 117.362  0.00  0.00    -0.047 C 
ATOM      6  C   LIG d   1      -6.320  78.171 116.973  0.00  0.00     0.091 C 
ENDROOT
BRANCH   1   7
ATOM      7  O   LIG d   1      -4.197  78.578 115.818  0.00  0.00    -0.368 OA
BRANCH   7   8
ATOM      8  C   LIG d   1      -2.873  78.904 116.309  0.00  0.00     0.119 C 
BRANCH   8   9
ATOM      9  C   LIG d   1      -1.866  78.025 115.543  0.00  0.00     0.028 C 
ATOM     10  C   LIG d   1      -1.066  77.100 116.476  0.00  0.00     0.006 C 
ENDBRANCH   8   9
BRANCH   8  11
ATOM     11  C   LIG d   1      -2.714  78.514 117.782  0.00  0.00     0.028 C 
ATOM     12  C   LIG d   1      -2.579  79.732 118.709  0.00  0.00     0.006 C 
ENDBRANCH   8  11
ENDBRANCH   7   8
ENDBRANCH   1   7
BRANCH   6  13
ATOM     13  N   LIG d   1      -6.114  79.149 118.072  0.00  0.00    -0.311 N 
ATOM     14  C   LIG d   1      -6.789  80.293 118.171  0.00  0.00     0.210 C 
ATOM     15  C   LIG d   1      -6.409  81.167 119.370  0.00  0.00     0.109 C 
ATOM     16  O   LIG d   1      -7.689  80.653 117.396  0.00  0.00    -0.276 OA
ATOM     17  H   LIG d   1      -5.425  78.923 118.762  0.00  0.00     0.149 HD
ENDBRANCH   6  13
BRANCH   5  18
ATOM     18  N   LIG d   1      -8.670  77.537 117.625  0.00  0.00     0.381 N 
ATOM     19  H   LIG d   1      -9.192  77.561 116.771  0.00  0.00    -0.090 HD
ATOM     20  H   LIG d   1      -8.615  78.472 117.987  0.00  0.00    -0.090 HD
ATOM     21  H   LIG d   1      -9.125  76.944 118.284  0.00  0.00    -0.090 HD
ENDBRANCH   5  18
BRANCH   3  22
ATOM     22  C   LIG d   1      -6.044  74.310 115.253  0.00  0.00     0.382 C 
ATOM     23  O   LIG d   1      -5.438  74.118 114.171  0.00  0.00    -0.241 OA
ATOM     24  O   LIG d   1      -6.598  73.351 115.824  0.00  0.00    -0.241 OA
ENDBRANCH   3  22
TORSDOF 7
ENDMDL
MODEL 4
REMARK VINA RESULT:      -4.9      2.702      5.321
REMARK  7 active torsions:
REMARK  status: ('A' for Active; 'I' for Inactive)
REMARK    1  A    between atoms: C_2  and  C_3 
REMARK    2  A    between atoms: C_3  and  O_6 
REMARK    3  A    between atoms: C_3  and  C_4 
REMARK    4  A    between atoms: C_7  and  O_6 
REMARK    5  A    between atoms: C_9  and  C_10 
REMARK    6  A    between atoms: N_15  and  C_14 
REMARK    7  A    between atoms: N_20  and  C_19 
REMARK       I    between atoms: C_22  and  N_20 
ROOT
ATOM      1  C   LIG d   1      -2.657  76.984 117.177  0.00  0.00     0.161 C 
ATOM      2  C   LIG d   1      -3.632  76.223 116.512  0.00  0.00     0.016 C 
ATOM      3  C   LIG d   1      -4.020  76.454 115.172  0.00  0.00     0.038 C 
ATOM      4  C   LIG d   1      -3.345  77.372 114.353  0.00  0.00     0.028 C 
ATOM      5  C   LIG d   1      -2.694  78.512 115.129  0.00  0.00    -0.047 C 
ATOM      6  C   LIG d   1      -1.832  77.917 116.265  0.00  0.00     0.091 C 
ENDROOT
BRANCH   1   7
ATOM      7  O   LIG d   1      -1.784  76.114 117.924  0.00  0.00    -0.368 OA
BRANCH   7   8
ATOM      8  C   LIG d   1      -1.526  74.814 117.339  0.00  0.00     0.119 C 
BRANCH   8   9
ATOM      9  C   LIG d   1      -1.527  73.783 118.484  0.00  0.00     0.028 C 
ATOM     10  C   LIG d   1      -1.468  74.445 119.871  0.00  0.00     0.006 C 
ENDBRANCH   8   9
BRANCH   8  11
ATOM     11  C   LIG d   1      -0.121  74.745 116.733  0.00  0.00     0.028 C 
ATOM     12  C   LIG d   1      -0.134  74.372 115.242  0.00  0.00     0.006 C 
ENDBRANCH   8  11
ENDBRANCH   7   8
ENDBRANCH   1   7
BRANCH   6  13
ATOM     13  N   LIG d   1      -1.226  78.966 117.126  0.00  0.00    -0.311 N 
ATOM     14  C   LIG d   1       0.086  79.085 117.322  0.00  0.00     0.210 C 
ATOM     15  C   LIG d   1       0.498  80.223 118.262  0.00  0.00     0.109 C 
ATOM     16  O   LIG d   1       0.950  78.377 116.783  0.00  0.00    -0.276 OA
ATOM     17  H   LIG d   1      -1.852  79.603 117.577  0.00  0.00     0.149 HD
ENDBRANCH   6  13
BRANCH   5  18
ATOM     18  N   LIG d   1      -1.912  79.315 114.169  0.00  0.00     0.381 N 
ATOM     19  H   LIG d   1      -1.922  80.276 114.445  0.00  0.00    -0.090 HD
ATOM     20  H   LIG d   1      -2.338  79.242 113.262  0.00  0.00    -0.090 HD
ATOM     21  H   LIG d   1      -0.974  78.982 114.131  0.00  0.00    -0.090 HD
ENDBRANCH   5  18
BRANCH   3  22
ATOM     22  C   LIG d   1      -5.120  75.791 114.651  0.00  0.00     0.382 C 
ATOM     23  O   LIG d   1      -6.214  76.392 114.526  0.00  0.00    -0.241 OA
ATOM     24  O   LIG d   1      -5.045  74.586 114.345  0.00  0.00    -0.241 OA
ENDBRANCH   3  22
TORSDOF 7
ENDMDL
MODEL 5
REMARK VINA RESULT:      -4.9      1.656      5.091
REMARK  7 active torsions:
REMARK  status: ('A' for Active; 'I' for Inactive)
REMARK    1  A    between atoms: C_2  and  C_3 
REMARK    2  A    between atoms: C_3  and  O_6 
REMARK    3  A    between atoms: C_3  and  C_4 
REMARK    4  A    between atoms: C_7  and  O_6 
REMARK    5  A    between atoms: C_9  and  C_10 
REMARK    6  A    between atoms: N_15  and  C_14 
REMARK    7  A    between atoms: N_20  and  C_19 
REMARK       I    between atoms: C_22  and  N_20 
ROOT
ATOM      1  C   LIG d   1      -5.490  77.496 116.890  0.00  0.00     0.161 C 
ATOM      2  C   LIG d   1      -6.296  78.615 117.155  0.00  0.00     0.016 C 
ATOM      3  C   LIG d   1      -5.903  79.674 118.005  0.00  0.00     0.038 C 
ATOM      4  C   LIG d   1      -4.605  79.759 118.532  0.00  0.00     0.028 C 
ATOM      5  C   LIG d   1      -3.930  78.402 118.700  0.00  0.00    -0.047 C 
ATOM      6  C   LIG d   1      -4.028  77.625 117.367  0.00  0.00     0.091 C 
ENDROOT
BRANCH   1   7
ATOM      7  O   LIG d   1      -5.532  77.185 115.483  0.00  0.00    -0.368 OA
BRANCH   7   8
ATOM      8  C   LIG d   1      -6.301  76.015 115.112  0.00  0.00     0.119 C 
BRANCH   8   9
ATOM      9  C   LIG d   1      -7.087  75.563 116.358  0.00  0.00     0.028 C 
ATOM     10  C   LIG d   1      -8.573  75.954 116.288  0.00  0.00     0.006 C 
ENDBRANCH   8   9
BRANCH   8  11
ATOM     11  C   LIG d   1      -5.388  74.837 114.759  0.00  0.00     0.028 C 
ATOM     12  C   LIG d   1      -5.883  73.504 115.340  0.00  0.00     0.006 C 
ENDBRANCH   8  11
ENDBRANCH   7   8
ENDBRANCH   1   7
BRANCH   6  13
ATOM     13  N   LIG d   1      -3.465  76.253 117.469  0.00  0.00    -0.311 N 
ATOM     14  C   LIG d   1      -2.210  75.949 117.144  0.00  0.00     0.210 C 
ATOM     15  C   LIG d   1      -1.839  74.472 117.304  0.00  0.00     0.109 C 
ATOM     16  O   LIG d   1      -1.358  76.770 116.769  0.00  0.00    -0.276 OA
ATOM     17  H   LIG d   1      -4.078  75.531 117.794  0.00  0.00     0.149 HD
ENDBRANCH   6  13
BRANCH   5  18
ATOM     18  N   LIG d   1      -2.539  78.647 119.125  0.00  0.00     0.381 N 
ATOM     19  H   LIG d   1      -2.532  79.091 120.022  0.00  0.00    -0.090 HD
ATOM     20  H   LIG d   1      -2.100  79.264 118.464  0.00  0.00    -0.090 HD
ATOM     21  H   LIG d   1      -2.039  77.786 119.169  0.00  0.00    -0.090 HD
ENDBRANCH   5  18
BRANCH   3  22
ATOM     22  C   LIG d   1      -6.826  80.643 118.368  0.00  0.00     0.382 C 
ATOM     23  O   LIG d   1      -7.519  81.210 117.489  0.00  0.00    -0.241 OA
ATOM     24  O   LIG d   1      -6.943  80.989 119.559  0.00  0.00    -0.241 OA
ENDBRANCH   3  22
TORSDOF 7
ENDMDL
MODEL 6
REMARK VINA RESULT:      -4.5     12.716     15.575
REMARK  7 active torsions:
REMARK  status: ('A' for Active; 'I' for Inactive)
REMARK    1  A    between atoms: C_2  and  C_3 
REMARK    2  A    between atoms: C_3  and  O_6 
REMARK    3  A    between atoms: C_3  and  C_4 
REMARK    4  A    between atoms: C_7  and  O_6 
REMARK    5  A    between atoms: C_9  and  C_10 
REMARK    6  A    between atoms: N_15  and  C_14 
REMARK    7  A    between atoms: N_20  and  C_19 
REMARK       I    between atoms: C_22  and  N_20 
ROOT
ATOM      1  C   LIG d   1      -2.203  90.586 118.173  0.00  0.00     0.161 C 
ATOM      2  C   LIG d   1      -3.446  90.401 117.545  0.00  0.00     0.016 C 
ATOM      3  C   LIG d   1      -4.389  91.440 117.364  0.00  0.00     0.038 C 
ATOM      4  C   LIG d   1      -4.087  92.776 117.666  0.00  0.00     0.028 C 
ATOM      5  C   LIG d   1      -3.040  92.927 118.765  0.00  0.00    -0.047 C 
ATOM      6  C   LIG d   1      -1.811  92.060 118.410  0.00  0.00     0.091 C 
ENDROOT
BRANCH   1   7
ATOM      7  O   LIG d   1      -1.174  89.907 117.429  0.00  0.00    -0.368 OA
BRANCH   7   8
ATOM      8  C   LIG d   1      -0.957  88.514 117.765  0.00  0.00     0.119 C 
BRANCH   8   9
ATOM      9  C   LIG d   1      -1.055  88.388 119.298  0.00  0.00     0.028 C 
ATOM     10  C   LIG d   1      -1.935  87.203 119.734  0.00  0.00     0.006 C 
ENDBRANCH   8   9
BRANCH   8  11
ATOM     11  C   LIG d   1       0.466  88.070 117.412  0.00  0.00     0.028 C 
ATOM     12  C   LIG d   1       0.513  86.670 116.781  0.00  0.00     0.006 C 
ENDBRANCH   8  11
ENDBRANCH   7   8
ENDBRANCH   1   7
BRANCH   6  13
ATOM     13  N   LIG d   1      -0.774  92.084 119.474  0.00  0.00    -0.311 N 
ATOM     14  C   LIG d   1       0.487  92.457 119.261  0.00  0.00     0.210 C 
ATOM     15  C   LIG d   1       1.398  92.389 120.490  0.00  0.00     0.109 C 
ATOM     16  O   LIG d   1       0.929  92.868 118.177  0.00  0.00    -0.276 OA
ATOM     17  H   LIG d   1      -1.054  91.795 120.391  0.00  0.00     0.149 HD
ENDBRANCH   6  13
BRANCH   5  18
ATOM     18  N   LIG d   1      -2.721  94.362 118.882  0.00  0.00     0.381 N 
ATOM     19  H   LIG d   1      -2.559  94.596 119.841  0.00  0.00    -0.090 HD
ATOM     20  H   LIG d   1      -3.506  94.898 118.554  0.00  0.00    -0.090 HD
ATOM     21  H   LIG d   1      -1.913  94.577 118.339  0.00  0.00    -0.090 HD
ENDBRANCH   5  18
BRANCH   3  22
ATOM     22  C   LIG d   1      -5.664  91.139 116.911  0.00  0.00     0.382 C 
ATOM     23  O   LIG d   1      -5.834  90.206 116.090  0.00  0.00    -0.241 OA
ATOM     24  O   LIG d   1      -6.642  91.817 117.281  0.00  0.00    -0.241 OA
ENDBRANCH   3  22
TORSDOF 7
ENDMDL
MODEL 7
REMARK VINA RESULT:      -4.5      2.819      6.061
REMARK  7 active torsions:
REMARK  status: ('A' for Active; 'I' for Inactive)
REMARK    1  A    between atoms: C_2  and  C_3 
REMARK    2  A    between atoms: C_3  and  O_6 
REMARK    3  A    between atoms: C_3  and  C_4 
REMARK    4  A    between atoms: C_7  and  O_6 
REMARK    5  A    between atoms: C_9  and  C_10 
REMARK    6  A    between atoms: N_15  and  C_14 
REMARK    7  A    between atoms: N_20  and  C_19 
REMARK       I    between atoms: C_22  and  N_20 
ROOT
ATOM      1  C   LIG d   1      -6.492  78.274 117.816  0.00  0.00     0.161 C 
ATOM      2  C   LIG d   1      -7.847  78.581 117.610  0.00  0.00     0.016 C 
ATOM      3  C   LIG d   1      -8.531  79.596 118.316  0.00  0.00     0.038 C 
ATOM      4  C   LIG d   1      -7.863  80.482 119.175  0.00  0.00     0.028 C 
ATOM      5  C   LIG d   1      -6.601  79.889 119.794  0.00  0.00    -0.047 C 
ATOM      6  C   LIG d   1      -5.719  79.302 118.668  0.00  0.00     0.091 C 
ENDROOT
BRANCH   1   7
ATOM      7  O   LIG d   1      -5.836  78.081 116.547  0.00  0.00    -0.368 OA
BRANCH   7   8
ATOM      8  C   LIG d   1      -5.212  76.789 116.342  0.00  0.00     0.119 C 
BRANCH   8   9
ATOM      9  C   LIG d   1      -3.743  77.042 115.953  0.00  0.00     0.028 C 
ATOM     10  C   LIG d   1      -3.460  78.525 115.660  0.00  0.00     0.006 C 
ENDBRANCH   8   9
BRANCH   8  11
ATOM     11  C   LIG d   1      -5.828  76.056 115.147  0.00  0.00     0.028 C 
ATOM     12  C   LIG d   1      -6.445  74.702 115.532  0.00  0.00     0.006 C 
ENDBRANCH   8  11
ENDBRANCH   7   8
ENDBRANCH   1   7
BRANCH   6  13
ATOM     13  N   LIG d   1      -4.504  78.627 119.195  0.00  0.00    -0.311 N 
ATOM     14  C   LIG d   1      -3.326  79.235 119.326  0.00  0.00     0.210 C 
ATOM     15  C   LIG d   1      -2.199  78.351 119.869  0.00  0.00     0.109 C 
ATOM     16  O   LIG d   1      -3.115  80.431 119.074  0.00  0.00    -0.276 OA
ATOM     17  H   LIG d   1      -4.593  77.664 119.453  0.00  0.00     0.149 HD
ENDBRANCH   6  13
BRANCH   5  18
ATOM     18  N   LIG d   1      -5.932  80.960 120.555  0.00  0.00     0.381 N 
ATOM     19  H   LIG d   1      -6.232  81.853 120.218  0.00  0.00    -0.090 HD
ATOM     20  H   LIG d   1      -4.940  80.888 120.414  0.00  0.00    -0.090 HD
ATOM     21  H   LIG d   1      -6.145  80.874 121.524  0.00  0.00    -0.090 HD
ENDBRANCH   5  18
BRANCH   3  22
ATOM     22  C   LIG d   1      -9.908  79.709 118.197  0.00  0.00     0.382 C 
ATOM     23  O   LIG d   1     -10.642  78.722 118.445  0.00  0.00    -0.241 OA
ATOM     24  O   LIG d   1     -10.423  80.772 117.801  0.00  0.00    -0.241 OA
ENDBRANCH   3  22
TORSDOF 7
ENDMDL
MODEL 8
REMARK VINA RESULT:      -4.5      2.128      5.196
REMARK  7 active torsions:
REMARK  status: ('A' for Active; 'I' for Inactive)
REMARK    1  A    between atoms: C_2  and  C_3 
REMARK    2  A    between atoms: C_3  and  O_6 
REMARK    3  A    between atoms: C_3  and  C_4 
REMARK    4  A    between atoms: C_7  and  O_6 
REMARK    5  A    between atoms: C_9  and  C_10 
REMARK    6  A    between atoms: N_15  and  C_14 
REMARK    7  A    between atoms: N_20  and  C_19 
REMARK       I    between atoms: C_22  and  N_20 
ROOT
ATOM      1  C   LIG d   1      -2.758  76.027 116.764  0.00  0.00     0.161 C 
ATOM      2  C   LIG d   1      -3.679  75.444 115.878  0.00  0.00     0.016 C 
ATOM      3  C   LIG d   1      -4.945  76.005 115.591  0.00  0.00     0.038 C 
ATOM      4  C   LIG d   1      -5.316  77.275 116.059  0.00  0.00     0.028 C 
ATOM      5  C   LIG d   1      -4.625  77.667 117.360  0.00  0.00    -0.047 C 
ATOM      6  C   LIG d   1      -3.101  77.468 117.198  0.00  0.00     0.091 C 
ENDROOT
BRANCH   1   7
ATOM      7  O   LIG d   1      -1.434  75.976 116.197  0.00  0.00    -0.368 OA
BRANCH   7   8
ATOM      8  C   LIG d   1      -0.617  74.846 116.587  0.00  0.00     0.119 C 
BRANCH   8   9
ATOM      9  C   LIG d   1       0.530  75.385 117.464  0.00  0.00     0.028 C 
ATOM     10  C   LIG d   1       0.268  75.181 118.965  0.00  0.00     0.006 C 
ENDBRANCH   8   9
BRANCH   8  11
ATOM     11  C   LIG d   1       0.066  74.206 115.375  0.00  0.00     0.028 C 
ATOM     12  C   LIG d   1       0.977  75.186 114.618  0.00  0.00     0.006 C 
ENDBRANCH   8  11
ENDBRANCH   7   8
ENDBRANCH   1   7
BRANCH   6  13
ATOM     13  N   LIG d   1      -2.356  77.749 118.453  0.00  0.00    -0.311 N 
ATOM     14  C   LIG d   1      -1.490  78.753 118.582  0.00  0.00     0.210 C 
ATOM     15  C   LIG d   1      -0.816  78.853 119.954  0.00  0.00     0.109 C 
ATOM     16  O   LIG d   1      -1.240  79.590 117.701  0.00  0.00    -0.276 OA
ATOM     17  H   LIG d   1      -2.521  77.138 119.228  0.00  0.00     0.149 HD
ENDBRANCH   6  13
BRANCH   5  18
ATOM     18  N   LIG d   1      -4.997  79.063 117.658  0.00  0.00     0.381 N 
ATOM     19  H   LIG d   1      -4.898  79.238 118.639  0.00  0.00    -0.090 HD
ATOM     20  H   LIG d   1      -5.960  79.204 117.408  0.00  0.00    -0.090 HD
ATOM     21  H   LIG d   1      -4.418  79.688 117.143  0.00  0.00    -0.090 HD
ENDBRANCH   5  18
BRANCH   3  22
ATOM     22  C   LIG d   1      -5.870  75.276 114.860  0.00  0.00     0.382 C 
ATOM     23  O   LIG d   1      -5.514  74.231 114.263  0.00  0.00    -0.241 OA
ATOM     24  O   LIG d   1      -7.046  75.672 114.754  0.00  0.00    -0.241 OA
ENDBRANCH   3  22
TORSDOF 7
ENDMDL
MODEL 9
REMARK VINA RESULT:      -4.3     14.595     17.141
REMARK  7 active torsions:
REMARK  status: ('A' for Active; 'I' for Inactive)
REMARK    1  A    between atoms: C_2  and  C_3 
REMARK    2  A    between atoms: C_3  and  O_6 
REMARK    3  A    between atoms: C_3  and  C_4 
REMARK    4  A    between atoms: C_7  and  O_6 
REMARK    5  A    between atoms: C_9  and  C_10 
REMARK    6  A    between atoms: N_15  and  C_14 
REMARK    7  A    between atoms: N_20  and  C_19 
REMARK       I    between atoms: C_22  and  N_20 
ROOT
ATOM      1  C   LIG d   1     -16.457  64.952 116.747  0.00  0.00     0.161 C 
ATOM      2  C   LIG d   1     -16.421  66.296 116.340  0.00  0.00     0.016 C 
ATOM      3  C   LIG d   1     -15.791  67.318 117.087  0.00  0.00     0.038 C 
ATOM      4  C   LIG d   1     -15.018  67.037 118.223  0.00  0.00     0.028 C 
ATOM      5  C   LIG d   1     -15.446  65.765 118.948  0.00  0.00    -0.047 C 
ATOM      6  C   LIG d   1     -15.524  64.608 117.926  0.00  0.00     0.091 C 
ENDROOT
BRANCH   1   7
ATOM      7  O   LIG d   1     -16.179  64.094 115.622  0.00  0.00    -0.368 OA
BRANCH   7   8
ATOM      8  C   LIG d   1     -17.281  63.276 115.157  0.00  0.00     0.119 C 
BRANCH   8   9
ATOM      9  C   LIG d   1     -17.748  63.853 113.807  0.00  0.00     0.028 C 
ATOM     10  C   LIG d   1     -18.967  64.780 113.955  0.00  0.00     0.006 C 
ENDBRANCH   8   9
BRANCH   8  11
ATOM     11  C   LIG d   1     -18.492  63.391 116.088  0.00  0.00     0.028 C 
ATOM     12  C   LIG d   1     -18.909  62.041 116.692  0.00  0.00     0.006 C 
ENDBRANCH   8  11
ENDBRANCH   7   8
ENDBRANCH   1   7
BRANCH   6  13
ATOM     13  N   LIG d   1     -16.017  63.345 118.537  0.00  0.00    -0.311 N 
ATOM     14  C   LIG d   1     -15.358  62.190 118.465  0.00  0.00     0.210 C 
ATOM     15  C   LIG d   1     -16.052  61.006 119.145  0.00  0.00     0.109 C 
ATOM     16  O   LIG d   1     -14.249  62.040 117.930  0.00  0.00    -0.276 OA
ATOM     17  H   LIG d   1     -16.894  63.383 119.017  0.00  0.00     0.149 HD
ENDBRANCH   6  13
BRANCH   5  18
ATOM     18  N   LIG d   1     -14.472  65.519 120.028  0.00  0.00     0.381 N 
ATOM     19  H   LIG d   1     -14.312  64.536 120.122  0.00  0.00    -0.090 HD
ATOM     20  H   LIG d   1     -14.853  65.860 120.893  0.00  0.00    -0.090 HD
ATOM     21  H   LIG d   1     -13.615  65.985 119.827  0.00  0.00    -0.090 HD
ENDBRANCH   5  18
BRANCH   3  22
ATOM     22  C   LIG d   1     -15.965  68.644 116.720  0.00  0.00     0.382 C 
ATOM     23  O   LIG d   1     -15.749  69.000 115.537  0.00  0.00    -0.241 OA
ATOM     24  O   LIG d   1     -16.293  69.496 117.567  0.00  0.00    -0.241 OA
ENDBRANCH   3  22
TORSDOF 7
ENDMDL
