MODEL 1
REMARK VINA RESULT:      -5.6      0.000      0.000
REMARK  7 active torsions:
REMARK  status: ('A' for Active; 'I' for Inactive)
REMARK    1  A    between atoms: C_2  and  C_3 
REMARK    2  A    between atoms: C_3  and  O_6 
REMARK    3  A    between atoms: C_3  and  C_4 
REMARK    4  A    between atoms: C_7  and  O_6 
REMARK    5  A    between atoms: C_9  and  C_10 
REMARK    6  A    between atoms: N_15  and  C_14 
REMARK    7  A    between atoms: N_20  and  C_19 
REMARK       I    between atoms: C_22  and  N_20 
ROOT
ATOM      1  C   LIG d   1      -5.893  76.052 116.982  0.00  0.00     0.161 C 
ATOM      2  C   LIG d   1      -6.185  74.778 116.468  0.00  0.00     0.016 C 
ATOM      3  C   LIG d   1      -7.484  74.221 116.461  0.00  0.00     0.038 C 
ATOM      4  C   LIG d   1      -8.613  74.967 116.833  0.00  0.00     0.028 C 
ATOM      5  C   LIG d   1      -8.303  76.078 117.831  0.00  0.00    -0.047 C 
ATOM      6  C   LIG d   1      -7.128  76.924 117.290  0.00  0.00     0.091 C 
ENDROOT
BRANCH   1   7
ATOM      7  O   LIG d   1      -5.000  76.746 116.088  0.00  0.00    -0.368 OA
BRANCH   7   8
ATOM      8  C   LIG d   1      -3.758  76.069 115.775  0.00  0.00     0.119 C 
BRANCH   8   9
ATOM      9  C   LIG d   1      -2.804  76.276 116.968  0.00  0.00     0.028 C 
ATOM     10  C   LIG d   1      -2.282  74.947 117.539  0.00  0.00     0.006 C 
ENDBRANCH   8   9
BRANCH   8  11
ATOM     11  C   LIG d   1      -3.056  76.717 114.578  0.00  0.00     0.028 C 
ATOM     12  C   LIG d   1      -2.717  78.197 114.815  0.00  0.00     0.006 C 
ENDBRANCH   8  11
ENDBRANCH   7   8
ENDBRANCH   1   7
BRANCH   6  13
ATOM     13  N   LIG d   1      -6.705  77.982 118.244  0.00  0.00    -0.311 N 
ATOM     14  C   LIG d   1      -7.186  79.224 118.222  0.00  0.00     0.210 C 
ATOM     15  C   LIG d   1      -6.600  80.163 119.282  0.00  0.00     0.109 C 
ATOM     16  O   LIG d   1      -8.064  79.629 117.446  0.00  0.00    -0.276 OA
ATOM     17  H   LIG d   1      -6.018  77.732 118.928  0.00  0.00     0.149 HD
ENDBRANCH   6  13
BRANCH   5  18
ATOM     18  N   LIG d   1      -9.538  76.860 118.025  0.00  0.00     0.381 N 
ATOM     19  H   LIG d   1      -9.465  77.407 118.860  0.00  0.00    -0.090 HD
ATOM     20  H   LIG d   1     -10.311  76.226 118.129  0.00  0.00    -0.090 HD
ATOM     21  H   LIG d   1      -9.691  77.456 117.241  0.00  0.00    -0.090 HD
ENDBRANCH   5  18
BRANCH   3  22
ATOM     22  C   LIG d   1      -7.659  72.889 116.117  0.00  0.00     0.382 C 
ATOM     23  O   LIG d   1      -8.681  72.271 116.503  0.00  0.00    -0.241 OA
ATOM     24  O   LIG d   1      -6.788  72.286 115.463  0.00  0.00    -0.241 OA
ENDBRANCH   3  22
TORSDOF 7
ENDMDL
MODEL 2
REMARK VINA RESULT:      -5.5      2.476      4.259
REMARK  7 active torsions:
REMARK  status: ('A' for Active; 'I' for Inactive)
REMARK    1  A    between atoms: C_2  and  C_3 
REMARK    2  A    between atoms: C_3  and  O_6 
REMARK    3  A    between atoms: C_3  and  C_4 
REMARK    4  A    between atoms: C_7  and  O_6 
REMARK    5  A    between atoms: C_9  and  C_10 
REMARK    6  A    between atoms: N_15  and  C_14 
REMARK    7  A    between atoms: N_20  and  C_19 
REMARK       I    between atoms: C_22  and  N_20 
ROOT
ATOM      1  C   LIG d   1      -6.410  77.741 117.677  0.00  0.00     0.161 C 
ATOM      2  C   LIG d   1      -7.721  77.327 117.967  0.00  0.00     0.016 C 
ATOM      3  C   LIG d   1      -8.751  78.217 118.351  0.00  0.00     0.038 C 
ATOM      4  C   LIG d   1      -8.577  79.609 118.323  0.00  0.00     0.028 C 
ATOM      5  C   LIG d   1      -7.129  80.042 118.525  0.00  0.00    -0.047 C 
ATOM      6  C   LIG d   1      -6.231  79.267 117.535  0.00  0.00     0.091 C 
ENDROOT
BRANCH   1   7
ATOM      7  O   LIG d   1      -5.936  77.068 116.495  0.00  0.00    -0.368 OA
BRANCH   7   8
ATOM      8  C   LIG d   1      -5.573  75.675 116.657  0.00  0.00     0.119 C 
BRANCH   8   9
ATOM      9  C   LIG d   1      -4.042  75.575 116.513  0.00  0.00     0.028 C 
ATOM     10  C   LIG d   1      -3.455  76.723 115.674  0.00  0.00     0.006 C 
ENDBRANCH   8   9
BRANCH   8  11
ATOM     11  C   LIG d   1      -6.143  74.815 115.525  0.00  0.00     0.028 C 
ATOM     12  C   LIG d   1      -7.361  73.986 115.961  0.00  0.00     0.006 C 
ENDBRANCH   8  11
ENDBRANCH   7   8
ENDBRANCH   1   7
BRANCH   6  13
ATOM     13  N   LIG d   1      -4.788  79.570 117.722  0.00  0.00    -0.311 N 
ATOM     14  C   LIG d   1      -4.125  80.465 116.992  0.00  0.00     0.210 C 
ATOM     15  C   LIG d   1      -2.639  80.608 117.336  0.00  0.00     0.109 C 
ATOM     16  O   LIG d   1      -4.634  81.177 116.114  0.00  0.00    -0.276 OA
ATOM     17  H   LIG d   1      -4.304  79.059 118.435  0.00  0.00     0.149 HD
ENDBRANCH   6  13
BRANCH   5  18
ATOM     18  N   LIG d   1      -7.071  81.504 118.337  0.00  0.00     0.381 N 
ATOM     19  H   LIG d   1      -7.697  81.953 118.975  0.00  0.00    -0.090 HD
ATOM     20  H   LIG d   1      -7.365  81.723 117.401  0.00  0.00    -0.090 HD
ATOM     21  H   LIG d   1      -6.142  81.830 118.486  0.00  0.00    -0.090 HD
ENDBRANCH   5  18
BRANCH   3  22
ATOM     22  C   LIG d   1      -9.960  77.713 118.805  0.00  0.00     0.382 C 
ATOM     23  O   LIG d   1     -10.385  78.032 119.942  0.00  0.00    -0.241 OA
ATOM     24  O   LIG d   1     -10.610  76.908 118.111  0.00  0.00    -0.241 OA
ENDBRANCH   3  22
TORSDOF 7
ENDMDL
MODEL 3
REMARK VINA RESULT:      -5.5      2.078      4.859
REMARK  7 active torsions:
REMARK  status: ('A' for Active; 'I' for Inactive)
REMARK    1  A    between atoms: C_2  and  C_3 
REMARK    2  A    between atoms: C_3  and  O_6 
REMARK    3  A    between atoms: C_3  and  C_4 
REMARK    4  A    between atoms: C_7  and  O_6 
REMARK    5  A    between atoms: C_9  and  C_10 
REMARK    6  A    between atoms: N_15  and  C_14 
REMARK    7  A    between atoms: N_20  and  C_19 
REMARK       I    between atoms: C_22  and  N_20 
ROOT
ATOM      1  C   LIG d   1      -5.768  76.093 117.036  0.00  0.00     0.161 C 
ATOM      2  C   LIG d   1      -4.575  75.355 116.953  0.00  0.00     0.016 C 
ATOM      3  C   LIG d   1      -3.369  75.754 117.574  0.00  0.00     0.038 C 
ATOM      4  C   LIG d   1      -3.312  76.847 118.450  0.00  0.00     0.028 C 
ATOM      5  C   LIG d   1      -4.368  77.909 118.163  0.00  0.00    -0.047 C 
ATOM      6  C   LIG d   1      -5.754  77.229 118.079  0.00  0.00     0.091 C 
ENDROOT
BRANCH   1   7
ATOM      7  O   LIG d   1      -6.876  75.204 117.278  0.00  0.00    -0.368 OA
BRANCH   7   8
ATOM      8  C   LIG d   1      -7.548  74.688 116.103  0.00  0.00     0.119 C 
BRANCH   8   9
ATOM      9  C   LIG d   1      -9.065  74.793 116.353  0.00  0.00     0.028 C 
ATOM     10  C   LIG d   1      -9.406  75.772 117.490  0.00  0.00     0.006 C 
ENDBRANCH   8   9
BRANCH   8  11
ATOM     11  C   LIG d   1      -7.272  73.193 115.914  0.00  0.00     0.028 C 
ATOM     12  C   LIG d   1      -8.305  72.302 116.622  0.00  0.00     0.006 C 
ENDBRANCH   8  11
ENDBRANCH   7   8
ENDBRANCH   1   7
BRANCH   6  13
ATOM     13  N   LIG d   1      -6.833  78.185 117.718  0.00  0.00    -0.311 N 
ATOM     14  C   LIG d   1      -7.589  78.812 118.617  0.00  0.00     0.210 C 
ATOM     15  C   LIG d   1      -8.658  79.739 118.030  0.00  0.00     0.109 C 
ATOM     16  O   LIG d   1      -7.455  78.713 119.846  0.00  0.00    -0.276 OA
ATOM     17  H   LIG d   1      -6.990  78.348 116.742  0.00  0.00     0.149 HD
ENDBRANCH   6  13
BRANCH   5  18
ATOM     18  N   LIG d   1      -4.285  78.922 119.232  0.00  0.00     0.381 N 
ATOM     19  H   LIG d   1      -4.042  78.482 120.097  0.00  0.00    -0.090 HD
ATOM     20  H   LIG d   1      -5.185  79.355 119.341  0.00  0.00    -0.090 HD
ATOM     21  H   LIG d   1      -3.603  79.610 118.998  0.00  0.00    -0.090 HD
ENDBRANCH   5  18
BRANCH   3  22
ATOM     22  C   LIG d   1      -2.193  75.078 117.287  0.00  0.00     0.382 C 
ATOM     23  O   LIG d   1      -1.921  74.010 117.887  0.00  0.00    -0.241 OA
ATOM     24  O   LIG d   1      -1.379  75.545 116.468  0.00  0.00    -0.241 OA
ENDBRANCH   3  22
TORSDOF 7
ENDMDL
MODEL 4
REMARK VINA RESULT:      -5.3      2.312      4.582
REMARK  7 active torsions:
REMARK  status: ('A' for Active; 'I' for Inactive)
REMARK    1  A    between atoms: C_2  and  C_3 
REMARK    2  A    between atoms: C_3  and  O_6 
REMARK    3  A    between atoms: C_3  and  C_4 
REMARK    4  A    between atoms: C_7  and  O_6 
REMARK    5  A    between atoms: C_9  and  C_10 
REMARK    6  A    between atoms: N_15  and  C_14 
REMARK    7  A    between atoms: N_20  and  C_19 
REMARK       I    between atoms: C_22  and  N_20 
ROOT
ATOM      1  C   LIG d   1      -6.514  76.729 118.406  0.00  0.00     0.161 C 
ATOM      2  C   LIG d   1      -5.469  76.634 117.471  0.00  0.00     0.016 C 
ATOM      3  C   LIG d   1      -5.583  75.938 116.246  0.00  0.00     0.038 C 
ATOM      4  C   LIG d   1      -6.805  75.413 115.801  0.00  0.00     0.028 C 
ATOM      5  C   LIG d   1      -7.756  75.048 116.936  0.00  0.00    -0.047 C 
ATOM      6  C   LIG d   1      -7.889  76.258 117.889  0.00  0.00     0.091 C 
ENDROOT
BRANCH   1   7
ATOM      7  O   LIG d   1      -6.601  78.078 118.905  0.00  0.00    -0.368 OA
BRANCH   7   8
ATOM      8  C   LIG d   1      -7.357  79.011 118.093  0.00  0.00     0.119 C 
BRANCH   8   9
ATOM      9  C   LIG d   1      -6.409  80.164 117.709  0.00  0.00     0.028 C 
ATOM     10  C   LIG d   1      -5.558  80.643 118.897  0.00  0.00     0.006 C 
ENDBRANCH   8   9
BRANCH   8  11
ATOM     11  C   LIG d   1      -8.485  79.663 118.897  0.00  0.00     0.028 C 
ATOM     12  C   LIG d   1      -9.689  80.054 118.026  0.00  0.00     0.006 C 
ENDBRANCH   8  11
ENDBRANCH   7   8
ENDBRANCH   1   7
BRANCH   6  13
ATOM     13  N   LIG d   1      -8.736  75.958 119.072  0.00  0.00    -0.311 N 
ATOM     14  C   LIG d   1     -10.042  76.213 119.123  0.00  0.00     0.210 C 
ATOM     15  C   LIG d   1     -10.722  75.843 120.445  0.00  0.00     0.109 C 
ATOM     16  O   LIG d   1     -10.709  76.680 118.188  0.00  0.00    -0.276 OA
ATOM     17  H   LIG d   1      -8.282  75.548 119.865  0.00  0.00     0.149 HD
ENDBRANCH   6  13
BRANCH   5  18
ATOM     18  N   LIG d   1      -9.039  74.645 116.330  0.00  0.00     0.381 N 
ATOM     19  H   LIG d   1      -9.798  74.982 116.888  0.00  0.00    -0.090 HD
ATOM     20  H   LIG d   1      -9.087  73.642 116.307  0.00  0.00    -0.090 HD
ATOM     21  H   LIG d   1      -9.110  75.010 115.406  0.00  0.00    -0.090 HD
ENDBRANCH   5  18
BRANCH   3  22
ATOM     22  C   LIG d   1      -4.454  75.726 115.469  0.00  0.00     0.382 C 
ATOM     23  O   LIG d   1      -3.319  75.705 116.004  0.00  0.00    -0.241 OA
ATOM     24  O   LIG d   1      -4.552  75.599 114.234  0.00  0.00    -0.241 OA
ENDBRANCH   3  22
TORSDOF 7
ENDMDL
MODEL 5
REMARK VINA RESULT:      -5.2      2.375      4.810
REMARK  7 active torsions:
REMARK  status: ('A' for Active; 'I' for Inactive)
REMARK    1  A    between atoms: C_2  and  C_3 
REMARK    2  A    between atoms: C_3  and  O_6 
REMARK    3  A    between atoms: C_3  and  C_4 
REMARK    4  A    between atoms: C_7  and  O_6 
REMARK    5  A    between atoms: C_9  and  C_10 
REMARK    6  A    between atoms: N_15  and  C_14 
REMARK    7  A    between atoms: N_20  and  C_19 
REMARK       I    between atoms: C_22  and  N_20 
ROOT
ATOM      1  C   LIG d   1      -6.561  77.003 117.266  0.00  0.00     0.161 C 
ATOM      2  C   LIG d   1      -5.394  76.226 117.351  0.00  0.00     0.016 C 
ATOM      3  C   LIG d   1      -4.316  76.532 118.214  0.00  0.00     0.038 C 
ATOM      4  C   LIG d   1      -4.397  77.559 119.166  0.00  0.00     0.028 C 
ATOM      5  C   LIG d   1      -5.352  78.679 118.769  0.00  0.00    -0.047 C 
ATOM      6  C   LIG d   1      -6.714  78.063 118.377  0.00  0.00     0.091 C 
ENDROOT
BRANCH   1   7
ATOM      7  O   LIG d   1      -7.718  76.144 117.230  0.00  0.00    -0.368 OA
BRANCH   7   8
ATOM      8  C   LIG d   1      -7.469  74.731 117.428  0.00  0.00     0.119 C 
BRANCH   8   9
ATOM      9  C   LIG d   1      -8.261  73.966 116.349  0.00  0.00     0.028 C 
ATOM     10  C   LIG d   1      -7.805  72.504 116.212  0.00  0.00     0.006 C 
ENDBRANCH   8   9
BRANCH   8  11
ATOM     11  C   LIG d   1      -8.035  74.247 118.766  0.00  0.00     0.028 C 
ATOM     12  C   LIG d   1      -8.988  75.265 119.413  0.00  0.00     0.006 C 
ENDBRANCH   8  11
ENDBRANCH   7   8
ENDBRANCH   1   7
BRANCH   6  13
ATOM     13  N   LIG d   1      -7.681  79.084 117.894  0.00  0.00    -0.311 N 
ATOM     14  C   LIG d   1      -8.850  79.323 118.485  0.00  0.00     0.210 C 
ATOM     15  C   LIG d   1      -9.704  80.403 117.813  0.00  0.00     0.109 C 
ATOM     16  O   LIG d   1      -9.247  78.766 119.519  0.00  0.00    -0.276 OA
ATOM     17  H   LIG d   1      -7.425  79.604 117.078  0.00  0.00     0.149 HD
ENDBRANCH   6  13
BRANCH   5  18
ATOM     18  N   LIG d   1      -5.445  79.611 119.908  0.00  0.00     0.381 N 
ATOM     19  H   LIG d   1      -6.310  80.113 119.866  0.00  0.00    -0.090 HD
ATOM     20  H   LIG d   1      -4.692  80.274 119.849  0.00  0.00    -0.090 HD
ATOM     21  H   LIG d   1      -5.387  79.107 120.766  0.00  0.00    -0.090 HD
ENDBRANCH   5  18
BRANCH   3  22
ATOM     22  C   LIG d   1      -3.125  75.831 118.101  0.00  0.00     0.382 C 
ATOM     23  O   LIG d   1      -2.949  75.045 117.139  0.00  0.00    -0.241 OA
ATOM     24  O   LIG d   1      -2.242  75.941 118.973  0.00  0.00    -0.241 OA
ENDBRANCH   3  22
TORSDOF 7
ENDMDL
MODEL 6
REMARK VINA RESULT:      -4.9      2.672      6.454
REMARK  7 active torsions:
REMARK  status: ('A' for Active; 'I' for Inactive)
REMARK    1  A    between atoms: C_2  and  C_3 
REMARK    2  A    between atoms: C_3  and  O_6 
REMARK    3  A    between atoms: C_3  and  C_4 
REMARK    4  A    between atoms: C_7  and  O_6 
REMARK    5  A    between atoms: C_9  and  C_10 
REMARK    6  A    between atoms: N_15  and  C_14 
REMARK    7  A    between atoms: N_20  and  C_19 
REMARK       I    between atoms: C_22  and  N_20 
ROOT
ATOM      1  C   LIG d   1      -6.369  78.594 117.818  0.00  0.00     0.161 C 
ATOM      2  C   LIG d   1      -5.498  79.660 117.540  0.00  0.00     0.016 C 
ATOM      3  C   LIG d   1      -4.258  79.500 116.879  0.00  0.00     0.038 C 
ATOM      4  C   LIG d   1      -3.873  78.276 116.312  0.00  0.00     0.028 C 
ATOM      5  C   LIG d   1      -4.487  77.066 117.007  0.00  0.00    -0.047 C 
ATOM      6  C   LIG d   1      -6.016  77.269 117.109  0.00  0.00     0.091 C 
ENDROOT
BRANCH   1   7
ATOM      7  O   LIG d   1      -7.724  78.979 117.515  0.00  0.00    -0.368 OA
BRANCH   7   8
ATOM      8  C   LIG d   1      -8.454  79.634 118.581  0.00  0.00     0.119 C 
BRANCH   8   9
ATOM      9  C   LIG d   1      -9.870  79.027 118.614  0.00  0.00     0.028 C 
ATOM     10  C   LIG d   1      -9.850  77.489 118.583  0.00  0.00     0.006 C 
ENDBRANCH   8   9
BRANCH   8  11
ATOM     11  C   LIG d   1      -8.659  81.123 118.284  0.00  0.00     0.028 C 
ATOM     12  C   LIG d   1      -9.623  81.369 117.112  0.00  0.00     0.006 C 
ENDBRANCH   8  11
ENDBRANCH   7   8
ENDBRANCH   1   7
BRANCH   6  13
ATOM     13  N   LIG d   1      -6.686  76.170 117.851  0.00  0.00    -0.311 N 
ATOM     14  C   LIG d   1      -7.254  75.123 117.256  0.00  0.00     0.210 C 
ATOM     15  C   LIG d   1      -7.907  74.114 118.206  0.00  0.00     0.109 C 
ATOM     16  O   LIG d   1      -7.252  74.918 116.033  0.00  0.00    -0.276 OA
ATOM     17  H   LIG d   1      -6.707  76.240 118.850  0.00  0.00     0.149 HD
ENDBRANCH   6  13
BRANCH   5  18
ATOM     18  N   LIG d   1      -4.113  75.869 116.232  0.00  0.00     0.381 N 
ATOM     19  H   LIG d   1      -4.656  75.825 115.393  0.00  0.00    -0.090 HD
ATOM     20  H   LIG d   1      -4.313  75.051 116.780  0.00  0.00    -0.090 HD
ATOM     21  H   LIG d   1      -3.143  75.898 116.007  0.00  0.00    -0.090 HD
ENDBRANCH   5  18
BRANCH   3  22
ATOM     22  C   LIG d   1      -3.372  80.564 116.814  0.00  0.00     0.382 C 
ATOM     23  O   LIG d   1      -2.818  80.984 117.859  0.00  0.00    -0.241 OA
ATOM     24  O   LIG d   1      -3.152  81.139 115.731  0.00  0.00    -0.241 OA
ENDBRANCH   3  22
TORSDOF 7
ENDMDL
MODEL 7
REMARK VINA RESULT:      -4.8      3.547      5.948
REMARK  7 active torsions:
REMARK  status: ('A' for Active; 'I' for Inactive)
REMARK    1  A    between atoms: C_2  and  C_3 
REMARK    2  A    between atoms: C_3  and  O_6 
REMARK    3  A    between atoms: C_3  and  C_4 
REMARK    4  A    between atoms: C_7  and  O_6 
REMARK    5  A    between atoms: C_9  and  C_10 
REMARK    6  A    between atoms: N_15  and  C_14 
REMARK    7  A    between atoms: N_20  and  C_19 
REMARK       I    between atoms: C_22  and  N_20 
ROOT
ATOM      1  C   LIG d   1      -3.123  77.477 115.396  0.00  0.00     0.161 C 
ATOM      2  C   LIG d   1      -2.531  76.222 115.616  0.00  0.00     0.016 C 
ATOM      3  C   LIG d   1      -1.200  76.057 116.064  0.00  0.00     0.038 C 
ATOM      4  C   LIG d   1      -0.414  77.147 116.470  0.00  0.00     0.028 C 
ATOM      5  C   LIG d   1      -0.796  78.456 115.787  0.00  0.00    -0.047 C 
ATOM      6  C   LIG d   1      -2.318  78.676 115.939  0.00  0.00     0.091 C 
ENDROOT
BRANCH   1   7
ATOM      7  O   LIG d   1      -4.461  77.487 115.933  0.00  0.00    -0.368 OA
BRANCH   7   8
ATOM      8  C   LIG d   1      -4.754  76.479 116.931  0.00  0.00     0.119 C 
BRANCH   8   9
ATOM      9  C   LIG d   1      -6.162  75.928 116.633  0.00  0.00     0.028 C 
ATOM     10  C   LIG d   1      -6.212  75.125 115.322  0.00  0.00     0.006 C 
ENDBRANCH   8   9
BRANCH   8  11
ATOM     11  C   LIG d   1      -4.847  77.092 118.332  0.00  0.00     0.028 C 
ATOM     12  C   LIG d   1      -3.537  76.967 119.125  0.00  0.00     0.006 C 
ENDBRANCH   8  11
ENDBRANCH   7   8
ENDBRANCH   1   7
BRANCH   6  13
ATOM     13  N   LIG d   1      -2.789  79.893 115.227  0.00  0.00    -0.311 N 
ATOM     14  C   LIG d   1      -2.855  81.095 115.795  0.00  0.00     0.210 C 
ATOM     15  C   LIG d   1      -3.388  82.210 114.890  0.00  0.00     0.109 C 
ATOM     16  O   LIG d   1      -2.494  81.351 116.954  0.00  0.00    -0.276 OA
ATOM     17  H   LIG d   1      -3.072  79.782 114.273  0.00  0.00     0.149 HD
ENDBRANCH   6  13
BRANCH   5  18
ATOM     18  N   LIG d   1       0.008  79.529 116.402  0.00  0.00     0.381 N 
ATOM     19  H   LIG d   1       0.691  79.858 115.749  0.00  0.00    -0.090 HD
ATOM     20  H   LIG d   1       0.489  79.158 117.202  0.00  0.00    -0.090 HD
ATOM     21  H   LIG d   1      -0.584  80.281 116.681  0.00  0.00    -0.090 HD
ENDBRANCH   5  18
BRANCH   3  22
ATOM     22  C   LIG d   1      -0.629  74.794 116.072  0.00  0.00     0.382 C 
ATOM     23  O   LIG d   1      -0.610  74.121 117.131  0.00  0.00    -0.241 OA
ATOM     24  O   LIG d   1      -0.092  74.337 115.045  0.00  0.00    -0.241 OA
ENDBRANCH   3  22
TORSDOF 7
ENDMDL
MODEL 8
REMARK VINA RESULT:      -4.7      3.399      6.870
REMARK  7 active torsions:
REMARK  status: ('A' for Active; 'I' for Inactive)
REMARK    1  A    between atoms: C_2  and  C_3 
REMARK    2  A    between atoms: C_3  and  O_6 
REMARK    3  A    between atoms: C_3  and  C_4 
REMARK    4  A    between atoms: C_7  and  O_6 
REMARK    5  A    between atoms: C_9  and  C_10 
REMARK    6  A    between atoms: N_15  and  C_14 
REMARK    7  A    between atoms: N_20  and  C_19 
REMARK       I    between atoms: C_22  and  N_20 
ROOT
ATOM      1  C   LIG d   1      -3.206  77.412 117.621  0.00  0.00     0.161 C 
ATOM      2  C   LIG d   1      -3.485  78.489 116.763  0.00  0.00     0.016 C 
ATOM      3  C   LIG d   1      -2.598  78.932 115.755  0.00  0.00     0.038 C 
ATOM      4  C   LIG d   1      -1.428  78.227 115.435  0.00  0.00     0.028 C 
ATOM      5  C   LIG d   1      -0.860  77.432 116.607  0.00  0.00    -0.047 C 
ATOM      6  C   LIG d   1      -1.984  76.562 117.214  0.00  0.00     0.091 C 
ENDROOT
BRANCH   1   7
ATOM      7  O   LIG d   1      -4.374  76.579 117.755  0.00  0.00    -0.368 OA
BRANCH   7   8
ATOM      8  C   LIG d   1      -5.323  76.631 116.662  0.00  0.00     0.119 C 
BRANCH   8   9
ATOM      9  C   LIG d   1      -6.734  76.715 117.277  0.00  0.00     0.028 C 
ATOM     10  C   LIG d   1      -7.049  78.114 117.832  0.00  0.00     0.006 C 
ENDBRANCH   8   9
BRANCH   8  11
ATOM     11  C   LIG d   1      -5.311  75.331 115.851  0.00  0.00     0.028 C 
ATOM     12  C   LIG d   1      -6.718  74.884 115.421  0.00  0.00     0.006 C 
ENDBRANCH   8  11
ENDBRANCH   7   8
ENDBRANCH   1   7
BRANCH   6  13
ATOM     13  N   LIG d   1      -1.535  75.815 118.418  0.00  0.00    -0.311 N 
ATOM     14  C   LIG d   1      -0.970  74.611 118.366  0.00  0.00     0.210 C 
ATOM     15  C   LIG d   1      -0.600  74.010 119.725  0.00  0.00     0.109 C 
ATOM     16  O   LIG d   1      -0.710  73.996 117.320  0.00  0.00    -0.276 OA
ATOM     17  H   LIG d   1      -1.679  76.254 119.307  0.00  0.00     0.149 HD
ENDBRANCH   6  13
BRANCH   5  18
ATOM     18  N   LIG d   1       0.275  76.639 116.099  0.00  0.00     0.381 N 
ATOM     19  H   LIG d   1       0.148  75.676 116.336  0.00  0.00    -0.090 HD
ATOM     20  H   LIG d   1       1.119  76.963 116.537  0.00  0.00    -0.090 HD
ATOM     21  H   LIG d   1       0.346  76.739 115.110  0.00  0.00    -0.090 HD
ENDBRANCH   5  18
BRANCH   3  22
ATOM     22  C   LIG d   1      -2.858  80.115 115.081  0.00  0.00     0.382 C 
ATOM     23  O   LIG d   1      -2.193  80.415 114.060  0.00  0.00    -0.241 OA
ATOM     24  O   LIG d   1      -3.720  80.908 115.507  0.00  0.00    -0.241 OA
ENDBRANCH   3  22
TORSDOF 7
ENDMDL
MODEL 9
REMARK VINA RESULT:      -4.6     14.505     17.588
REMARK  7 active torsions:
REMARK  status: ('A' for Active; 'I' for Inactive)
REMARK    1  A    between atoms: C_2  and  C_3 
REMARK    2  A    between atoms: C_3  and  O_6 
REMARK    3  A    between atoms: C_3  and  C_4 
REMARK    4  A    between atoms: C_7  and  O_6 
REMARK    5  A    between atoms: C_9  and  C_10 
REMARK    6  A    between atoms: N_15  and  C_14 
REMARK    7  A    between atoms: N_20  and  C_19 
REMARK       I    between atoms: C_22  and  N_20 
ROOT
ATOM      1  C   LIG d   1      10.220  75.786 115.513  0.00  0.00     0.161 C 
ATOM      2  C   LIG d   1       8.904  76.278 115.489  0.00  0.00     0.016 C 
ATOM      3  C   LIG d   1       8.586  77.643 115.306  0.00  0.00     0.038 C 
ATOM      4  C   LIG d   1       9.565  78.595 114.982  0.00  0.00     0.028 C 
ATOM      5  C   LIG d   1      10.955  78.234 115.494  0.00  0.00    -0.047 C 
ATOM      6  C   LIG d   1      11.294  76.792 115.050  0.00  0.00     0.091 C 
ENDROOT
BRANCH   1   7
ATOM      7  O   LIG d   1      10.303  74.573 114.739  0.00  0.00    -0.368 OA
BRANCH   7   8
ATOM      8  C   LIG d   1      10.588  73.362 115.482  0.00  0.00     0.119 C 
BRANCH   8   9
ATOM      9  C   LIG d   1      10.454  73.695 116.980  0.00  0.00     0.028 C 
ATOM     10  C   LIG d   1       9.418  72.807 117.689  0.00  0.00     0.006 C 
ENDBRANCH   8   9
BRANCH   8  11
ATOM     11  C   LIG d   1      12.042  72.921 115.292  0.00  0.00     0.028 C 
ATOM     12  C   LIG d   1      12.841  72.923 116.605  0.00  0.00     0.006 C 
ENDBRANCH   8  11
ENDBRANCH   7   8
ENDBRANCH   1   7
BRANCH   6  13
ATOM     13  N   LIG d   1      12.603  76.329 115.582  0.00  0.00    -0.311 N 
ATOM     14  C   LIG d   1      13.749  76.448 114.913  0.00  0.00     0.210 C 
ATOM     15  C   LIG d   1      14.979  75.887 115.634  0.00  0.00     0.109 C 
ATOM     16  O   LIG d   1      13.869  76.993 113.806  0.00  0.00    -0.276 OA
ATOM     17  H   LIG d   1      12.602  75.903 116.487  0.00  0.00     0.149 HD
ENDBRANCH   6  13
BRANCH   5  18
ATOM     18  N   LIG d   1      11.899  79.238 114.969  0.00  0.00     0.381 N 
ATOM     19  H   LIG d   1      11.486  80.148 115.017  0.00  0.00    -0.090 HD
ATOM     20  H   LIG d   1      12.091  79.030 114.005  0.00  0.00    -0.090 HD
ATOM     21  H   LIG d   1      12.744  79.220 115.495  0.00  0.00    -0.090 HD
ENDBRANCH   5  18
BRANCH   3  22
ATOM     22  C   LIG d   1       7.281  78.076 115.487  0.00  0.00     0.382 C 
ATOM     23  O   LIG d   1       6.363  77.615 114.767  0.00  0.00    -0.241 OA
ATOM     24  O   LIG d   1       7.018  78.953 116.331  0.00  0.00    -0.241 OA
ENDBRANCH   3  22
TORSDOF 7
ENDMDL
