MODEL 1
REMARK VINA RESULT:      -5.6      0.000      0.000
REMARK  7 active torsions:
REMARK  status: ('A' for Active; 'I' for Inactive)
REMARK    1  A    between atoms: C_2  and  C_3 
REMARK    2  A    between atoms: C_3  and  O_6 
REMARK    3  A    between atoms: C_3  and  C_4 
REMARK    4  A    between atoms: C_7  and  O_6 
REMARK    5  A    between atoms: C_9  and  C_10 
REMARK    6  A    between atoms: N_15  and  C_14 
REMARK    7  A    between atoms: N_20  and  C_19 
REMARK       I    between atoms: C_22  and  N_20 
ROOT
ATOM      1  C   LIG d   1      -6.956  77.304 117.483  0.00  0.00     0.161 C 
ATOM      2  C   LIG d   1      -8.155  77.937 117.849  0.00  0.00     0.016 C 
ATOM      3  C   LIG d   1      -8.251  79.319 118.132  0.00  0.00     0.038 C 
ATOM      4  C   LIG d   1      -7.176  80.196 117.919  0.00  0.00     0.028 C 
ATOM      5  C   LIG d   1      -5.813  79.522 118.035  0.00  0.00    -0.047 C 
ATOM      6  C   LIG d   1      -5.797  78.263 117.138  0.00  0.00     0.091 C 
ENDROOT
BRANCH   1   7
ATOM      7  O   LIG d   1      -7.196  76.396 116.391  0.00  0.00    -0.368 OA
BRANCH   7   8
ATOM      8  C   LIG d   1      -6.972  74.991 116.668  0.00  0.00     0.119 C 
BRANCH   8   9
ATOM      9  C   LIG d   1      -6.265  74.384 115.440  0.00  0.00     0.028 C 
ATOM     10  C   LIG d   1      -5.654  75.458 114.524  0.00  0.00     0.006 C 
ENDBRANCH   8   9
BRANCH   8  11
ATOM     11  C   LIG d   1      -8.295  74.230 116.792  0.00  0.00     0.028 C 
ATOM     12  C   LIG d   1      -8.189  72.771 116.321  0.00  0.00     0.006 C 
ENDBRANCH   8  11
ENDBRANCH   7   8
ENDBRANCH   1   7
BRANCH   6  13
ATOM     13  N   LIG d   1      -4.529  77.498 117.258  0.00  0.00    -0.311 N 
ATOM     14  C   LIG d   1      -3.510  77.630 116.411  0.00  0.00     0.210 C 
ATOM     15  C   LIG d   1      -2.304  76.732 116.704  0.00  0.00     0.109 C 
ATOM     16  O   LIG d   1      -3.477  78.429 115.463  0.00  0.00    -0.276 OA
ATOM     17  H   LIG d   1      -4.457  76.849 118.018  0.00  0.00     0.149 HD
ENDBRANCH   6  13
BRANCH   5  18
ATOM     18  N   LIG d   1      -4.791  80.515 117.656  0.00  0.00     0.381 N 
ATOM     19  H   LIG d   1      -4.344  80.872 118.477  0.00  0.00    -0.090 HD
ATOM     20  H   LIG d   1      -5.240  81.280 117.184  0.00  0.00    -0.090 HD
ATOM     21  H   LIG d   1      -4.114  80.097 117.056  0.00  0.00    -0.090 HD
ENDBRANCH   5  18
BRANCH   3  22
ATOM     22  C   LIG d   1      -9.421  79.831 118.671  0.00  0.00     0.382 C 
ATOM     23  O   LIG d   1     -10.509  79.235 118.487  0.00  0.00    -0.241 OA
ATOM     24  O   LIG d   1      -9.409  80.905 119.301  0.00  0.00    -0.241 OA
ENDBRANCH   3  22
TORSDOF 7
ENDMDL
MODEL 2
REMARK VINA RESULT:      -5.4     12.728     14.904
REMARK  7 active torsions:
REMARK  status: ('A' for Active; 'I' for Inactive)
REMARK    1  A    between atoms: C_2  and  C_3 
REMARK    2  A    between atoms: C_3  and  O_6 
REMARK    3  A    between atoms: C_3  and  C_4 
REMARK    4  A    between atoms: C_7  and  O_6 
REMARK    5  A    between atoms: C_9  and  C_10 
REMARK    6  A    between atoms: N_15  and  C_14 
REMARK    7  A    between atoms: N_20  and  C_19 
REMARK       I    between atoms: C_22  and  N_20 
ROOT
ATOM      1  C   LIG d   1      -4.866  91.695 117.475  0.00  0.00     0.161 C 
ATOM      2  C   LIG d   1      -5.619  90.845 116.647  0.00  0.00     0.016 C 
ATOM      3  C   LIG d   1      -6.775  91.263 115.950  0.00  0.00     0.038 C 
ATOM      4  C   LIG d   1      -7.174  92.607 115.913  0.00  0.00     0.028 C 
ATOM      5  C   LIG d   1      -6.737  93.402 117.139  0.00  0.00    -0.047 C 
ATOM      6  C   LIG d   1      -5.222  93.192 117.359  0.00  0.00     0.091 C 
ENDROOT
BRANCH   1   7
ATOM      7  O   LIG d   1      -3.460  91.494 117.231  0.00  0.00    -0.368 OA
BRANCH   7   8
ATOM      8  C   LIG d   1      -2.720  90.827 118.283  0.00  0.00     0.119 C 
BRANCH   8   9
ATOM      9  C   LIG d   1      -1.913  89.687 117.631  0.00  0.00     0.028 C 
ATOM     10  C   LIG d   1      -0.488  90.121 117.248  0.00  0.00     0.006 C 
ENDBRANCH   8   9
BRANCH   8  11
ATOM     11  C   LIG d   1      -3.661  90.140 119.277  0.00  0.00     0.028 C 
ATOM     12  C   LIG d   1      -3.332  88.652 119.480  0.00  0.00     0.006 C 
ENDBRANCH   8  11
ENDBRANCH   7   8
ENDBRANCH   1   7
BRANCH   6  13
ATOM     13  N   LIG d   1      -4.728  93.867 118.588  0.00  0.00    -0.311 N 
ATOM     14  C   LIG d   1      -3.543  94.471 118.667  0.00  0.00     0.210 C 
ATOM     15  C   LIG d   1      -3.222  95.087 120.032  0.00  0.00     0.109 C 
ATOM     16  O   LIG d   1      -2.742  94.582 117.727  0.00  0.00    -0.276 OA
ATOM     17  H   LIG d   1      -5.328  93.852 119.389  0.00  0.00     0.149 HD
ENDBRANCH   6  13
BRANCH   5  18
ATOM     18  N   LIG d   1      -7.097  94.814 116.907  0.00  0.00     0.381 N 
ATOM     19  H   LIG d   1      -8.092  94.905 116.853  0.00  0.00    -0.090 HD
ATOM     20  H   LIG d   1      -6.705  95.109 116.030  0.00  0.00    -0.090 HD
ATOM     21  H   LIG d   1      -6.744  95.382 117.645  0.00  0.00    -0.090 HD
ENDBRANCH   5  18
BRANCH   3  22
ATOM     22  C   LIG d   1      -7.570  90.323 115.311  0.00  0.00     0.382 C 
ATOM     23  O   LIG d   1      -8.316  89.571 115.984  0.00  0.00    -0.241 OA
ATOM     24  O   LIG d   1      -7.517  90.187 114.074  0.00  0.00    -0.241 OA
ENDBRANCH   3  22
TORSDOF 7
ENDMDL
MODEL 3
REMARK VINA RESULT:      -5.1     13.755     16.679
REMARK  7 active torsions:
REMARK  status: ('A' for Active; 'I' for Inactive)
REMARK    1  A    between atoms: C_2  and  C_3 
REMARK    2  A    between atoms: C_3  and  O_6 
REMARK    3  A    between atoms: C_3  and  C_4 
REMARK    4  A    between atoms: C_7  and  O_6 
REMARK    5  A    between atoms: C_9  and  C_10 
REMARK    6  A    between atoms: N_15  and  C_14 
REMARK    7  A    between atoms: N_20  and  C_19 
REMARK       I    between atoms: C_22  and  N_20 
ROOT
ATOM      1  C   LIG d   1      -5.007  92.946 117.644  0.00  0.00     0.161 C 
ATOM      2  C   LIG d   1      -5.055  91.891 116.717  0.00  0.00     0.016 C 
ATOM      3  C   LIG d   1      -6.170  91.634 115.887  0.00  0.00     0.038 C 
ATOM      4  C   LIG d   1      -7.262  92.512 115.820  0.00  0.00     0.028 C 
ATOM      5  C   LIG d   1      -7.478  93.310 117.101  0.00  0.00    -0.047 C 
ATOM      6  C   LIG d   1      -6.144  93.980 117.505  0.00  0.00     0.091 C 
ENDROOT
BRANCH   1   7
ATOM      7  O   LIG d   1      -3.725  93.600 117.574  0.00  0.00    -0.368 OA
BRANCH   7   8
ATOM      8  C   LIG d   1      -2.641  92.954 118.287  0.00  0.00     0.119 C 
BRANCH   8   9
ATOM      9  C   LIG d   1      -2.949  93.063 119.793  0.00  0.00     0.028 C 
ATOM     10  C   LIG d   1      -2.617  91.768 120.555  0.00  0.00     0.006 C 
ENDBRANCH   8   9
BRANCH   8  11
ATOM     11  C   LIG d   1      -1.320  93.702 118.089  0.00  0.00     0.028 C 
ATOM     12  C   LIG d   1      -1.239  94.998 118.911  0.00  0.00     0.006 C 
ENDBRANCH   8  11
ENDBRANCH   7   8
ENDBRANCH   1   7
BRANCH   6  13
ATOM     13  N   LIG d   1      -6.246  94.713 118.794  0.00  0.00    -0.311 N 
ATOM     14  C   LIG d   1      -6.612  95.990 118.884  0.00  0.00     0.210 C 
ATOM     15  C   LIG d   1      -6.632  96.558 120.307  0.00  0.00     0.109 C 
ATOM     16  O   LIG d   1      -6.954  96.697 117.925  0.00  0.00    -0.276 OA
ATOM     17  H   LIG d   1      -6.017  94.205 119.626  0.00  0.00     0.149 HD
ENDBRANCH   6  13
BRANCH   5  18
ATOM     18  N   LIG d   1      -8.558  94.281 116.844  0.00  0.00     0.381 N 
ATOM     19  H   LIG d   1      -9.056  94.023 116.016  0.00  0.00    -0.090 HD
ATOM     20  H   LIG d   1      -8.152  95.188 116.698  0.00  0.00    -0.090 HD
ATOM     21  H   LIG d   1      -9.182  94.310 117.621  0.00  0.00    -0.090 HD
ENDBRANCH   5  18
BRANCH   3  22
ATOM     22  C   LIG d   1      -6.217  90.465 115.142  0.00  0.00     0.382 C 
ATOM     23  O   LIG d   1      -7.292  90.110 114.601  0.00  0.00    -0.241 OA
ATOM     24  O   LIG d   1      -5.210  89.739 115.042  0.00  0.00    -0.241 OA
ENDBRANCH   3  22
TORSDOF 7
ENDMDL
MODEL 4
REMARK VINA RESULT:      -5.1      2.222      5.448
REMARK  7 active torsions:
REMARK  status: ('A' for Active; 'I' for Inactive)
REMARK    1  A    between atoms: C_2  and  C_3 
REMARK    2  A    between atoms: C_3  and  O_6 
REMARK    3  A    between atoms: C_3  and  C_4 
REMARK    4  A    between atoms: C_7  and  O_6 
REMARK    5  A    between atoms: C_9  and  C_10 
REMARK    6  A    between atoms: N_15  and  C_14 
REMARK    7  A    between atoms: N_20  and  C_19 
REMARK       I    between atoms: C_22  and  N_20 
ROOT
ATOM      1  C   LIG d   1      -4.718  76.716 115.818  0.00  0.00     0.161 C 
ATOM      2  C   LIG d   1      -3.780  75.700 115.570  0.00  0.00     0.016 C 
ATOM      3  C   LIG d   1      -2.672  75.443 116.410  0.00  0.00     0.038 C 
ATOM      4  C   LIG d   1      -2.510  76.091 117.644  0.00  0.00     0.028 C 
ATOM      5  C   LIG d   1      -3.153  77.473 117.691  0.00  0.00    -0.047 C 
ATOM      6  C   LIG d   1      -4.620  77.360 117.217  0.00  0.00     0.091 C 
ENDROOT
BRANCH   1   7
ATOM      7  O   LIG d   1      -6.050  76.217 115.588  0.00  0.00    -0.368 OA
BRANCH   7   8
ATOM      8  C   LIG d   1      -6.461  75.095 116.406  0.00  0.00     0.119 C 
BRANCH   8   9
ATOM      9  C   LIG d   1      -6.479  73.846 115.504  0.00  0.00     0.028 C 
ATOM     10  C   LIG d   1      -7.408  72.745 116.043  0.00  0.00     0.006 C 
ENDBRANCH   8   9
BRANCH   8  11
ATOM     11  C   LIG d   1      -7.902  75.260 116.898  0.00  0.00     0.028 C 
ATOM     12  C   LIG d   1      -8.330  76.733 117.003  0.00  0.00     0.006 C 
ENDBRANCH   8  11
ENDBRANCH   7   8
ENDBRANCH   1   7
BRANCH   6  13
ATOM     13  N   LIG d   1      -5.298  78.681 117.153  0.00  0.00    -0.311 N 
ATOM     14  C   LIG d   1      -5.969  79.211 118.174  0.00  0.00     0.210 C 
ATOM     15  C   LIG d   1      -6.609  80.573 117.889  0.00  0.00     0.109 C 
ATOM     16  O   LIG d   1      -6.067  78.698 119.299  0.00  0.00    -0.276 OA
ATOM     17  H   LIG d   1      -5.242  79.181 116.287  0.00  0.00     0.149 HD
ENDBRANCH   6  13
BRANCH   5  18
ATOM     18  N   LIG d   1      -3.029  77.975 119.072  0.00  0.00     0.381 N 
ATOM     19  H   LIG d   1      -2.140  77.712 119.450  0.00  0.00    -0.090 HD
ATOM     20  H   LIG d   1      -3.747  77.555 119.637  0.00  0.00    -0.090 HD
ATOM     21  H   LIG d   1      -3.123  78.966 119.085  0.00  0.00    -0.090 HD
ENDBRANCH   5  18
BRANCH   3  22
ATOM     22  C   LIG d   1      -1.689  74.556 115.998  0.00  0.00     0.382 C 
ATOM     23  O   LIG d   1      -1.236  73.705 116.801  0.00  0.00    -0.241 OA
ATOM     24  O   LIG d   1      -1.218  74.625 114.847  0.00  0.00    -0.241 OA
ENDBRANCH   3  22
TORSDOF 7
ENDMDL
MODEL 5
REMARK VINA RESULT:      -5.1      3.297      5.741
REMARK  7 active torsions:
REMARK  status: ('A' for Active; 'I' for Inactive)
REMARK    1  A    between atoms: C_2  and  C_3 
REMARK    2  A    between atoms: C_3  and  O_6 
REMARK    3  A    between atoms: C_3  and  C_4 
REMARK    4  A    between atoms: C_7  and  O_6 
REMARK    5  A    between atoms: C_9  and  C_10 
REMARK    6  A    between atoms: N_15  and  C_14 
REMARK    7  A    between atoms: N_20  and  C_19 
REMARK       I    between atoms: C_22  and  N_20 
ROOT
ATOM      1  C   LIG d   1      -2.976  77.543 116.904  0.00  0.00     0.161 C 
ATOM      2  C   LIG d   1      -3.024  78.597 115.977  0.00  0.00     0.016 C 
ATOM      3  C   LIG d   1      -2.007  78.843 115.025  0.00  0.00     0.038 C 
ATOM      4  C   LIG d   1      -0.938  77.955 114.836  0.00  0.00     0.028 C 
ATOM      5  C   LIG d   1      -0.587  77.154 116.086  0.00  0.00    -0.047 C 
ATOM      6  C   LIG d   1      -1.873  76.498 116.639  0.00  0.00     0.091 C 
ENDROOT
BRANCH   1   7
ATOM      7  O   LIG d   1      -4.265  76.902 116.981  0.00  0.00    -0.368 OA
BRANCH   7   8
ATOM      8  C   LIG d   1      -5.333  77.526 116.227  0.00  0.00     0.119 C 
BRANCH   8   9
ATOM      9  C   LIG d   1      -6.367  78.055 117.239  0.00  0.00     0.028 C 
ATOM     10  C   LIG d   1      -7.608  77.151 117.337  0.00  0.00     0.006 C 
ENDBRANCH   8   9
BRANCH   8  11
ATOM     11  C   LIG d   1      -6.088  76.500 115.375  0.00  0.00     0.028 C 
ATOM     12  C   LIG d   1      -5.192  75.342 114.905  0.00  0.00     0.006 C 
ENDBRANCH   8  11
ENDBRANCH   7   8
ENDBRANCH   1   7
BRANCH   6  13
ATOM     13  N   LIG d   1      -1.633  75.764 117.909  0.00  0.00    -0.311 N 
ATOM     14  C   LIG d   1      -1.398  74.455 117.966  0.00  0.00     0.210 C 
ATOM     15  C   LIG d   1      -1.197  73.895 119.378  0.00  0.00     0.109 C 
ATOM     16  O   LIG d   1      -1.303  73.709 116.980  0.00  0.00    -0.276 OA
ATOM     17  H   LIG d   1      -1.661  76.298 118.756  0.00  0.00     0.149 HD
ENDBRANCH   6  13
BRANCH   5  18
ATOM     18  N   LIG d   1       0.448  76.173 115.710  0.00  0.00     0.381 N 
ATOM     19  H   LIG d   1       1.177  76.628 115.198  0.00  0.00    -0.090 HD
ATOM     20  H   LIG d   1       0.034  75.475 115.118  0.00  0.00    -0.090 HD
ATOM     21  H   LIG d   1       0.824  75.745 116.527  0.00  0.00    -0.090 HD
ENDBRANCH   5  18
BRANCH   3  22
ATOM     22  C   LIG d   1      -2.033  80.011 114.278  0.00  0.00     0.382 C 
ATOM     23  O   LIG d   1      -3.117  80.429 113.805  0.00  0.00    -0.241 OA
ATOM     24  O   LIG d   1      -0.979  80.628 114.034  0.00  0.00    -0.241 OA
ENDBRANCH   3  22
TORSDOF 7
ENDMDL
MODEL 6
REMARK VINA RESULT:      -5.0     12.483     14.676
REMARK  7 active torsions:
REMARK  status: ('A' for Active; 'I' for Inactive)
REMARK    1  A    between atoms: C_2  and  C_3 
REMARK    2  A    between atoms: C_3  and  O_6 
REMARK    3  A    between atoms: C_3  and  C_4 
REMARK    4  A    between atoms: C_7  and  O_6 
REMARK    5  A    between atoms: C_9  and  C_10 
REMARK    6  A    between atoms: N_15  and  C_14 
REMARK    7  A    between atoms: N_20  and  C_19 
REMARK       I    between atoms: C_22  and  N_20 
ROOT
ATOM      1  C   LIG d   1      -3.540  91.076 117.701  0.00  0.00     0.161 C 
ATOM      2  C   LIG d   1      -4.591  90.579 116.911  0.00  0.00     0.016 C 
ATOM      3  C   LIG d   1      -5.690  91.365 116.495  0.00  0.00     0.038 C 
ATOM      4  C   LIG d   1      -5.737  92.750 116.716  0.00  0.00     0.028 C 
ATOM      5  C   LIG d   1      -4.947  93.195 117.941  0.00  0.00    -0.047 C 
ATOM      6  C   LIG d   1      -3.518  92.611 117.857  0.00  0.00     0.091 C 
ENDROOT
BRANCH   1   7
ATOM      7  O   LIG d   1      -2.279  90.606 117.186  0.00  0.00    -0.368 OA
BRANCH   7   8
ATOM      8  C   LIG d   1      -1.854  89.297 117.636  0.00  0.00     0.119 C 
BRANCH   8   9
ATOM      9  C   LIG d   1      -2.041  89.250 119.165  0.00  0.00     0.028 C 
ATOM     10  C   LIG d   1      -2.774  87.979 119.628  0.00  0.00     0.006 C 
ENDBRANCH   8   9
BRANCH   8  11
ATOM     11  C   LIG d   1      -0.354  89.087 117.405  0.00  0.00     0.028 C 
ATOM     12  C   LIG d   1       0.352  90.353 116.894  0.00  0.00     0.006 C 
ENDBRANCH   8  11
ENDBRANCH   7   8
ENDBRANCH   1   7
BRANCH   6  13
ATOM     13  N   LIG d   1      -2.704  92.929 119.059  0.00  0.00    -0.311 N 
ATOM     14  C   LIG d   1      -1.481  93.453 118.998  0.00  0.00     0.210 C 
ATOM     15  C   LIG d   1      -0.809  93.685 120.355  0.00  0.00     0.109 C 
ATOM     16  O   LIG d   1      -0.903  93.780 117.951  0.00  0.00    -0.276 OA
ATOM     17  H   LIG d   1      -3.109  92.725 119.952  0.00  0.00     0.149 HD
ENDBRANCH   6  13
BRANCH   5  18
ATOM     18  N   LIG d   1      -4.967  94.670 117.973  0.00  0.00     0.381 N 
ATOM     19  H   LIG d   1      -4.469  95.033 117.184  0.00  0.00    -0.090 HD
ATOM     20  H   LIG d   1      -4.505  94.984 118.808  0.00  0.00    -0.090 HD
ATOM     21  H   LIG d   1      -5.907  94.999 117.961  0.00  0.00    -0.090 HD
ENDBRANCH   5  18
BRANCH   3  22
ATOM     22  C   LIG d   1      -6.777  90.758 115.885  0.00  0.00     0.382 C 
ATOM     23  O   LIG d   1      -6.618  90.105 114.826  0.00  0.00    -0.241 OA
ATOM     24  O   LIG d   1      -7.923  90.893 116.356  0.00  0.00    -0.241 OA
ENDBRANCH   3  22
TORSDOF 7
ENDMDL
MODEL 7
REMARK VINA RESULT:      -4.6      3.337      6.707
REMARK  7 active torsions:
REMARK  status: ('A' for Active; 'I' for Inactive)
REMARK    1  A    between atoms: C_2  and  C_3 
REMARK    2  A    between atoms: C_3  and  O_6 
REMARK    3  A    between atoms: C_3  and  C_4 
REMARK    4  A    between atoms: C_7  and  O_6 
REMARK    5  A    between atoms: C_9  and  C_10 
REMARK    6  A    between atoms: N_15  and  C_14 
REMARK    7  A    between atoms: N_20  and  C_19 
REMARK       I    between atoms: C_22  and  N_20 
ROOT
ATOM      1  C   LIG d   1      -2.916  76.666 117.683  0.00  0.00     0.161 C 
ATOM      2  C   LIG d   1      -1.920  77.196 118.520  0.00  0.00     0.016 C 
ATOM      3  C   LIG d   1      -0.622  76.647 118.628  0.00  0.00     0.038 C 
ATOM      4  C   LIG d   1      -0.181  75.614 117.787  0.00  0.00     0.028 C 
ATOM      5  C   LIG d   1      -1.309  74.721 117.282  0.00  0.00    -0.047 C 
ATOM      6  C   LIG d   1      -2.419  75.609 116.675  0.00  0.00     0.091 C 
ENDROOT
BRANCH   1   7
ATOM      7  O   LIG d   1      -3.594  77.735 116.993  0.00  0.00    -0.368 OA
BRANCH   7   8
ATOM      8  C   LIG d   1      -4.794  78.242 117.627  0.00  0.00     0.119 C 
BRANCH   8   9
ATOM      9  C   LIG d   1      -6.001  77.658 116.867  0.00  0.00     0.028 C 
ATOM     10  C   LIG d   1      -7.334  77.931 117.584  0.00  0.00     0.006 C 
ENDBRANCH   8   9
BRANCH   8  11
ATOM     11  C   LIG d   1      -4.911  79.761 117.466  0.00  0.00     0.028 C 
ATOM     12  C   LIG d   1      -4.082  80.536 118.503  0.00  0.00     0.006 C 
ENDBRANCH   8  11
ENDBRANCH   7   8
ENDBRANCH   1   7
BRANCH   6  13
ATOM     13  N   LIG d   1      -3.598  74.819 116.233  0.00  0.00    -0.311 N 
ATOM     14  C   LIG d   1      -4.216  75.013 115.070  0.00  0.00     0.210 C 
ATOM     15  C   LIG d   1      -5.424  74.104 114.819  0.00  0.00     0.109 C 
ATOM     16  O   LIG d   1      -3.860  75.830 114.207  0.00  0.00    -0.276 OA
ATOM     17  H   LIG d   1      -3.935  74.114 116.859  0.00  0.00     0.149 HD
ENDBRANCH   6  13
BRANCH   5  18
ATOM     18  N   LIG d   1      -0.728  73.776 116.310  0.00  0.00     0.381 N 
ATOM     19  H   LIG d   1       0.040  73.290 116.727  0.00  0.00    -0.090 HD
ATOM     20  H   LIG d   1      -0.382  74.293 115.521  0.00  0.00    -0.090 HD
ATOM     21  H   LIG d   1      -1.420  73.125 116.012  0.00  0.00    -0.090 HD
ENDBRANCH   5  18
BRANCH   3  22
ATOM     22  C   LIG d   1       0.238  77.105 119.615  0.00  0.00     0.382 C 
ATOM     23  O   LIG d   1       1.385  76.609 119.726  0.00  0.00    -0.241 OA
ATOM     24  O   LIG d   1      -0.135  77.977 120.423  0.00  0.00    -0.241 OA
ENDBRANCH   3  22
TORSDOF 7
ENDMDL
MODEL 8
REMARK VINA RESULT:      -4.6     12.518     15.660
REMARK  7 active torsions:
REMARK  status: ('A' for Active; 'I' for Inactive)
REMARK    1  A    between atoms: C_2  and  C_3 
REMARK    2  A    between atoms: C_3  and  O_6 
REMARK    3  A    between atoms: C_3  and  C_4 
REMARK    4  A    between atoms: C_7  and  O_6 
REMARK    5  A    between atoms: C_9  and  C_10 
REMARK    6  A    between atoms: N_15  and  C_14 
REMARK    7  A    between atoms: N_20  and  C_19 
REMARK       I    between atoms: C_22  and  N_20 
ROOT
ATOM      1  C   LIG d   1     -17.794  67.222 116.661  0.00  0.00     0.161 C 
ATOM      2  C   LIG d   1     -16.633  67.569 115.949  0.00  0.00     0.016 C 
ATOM      3  C   LIG d   1     -15.481  68.116 116.559  0.00  0.00     0.038 C 
ATOM      4  C   LIG d   1     -15.355  68.212 117.953  0.00  0.00     0.028 C 
ATOM      5  C   LIG d   1     -16.692  68.344 118.674  0.00  0.00    -0.047 C 
ATOM      6  C   LIG d   1     -17.634  67.216 118.196  0.00  0.00     0.091 C 
ENDROOT
BRANCH   1   7
ATOM      7  O   LIG d   1     -18.284  65.946 116.204  0.00  0.00    -0.368 OA
BRANCH   7   8
ATOM      8  C   LIG d   1     -17.281  65.004 115.748  0.00  0.00     0.119 C 
BRANCH   8   9
ATOM      9  C   LIG d   1     -17.844  64.297 114.500  0.00  0.00     0.028 C 
ATOM     10  C   LIG d   1     -17.034  63.046 114.119  0.00  0.00     0.006 C 
ENDBRANCH   8   9
BRANCH   8  11
ATOM     11  C   LIG d   1     -17.053  63.892 116.776  0.00  0.00     0.028 C 
ATOM     12  C   LIG d   1     -15.707  64.022 117.506  0.00  0.00     0.006 C 
ENDBRANCH   8  11
ENDBRANCH   7   8
ENDBRANCH   1   7
BRANCH   6  13
ATOM     13  N   LIG d   1     -18.992  67.322 118.790  0.00  0.00    -0.311 N 
ATOM     14  C   LIG d   1     -19.367  66.661 119.883  0.00  0.00     0.210 C 
ATOM     15  C   LIG d   1     -20.818  66.896 120.316  0.00  0.00     0.109 C 
ATOM     16  O   LIG d   1     -18.627  65.926 120.555  0.00  0.00    -0.276 OA
ATOM     17  H   LIG d   1     -19.647  67.920 118.326  0.00  0.00     0.149 HD
ENDBRANCH   6  13
BRANCH   5  18
ATOM     18  N   LIG d   1     -16.422  68.296 120.124  0.00  0.00     0.381 N 
ATOM     19  H   LIG d   1     -15.493  68.619 120.307  0.00  0.00    -0.090 HD
ATOM     20  H   LIG d   1     -16.492  67.344 120.436  0.00  0.00    -0.090 HD
ATOM     21  H   LIG d   1     -17.081  68.863 120.612  0.00  0.00    -0.090 HD
ENDBRANCH   5  18
BRANCH   3  22
ATOM     22  C   LIG d   1     -14.454  68.610 115.769  0.00  0.00     0.382 C 
ATOM     23  O   LIG d   1     -14.707  69.079 114.633  0.00  0.00    -0.241 OA
ATOM     24  O   LIG d   1     -13.273  68.553 116.160  0.00  0.00    -0.241 OA
ENDBRANCH   3  22
TORSDOF 7
ENDMDL
MODEL 9
REMARK VINA RESULT:      -4.6     13.551     16.652
REMARK  7 active torsions:
REMARK  status: ('A' for Active; 'I' for Inactive)
REMARK    1  A    between atoms: C_2  and  C_3 
REMARK    2  A    between atoms: C_3  and  O_6 
REMARK    3  A    between atoms: C_3  and  C_4 
REMARK    4  A    between atoms: C_7  and  O_6 
REMARK    5  A    between atoms: C_9  and  C_10 
REMARK    6  A    between atoms: N_15  and  C_14 
REMARK    7  A    between atoms: N_20  and  C_19 
REMARK       I    between atoms: C_22  and  N_20 
ROOT
ATOM      1  C   LIG d   1     -17.432  65.941 117.003  0.00  0.00     0.161 C 
ATOM      2  C   LIG d   1     -16.574  65.306 117.916  0.00  0.00     0.016 C 
ATOM      3  C   LIG d   1     -15.677  64.275 117.554  0.00  0.00     0.038 C 
ATOM      4  C   LIG d   1     -15.468  63.911 116.215  0.00  0.00     0.028 C 
ATOM      5  C   LIG d   1     -16.674  64.173 115.320  0.00  0.00    -0.047 C 
ATOM      6  C   LIG d   1     -17.138  65.634 115.519  0.00  0.00     0.091 C 
ENDROOT
BRANCH   1   7
ATOM      7  O   LIG d   1     -17.422  67.364 117.232  0.00  0.00    -0.368 OA
BRANCH   7   8
ATOM      8  C   LIG d   1     -16.208  67.909 117.806  0.00  0.00     0.119 C 
BRANCH   8   9
ATOM      9  C   LIG d   1     -16.598  68.633 119.109  0.00  0.00     0.028 C 
ATOM     10  C   LIG d   1     -15.898  68.038 120.343  0.00  0.00     0.006 C 
ENDBRANCH   8   9
BRANCH   8  11
ATOM     11  C   LIG d   1     -15.603  68.990 116.906  0.00  0.00     0.028 C 
ATOM     12  C   LIG d   1     -14.312  68.532 116.210  0.00  0.00     0.006 C 
ENDBRANCH   8  11
ENDBRANCH   7   8
ENDBRANCH   1   7
BRANCH   6  13
ATOM     13  N   LIG d   1     -18.365  65.950 114.743  0.00  0.00    -0.311 N 
ATOM     14  C   LIG d   1     -19.514  65.291 114.887  0.00  0.00     0.210 C 
ATOM     15  C   LIG d   1     -20.650  65.764 113.975  0.00  0.00     0.109 C 
ATOM     16  O   LIG d   1     -19.709  64.381 115.707  0.00  0.00    -0.276 OA
ATOM     17  H   LIG d   1     -18.305  66.696 114.078  0.00  0.00     0.149 HD
ENDBRANCH   6  13
BRANCH   5  18
ATOM     18  N   LIG d   1     -16.271  63.879 113.932  0.00  0.00     0.381 N 
ATOM     19  H   LIG d   1     -15.419  64.356 113.718  0.00  0.00    -0.090 HD
ATOM     20  H   LIG d   1     -16.985  64.213 113.309  0.00  0.00    -0.090 HD
ATOM     21  H   LIG d   1     -16.149  62.897 113.813  0.00  0.00    -0.090 HD
ENDBRANCH   5  18
BRANCH   3  22
ATOM     22  C   LIG d   1     -15.007  63.568 118.541  0.00  0.00     0.382 C 
ATOM     23  O   LIG d   1     -15.592  63.283 119.614  0.00  0.00    -0.241 OA
ATOM     24  O   LIG d   1     -13.812  63.251 118.391  0.00  0.00    -0.241 OA
ENDBRANCH   3  22
TORSDOF 7
ENDMDL
