MODEL 1
REMARK VINA RESULT:      -5.7      0.000      0.000
REMARK  7 active torsions:
REMARK  status: ('A' for Active; 'I' for Inactive)
REMARK    1  A    between atoms: C_2  and  C_3 
REMARK    2  A    between atoms: C_3  and  O_6 
REMARK    3  A    between atoms: C_3  and  C_4 
REMARK    4  A    between atoms: C_7  and  O_6 
REMARK    5  A    between atoms: C_9  and  C_10 
REMARK    6  A    between atoms: N_15  and  C_14 
REMARK    7  A    between atoms: N_20  and  C_19 
REMARK       I    between atoms: C_22  and  N_20 
ROOT
ATOM      1  C   LIG d   1      -5.265  76.180 116.331  0.00  0.00     0.161 C 
ATOM      2  C   LIG d   1      -4.129  75.442 115.962  0.00  0.00     0.016 C 
ATOM      3  C   LIG d   1      -2.809  75.828 116.290  0.00  0.00     0.038 C 
ATOM      4  C   LIG d   1      -2.544  76.908 117.145  0.00  0.00     0.028 C 
ATOM      5  C   LIG d   1      -3.632  77.976 117.127  0.00  0.00    -0.047 C 
ATOM      6  C   LIG d   1      -5.003  77.300 117.359  0.00  0.00     0.091 C 
ENDROOT
BRANCH   1   7
ATOM      7  O   LIG d   1      -6.292  75.290 116.812  0.00  0.00    -0.368 OA
BRANCH   7   8
ATOM      8  C   LIG d   1      -7.301  74.901 115.848  0.00  0.00     0.119 C 
BRANCH   8   9
ATOM      9  C   LIG d   1      -8.575  75.709 116.160  0.00  0.00     0.028 C 
ATOM     10  C   LIG d   1      -9.820  74.815 116.293  0.00  0.00     0.006 C 
ENDBRANCH   8   9
BRANCH   8  11
ATOM     11  C   LIG d   1      -7.700  73.432 116.020  0.00  0.00     0.028 C 
ATOM     12  C   LIG d   1      -6.569  72.460 115.648  0.00  0.00     0.006 C 
ENDBRANCH   8  11
ENDBRANCH   7   8
ENDBRANCH   1   7
BRANCH   6  13
ATOM     13  N   LIG d   1      -6.132  78.264 117.272  0.00  0.00    -0.311 N 
ATOM     14  C   LIG d   1      -6.656  78.875 118.333  0.00  0.00     0.210 C 
ATOM     15  C   LIG d   1      -7.826  79.814 118.025  0.00  0.00     0.109 C 
ATOM     16  O   LIG d   1      -6.242  78.754 119.496  0.00  0.00    -0.276 OA
ATOM     17  H   LIG d   1      -6.508  78.444 116.363  0.00  0.00     0.149 HD
ENDBRANCH   6  13
BRANCH   5  18
ATOM     18  N   LIG d   1      -3.296  78.972 118.163  0.00  0.00     0.381 N 
ATOM     19  H   LIG d   1      -4.124  79.458 118.447  0.00  0.00    -0.090 HD
ATOM     20  H   LIG d   1      -2.655  79.641 117.774  0.00  0.00    -0.090 HD
ATOM     21  H   LIG d   1      -2.881  78.521 118.948  0.00  0.00    -0.090 HD
ENDBRANCH   5  18
BRANCH   3  22
ATOM     22  C   LIG d   1      -1.736  75.155 115.727  0.00  0.00     0.382 C 
ATOM     23  O   LIG d   1      -1.499  75.267 114.500  0.00  0.00    -0.241 OA
ATOM     24  O   LIG d   1      -1.028  74.402 116.423  0.00  0.00    -0.241 OA
ENDBRANCH   3  22
TORSDOF 7
ENDMDL
MODEL 2
REMARK VINA RESULT:      -5.2      1.609      4.995
REMARK  7 active torsions:
REMARK  status: ('A' for Active; 'I' for Inactive)
REMARK    1  A    between atoms: C_2  and  C_3 
REMARK    2  A    between atoms: C_3  and  O_6 
REMARK    3  A    between atoms: C_3  and  C_4 
REMARK    4  A    between atoms: C_7  and  O_6 
REMARK    5  A    between atoms: C_9  and  C_10 
REMARK    6  A    between atoms: N_15  and  C_14 
REMARK    7  A    between atoms: N_20  and  C_19 
REMARK       I    between atoms: C_22  and  N_20 
ROOT
ATOM      1  C   LIG d   1      -5.810  77.219 117.202  0.00  0.00     0.161 C 
ATOM      2  C   LIG d   1      -6.814  78.137 117.554  0.00  0.00     0.016 C 
ATOM      3  C   LIG d   1      -6.545  79.462 117.969  0.00  0.00     0.038 C 
ATOM      4  C   LIG d   1      -5.255  80.008 117.915  0.00  0.00     0.028 C 
ATOM      5  C   LIG d   1      -4.149  78.966 118.048  0.00  0.00    -0.047 C 
ATOM      6  C   LIG d   1      -4.405  77.831 117.030  0.00  0.00     0.091 C 
ENDROOT
BRANCH   1   7
ATOM      7  O   LIG d   1      -6.196  76.507 116.009  0.00  0.00    -0.368 OA
BRANCH   7   8
ATOM      8  C   LIG d   1      -6.289  75.066 116.128  0.00  0.00     0.119 C 
BRANCH   8   9
ATOM      9  C   LIG d   1      -5.560  74.454 114.916  0.00  0.00     0.028 C 
ATOM     10  C   LIG d   1      -5.300  75.485 113.805  0.00  0.00     0.006 C 
ENDBRANCH   8   9
BRANCH   8  11
ATOM     11  C   LIG d   1      -7.739  74.590 116.013  0.00  0.00     0.028 C 
ATOM     12  C   LIG d   1      -7.864  73.058 115.999  0.00  0.00     0.006 C 
ENDBRANCH   8  11
ENDBRANCH   7   8
ENDBRANCH   1   7
BRANCH   6  13
ATOM     13  N   LIG d   1      -3.416  76.729 117.151  0.00  0.00    -0.311 N 
ATOM     14  C   LIG d   1      -2.565  76.397 116.181  0.00  0.00     0.210 C 
ATOM     15  C   LIG d   1      -1.644  75.217 116.504  0.00  0.00     0.109 C 
ATOM     16  O   LIG d   1      -2.464  76.989 115.096  0.00  0.00    -0.276 OA
ATOM     17  H   LIG d   1      -3.407  76.215 118.010  0.00  0.00     0.149 HD
ENDBRANCH   6  13
BRANCH   5  18
ATOM     18  N   LIG d   1      -2.861  79.654 117.836  0.00  0.00     0.381 N 
ATOM     19  H   LIG d   1      -2.990  80.643 117.908  0.00  0.00    -0.090 HD
ATOM     20  H   LIG d   1      -2.529  79.444 116.911  0.00  0.00    -0.090 HD
ATOM     21  H   LIG d   1      -2.197  79.348 118.513  0.00  0.00    -0.090 HD
ENDBRANCH   5  18
BRANCH   3  22
ATOM     22  C   LIG d   1      -7.570  80.242 118.483  0.00  0.00     0.382 C 
ATOM     23  O   LIG d   1      -8.357  80.834 117.705  0.00  0.00    -0.241 OA
ATOM     24  O   LIG d   1      -7.691  80.396 119.713  0.00  0.00    -0.241 OA
ENDBRANCH   3  22
TORSDOF 7
ENDMDL
MODEL 3
REMARK VINA RESULT:      -4.8     12.984     15.520
REMARK  7 active torsions:
REMARK  status: ('A' for Active; 'I' for Inactive)
REMARK    1  A    between atoms: C_2  and  C_3 
REMARK    2  A    between atoms: C_3  and  O_6 
REMARK    3  A    between atoms: C_3  and  C_4 
REMARK    4  A    between atoms: C_7  and  O_6 
REMARK    5  A    between atoms: C_9  and  C_10 
REMARK    6  A    between atoms: N_15  and  C_14 
REMARK    7  A    between atoms: N_20  and  C_19 
REMARK       I    between atoms: C_22  and  N_20 
ROOT
ATOM      1  C   LIG d   1       1.733  88.972 115.620  0.00  0.00     0.161 C 
ATOM      2  C   LIG d   1       0.429  89.261 116.056  0.00  0.00     0.016 C 
ATOM      3  C   LIG d   1       0.111  90.367 116.877  0.00  0.00     0.038 C 
ATOM      4  C   LIG d   1       1.058  91.351 117.196  0.00  0.00     0.028 C 
ATOM      5  C   LIG d   1       2.492  90.833 117.198  0.00  0.00    -0.047 C 
ATOM      6  C   LIG d   1       2.761  90.096 115.866  0.00  0.00     0.091 C 
ENDROOT
BRANCH   1   7
ATOM      7  O   LIG d   1       1.713  88.608 114.226  0.00  0.00    -0.368 OA
BRANCH   7   8
ATOM      8  C   LIG d   1       1.918  87.204 113.930  0.00  0.00     0.119 C 
BRANCH   8   9
ATOM      9  C   LIG d   1       0.529  86.549 113.806  0.00  0.00     0.028 C 
ATOM     10  C   LIG d   1       0.601  85.013 113.823  0.00  0.00     0.006 C 
ENDBRANCH   8   9
BRANCH   8  11
ATOM     11  C   LIG d   1       2.603  86.484 115.095  0.00  0.00     0.028 C 
ATOM     12  C   LIG d   1       4.015  85.990 114.743  0.00  0.00     0.006 C 
ENDBRANCH   8  11
ENDBRANCH   7   8
ENDBRANCH   1   7
BRANCH   6  13
ATOM     13  N   LIG d   1       4.115  89.485 115.819  0.00  0.00    -0.311 N 
ATOM     14  C   LIG d   1       4.958  89.647 114.801  0.00  0.00     0.210 C 
ATOM     15  C   LIG d   1       6.296  88.914 114.946  0.00  0.00     0.109 C 
ATOM     16  O   LIG d   1       4.738  90.354 113.806  0.00  0.00    -0.276 OA
ATOM     17  H   LIG d   1       4.388  88.921 116.600  0.00  0.00     0.149 HD
ENDBRANCH   6  13
BRANCH   5  18
ATOM     18  N   LIG d   1       3.383  91.990 117.409  0.00  0.00     0.381 N 
ATOM     19  H   LIG d   1       2.850  92.775 117.725  0.00  0.00    -0.090 HD
ATOM     20  H   LIG d   1       3.813  92.233 116.533  0.00  0.00    -0.090 HD
ATOM     21  H   LIG d   1       4.084  91.762 118.079  0.00  0.00    -0.090 HD
ENDBRANCH   5  18
BRANCH   3  22
ATOM     22  C   LIG d   1      -1.160  90.475 117.421  0.00  0.00     0.382 C 
ATOM     23  O   LIG d   1      -1.482  91.503 118.064  0.00  0.00    -0.241 OA
ATOM     24  O   LIG d   1      -1.974  89.538 117.316  0.00  0.00    -0.241 OA
ENDBRANCH   3  22
TORSDOF 7
ENDMDL
MODEL 4
REMARK VINA RESULT:      -4.7     13.622     16.205
REMARK  7 active torsions:
REMARK  status: ('A' for Active; 'I' for Inactive)
REMARK    1  A    between atoms: C_2  and  C_3 
REMARK    2  A    between atoms: C_3  and  O_6 
REMARK    3  A    between atoms: C_3  and  C_4 
REMARK    4  A    between atoms: C_7  and  O_6 
REMARK    5  A    between atoms: C_9  and  C_10 
REMARK    6  A    between atoms: N_15  and  C_14 
REMARK    7  A    between atoms: N_20  and  C_19 
REMARK       I    between atoms: C_22  and  N_20 
ROOT
ATOM      1  C   LIG d   1       1.442  89.677 116.667  0.00  0.00     0.161 C 
ATOM      2  C   LIG d   1       0.054  89.498 116.545  0.00  0.00     0.016 C 
ATOM      3  C   LIG d   1      -0.892  90.199 117.328  0.00  0.00     0.038 C 
ATOM      4  C   LIG d   1      -0.517  91.244 118.185  0.00  0.00     0.028 C 
ATOM      5  C   LIG d   1       0.908  91.113 118.712  0.00  0.00    -0.047 C 
ATOM      6  C   LIG d   1       1.866  90.892 117.518  0.00  0.00     0.091 C 
ENDROOT
BRANCH   1   7
ATOM      7  O   LIG d   1       2.042  89.748 115.359  0.00  0.00    -0.368 OA
BRANCH   7   8
ATOM      8  C   LIG d   1       3.021  88.725 115.050  0.00  0.00     0.119 C 
BRANCH   8   9
ATOM      9  C   LIG d   1       4.316  89.439 114.616  0.00  0.00     0.028 C 
ATOM     10  C   LIG d   1       5.543  88.514 114.669  0.00  0.00     0.006 C 
ENDBRANCH   8   9
BRANCH   8  11
ATOM     11  C   LIG d   1       2.592  87.891 113.838  0.00  0.00     0.028 C 
ATOM     12  C   LIG d   1       1.451  86.914 114.162  0.00  0.00     0.006 C 
ENDBRANCH   8  11
ENDBRANCH   7   8
ENDBRANCH   1   7
BRANCH   6  13
ATOM     13  N   LIG d   1       3.270  90.670 117.952  0.00  0.00    -0.311 N 
ATOM     14  C   LIG d   1       4.290  91.426 117.549  0.00  0.00     0.210 C 
ATOM     15  C   LIG d   1       5.658  91.012 118.100  0.00  0.00     0.109 C 
ATOM     16  O   LIG d   1       4.187  92.419 116.814  0.00  0.00    -0.276 OA
ATOM     17  H   LIG d   1       3.439  89.904 118.574  0.00  0.00     0.149 HD
ENDBRANCH   6  13
BRANCH   5  18
ATOM     18  N   LIG d   1       1.214  92.335 119.479  0.00  0.00     0.381 N 
ATOM     19  H   LIG d   1       1.377  93.097 118.852  0.00  0.00    -0.090 HD
ATOM     20  H   LIG d   1       2.050  92.183 120.014  0.00  0.00    -0.090 HD
ATOM     21  H   LIG d   1       0.456  92.554 120.088  0.00  0.00    -0.090 HD
ENDBRANCH   5  18
BRANCH   3  22
ATOM     22  C   LIG d   1      -2.228  89.829 117.285  0.00  0.00     0.382 C 
ATOM     23  O   LIG d   1      -3.043  90.501 116.608  0.00  0.00    -0.241 OA
ATOM     24  O   LIG d   1      -2.636  88.859 117.951  0.00  0.00    -0.241 OA
ENDBRANCH   3  22
TORSDOF 7
ENDMDL
MODEL 5
REMARK VINA RESULT:      -4.5      3.482      6.111
REMARK  7 active torsions:
REMARK  status: ('A' for Active; 'I' for Inactive)
REMARK    1  A    between atoms: C_2  and  C_3 
REMARK    2  A    between atoms: C_3  and  O_6 
REMARK    3  A    between atoms: C_3  and  C_4 
REMARK    4  A    between atoms: C_7  and  O_6 
REMARK    5  A    between atoms: C_9  and  C_10 
REMARK    6  A    between atoms: N_15  and  C_14 
REMARK    7  A    between atoms: N_20  and  C_19 
REMARK       I    between atoms: C_22  and  N_20 
ROOT
ATOM      1  C   LIG d   1      -1.552  78.658 116.569  0.00  0.00     0.161 C 
ATOM      2  C   LIG d   1      -0.996  77.501 116.000  0.00  0.00     0.016 C 
ATOM      3  C   LIG d   1      -1.708  76.289 115.848  0.00  0.00     0.038 C 
ATOM      4  C   LIG d   1      -3.081  76.197 116.119  0.00  0.00     0.028 C 
ATOM      5  C   LIG d   1      -3.560  77.195 117.168  0.00  0.00    -0.047 C 
ATOM      6  C   LIG d   1      -3.082  78.610 116.769  0.00  0.00     0.091 C 
ENDROOT
BRANCH   1   7
ATOM      7  O   LIG d   1      -1.186  79.812 115.788  0.00  0.00    -0.368 OA
BRANCH   7   8
ATOM      8  C   LIG d   1      -0.100  80.617 116.310  0.00  0.00     0.119 C 
BRANCH   8   9
ATOM      9  C   LIG d   1      -0.685  81.989 116.698  0.00  0.00     0.028 C 
ATOM     10  C   LIG d   1      -0.611  82.252 118.211  0.00  0.00     0.006 C 
ENDBRANCH   8   9
BRANCH   8  11
ATOM     11  C   LIG d   1       0.945  80.912 115.229  0.00  0.00     0.028 C 
ATOM     12  C   LIG d   1       0.382  80.782 113.805  0.00  0.00     0.006 C 
ENDBRANCH   8  11
ENDBRANCH   7   8
ENDBRANCH   1   7
BRANCH   6  13
ATOM     13  N   LIG d   1      -3.436  79.635 117.785  0.00  0.00    -0.311 N 
ATOM     14  C   LIG d   1      -4.082  80.763 117.494  0.00  0.00     0.210 C 
ATOM     15  C   LIG d   1      -4.330  81.692 118.687  0.00  0.00     0.109 C 
ATOM     16  O   LIG d   1      -4.502  81.067 116.368  0.00  0.00    -0.276 OA
ATOM     17  H   LIG d   1      -3.160  79.454 118.730  0.00  0.00     0.149 HD
ENDBRANCH   6  13
BRANCH   5  18
ATOM     18  N   LIG d   1      -5.028  77.083 117.252  0.00  0.00     0.381 N 
ATOM     19  H   LIG d   1      -5.327  77.252 118.191  0.00  0.00    -0.090 HD
ATOM     20  H   LIG d   1      -5.298  76.149 116.998  0.00  0.00    -0.090 HD
ATOM     21  H   LIG d   1      -5.456  77.739 116.636  0.00  0.00    -0.090 HD
ENDBRANCH   5  18
BRANCH   3  22
ATOM     22  C   LIG d   1      -1.035  75.141 115.457  0.00  0.00     0.382 C 
ATOM     23  O   LIG d   1      -0.527  74.387 116.322  0.00  0.00    -0.241 OA
ATOM     24  O   LIG d   1      -0.891  74.873 114.249  0.00  0.00    -0.241 OA
ENDBRANCH   3  22
TORSDOF 7
ENDMDL
MODEL 6
REMARK VINA RESULT:      -4.5     14.561     18.436
REMARK  7 active torsions:
REMARK  status: ('A' for Active; 'I' for Inactive)
REMARK    1  A    between atoms: C_2  and  C_3 
REMARK    2  A    between atoms: C_3  and  O_6 
REMARK    3  A    between atoms: C_3  and  C_4 
REMARK    4  A    between atoms: C_7  and  O_6 
REMARK    5  A    between atoms: C_9  and  C_10 
REMARK    6  A    between atoms: N_15  and  C_14 
REMARK    7  A    between atoms: N_20  and  C_19 
REMARK       I    between atoms: C_22  and  N_20 
ROOT
ATOM      1  C   LIG d   1      11.897  78.776 114.738  0.00  0.00     0.161 C 
ATOM      2  C   LIG d   1      10.536  79.049 114.951  0.00  0.00     0.016 C 
ATOM      3  C   LIG d   1       9.559  78.043 115.130  0.00  0.00     0.038 C 
ATOM      4  C   LIG d   1       9.904  76.689 115.258  0.00  0.00     0.028 C 
ATOM      5  C   LIG d   1      11.202  76.325 114.546  0.00  0.00    -0.047 C 
ATOM      6  C   LIG d   1      12.309  77.310 114.986  0.00  0.00     0.091 C 
ENDROOT
BRANCH   1   7
ATOM      7  O   LIG d   1      12.705  79.665 115.535  0.00  0.00    -0.368 OA
BRANCH   7   8
ATOM      8  C   LIG d   1      12.846  81.018 115.037  0.00  0.00     0.119 C 
BRANCH   8   9
ATOM      9  C   LIG d   1      14.285  81.169 114.508  0.00  0.00     0.028 C 
ATOM     10  C   LIG d   1      15.271  80.220 115.211  0.00  0.00     0.006 C 
ENDBRANCH   8   9
BRANCH   8  11
ATOM     11  C   LIG d   1      12.719  82.044 116.166  0.00  0.00     0.028 C 
ATOM     12  C   LIG d   1      11.282  82.561 116.343  0.00  0.00     0.006 C 
ENDBRANCH   8  11
ENDBRANCH   7   8
ENDBRANCH   1   7
BRANCH   6  13
ATOM     13  N   LIG d   1      13.592  77.076 114.273  0.00  0.00    -0.311 N 
ATOM     14  C   LIG d   1      14.569  76.310 114.753  0.00  0.00     0.210 C 
ATOM     15  C   LIG d   1      15.816  76.219 113.867  0.00  0.00     0.109 C 
ATOM     16  O   LIG d   1      14.509  75.670 115.814  0.00  0.00    -0.276 OA
ATOM     17  H   LIG d   1      13.712  77.532 113.389  0.00  0.00     0.149 HD
ENDBRANCH   6  13
BRANCH   5  18
ATOM     18  N   LIG d   1      11.513  74.921 114.876  0.00  0.00     0.381 N 
ATOM     19  H   LIG d   1      11.671  74.832 115.860  0.00  0.00    -0.090 HD
ATOM     20  H   LIG d   1      12.353  74.652 114.396  0.00  0.00    -0.090 HD
ATOM     21  H   LIG d   1      10.760  74.331 114.599  0.00  0.00    -0.090 HD
ENDBRANCH   5  18
BRANCH   3  22
ATOM     22  C   LIG d   1       8.215  78.384 115.141  0.00  0.00     0.382 C 
ATOM     23  O   LIG d   1       7.340  77.491 115.037  0.00  0.00    -0.241 OA
ATOM     24  O   LIG d   1       7.867  79.578 115.209  0.00  0.00    -0.241 OA
ENDBRANCH   3  22
TORSDOF 7
ENDMDL
MODEL 7
REMARK VINA RESULT:      -4.4     14.473     16.485
REMARK  7 active torsions:
REMARK  status: ('A' for Active; 'I' for Inactive)
REMARK    1  A    between atoms: C_2  and  C_3 
REMARK    2  A    between atoms: C_3  and  O_6 
REMARK    3  A    between atoms: C_3  and  C_4 
REMARK    4  A    between atoms: C_7  and  O_6 
REMARK    5  A    between atoms: C_9  and  C_10 
REMARK    6  A    between atoms: N_15  and  C_14 
REMARK    7  A    between atoms: N_20  and  C_19 
REMARK       I    between atoms: C_22  and  N_20 
ROOT
ATOM      1  C   LIG d   1       4.343  90.469 115.633  0.00  0.00     0.161 C 
ATOM      2  C   LIG d   1       5.697  90.098 115.680  0.00  0.00     0.016 C 
ATOM      3  C   LIG d   1       6.430  89.979 116.883  0.00  0.00     0.038 C 
ATOM      4  C   LIG d   1       5.814  90.075 118.139  0.00  0.00     0.028 C 
ATOM      5  C   LIG d   1       4.561  90.944 118.134  0.00  0.00    -0.047 C 
ATOM      6  C   LIG d   1       3.625  90.469 116.999  0.00  0.00     0.091 C 
ENDROOT
BRANCH   1   7
ATOM      7  O   LIG d   1       3.638  89.629 114.698  0.00  0.00    -0.368 OA
BRANCH   7   8
ATOM      8  C   LIG d   1       3.127  88.379 115.223  0.00  0.00     0.119 C 
BRANCH   8   9
ATOM      9  C   LIG d   1       3.896  87.237 114.530  0.00  0.00     0.028 C 
ATOM     10  C   LIG d   1       4.852  86.508 115.488  0.00  0.00     0.006 C 
ENDBRANCH   8   9
BRANCH   8  11
ATOM     11  C   LIG d   1       1.659  88.172 114.838  0.00  0.00     0.028 C 
ATOM     12  C   LIG d   1       1.424  86.864 114.066  0.00  0.00     0.006 C 
ENDBRANCH   8  11
ENDBRANCH   7   8
ENDBRANCH   1   7
BRANCH   6  13
ATOM     13  N   LIG d   1       2.413  91.320 116.871  0.00  0.00    -0.311 N 
ATOM     14  C   LIG d   1       1.235  91.003 117.404  0.00  0.00     0.210 C 
ATOM     15  C   LIG d   1       0.112  92.009 117.135  0.00  0.00     0.109 C 
ATOM     16  O   LIG d   1       1.021  90.000 118.101  0.00  0.00    -0.276 OA
ATOM     17  H   LIG d   1       2.505  92.169 116.347  0.00  0.00     0.149 HD
ENDBRANCH   6  13
BRANCH   5  18
ATOM     18  N   LIG d   1       3.945  90.845 119.471  0.00  0.00     0.381 N 
ATOM     19  H   LIG d   1       2.948  90.846 119.385  0.00  0.00    -0.090 HD
ATOM     20  H   LIG d   1       4.215  91.646 120.014  0.00  0.00    -0.090 HD
ATOM     21  H   LIG d   1       4.246  90.011 119.924  0.00  0.00    -0.090 HD
ENDBRANCH   5  18
BRANCH   3  22
ATOM     22  C   LIG d   1       7.804  89.799 116.835  0.00  0.00     0.382 C 
ATOM     23  O   LIG d   1       8.571  90.751 117.119  0.00  0.00    -0.241 OA
ATOM     24  O   LIG d   1       8.287  88.710 116.470  0.00  0.00    -0.241 OA
ENDBRANCH   3  22
TORSDOF 7
ENDMDL
MODEL 8
REMARK VINA RESULT:      -4.4     13.988     17.228
REMARK  7 active torsions:
REMARK  status: ('A' for Active; 'I' for Inactive)
REMARK    1  A    between atoms: C_2  and  C_3 
REMARK    2  A    between atoms: C_3  and  O_6 
REMARK    3  A    between atoms: C_3  and  C_4 
REMARK    4  A    between atoms: C_7  and  O_6 
REMARK    5  A    between atoms: C_9  and  C_10 
REMARK    6  A    between atoms: N_15  and  C_14 
REMARK    7  A    between atoms: N_20  and  C_19 
REMARK       I    between atoms: C_22  and  N_20 
ROOT
ATOM      1  C   LIG d   1     -17.396  65.078 118.751  0.00  0.00     0.161 C 
ATOM      2  C   LIG d   1     -16.954  66.323 119.229  0.00  0.00     0.016 C 
ATOM      3  C   LIG d   1     -16.448  67.343 118.391  0.00  0.00     0.038 C 
ATOM      4  C   LIG d   1     -16.491  67.243 116.992  0.00  0.00     0.028 C 
ATOM      5  C   LIG d   1     -16.461  65.804 116.487  0.00  0.00    -0.047 C 
ATOM      6  C   LIG d   1     -17.554  64.992 117.219  0.00  0.00     0.091 C 
ENDROOT
BRANCH   1   7
ATOM      7  O   LIG d   1     -18.629  64.714 119.403  0.00  0.00    -0.368 OA
BRANCH   7   8
ATOM      8  C   LIG d   1     -19.843  65.226 118.801  0.00  0.00     0.119 C 
BRANCH   8   9
ATOM      9  C   LIG d   1     -20.455  66.241 119.786  0.00  0.00     0.028 C 
ATOM     10  C   LIG d   1     -20.429  67.678 119.239  0.00  0.00     0.006 C 
ENDBRANCH   8   9
BRANCH   8  11
ATOM     11  C   LIG d   1     -20.896  64.124 118.648  0.00  0.00     0.028 C 
ATOM     12  C   LIG d   1     -20.368  62.736 119.041  0.00  0.00     0.006 C 
ENDBRANCH   8  11
ENDBRANCH   7   8
ENDBRANCH   1   7
BRANCH   6  13
ATOM     13  N   LIG d   1     -17.538  63.554 116.844  0.00  0.00    -0.311 N 
ATOM     14  C   LIG d   1     -18.305  63.037 115.886  0.00  0.00     0.210 C 
ATOM     15  C   LIG d   1     -18.146  61.528 115.674  0.00  0.00     0.109 C 
ATOM     16  O   LIG d   1     -19.079  63.690 115.170  0.00  0.00    -0.276 OA
ATOM     17  H   LIG d   1     -16.916  62.957 117.354  0.00  0.00     0.149 HD
ENDBRANCH   6  13
BRANCH   5  18
ATOM     18  N   LIG d   1     -16.650  65.842 115.024  0.00  0.00     0.381 N 
ATOM     19  H   LIG d   1     -17.282  65.118 114.746  0.00  0.00    -0.090 HD
ATOM     20  H   LIG d   1     -15.765  65.677 114.578  0.00  0.00    -0.090 HD
ATOM     21  H   LIG d   1     -17.009  66.730 114.750  0.00  0.00    -0.090 HD
ENDBRANCH   5  18
BRANCH   3  22
ATOM     22  C   LIG d   1     -15.855  68.463 118.953  0.00  0.00     0.382 C 
ATOM     23  O   LIG d   1     -16.267  69.609 118.651  0.00  0.00    -0.241 OA
ATOM     24  O   LIG d   1     -14.884  68.344 119.724  0.00  0.00    -0.241 OA
ENDBRANCH   3  22
TORSDOF 7
ENDMDL
MODEL 9
REMARK VINA RESULT:      -4.4     14.097     16.543
REMARK  7 active torsions:
REMARK  status: ('A' for Active; 'I' for Inactive)
REMARK    1  A    between atoms: C_2  and  C_3 
REMARK    2  A    between atoms: C_3  and  O_6 
REMARK    3  A    between atoms: C_3  and  C_4 
REMARK    4  A    between atoms: C_7  and  O_6 
REMARK    5  A    between atoms: C_9  and  C_10 
REMARK    6  A    between atoms: N_15  and  C_14 
REMARK    7  A    between atoms: N_20  and  C_19 
REMARK       I    between atoms: C_22  and  N_20 
ROOT
ATOM      1  C   LIG d   1       2.507  89.444 117.951  0.00  0.00     0.161 C 
ATOM      2  C   LIG d   1       2.875  90.485 118.819  0.00  0.00     0.016 C 
ATOM      3  C   LIG d   1       3.911  91.405 118.536  0.00  0.00     0.038 C 
ATOM      4  C   LIG d   1       4.551  91.439 117.289  0.00  0.00     0.028 C 
ATOM      5  C   LIG d   1       4.561  90.091 116.575  0.00  0.00    -0.047 C 
ATOM      6  C   LIG d   1       3.120  89.533 116.538  0.00  0.00     0.091 C 
ENDROOT
BRANCH   1   7
ATOM      7  O   LIG d   1       1.070  89.360 117.870  0.00  0.00    -0.368 OA
BRANCH   7   8
ATOM      8  C   LIG d   1       0.336  90.501 118.378  0.00  0.00     0.119 C 
BRANCH   8   9
ATOM      9  C   LIG d   1      -0.870  89.959 119.171  0.00  0.00     0.028 C 
ATOM     10  C   LIG d   1      -1.957  89.370 118.256  0.00  0.00     0.006 C 
ENDBRANCH   8   9
BRANCH   8  11
ATOM     11  C   LIG d   1      -0.266  91.328 117.239  0.00  0.00     0.028 C 
ATOM     12  C   LIG d   1      -0.307  92.832 117.553  0.00  0.00     0.006 C 
ENDBRANCH   8  11
ENDBRANCH   7   8
ENDBRANCH   1   7
BRANCH   6  13
ATOM     13  N   LIG d   1       3.052  88.178 115.931  0.00  0.00    -0.311 N 
ATOM     14  C   LIG d   1       2.398  87.912 114.802  0.00  0.00     0.210 C 
ATOM     15  C   LIG d   1       2.438  86.445 114.362  0.00  0.00     0.109 C 
ATOM     16  O   LIG d   1       1.817  88.758 114.105  0.00  0.00    -0.276 OA
ATOM     17  H   LIG d   1       3.523  87.438 116.414  0.00  0.00     0.149 HD
ENDBRANCH   6  13
BRANCH   5  18
ATOM     18  N   LIG d   1       5.135  90.302 115.233  0.00  0.00     0.381 N 
ATOM     19  H   LIG d   1       4.430  90.650 114.614  0.00  0.00    -0.090 HD
ATOM     20  H   LIG d   1       5.460  89.420 114.877  0.00  0.00    -0.090 HD
ATOM     21  H   LIG d   1       5.892  90.947 115.283  0.00  0.00    -0.090 HD
ENDBRANCH   5  18
BRANCH   3  22
ATOM     22  C   LIG d   1       4.342  92.279 119.522  0.00  0.00     0.382 C 
ATOM     23  O   LIG d   1       3.558  92.627 120.438  0.00  0.00    -0.241 OA
ATOM     24  O   LIG d   1       5.491  92.758 119.483  0.00  0.00    -0.241 OA
ENDBRANCH   3  22
TORSDOF 7
ENDMDL
