MODEL 1
REMARK VINA RESULT:      -6.0      0.000      0.000
REMARK  7 active torsions:
REMARK  status: ('A' for Active; 'I' for Inactive)
REMARK    1  A    between atoms: C_2  and  C_3 
REMARK    2  A    between atoms: C_3  and  O_6 
REMARK    3  A    between atoms: C_3  and  C_4 
REMARK    4  A    between atoms: C_7  and  O_6 
REMARK    5  A    between atoms: C_9  and  C_10 
REMARK    6  A    between atoms: N_15  and  C_14 
REMARK    7  A    between atoms: N_20  and  C_19 
REMARK       I    between atoms: C_22  and  N_20 
ROOT
ATOM      1  C   LIG d   1      -8.143  75.272 118.112  0.00  0.00     0.161 C 
ATOM      2  C   LIG d   1      -9.398  75.653 118.615  0.00  0.00     0.016 C 
ATOM      3  C   LIG d   1      -9.777  76.999 118.824  0.00  0.00     0.038 C 
ATOM      4  C   LIG d   1      -8.975  78.069 118.399  0.00  0.00     0.028 C 
ATOM      5  C   LIG d   1      -7.489  77.730 118.350  0.00  0.00    -0.047 C 
ATOM      6  C   LIG d   1      -7.298  76.428 117.539  0.00  0.00     0.091 C 
ENDROOT
BRANCH   1   7
ATOM      7  O   LIG d   1      -8.307  74.234 117.126  0.00  0.00    -0.368 OA
BRANCH   7   8
ATOM      8  C   LIG d   1      -8.340  72.876 117.629  0.00  0.00     0.119 C 
BRANCH   8   9
ATOM      9  C   LIG d   1      -7.486  72.010 116.683  0.00  0.00     0.028 C 
ATOM     10  C   LIG d   1      -6.352  72.809 116.020  0.00  0.00     0.006 C 
ENDBRANCH   8   9
BRANCH   8  11
ATOM     11  C   LIG d   1      -9.752  72.287 117.553  0.00  0.00     0.028 C 
ATOM     12  C   LIG d   1      -9.761  70.751 117.587  0.00  0.00     0.006 C 
ENDBRANCH   8  11
ENDBRANCH   7   8
ENDBRANCH   1   7
BRANCH   6  13
ATOM     13  N   LIG d   1      -5.881  75.980 117.513  0.00  0.00    -0.311 N 
ATOM     14  C   LIG d   1      -5.023  76.316 116.551  0.00  0.00     0.210 C 
ATOM     15  C   LIG d   1      -3.617  75.730 116.705  0.00  0.00     0.109 C 
ATOM     16  O   LIG d   1      -5.285  77.071 115.602  0.00  0.00    -0.276 OA
ATOM     17  H   LIG d   1      -5.576  75.389 118.261  0.00  0.00     0.149 HD
ENDBRANCH   6  13
BRANCH   5  18
ATOM     18  N   LIG d   1      -6.788  78.887 117.760  0.00  0.00     0.381 N 
ATOM     19  H   LIG d   1      -6.166  78.575 117.041  0.00  0.00    -0.090 HD
ATOM     20  H   LIG d   1      -6.244  79.336 118.476  0.00  0.00    -0.090 HD
ATOM     21  H   LIG d   1      -7.448  79.530 117.382  0.00  0.00    -0.090 HD
ENDBRANCH   5  18
BRANCH   3  22
ATOM     22  C   LIG d   1     -10.952  77.286 119.501  0.00  0.00     0.382 C 
ATOM     23  O   LIG d   1     -12.054  76.914 119.030  0.00  0.00    -0.241 OA
ATOM     24  O   LIG d   1     -10.929  77.949 120.555  0.00  0.00    -0.241 OA
ENDBRANCH   3  22
TORSDOF 7
ENDMDL
MODEL 2
REMARK VINA RESULT:      -5.9      1.633      4.759
REMARK  7 active torsions:
REMARK  status: ('A' for Active; 'I' for Inactive)
REMARK    1  A    between atoms: C_2  and  C_3 
REMARK    2  A    between atoms: C_3  and  O_6 
REMARK    3  A    between atoms: C_3  and  C_4 
REMARK    4  A    between atoms: C_7  and  O_6 
REMARK    5  A    between atoms: C_9  and  C_10 
REMARK    6  A    between atoms: N_15  and  C_14 
REMARK    7  A    between atoms: N_20  and  C_19 
REMARK       I    between atoms: C_22  and  N_20 
ROOT
ATOM      1  C   LIG d   1      -8.188  75.608 116.048  0.00  0.00     0.161 C 
ATOM      2  C   LIG d   1      -7.048  75.418 115.249  0.00  0.00     0.016 C 
ATOM      3  C   LIG d   1      -5.767  75.910 115.590  0.00  0.00     0.038 C 
ATOM      4  C   LIG d   1      -5.507  76.500 116.836  0.00  0.00     0.028 C 
ATOM      5  C   LIG d   1      -6.731  77.162 117.460  0.00  0.00    -0.047 C 
ATOM      6  C   LIG d   1      -7.901  76.152 117.463  0.00  0.00     0.091 C 
ENDROOT
BRANCH   1   7
ATOM      7  O   LIG d   1      -8.940  74.381 116.126  0.00  0.00    -0.368 OA
BRANCH   7   8
ATOM      8  C   LIG d   1      -8.535  73.449 117.158  0.00  0.00     0.119 C 
BRANCH   8   9
ATOM      9  C   LIG d   1      -7.881  72.241 116.460  0.00  0.00     0.028 C 
ATOM     10  C   LIG d   1      -6.346  72.280 116.535  0.00  0.00     0.006 C 
ENDBRANCH   8   9
BRANCH   8  11
ATOM     11  C   LIG d   1      -9.747  72.881 117.903  0.00  0.00     0.028 C 
ATOM     12  C   LIG d   1      -9.858  71.353 117.780  0.00  0.00     0.006 C 
ENDBRANCH   8  11
ENDBRANCH   7   8
ENDBRANCH   1   7
BRANCH   6  13
ATOM     13  N   LIG d   1      -9.162  76.747 117.980  0.00  0.00    -0.311 N 
ATOM     14  C   LIG d   1      -9.564  76.626 119.244  0.00  0.00     0.210 C 
ATOM     15  C   LIG d   1     -10.904  77.299 119.562  0.00  0.00     0.109 C 
ATOM     16  O   LIG d   1      -8.924  76.054 120.139  0.00  0.00    -0.276 OA
ATOM     17  H   LIG d   1      -9.727  77.255 117.329  0.00  0.00     0.149 HD
ENDBRANCH   6  13
BRANCH   5  18
ATOM     18  N   LIG d   1      -6.353  77.614 118.812  0.00  0.00     0.381 N 
ATOM     19  H   LIG d   1      -6.624  76.927 119.487  0.00  0.00    -0.090 HD
ATOM     20  H   LIG d   1      -6.840  78.468 119.018  0.00  0.00    -0.090 HD
ATOM     21  H   LIG d   1      -5.369  77.765 118.858  0.00  0.00    -0.090 HD
ENDBRANCH   5  18
BRANCH   3  22
ATOM     22  C   LIG d   1      -4.739  75.850 114.662  0.00  0.00     0.382 C 
ATOM     23  O   LIG d   1      -3.905  74.914 114.710  0.00  0.00    -0.241 OA
ATOM     24  O   LIG d   1      -4.608  76.745 113.805  0.00  0.00    -0.241 OA
ENDBRANCH   3  22
TORSDOF 7
ENDMDL
MODEL 3
REMARK VINA RESULT:      -5.6      2.157      4.951
REMARK  7 active torsions:
REMARK  status: ('A' for Active; 'I' for Inactive)
REMARK    1  A    between atoms: C_2  and  C_3 
REMARK    2  A    between atoms: C_3  and  O_6 
REMARK    3  A    between atoms: C_3  and  C_4 
REMARK    4  A    between atoms: C_7  and  O_6 
REMARK    5  A    between atoms: C_9  and  C_10 
REMARK    6  A    between atoms: N_15  and  C_14 
REMARK    7  A    between atoms: N_20  and  C_19 
REMARK       I    between atoms: C_22  and  N_20 
ROOT
ATOM      1  C   LIG d   1      -7.764  75.330 116.983  0.00  0.00     0.161 C 
ATOM      2  C   LIG d   1      -8.066  73.982 116.725  0.00  0.00     0.016 C 
ATOM      3  C   LIG d   1      -9.181  73.314 117.279  0.00  0.00     0.038 C 
ATOM      4  C   LIG d   1     -10.163  73.994 118.015  0.00  0.00     0.028 C 
ATOM      5  C   LIG d   1      -9.636  75.239 118.721  0.00  0.00    -0.047 C 
ATOM      6  C   LIG d   1      -8.884  76.118 117.694  0.00  0.00     0.091 C 
ENDROOT
BRANCH   1   7
ATOM      7  O   LIG d   1      -7.387  75.990 115.759  0.00  0.00    -0.368 OA
BRANCH   7   8
ATOM      8  C   LIG d   1      -6.005  76.413 115.662  0.00  0.00     0.119 C 
BRANCH   8   9
ATOM      9  C   LIG d   1      -5.384  75.692 114.450  0.00  0.00     0.028 C 
ATOM     10  C   LIG d   1      -4.989  74.241 114.770  0.00  0.00     0.006 C 
ENDBRANCH   8   9
BRANCH   8  11
ATOM     11  C   LIG d   1      -5.193  75.944 116.873  0.00  0.00     0.028 C 
ATOM     12  C   LIG d   1      -4.573  77.108 117.662  0.00  0.00     0.006 C 
ENDBRANCH   8  11
ENDBRANCH   7   8
ENDBRANCH   1   7
BRANCH   6  13
ATOM     13  N   LIG d   1      -8.265  77.315 118.319  0.00  0.00    -0.311 N 
ATOM     14  C   LIG d   1      -8.944  78.423 118.613  0.00  0.00     0.210 C 
ATOM     15  C   LIG d   1      -8.109  79.547 119.234  0.00  0.00     0.109 C 
ATOM     16  O   LIG d   1     -10.164  78.569 118.448  0.00  0.00    -0.276 OA
ATOM     17  H   LIG d   1      -7.284  77.271 118.516  0.00  0.00     0.149 HD
ENDBRANCH   6  13
BRANCH   5  18
ATOM     18  N   LIG d   1     -10.789  75.925 119.335  0.00  0.00     0.381 N 
ATOM     19  H   LIG d   1     -11.147  76.615 118.704  0.00  0.00    -0.090 HD
ATOM     20  H   LIG d   1     -10.482  76.391 120.171  0.00  0.00    -0.090 HD
ATOM     21  H   LIG d   1     -11.501  75.264 119.555  0.00  0.00    -0.090 HD
ENDBRANCH   5  18
BRANCH   3  22
ATOM     22  C   LIG d   1      -9.302  71.940 117.132  0.00  0.00     0.382 C 
ATOM     23  O   LIG d   1      -8.585  71.333 116.301  0.00  0.00    -0.241 OA
ATOM     24  O   LIG d   1     -10.150  71.307 117.789  0.00  0.00    -0.241 OA
ENDBRANCH   3  22
TORSDOF 7
ENDMDL
MODEL 4
REMARK VINA RESULT:      -5.5      1.610      2.001
REMARK  7 active torsions:
REMARK  status: ('A' for Active; 'I' for Inactive)
REMARK    1  A    between atoms: C_2  and  C_3 
REMARK    2  A    between atoms: C_3  and  O_6 
REMARK    3  A    between atoms: C_3  and  C_4 
REMARK    4  A    between atoms: C_7  and  O_6 
REMARK    5  A    between atoms: C_9  and  C_10 
REMARK    6  A    between atoms: N_15  and  C_14 
REMARK    7  A    between atoms: N_20  and  C_19 
REMARK       I    between atoms: C_22  and  N_20 
ROOT
ATOM      1  C   LIG d   1      -7.271  76.597 117.745  0.00  0.00     0.161 C 
ATOM      2  C   LIG d   1      -8.337  77.300 118.329  0.00  0.00     0.016 C 
ATOM      3  C   LIG d   1      -8.346  78.704 118.493  0.00  0.00     0.038 C 
ATOM      4  C   LIG d   1      -7.347  79.521 117.942  0.00  0.00     0.028 C 
ATOM      5  C   LIG d   1      -6.004  78.815 117.788  0.00  0.00    -0.047 C 
ATOM      6  C   LIG d   1      -6.222  77.481 117.039  0.00  0.00     0.091 C 
ENDROOT
BRANCH   1   7
ATOM      7  O   LIG d   1      -7.782  75.602 116.836  0.00  0.00    -0.368 OA
BRANCH   7   8
ATOM      8  C   LIG d   1      -7.773  74.235 117.316  0.00  0.00     0.119 C 
BRANCH   8   9
ATOM      9  C   LIG d   1      -6.834  73.428 116.398  0.00  0.00     0.028 C 
ATOM     10  C   LIG d   1      -7.066  71.912 116.508  0.00  0.00     0.006 C 
ENDBRANCH   8   9
BRANCH   8  11
ATOM     11  C   LIG d   1      -9.149  73.581 117.163  0.00  0.00     0.028 C 
ATOM     12  C   LIG d   1     -10.226  74.566 116.679  0.00  0.00     0.006 C 
ENDBRANCH   8  11
ENDBRANCH   7   8
ENDBRANCH   1   7
BRANCH   6  13
ATOM     13  N   LIG d   1      -4.971  76.687 116.919  0.00  0.00    -0.311 N 
ATOM     14  C   LIG d   1      -4.419  76.360 115.752  0.00  0.00     0.210 C 
ATOM     15  C   LIG d   1      -3.142  75.521 115.854  0.00  0.00     0.109 C 
ATOM     16  O   LIG d   1      -4.848  76.713 114.643  0.00  0.00    -0.276 OA
ATOM     17  H   LIG d   1      -4.539  76.386 117.771  0.00  0.00     0.149 HD
ENDBRANCH   6  13
BRANCH   5  18
ATOM     18  N   LIG d   1      -5.096  79.736 117.078  0.00  0.00     0.381 N 
ATOM     19  H   LIG d   1      -4.361  80.026 117.691  0.00  0.00    -0.090 HD
ATOM     20  H   LIG d   1      -5.613  80.551 116.798  0.00  0.00    -0.090 HD
ATOM     21  H   LIG d   1      -4.712  79.285 116.277  0.00  0.00    -0.090 HD
ENDBRANCH   5  18
BRANCH   3  22
ATOM     22  C   LIG d   1      -9.343  79.302 119.249  0.00  0.00     0.382 C 
ATOM     23  O   LIG d   1     -10.549  79.080 118.983  0.00  0.00    -0.241 OA
ATOM     24  O   LIG d   1      -9.052  80.095 120.165  0.00  0.00    -0.241 OA
ENDBRANCH   3  22
TORSDOF 7
ENDMDL
MODEL 5
REMARK VINA RESULT:      -5.4      2.105      4.904
REMARK  7 active torsions:
REMARK  status: ('A' for Active; 'I' for Inactive)
REMARK    1  A    between atoms: C_2  and  C_3 
REMARK    2  A    between atoms: C_3  and  O_6 
REMARK    3  A    between atoms: C_3  and  C_4 
REMARK    4  A    between atoms: C_7  and  O_6 
REMARK    5  A    between atoms: C_9  and  C_10 
REMARK    6  A    between atoms: N_15  and  C_14 
REMARK    7  A    between atoms: N_20  and  C_19 
REMARK       I    between atoms: C_22  and  N_20 
ROOT
ATOM      1  C   LIG d   1      -7.208  75.458 117.417  0.00  0.00     0.161 C 
ATOM      2  C   LIG d   1      -6.543  75.017 116.261  0.00  0.00     0.016 C 
ATOM      3  C   LIG d   1      -5.179  75.284 115.999  0.00  0.00     0.038 C 
ATOM      4  C   LIG d   1      -4.345  75.886 116.952  0.00  0.00     0.028 C 
ATOM      5  C   LIG d   1      -5.091  76.795 117.923  0.00  0.00    -0.047 C 
ATOM      6  C   LIG d   1      -6.286  76.019 118.520  0.00  0.00     0.091 C 
ENDROOT
BRANCH   1   7
ATOM      7  O   LIG d   1      -8.029  74.396 117.943  0.00  0.00    -0.368 OA
BRANCH   7   8
ATOM      8  C   LIG d   1      -9.191  74.038 117.154  0.00  0.00     0.119 C 
BRANCH   8   9
ATOM      9  C   LIG d   1     -10.219  75.176 117.303  0.00  0.00     0.028 C 
ATOM     10  C   LIG d   1     -10.484  75.540 118.773  0.00  0.00     0.006 C 
ENDBRANCH   8   9
BRANCH   8  11
ATOM     11  C   LIG d   1      -9.882  72.792 117.714  0.00  0.00     0.028 C 
ATOM     12  C   LIG d   1      -9.644  71.541 116.853  0.00  0.00     0.006 C 
ENDBRANCH   8  11
ENDBRANCH   7   8
ENDBRANCH   1   7
BRANCH   6  13
ATOM     13  N   LIG d   1      -7.119  76.862 119.416  0.00  0.00    -0.311 N 
ATOM     14  C   LIG d   1      -7.682  78.007 119.032  0.00  0.00     0.210 C 
ATOM     15  C   LIG d   1      -8.484  78.730 120.118  0.00  0.00     0.109 C 
ATOM     16  O   LIG d   1      -7.620  78.475 117.885  0.00  0.00    -0.276 OA
ATOM     17  H   LIG d   1      -7.248  76.541 120.356  0.00  0.00     0.149 HD
ENDBRANCH   6  13
BRANCH   5  18
ATOM     18  N   LIG d   1      -4.125  77.245 118.943  0.00  0.00     0.381 N 
ATOM     19  H   LIG d   1      -3.301  76.680 118.902  0.00  0.00    -0.090 HD
ATOM     20  H   LIG d   1      -4.538  77.134 119.853  0.00  0.00    -0.090 HD
ATOM     21  H   LIG d   1      -3.890  78.201 118.792  0.00  0.00    -0.090 HD
ENDBRANCH   5  18
BRANCH   3  22
ATOM     22  C   LIG d   1      -4.648  74.984 114.754  0.00  0.00     0.382 C 
ATOM     23  O   LIG d   1      -3.940  75.829 114.154  0.00  0.00    -0.241 OA
ATOM     24  O   LIG d   1      -4.903  73.897 114.203  0.00  0.00    -0.241 OA
ENDBRANCH   3  22
TORSDOF 7
ENDMDL
MODEL 6
REMARK VINA RESULT:      -5.3     16.270     18.461
REMARK  7 active torsions:
REMARK  status: ('A' for Active; 'I' for Inactive)
REMARK    1  A    between atoms: C_2  and  C_3 
REMARK    2  A    between atoms: C_3  and  O_6 
REMARK    3  A    between atoms: C_3  and  C_4 
REMARK    4  A    between atoms: C_7  and  O_6 
REMARK    5  A    between atoms: C_9  and  C_10 
REMARK    6  A    between atoms: N_15  and  C_14 
REMARK    7  A    between atoms: N_20  and  C_19 
REMARK       I    between atoms: C_22  and  N_20 
ROOT
ATOM      1  C   LIG d   1      -6.153  93.137 119.611  0.00  0.00     0.161 C 
ATOM      2  C   LIG d   1      -7.465  93.628 119.510  0.00  0.00     0.016 C 
ATOM      3  C   LIG d   1      -7.772  94.994 119.312  0.00  0.00     0.038 C 
ATOM      4  C   LIG d   1      -6.777  95.947 119.050  0.00  0.00     0.028 C 
ATOM      5  C   LIG d   1      -5.420  95.585 119.643  0.00  0.00    -0.047 C 
ATOM      6  C   LIG d   1      -5.053  94.145 119.216  0.00  0.00     0.091 C 
ENDROOT
BRANCH   1   7
ATOM      7  O   LIG d   1      -6.023  91.926 118.840  0.00  0.00    -0.368 OA
BRANCH   7   8
ATOM      8  C   LIG d   1      -5.784  92.097 117.421  0.00  0.00     0.119 C 
BRANCH   8   9
ATOM      9  C   LIG d   1      -6.961  91.445 116.671  0.00  0.00     0.028 C 
ATOM     10  C   LIG d   1      -7.383  92.248 115.429  0.00  0.00     0.006 C 
ENDBRANCH   8   9
BRANCH   8  11
ATOM     11  C   LIG d   1      -4.539  91.327 116.969  0.00  0.00     0.028 C 
ATOM     12  C   LIG d   1      -3.957  90.434 118.076  0.00  0.00     0.006 C 
ENDBRANCH   8  11
ENDBRANCH   7   8
ENDBRANCH   1   7
BRANCH   6  13
ATOM     13  N   LIG d   1      -3.778  93.681 119.823  0.00  0.00    -0.311 N 
ATOM     14  C   LIG d   1      -2.605  93.735 119.196  0.00  0.00     0.210 C 
ATOM     15  C   LIG d   1      -1.419  93.186 119.994  0.00  0.00     0.109 C 
ATOM     16  O   LIG d   1      -2.429  94.215 118.066  0.00  0.00    -0.276 OA
ATOM     17  H   LIG d   1      -3.825  93.305 120.750  0.00  0.00     0.149 HD
ENDBRANCH   6  13
BRANCH   5  18
ATOM     18  N   LIG d   1      -4.447  96.591 119.178  0.00  0.00     0.381 N 
ATOM     19  H   LIG d   1      -3.915  96.932 119.954  0.00  0.00    -0.090 HD
ATOM     20  H   LIG d   1      -4.946  97.364 118.775  0.00  0.00    -0.090 HD
ATOM     21  H   LIG d   1      -3.838  96.189 118.500  0.00  0.00    -0.090 HD
ENDBRANCH   5  18
BRANCH   3  22
ATOM     22  C   LIG d   1      -9.086  95.425 119.416  0.00  0.00     0.382 C 
ATOM     23  O   LIG d   1      -9.335  96.580 119.836  0.00  0.00    -0.241 OA
ATOM     24  O   LIG d   1     -10.026  94.657 119.137  0.00  0.00    -0.241 OA
ENDBRANCH   3  22
TORSDOF 7
ENDMDL
MODEL 7
REMARK VINA RESULT:      -5.0      1.985      4.894
REMARK  7 active torsions:
REMARK  status: ('A' for Active; 'I' for Inactive)
REMARK    1  A    between atoms: C_2  and  C_3 
REMARK    2  A    between atoms: C_3  and  O_6 
REMARK    3  A    between atoms: C_3  and  C_4 
REMARK    4  A    between atoms: C_7  and  O_6 
REMARK    5  A    between atoms: C_9  and  C_10 
REMARK    6  A    between atoms: N_15  and  C_14 
REMARK    7  A    between atoms: N_20  and  C_19 
REMARK       I    between atoms: C_22  and  N_20 
ROOT
ATOM      1  C   LIG d   1      -7.836  75.955 117.589  0.00  0.00     0.161 C 
ATOM      2  C   LIG d   1      -8.523  74.730 117.594  0.00  0.00     0.016 C 
ATOM      3  C   LIG d   1      -7.960  73.520 117.127  0.00  0.00     0.038 C 
ATOM      4  C   LIG d   1      -6.610  73.423 116.761  0.00  0.00     0.028 C 
ATOM      5  C   LIG d   1      -6.021  74.739 116.263  0.00  0.00    -0.047 C 
ATOM      6  C   LIG d   1      -6.324  75.847 117.297  0.00  0.00     0.091 C 
ENDROOT
BRANCH   1   7
ATOM      7  O   LIG d   1      -8.057  76.645 118.835  0.00  0.00    -0.368 OA
BRANCH   7   8
ATOM      8  C   LIG d   1      -8.992  77.751 118.794  0.00  0.00     0.119 C 
BRANCH   8   9
ATOM      9  C   LIG d   1      -8.255  79.000 119.315  0.00  0.00     0.028 C 
ATOM     10  C   LIG d   1      -8.166  80.113 118.257  0.00  0.00     0.006 C 
ENDBRANCH   8   9
BRANCH   8  11
ATOM     11  C   LIG d   1     -10.157  77.533 119.764  0.00  0.00     0.028 C 
ATOM     12  C   LIG d   1     -11.247  76.614 119.189  0.00  0.00     0.006 C 
ENDBRANCH   8  11
ENDBRANCH   7   8
ENDBRANCH   1   7
BRANCH   6  13
ATOM     13  N   LIG d   1      -5.857  77.185 116.848  0.00  0.00    -0.311 N 
ATOM     14  C   LIG d   1      -5.061  77.966 117.576  0.00  0.00     0.210 C 
ATOM     15  C   LIG d   1      -4.715  79.313 116.935  0.00  0.00     0.109 C 
ATOM     16  O   LIG d   1      -4.583  77.657 118.678  0.00  0.00    -0.276 OA
ATOM     17  H   LIG d   1      -6.172  77.501 115.951  0.00  0.00     0.149 HD
ENDBRANCH   6  13
BRANCH   5  18
ATOM     18  N   LIG d   1      -4.577  74.528 116.048  0.00  0.00     0.381 N 
ATOM     19  H   LIG d   1      -4.422  73.619 115.661  0.00  0.00    -0.090 HD
ATOM     20  H   LIG d   1      -4.106  74.579 116.934  0.00  0.00    -0.090 HD
ATOM     21  H   LIG d   1      -4.219  75.225 115.433  0.00  0.00    -0.090 HD
ENDBRANCH   5  18
BRANCH   3  22
ATOM     22  C   LIG d   1      -8.763  72.398 116.986  0.00  0.00     0.382 C 
ATOM     23  O   LIG d   1      -9.917  72.387 117.478  0.00  0.00    -0.241 OA
ATOM     24  O   LIG d   1      -8.332  71.381 116.411  0.00  0.00    -0.241 OA
ENDBRANCH   3  22
TORSDOF 7
ENDMDL
MODEL 8
REMARK VINA RESULT:      -5.0      2.384      5.692
REMARK  7 active torsions:
REMARK  status: ('A' for Active; 'I' for Inactive)
REMARK    1  A    between atoms: C_2  and  C_3 
REMARK    2  A    between atoms: C_3  and  O_6 
REMARK    3  A    between atoms: C_3  and  C_4 
REMARK    4  A    between atoms: C_7  and  O_6 
REMARK    5  A    between atoms: C_9  and  C_10 
REMARK    6  A    between atoms: N_15  and  C_14 
REMARK    7  A    between atoms: N_20  and  C_19 
REMARK       I    between atoms: C_22  and  N_20 
ROOT
ATOM      1  C   LIG d   1      -5.414  75.680 116.965  0.00  0.00     0.161 C 
ATOM      2  C   LIG d   1      -4.333  74.851 116.624  0.00  0.00     0.016 C 
ATOM      3  C   LIG d   1      -2.987  75.161 116.930  0.00  0.00     0.038 C 
ATOM      4  C   LIG d   1      -2.644  76.256 117.736  0.00  0.00     0.028 C 
ATOM      5  C   LIG d   1      -3.657  77.394 117.676  0.00  0.00    -0.047 C 
ATOM      6  C   LIG d   1      -5.069  76.823 117.942  0.00  0.00     0.091 C 
ENDROOT
BRANCH   1   7
ATOM      7  O   LIG d   1      -6.495  74.883 117.487  0.00  0.00    -0.368 OA
BRANCH   7   8
ATOM      8  C   LIG d   1      -7.421  74.346 116.511  0.00  0.00     0.119 C 
BRANCH   8   9
ATOM      9  C   LIG d   1      -8.635  75.294 116.456  0.00  0.00     0.028 C 
ATOM     10  C   LIG d   1      -9.910  74.649 117.026  0.00  0.00     0.006 C 
ENDBRANCH   8   9
BRANCH   8  11
ATOM     11  C   LIG d   1      -7.983  72.994 116.960  0.00  0.00     0.028 C 
ATOM     12  C   LIG d   1      -7.120  71.808 116.500  0.00  0.00     0.006 C 
ENDBRANCH   8  11
ENDBRANCH   7   8
ENDBRANCH   1   7
BRANCH   6  13
ATOM     13  N   LIG d   1      -6.131  77.856 117.818  0.00  0.00    -0.311 N 
ATOM     14  C   LIG d   1      -7.051  78.077 118.755  0.00  0.00     0.210 C 
ATOM     15  C   LIG d   1      -8.065  79.175 118.419  0.00  0.00     0.109 C 
ATOM     16  O   LIG d   1      -7.104  77.491 119.847  0.00  0.00    -0.276 OA
ATOM     17  H   LIG d   1      -6.142  78.399 116.977  0.00  0.00     0.149 HD
ENDBRANCH   6  13
BRANCH   5  18
ATOM     18  N   LIG d   1      -3.248  78.408 118.666  0.00  0.00     0.381 N 
ATOM     19  H   LIG d   1      -3.953  78.498 119.370  0.00  0.00    -0.090 HD
ATOM     20  H   LIG d   1      -3.151  79.294 118.202  0.00  0.00    -0.090 HD
ATOM     21  H   LIG d   1      -2.382  78.146 119.084  0.00  0.00    -0.090 HD
ENDBRANCH   5  18
BRANCH   3  22
ATOM     22  C   LIG d   1      -1.966  74.392 116.393  0.00  0.00     0.382 C 
ATOM     23  O   LIG d   1      -1.305  73.623 117.132  0.00  0.00    -0.241 OA
ATOM     24  O   LIG d   1      -1.668  74.491 115.187  0.00  0.00    -0.241 OA
ENDBRANCH   3  22
TORSDOF 7
ENDMDL
MODEL 9
REMARK VINA RESULT:      -4.9      2.300      5.082
REMARK  7 active torsions:
REMARK  status: ('A' for Active; 'I' for Inactive)
REMARK    1  A    between atoms: C_2  and  C_3 
REMARK    2  A    between atoms: C_3  and  O_6 
REMARK    3  A    between atoms: C_3  and  C_4 
REMARK    4  A    between atoms: C_7  and  O_6 
REMARK    5  A    between atoms: C_9  and  C_10 
REMARK    6  A    between atoms: N_15  and  C_14 
REMARK    7  A    between atoms: N_20  and  C_19 
REMARK       I    between atoms: C_22  and  N_20 
ROOT
ATOM      1  C   LIG d   1      -6.718  75.833 116.440  0.00  0.00     0.161 C 
ATOM      2  C   LIG d   1      -5.600  75.450 115.680  0.00  0.00     0.016 C 
ATOM      3  C   LIG d   1      -4.269  75.561 116.143  0.00  0.00     0.038 C 
ATOM      4  C   LIG d   1      -3.972  75.924 117.466  0.00  0.00     0.028 C 
ATOM      5  C   LIG d   1      -5.042  76.801 118.108  0.00  0.00    -0.047 C 
ATOM      6  C   LIG d   1      -6.420  76.126 117.925  0.00  0.00     0.091 C 
ENDROOT
BRANCH   1   7
ATOM      7  O   LIG d   1      -7.752  74.835 116.323  0.00  0.00    -0.368 OA
BRANCH   7   8
ATOM      8  C   LIG d   1      -7.875  73.912 117.433  0.00  0.00     0.119 C 
BRANCH   8   9
ATOM      9  C   LIG d   1      -7.400  72.531 116.941  0.00  0.00     0.028 C 
ATOM     10  C   LIG d   1      -8.566  71.550 116.732  0.00  0.00     0.006 C 
ENDBRANCH   8   9
BRANCH   8  11
ATOM     11  C   LIG d   1      -9.340  73.717 117.835  0.00  0.00     0.028 C 
ATOM     12  C   LIG d   1     -10.250  74.852 117.340  0.00  0.00     0.006 C 
ENDBRANCH   8  11
ENDBRANCH   7   8
ENDBRANCH   1   7
BRANCH   6  13
ATOM     13  N   LIG d   1      -7.533  76.958 118.451  0.00  0.00    -0.311 N 
ATOM     14  C   LIG d   1      -7.687  78.248 118.156  0.00  0.00     0.210 C 
ATOM     15  C   LIG d   1      -8.890  78.925 118.820  0.00  0.00     0.109 C 
ATOM     16  O   LIG d   1      -6.959  78.888 117.381  0.00  0.00    -0.276 OA
ATOM     17  H   LIG d   1      -8.188  76.511 119.062  0.00  0.00     0.149 HD
ENDBRANCH   6  13
BRANCH   5  18
ATOM     18  N   LIG d   1      -4.673  76.988 119.524  0.00  0.00     0.381 N 
ATOM     19  H   LIG d   1      -3.968  76.327 119.781  0.00  0.00    -0.090 HD
ATOM     20  H   LIG d   1      -5.483  76.824 120.095  0.00  0.00    -0.090 HD
ATOM     21  H   LIG d   1      -4.338  77.915 119.669  0.00  0.00    -0.090 HD
ENDBRANCH   5  18
BRANCH   3  22
ATOM     22  C   LIG d   1      -3.216  75.347 115.267  0.00  0.00     0.382 C 
ATOM     23  O   LIG d   1      -2.196  74.725 115.653  0.00  0.00    -0.241 OA
ATOM     24  O   LIG d   1      -3.253  75.805 114.110  0.00  0.00    -0.241 OA
ENDBRANCH   3  22
TORSDOF 7
ENDMDL
