MODEL 1
REMARK VINA RESULT:      -6.1      0.000      0.000
REMARK  7 active torsions:
REMARK  status: ('A' for Active; 'I' for Inactive)
REMARK    1  A    between atoms: C_2  and  C_3 
REMARK    2  A    between atoms: C_3  and  O_6 
REMARK    3  A    between atoms: C_3  and  C_4 
REMARK    4  A    between atoms: C_7  and  O_6 
REMARK    5  A    between atoms: C_9  and  C_10 
REMARK    6  A    between atoms: N_15  and  C_14 
REMARK    7  A    between atoms: N_20  and  C_19 
REMARK       I    between atoms: C_22  and  N_20 
ROOT
ATOM      1  C   LIG d   1      -8.140  75.313 116.844  0.00  0.00     0.161 C 
ATOM      2  C   LIG d   1      -7.141  75.021 115.901  0.00  0.00     0.016 C 
ATOM      3  C   LIG d   1      -6.021  75.853 115.670  0.00  0.00     0.038 C 
ATOM      4  C   LIG d   1      -5.745  76.965 116.479  0.00  0.00     0.028 C 
ATOM      5  C   LIG d   1      -6.990  77.579 117.110  0.00  0.00    -0.047 C 
ATOM      6  C   LIG d   1      -7.799  76.464 117.813  0.00  0.00     0.091 C 
ENDROOT
BRANCH   1   7
ATOM      7  O   LIG d   1      -8.480  74.122 117.581  0.00  0.00    -0.368 OA
BRANCH   7   8
ATOM      8  C   LIG d   1      -9.694  73.444 117.173  0.00  0.00     0.119 C 
BRANCH   8   9
ATOM      9  C   LIG d   1     -10.732  73.639 118.295  0.00  0.00     0.028 C 
ATOM     10  C   LIG d   1     -11.866  74.593 117.886  0.00  0.00     0.006 C 
ENDBRANCH   8   9
BRANCH   8  11
ATOM     11  C   LIG d   1      -9.481  71.931 117.075  0.00  0.00     0.028 C 
ATOM     12  C   LIG d   1      -8.030  71.554 116.736  0.00  0.00     0.006 C 
ENDBRANCH   8  11
ENDBRANCH   7   8
ENDBRANCH   1   7
BRANCH   6  13
ATOM     13  N   LIG d   1      -9.076  76.965 118.385  0.00  0.00    -0.311 N 
ATOM     14  C   LIG d   1      -9.382  76.882 119.678  0.00  0.00     0.210 C 
ATOM     15  C   LIG d   1     -10.758  77.440 120.054  0.00  0.00     0.109 C 
ATOM     16  O   LIG d   1      -8.632  76.428 120.555  0.00  0.00    -0.276 OA
ATOM     17  H   LIG d   1      -9.730  77.377 117.749  0.00  0.00     0.149 HD
ENDBRANCH   6  13
BRANCH   5  18
ATOM     18  N   LIG d   1      -6.545  78.640 118.034  0.00  0.00     0.381 N 
ATOM     19  H   LIG d   1      -7.008  79.499 117.812  0.00  0.00    -0.090 HD
ATOM     20  H   LIG d   1      -5.556  78.776 117.920  0.00  0.00    -0.090 HD
ATOM     21  H   LIG d   1      -6.745  78.379 118.974  0.00  0.00    -0.090 HD
ENDBRANCH   5  18
BRANCH   3  22
ATOM     22  C   LIG d   1      -5.185  75.597 114.595  0.00  0.00     0.382 C 
ATOM     23  O   LIG d   1      -4.700  74.451 114.436  0.00  0.00    -0.241 OA
ATOM     24  O   LIG d   1      -4.874  76.509 113.805  0.00  0.00    -0.241 OA
ENDBRANCH   3  22
TORSDOF 7
ENDMDL
MODEL 2
REMARK VINA RESULT:      -5.6      2.960      5.263
REMARK  7 active torsions:
REMARK  status: ('A' for Active; 'I' for Inactive)
REMARK    1  A    between atoms: C_2  and  C_3 
REMARK    2  A    between atoms: C_3  and  O_6 
REMARK    3  A    between atoms: C_3  and  C_4 
REMARK    4  A    between atoms: C_7  and  O_6 
REMARK    5  A    between atoms: C_9  and  C_10 
REMARK    6  A    between atoms: N_15  and  C_14 
REMARK    7  A    between atoms: N_20  and  C_19 
REMARK       I    between atoms: C_22  and  N_20 
ROOT
ATOM      1  C   LIG d   1      -9.472  77.528 118.509  0.00  0.00     0.161 C 
ATOM      2  C   LIG d   1      -8.302  77.689 117.747  0.00  0.00     0.016 C 
ATOM      3  C   LIG d   1      -7.787  76.688 116.891  0.00  0.00     0.038 C 
ATOM      4  C   LIG d   1      -8.494  75.508 116.622  0.00  0.00     0.028 C 
ATOM      5  C   LIG d   1      -9.426  75.088 117.753  0.00  0.00    -0.047 C 
ATOM      6  C   LIG d   1     -10.316  76.290 118.142  0.00  0.00     0.091 C 
ENDROOT
BRANCH   1   7
ATOM      7  O   LIG d   1     -10.274  78.723 118.430  0.00  0.00    -0.368 OA
BRANCH   7   8
ATOM      8  C   LIG d   1      -9.552  79.979 118.470  0.00  0.00     0.119 C 
BRANCH   8   9
ATOM      9  C   LIG d   1      -9.585  80.485 119.925  0.00  0.00     0.028 C 
ATOM     10  C   LIG d   1      -8.184  80.553 120.555  0.00  0.00     0.006 C 
ENDBRANCH   8   9
BRANCH   8  11
ATOM     11  C   LIG d   1     -10.265  81.058 117.649  0.00  0.00     0.028 C 
ATOM     12  C   LIG d   1      -9.394  82.302 117.416  0.00  0.00     0.006 C 
ENDBRANCH   8  11
ENDBRANCH   7   8
ENDBRANCH   1   7
BRANCH   6  13
ATOM     13  N   LIG d   1     -11.200  75.990 119.299  0.00  0.00    -0.311 N 
ATOM     14  C   LIG d   1     -12.449  75.545 119.172  0.00  0.00     0.210 C 
ATOM     15  C   LIG d   1     -13.192  75.319 120.492  0.00  0.00     0.109 C 
ATOM     16  O   LIG d   1     -13.000  75.286 118.092  0.00  0.00    -0.276 OA
ATOM     17  H   LIG d   1     -10.821  76.143 120.214  0.00  0.00     0.149 HD
ENDBRANCH   6  13
BRANCH   5  18
ATOM     18  N   LIG d   1     -10.200  73.923 117.284  0.00  0.00     0.381 N 
ATOM     19  H   LIG d   1      -9.604  73.122 117.223  0.00  0.00    -0.090 HD
ATOM     20  H   LIG d   1     -10.559  74.119 116.366  0.00  0.00    -0.090 HD
ATOM     21  H   LIG d   1     -10.953  73.739 117.911  0.00  0.00    -0.090 HD
ENDBRANCH   5  18
BRANCH   3  22
ATOM     22  C   LIG d   1      -6.531  76.848 116.326  0.00  0.00     0.382 C 
ATOM     23  O   LIG d   1      -5.905  77.924 116.481  0.00  0.00    -0.241 OA
ATOM     24  O   LIG d   1      -6.035  75.946 115.625  0.00  0.00    -0.241 OA
ENDBRANCH   3  22
TORSDOF 7
ENDMDL
MODEL 3
REMARK VINA RESULT:      -5.5      1.956      4.822
REMARK  7 active torsions:
REMARK  status: ('A' for Active; 'I' for Inactive)
REMARK    1  A    between atoms: C_2  and  C_3 
REMARK    2  A    between atoms: C_3  and  O_6 
REMARK    3  A    between atoms: C_3  and  C_4 
REMARK    4  A    between atoms: C_7  and  O_6 
REMARK    5  A    between atoms: C_9  and  C_10 
REMARK    6  A    between atoms: N_15  and  C_14 
REMARK    7  A    between atoms: N_20  and  C_19 
REMARK       I    between atoms: C_22  and  N_20 
ROOT
ATOM      1  C   LIG d   1      -7.866  75.195 116.944  0.00  0.00     0.161 C 
ATOM      2  C   LIG d   1      -7.848  73.837 116.588  0.00  0.00     0.016 C 
ATOM      3  C   LIG d   1      -8.694  72.867 117.176  0.00  0.00     0.038 C 
ATOM      4  C   LIG d   1      -9.726  73.220 118.058  0.00  0.00     0.028 C 
ATOM      5  C   LIG d   1      -9.451  74.508 118.827  0.00  0.00    -0.047 C 
ATOM      6  C   LIG d   1      -9.061  75.618 117.824  0.00  0.00     0.091 C 
ENDROOT
BRANCH   1   7
ATOM      7  O   LIG d   1      -7.803  76.012 115.759  0.00  0.00    -0.368 OA
BRANCH   7   8
ATOM      8  C   LIG d   1      -6.541  76.678 115.509  0.00  0.00     0.119 C 
BRANCH   8   9
ATOM      9  C   LIG d   1      -5.833  75.917 114.371  0.00  0.00     0.028 C 
ATOM     10  C   LIG d   1      -4.758  74.949 114.891  0.00  0.00     0.006 C 
ENDBRANCH   8   9
BRANCH   8  11
ATOM     11  C   LIG d   1      -5.603  76.565 116.715  0.00  0.00     0.028 C 
ATOM     12  C   LIG d   1      -5.225  77.933 117.305  0.00  0.00     0.006 C 
ENDBRANCH   8  11
ENDBRANCH   7   8
ENDBRANCH   1   7
BRANCH   6  13
ATOM     13  N   LIG d   1      -8.694  76.890 118.501  0.00  0.00    -0.311 N 
ATOM     14  C   LIG d   1      -9.568  77.859 118.765  0.00  0.00     0.210 C 
ATOM     15  C   LIG d   1      -8.977  79.094 119.450  0.00  0.00     0.109 C 
ATOM     16  O   LIG d   1     -10.784  77.799 118.525  0.00  0.00    -0.276 OA
ATOM     17  H   LIG d   1      -7.733  77.009 118.758  0.00  0.00     0.149 HD
ENDBRANCH   6  13
BRANCH   5  18
ATOM     18  N   LIG d   1     -10.663  74.831 119.604  0.00  0.00     0.381 N 
ATOM     19  H   LIG d   1     -10.807  74.137 120.310  0.00  0.00    -0.090 HD
ATOM     20  H   LIG d   1     -11.456  74.822 118.987  0.00  0.00    -0.090 HD
ATOM     21  H   LIG d   1     -10.569  75.729 120.024  0.00  0.00    -0.090 HD
ENDBRANCH   5  18
BRANCH   3  22
ATOM     22  C   LIG d   1      -8.484  71.522 116.912  0.00  0.00     0.382 C 
ATOM     23  O   LIG d   1      -9.214  70.656 117.452  0.00  0.00    -0.241 OA
ATOM     24  O   LIG d   1      -7.547  71.162 116.175  0.00  0.00    -0.241 OA
ENDBRANCH   3  22
TORSDOF 7
ENDMDL
MODEL 4
REMARK VINA RESULT:      -5.5      0.969      1.845
REMARK  7 active torsions:
REMARK  status: ('A' for Active; 'I' for Inactive)
REMARK    1  A    between atoms: C_2  and  C_3 
REMARK    2  A    between atoms: C_3  and  O_6 
REMARK    3  A    between atoms: C_3  and  C_4 
REMARK    4  A    between atoms: C_7  and  O_6 
REMARK    5  A    between atoms: C_9  and  C_10 
REMARK    6  A    between atoms: N_15  and  C_14 
REMARK    7  A    between atoms: N_20  and  C_19 
REMARK       I    between atoms: C_22  and  N_20 
ROOT
ATOM      1  C   LIG d   1      -8.005  76.149 116.091  0.00  0.00     0.161 C 
ATOM      2  C   LIG d   1      -6.955  75.670 115.290  0.00  0.00     0.016 C 
ATOM      3  C   LIG d   1      -5.592  75.944 115.548  0.00  0.00     0.038 C 
ATOM      4  C   LIG d   1      -5.175  76.594 116.719  0.00  0.00     0.028 C 
ATOM      5  C   LIG d   1      -6.228  77.534 117.297  0.00  0.00    -0.047 C 
ATOM      6  C   LIG d   1      -7.564  76.767 117.434  0.00  0.00     0.091 C 
ENDROOT
BRANCH   1   7
ATOM      7  O   LIG d   1      -8.967  75.099 116.314  0.00  0.00    -0.368 OA
BRANCH   7   8
ATOM      8  C   LIG d   1      -8.797  74.327 117.528  0.00  0.00     0.119 C 
BRANCH   8   9
ATOM      9  C   LIG d   1      -8.218  72.956 117.128  0.00  0.00     0.028 C 
ATOM     10  C   LIG d   1      -9.292  71.856 117.084  0.00  0.00     0.006 C 
ENDBRANCH   8   9
BRANCH   8  11
ATOM     11  C   LIG d   1     -10.146  74.021 118.187  0.00  0.00     0.028 C 
ATOM     12  C   LIG d   1     -11.234  75.041 117.818  0.00  0.00     0.006 C 
ENDBRANCH   8  11
ENDBRANCH   7   8
ENDBRANCH   1   7
BRANCH   6  13
ATOM     13  N   LIG d   1      -8.669  77.636 117.914  0.00  0.00    -0.311 N 
ATOM     14  C   LIG d   1      -9.025  77.729 119.194  0.00  0.00     0.210 C 
ATOM     15  C   LIG d   1     -10.204  78.667 119.471  0.00  0.00     0.109 C 
ATOM     16  O   LIG d   1      -8.456  77.149 120.131  0.00  0.00    -0.276 OA
ATOM     17  H   LIG d   1      -9.165  78.166 117.225  0.00  0.00     0.149 HD
ENDBRANCH   6  13
BRANCH   5  18
ATOM     18  N   LIG d   1      -5.716  78.037 118.586  0.00  0.00     0.381 N 
ATOM     19  H   LIG d   1      -5.699  79.038 118.575  0.00  0.00    -0.090 HD
ATOM     20  H   LIG d   1      -4.776  77.707 118.713  0.00  0.00    -0.090 HD
ATOM     21  H   LIG d   1      -6.293  77.715 119.331  0.00  0.00    -0.090 HD
ENDBRANCH   5  18
BRANCH   3  22
ATOM     22  C   LIG d   1      -4.632  75.600 114.608  0.00  0.00     0.382 C 
ATOM     23  O   LIG d   1      -4.159  74.438 114.592  0.00  0.00    -0.241 OA
ATOM     24  O   LIG d   1      -4.201  76.449 113.805  0.00  0.00    -0.241 OA
ENDBRANCH   3  22
TORSDOF 7
ENDMDL
MODEL 5
REMARK VINA RESULT:      -5.4     16.377     18.677
REMARK  7 active torsions:
REMARK  status: ('A' for Active; 'I' for Inactive)
REMARK    1  A    between atoms: C_2  and  C_3 
REMARK    2  A    between atoms: C_3  and  O_6 
REMARK    3  A    between atoms: C_3  and  C_4 
REMARK    4  A    between atoms: C_7  and  O_6 
REMARK    5  A    between atoms: C_9  and  C_10 
REMARK    6  A    between atoms: N_15  and  C_14 
REMARK    7  A    between atoms: N_20  and  C_19 
REMARK       I    between atoms: C_22  and  N_20 
ROOT
ATOM      1  C   LIG d   1      -6.378  93.656 117.571  0.00  0.00     0.161 C 
ATOM      2  C   LIG d   1      -7.127  92.679 116.895  0.00  0.00     0.016 C 
ATOM      3  C   LIG d   1      -6.587  91.448 116.459  0.00  0.00     0.038 C 
ATOM      4  C   LIG d   1      -5.288  91.044 116.804  0.00  0.00     0.028 C 
ATOM      5  C   LIG d   1      -4.337  92.209 117.051  0.00  0.00    -0.047 C 
ATOM      6  C   LIG d   1      -4.990  93.186 118.055  0.00  0.00     0.091 C 
ENDROOT
BRANCH   1   7
ATOM      7  O   LIG d   1      -7.142  94.181 118.675  0.00  0.00    -0.368 OA
BRANCH   7   8
ATOM      8  C   LIG d   1      -7.982  95.324 118.382  0.00  0.00     0.119 C 
BRANCH   8   9
ATOM      9  C   LIG d   1      -7.074  96.568 118.339  0.00  0.00     0.028 C 
ATOM     10  C   LIG d   1      -7.680  97.709 117.505  0.00  0.00     0.006 C 
ENDBRANCH   8   9
BRANCH   8  11
ATOM     11  C   LIG d   1      -8.979  95.588 119.514  0.00  0.00     0.028 C 
ATOM     12  C   LIG d   1      -9.036  94.442 120.537  0.00  0.00     0.006 C 
ENDBRANCH   8  11
ENDBRANCH   7   8
ENDBRANCH   1   7
BRANCH   6  13
ATOM     13  N   LIG d   1      -4.161  94.398 118.288  0.00  0.00    -0.311 N 
ATOM     14  C   LIG d   1      -3.280  94.504 119.281  0.00  0.00     0.210 C 
ATOM     15  C   LIG d   1      -2.545  95.846 119.353  0.00  0.00     0.109 C 
ATOM     16  O   LIG d   1      -3.014  93.602 120.089  0.00  0.00    -0.276 OA
ATOM     17  H   LIG d   1      -4.290  95.167 117.659  0.00  0.00     0.149 HD
ENDBRANCH   6  13
BRANCH   5  18
ATOM     18  N   LIG d   1      -3.061  91.649 117.536  0.00  0.00     0.381 N 
ATOM     19  H   LIG d   1      -3.196  91.226 118.433  0.00  0.00    -0.090 HD
ATOM     20  H   LIG d   1      -2.395  92.394 117.636  0.00  0.00    -0.090 HD
ATOM     21  H   LIG d   1      -2.719  90.972 116.890  0.00  0.00    -0.090 HD
ENDBRANCH   5  18
BRANCH   3  22
ATOM     22  C   LIG d   1      -7.335  90.623 115.633  0.00  0.00     0.382 C 
ATOM     23  O   LIG d   1      -7.590  90.978 114.457  0.00  0.00    -0.241 OA
ATOM     24  O   LIG d   1      -7.795  89.548 116.062  0.00  0.00    -0.241 OA
ENDBRANCH   3  22
TORSDOF 7
ENDMDL
MODEL 6
REMARK VINA RESULT:      -5.4     15.094     17.422
REMARK  7 active torsions:
REMARK  status: ('A' for Active; 'I' for Inactive)
REMARK    1  A    between atoms: C_2  and  C_3 
REMARK    2  A    between atoms: C_3  and  O_6 
REMARK    3  A    between atoms: C_3  and  C_4 
REMARK    4  A    between atoms: C_7  and  O_6 
REMARK    5  A    between atoms: C_9  and  C_10 
REMARK    6  A    between atoms: N_15  and  C_14 
REMARK    7  A    between atoms: N_20  and  C_19 
REMARK       I    between atoms: C_22  and  N_20 
ROOT
ATOM      1  C   LIG d   1      -4.623  91.696 117.748  0.00  0.00     0.161 C 
ATOM      2  C   LIG d   1      -5.364  90.913 116.847  0.00  0.00     0.016 C 
ATOM      3  C   LIG d   1      -6.497  91.391 116.150  0.00  0.00     0.038 C 
ATOM      4  C   LIG d   1      -6.880  92.740 116.194  0.00  0.00     0.028 C 
ATOM      5  C   LIG d   1      -6.466  93.446 117.481  0.00  0.00    -0.047 C 
ATOM      6  C   LIG d   1      -4.960  93.202 117.724  0.00  0.00     0.091 C 
ENDROOT
BRANCH   1   7
ATOM      7  O   LIG d   1      -3.214  91.494 117.528  0.00  0.00    -0.368 OA
BRANCH   7   8
ATOM      8  C   LIG d   1      -2.526  90.676 118.506  0.00  0.00     0.119 C 
BRANCH   8   9
ATOM      9  C   LIG d   1      -1.119  91.273 118.702  0.00  0.00     0.028 C 
ATOM     10  C   LIG d   1      -0.912  91.838 120.117  0.00  0.00     0.006 C 
ENDBRANCH   8   9
BRANCH   8  11
ATOM     11  C   LIG d   1      -2.295  89.256 117.982  0.00  0.00     0.028 C 
ATOM     12  C   LIG d   1      -2.374  88.192 119.088  0.00  0.00     0.006 C 
ENDBRANCH   8  11
ENDBRANCH   7   8
ENDBRANCH   1   7
BRANCH   6  13
ATOM     13  N   LIG d   1      -4.491  93.788 119.007  0.00  0.00    -0.311 N 
ATOM     14  C   LIG d   1      -3.329  94.426 119.141  0.00  0.00     0.210 C 
ATOM     15  C   LIG d   1      -3.030  94.935 120.554  0.00  0.00     0.109 C 
ATOM     16  O   LIG d   1      -2.534  94.647 118.215  0.00  0.00    -0.276 OA
ATOM     17  H   LIG d   1      -5.089  93.682 119.803  0.00  0.00     0.149 HD
ENDBRANCH   6  13
BRANCH   5  18
ATOM     18  N   LIG d   1      -6.805  94.874 117.335  0.00  0.00     0.381 N 
ATOM     19  H   LIG d   1      -7.630  94.971 116.778  0.00  0.00    -0.090 HD
ATOM     20  H   LIG d   1      -6.050  95.340 116.863  0.00  0.00    -0.090 HD
ATOM     21  H   LIG d   1      -6.950  95.283 118.231  0.00  0.00    -0.090 HD
ENDBRANCH   5  18
BRANCH   3  22
ATOM     22  C   LIG d   1      -7.285  90.506 115.430  0.00  0.00     0.382 C 
ATOM     23  O   LIG d   1      -7.878  89.571 116.021  0.00  0.00    -0.241 OA
ATOM     24  O   LIG d   1      -7.375  90.603 114.192  0.00  0.00    -0.241 OA
ENDBRANCH   3  22
TORSDOF 7
ENDMDL
MODEL 7
REMARK VINA RESULT:      -5.3      1.888      4.758
REMARK  7 active torsions:
REMARK  status: ('A' for Active; 'I' for Inactive)
REMARK    1  A    between atoms: C_2  and  C_3 
REMARK    2  A    between atoms: C_3  and  O_6 
REMARK    3  A    between atoms: C_3  and  C_4 
REMARK    4  A    between atoms: C_7  and  O_6 
REMARK    5  A    between atoms: C_9  and  C_10 
REMARK    6  A    between atoms: N_15  and  C_14 
REMARK    7  A    between atoms: N_20  and  C_19 
REMARK       I    between atoms: C_22  and  N_20 
ROOT
ATOM      1  C   LIG d   1      -9.047  76.311 117.687  0.00  0.00     0.161 C 
ATOM      2  C   LIG d   1      -9.762  77.224 118.481  0.00  0.00     0.016 C 
ATOM      3  C   LIG d   1      -9.270  78.502 118.831  0.00  0.00     0.038 C 
ATOM      4  C   LIG d   1      -8.086  79.017 118.282  0.00  0.00     0.028 C 
ATOM      5  C   LIG d   1      -7.086  77.938 117.879  0.00  0.00    -0.047 C 
ATOM      6  C   LIG d   1      -7.803  76.898 116.988  0.00  0.00     0.091 C 
ENDROOT
BRANCH   1   7
ATOM      7  O   LIG d   1      -9.930  75.711 116.719  0.00  0.00    -0.368 OA
BRANCH   7   8
ATOM      8  C   LIG d   1     -10.424  74.388 117.042  0.00  0.00     0.119 C 
BRANCH   8   9
ATOM      9  C   LIG d   1     -11.794  74.560 117.726  0.00  0.00     0.028 C 
ATOM     10  C   LIG d   1     -11.826  73.950 119.137  0.00  0.00     0.006 C 
ENDBRANCH   8   9
BRANCH   8  11
ATOM     11  C   LIG d   1      -9.536  73.698 118.081  0.00  0.00     0.028 C 
ATOM     12  C   LIG d   1      -8.612  72.636 117.465  0.00  0.00     0.006 C 
ENDBRANCH   8  11
ENDBRANCH   7   8
ENDBRANCH   1   7
BRANCH   6  13
ATOM     13  N   LIG d   1      -6.918  75.763 116.618  0.00  0.00    -0.311 N 
ATOM     14  C   LIG d   1      -6.272  75.685 115.456  0.00  0.00     0.210 C 
ATOM     15  C   LIG d   1      -5.428  74.421 115.268  0.00  0.00     0.109 C 
ATOM     16  O   LIG d   1      -6.292  76.559 114.576  0.00  0.00    -0.276 OA
ATOM     17  H   LIG d   1      -6.820  75.024 117.287  0.00  0.00     0.149 HD
ENDBRANCH   6  13
BRANCH   5  18
ATOM     18  N   LIG d   1      -5.961  78.606 117.197  0.00  0.00     0.381 N 
ATOM     19  H   LIG d   1      -6.230  79.530 116.925  0.00  0.00    -0.090 HD
ATOM     20  H   LIG d   1      -5.730  78.088 116.367  0.00  0.00    -0.090 HD
ATOM     21  H   LIG d   1      -5.171  78.646 117.803  0.00  0.00    -0.090 HD
ENDBRANCH   5  18
BRANCH   3  22
ATOM     22  C   LIG d   1      -9.946  79.265 119.771  0.00  0.00     0.382 C 
ATOM     23  O   LIG d   1     -10.849  78.744 120.468  0.00  0.00    -0.241 OA
ATOM     24  O   LIG d   1      -9.693  80.478 119.901  0.00  0.00    -0.241 OA
ENDBRANCH   3  22
TORSDOF 7
ENDMDL
MODEL 8
REMARK VINA RESULT:      -4.9      2.407      4.736
REMARK  7 active torsions:
REMARK  status: ('A' for Active; 'I' for Inactive)
REMARK    1  A    between atoms: C_2  and  C_3 
REMARK    2  A    between atoms: C_3  and  O_6 
REMARK    3  A    between atoms: C_3  and  C_4 
REMARK    4  A    between atoms: C_7  and  O_6 
REMARK    5  A    between atoms: C_9  and  C_10 
REMARK    6  A    between atoms: N_15  and  C_14 
REMARK    7  A    between atoms: N_20  and  C_19 
REMARK       I    between atoms: C_22  and  N_20 
ROOT
ATOM      1  C   LIG d   1      -7.431  77.543 118.742  0.00  0.00     0.161 C 
ATOM      2  C   LIG d   1      -6.306  77.548 117.901  0.00  0.00     0.016 C 
ATOM      3  C   LIG d   1      -6.185  76.726 116.758  0.00  0.00     0.038 C 
ATOM      4  C   LIG d   1      -7.253  75.947 116.289  0.00  0.00     0.028 C 
ATOM      5  C   LIG d   1      -8.225  75.528 117.387  0.00  0.00    -0.047 C 
ATOM      6  C   LIG d   1      -8.652  76.781 118.184  0.00  0.00     0.091 C 
ENDROOT
BRANCH   1   7
ATOM      7  O   LIG d   1      -7.796  78.896 119.078  0.00  0.00    -0.368 OA
BRANCH   7   8
ATOM      8  C   LIG d   1      -8.310  79.706 117.992  0.00  0.00     0.119 C 
BRANCH   8   9
ATOM      9  C   LIG d   1      -7.511  81.024 117.980  0.00  0.00     0.028 C 
ATOM     10  C   LIG d   1      -6.516  81.118 119.149  0.00  0.00     0.006 C 
ENDBRANCH   8   9
BRANCH   8  11
ATOM     11  C   LIG d   1      -9.764  80.115 118.242  0.00  0.00     0.028 C 
ATOM     12  C   LIG d   1     -10.148  80.073 119.730  0.00  0.00     0.006 C 
ENDBRANCH   8  11
ENDBRANCH   7   8
ENDBRANCH   1   7
BRANCH   6  13
ATOM     13  N   LIG d   1      -9.537  76.449 119.331  0.00  0.00    -0.311 N 
ATOM     14  C   LIG d   1     -10.866  76.433 119.250  0.00  0.00     0.210 C 
ATOM     15  C   LIG d   1     -11.589  76.085 120.555  0.00  0.00     0.109 C 
ATOM     16  O   LIG d   1     -11.514  76.642 118.214  0.00  0.00    -0.276 OA
ATOM     17  H   LIG d   1      -9.093  76.236 120.203  0.00  0.00     0.149 HD
ENDBRANCH   6  13
BRANCH   5  18
ATOM     18  N   LIG d   1      -9.359  74.841 116.740  0.00  0.00     0.381 N 
ATOM     19  H   LIG d   1      -9.856  74.296 117.417  0.00  0.00    -0.090 HD
ATOM     20  H   LIG d   1      -9.003  74.219 116.035  0.00  0.00    -0.090 HD
ATOM     21  H   LIG d   1      -9.971  75.508 116.326  0.00  0.00    -0.090 HD
ENDBRANCH   5  18
BRANCH   3  22
ATOM     22  C   LIG d   1      -4.971  76.648 116.092  0.00  0.00     0.382 C 
ATOM     23  O   LIG d   1      -4.468  75.527 115.836  0.00  0.00    -0.241 OA
ATOM     24  O   LIG d   1      -4.351  77.683 115.785  0.00  0.00    -0.241 OA
ENDBRANCH   3  22
TORSDOF 7
ENDMDL
MODEL 9
REMARK VINA RESULT:      -4.8     14.851     16.908
REMARK  7 active torsions:
REMARK  status: ('A' for Active; 'I' for Inactive)
REMARK    1  A    between atoms: C_2  and  C_3 
REMARK    2  A    between atoms: C_3  and  O_6 
REMARK    3  A    between atoms: C_3  and  C_4 
REMARK    4  A    between atoms: C_7  and  O_6 
REMARK    5  A    between atoms: C_9  and  C_10 
REMARK    6  A    between atoms: N_15  and  C_14 
REMARK    7  A    between atoms: N_20  and  C_19 
REMARK       I    between atoms: C_22  and  N_20 
ROOT
ATOM      1  C   LIG d   1      -4.747  91.698 117.449  0.00  0.00     0.161 C 
ATOM      2  C   LIG d   1      -3.862  90.615 117.317  0.00  0.00     0.016 C 
ATOM      3  C   LIG d   1      -2.603  90.557 117.957  0.00  0.00     0.038 C 
ATOM      4  C   LIG d   1      -2.206  91.516 118.901  0.00  0.00     0.028 C 
ATOM      5  C   LIG d   1      -2.850  92.882 118.684  0.00  0.00    -0.047 C 
ATOM      6  C   LIG d   1      -4.380  92.702 118.562  0.00  0.00     0.091 C 
ENDROOT
BRANCH   1   7
ATOM      7  O   LIG d   1      -6.090  91.210 117.638  0.00  0.00    -0.368 OA
BRANCH   7   8
ATOM      8  C   LIG d   1      -7.028  91.495 116.572  0.00  0.00     0.119 C 
BRANCH   8   9
ATOM      9  C   LIG d   1      -7.204  90.203 115.751  0.00  0.00     0.028 C 
ATOM     10  C   LIG d   1      -8.522  89.479 116.071  0.00  0.00     0.006 C 
ENDBRANCH   8   9
BRANCH   8  11
ATOM     11  C   LIG d   1      -6.460  92.525 115.591  0.00  0.00     0.028 C 
ATOM     12  C   LIG d   1      -6.755  92.175 114.123  0.00  0.00     0.006 C 
ENDBRANCH   8  11
ENDBRANCH   7   8
ENDBRANCH   1   7
BRANCH   6  13
ATOM     13  N   LIG d   1      -5.079  93.979 118.264  0.00  0.00    -0.311 N 
ATOM     14  C   LIG d   1      -6.210  94.352 118.860  0.00  0.00     0.210 C 
ATOM     15  C   LIG d   1      -6.775  95.697 118.392  0.00  0.00     0.109 C 
ATOM     16  O   LIG d   1      -6.782  93.712 119.756  0.00  0.00    -0.276 OA
ATOM     17  H   LIG d   1      -4.667  94.574 117.572  0.00  0.00     0.149 HD
ENDBRANCH   6  13
BRANCH   5  18
ATOM     18  N   LIG d   1      -2.457  93.744 119.815  0.00  0.00     0.381 N 
ATOM     19  H   LIG d   1      -2.120  93.181 120.570  0.00  0.00    -0.090 HD
ATOM     20  H   LIG d   1      -3.265  94.249 120.134  0.00  0.00    -0.090 HD
ATOM     21  H   LIG d   1      -1.750  94.384 119.527  0.00  0.00    -0.090 HD
ENDBRANCH   5  18
BRANCH   3  22
ATOM     22  C   LIG d   1      -1.709  89.551 117.626  0.00  0.00     0.382 C 
ATOM     23  O   LIG d   1      -2.017  88.350 117.817  0.00  0.00    -0.241 OA
ATOM     24  O   LIG d   1      -0.580  89.830 117.178  0.00  0.00    -0.241 OA
ENDBRANCH   3  22
TORSDOF 7
ENDMDL
