MODEL 1
REMARK VINA RESULT:      -5.7      0.000      0.000
REMARK  7 active torsions:
REMARK  status: ('A' for Active; 'I' for Inactive)
REMARK    1  A    between atoms: C_2  and  C_3 
REMARK    2  A    between atoms: C_3  and  O_6 
REMARK    3  A    between atoms: C_3  and  C_4 
REMARK    4  A    between atoms: C_7  and  O_6 
REMARK    5  A    between atoms: C_9  and  C_10 
REMARK    6  A    between atoms: N_15  and  C_14 
REMARK    7  A    between atoms: N_20  and  C_19 
REMARK       I    between atoms: C_22  and  N_20 
ROOT
ATOM      1  C   LIG d   1      -8.080  75.318 117.405  0.00  0.00     0.161 C 
ATOM      2  C   LIG d   1      -9.349  75.643 117.912  0.00  0.00     0.016 C 
ATOM      3  C   LIG d   1      -9.735  76.959 118.257  0.00  0.00     0.038 C 
ATOM      4  C   LIG d   1      -8.924  78.068 117.974  0.00  0.00     0.028 C 
ATOM      5  C   LIG d   1      -7.437  77.734 117.929  0.00  0.00    -0.047 C 
ATOM      6  C   LIG d   1      -7.221  76.529 116.986  0.00  0.00     0.091 C 
ENDROOT
BRANCH   1   7
ATOM      7  O   LIG d   1      -8.215  74.395 116.306  0.00  0.00    -0.368 OA
BRANCH   7   8
ATOM      8  C   LIG d   1      -8.342  72.996 116.660  0.00  0.00     0.119 C 
BRANCH   8   9
ATOM      9  C   LIG d   1      -7.432  72.193 115.710  0.00  0.00     0.028 C 
ATOM     10  C   LIG d   1      -6.304  73.052 115.113  0.00  0.00     0.006 C 
ENDBRANCH   8   9
BRANCH   8  11
ATOM     11  C   LIG d   1      -9.759  72.480 116.396  0.00  0.00     0.028 C 
ATOM     12  C   LIG d   1      -9.917  70.984 116.709  0.00  0.00     0.006 C 
ENDBRANCH   8  11
ENDBRANCH   7   8
ENDBRANCH   1   7
BRANCH   6  13
ATOM     13  N   LIG d   1      -5.803  76.084 116.950  0.00  0.00    -0.311 N 
ATOM     14  C   LIG d   1      -4.980  76.341 115.935  0.00  0.00     0.210 C 
ATOM     15  C   LIG d   1      -3.565  75.774 116.090  0.00  0.00     0.109 C 
ATOM     16  O   LIG d   1      -5.277  77.012 114.935  0.00  0.00    -0.276 OA
ATOM     17  H   LIG d   1      -5.470  75.559 117.735  0.00  0.00     0.149 HD
ENDBRANCH   6  13
BRANCH   5  18
ATOM     18  N   LIG d   1      -6.721  78.947 117.490  0.00  0.00     0.381 N 
ATOM     19  H   LIG d   1      -6.496  78.875 116.518  0.00  0.00    -0.090 HD
ATOM     20  H   LIG d   1      -5.863  79.023 118.008  0.00  0.00    -0.090 HD
ATOM     21  H   LIG d   1      -7.286  79.752 117.649  0.00  0.00    -0.090 HD
ENDBRANCH   5  18
BRANCH   3  22
ATOM     22  C   LIG d   1     -10.930  77.171 118.928  0.00  0.00     0.382 C 
ATOM     23  O   LIG d   1     -11.983  76.623 118.522  0.00  0.00    -0.241 OA
ATOM     24  O   LIG d   1     -10.976  77.937 119.909  0.00  0.00    -0.241 OA
ENDBRANCH   3  22
TORSDOF 7
ENDMDL
MODEL 2
REMARK VINA RESULT:      -5.7      1.826      5.018
REMARK  7 active torsions:
REMARK  status: ('A' for Active; 'I' for Inactive)
REMARK    1  A    between atoms: C_2  and  C_3 
REMARK    2  A    between atoms: C_3  and  O_6 
REMARK    3  A    between atoms: C_3  and  C_4 
REMARK    4  A    between atoms: C_7  and  O_6 
REMARK    5  A    between atoms: C_9  and  C_10 
REMARK    6  A    between atoms: N_15  and  C_14 
REMARK    7  A    between atoms: N_20  and  C_19 
REMARK       I    between atoms: C_22  and  N_20 
ROOT
ATOM      1  C   LIG d   1      -7.478  74.704 116.632  0.00  0.00     0.161 C 
ATOM      2  C   LIG d   1      -6.259  74.216 116.133  0.00  0.00     0.016 C 
ATOM      3  C   LIG d   1      -5.018  74.861 116.342  0.00  0.00     0.038 C 
ATOM      4  C   LIG d   1      -4.892  75.965 117.198  0.00  0.00     0.028 C 
ATOM      5  C   LIG d   1      -6.169  76.789 117.317  0.00  0.00    -0.047 C 
ATOM      6  C   LIG d   1      -7.344  75.845 117.662  0.00  0.00     0.091 C 
ENDROOT
BRANCH   1   7
ATOM      7  O   LIG d   1      -8.249  73.618 117.185  0.00  0.00    -0.368 OA
BRANCH   7   8
ATOM      8  C   LIG d   1      -8.915  72.758 116.228  0.00  0.00     0.119 C 
BRANCH   8   9
ATOM      9  C   LIG d   1     -10.407  72.711 116.608  0.00  0.00     0.028 C 
ATOM     10  C   LIG d   1     -11.093  74.080 116.465  0.00  0.00     0.006 C 
ENDBRANCH   8   9
BRANCH   8  11
ATOM     11  C   LIG d   1      -8.422  71.312 116.342  0.00  0.00     0.028 C 
ATOM     12  C   LIG d   1      -9.414  70.401 117.082  0.00  0.00     0.006 C 
ENDBRANCH   8  11
ENDBRANCH   7   8
ENDBRANCH   1   7
BRANCH   6  13
ATOM     13  N   LIG d   1      -8.647  76.558 117.714  0.00  0.00    -0.311 N 
ATOM     14  C   LIG d   1      -9.475  76.498 118.755  0.00  0.00     0.210 C 
ATOM     15  C   LIG d   1     -10.775  77.292 118.595  0.00  0.00     0.109 C 
ATOM     16  O   LIG d   1      -9.241  75.889 119.810  0.00  0.00    -0.276 OA
ATOM     17  H   LIG d   1      -8.902  77.102 116.912  0.00  0.00     0.149 HD
ENDBRANCH   6  13
BRANCH   5  18
ATOM     18  N   LIG d   1      -5.939  77.823 118.343  0.00  0.00     0.381 N 
ATOM     19  H   LIG d   1      -5.454  77.425 119.123  0.00  0.00    -0.090 HD
ATOM     20  H   LIG d   1      -6.827  78.166 118.665  0.00  0.00    -0.090 HD
ATOM     21  H   LIG d   1      -5.405  78.572 117.959  0.00  0.00    -0.090 HD
ENDBRANCH   5  18
BRANCH   3  22
ATOM     22  C   LIG d   1      -3.893  74.425 115.658  0.00  0.00     0.382 C 
ATOM     23  O   LIG d   1      -3.820  74.572 114.414  0.00  0.00    -0.241 OA
ATOM     24  O   LIG d   1      -2.970  73.848 116.263  0.00  0.00    -0.241 OA
ENDBRANCH   3  22
TORSDOF 7
ENDMDL
MODEL 3
REMARK VINA RESULT:      -5.4      2.310      4.706
REMARK  7 active torsions:
REMARK  status: ('A' for Active; 'I' for Inactive)
REMARK    1  A    between atoms: C_2  and  C_3 
REMARK    2  A    between atoms: C_3  and  O_6 
REMARK    3  A    between atoms: C_3  and  C_4 
REMARK    4  A    between atoms: C_7  and  O_6 
REMARK    5  A    between atoms: C_9  and  C_10 
REMARK    6  A    between atoms: N_15  and  C_14 
REMARK    7  A    between atoms: N_20  and  C_19 
REMARK       I    between atoms: C_22  and  N_20 
ROOT
ATOM      1  C   LIG d   1      -7.034  75.600 116.624  0.00  0.00     0.161 C 
ATOM      2  C   LIG d   1      -8.400  75.648 116.949  0.00  0.00     0.016 C 
ATOM      3  C   LIG d   1      -9.251  74.521 116.901  0.00  0.00     0.038 C 
ATOM      4  C   LIG d   1      -8.758  73.228 116.670  0.00  0.00     0.028 C 
ATOM      5  C   LIG d   1      -7.477  73.208 115.843  0.00  0.00    -0.047 C 
ATOM      6  C   LIG d   1      -6.454  74.177 116.478  0.00  0.00     0.091 C 
ENDROOT
BRANCH   1   7
ATOM      7  O   LIG d   1      -6.275  76.353 117.591  0.00  0.00    -0.368 OA
BRANCH   7   8
ATOM      8  C   LIG d   1      -5.892  77.693 117.197  0.00  0.00     0.119 C 
BRANCH   8   9
ATOM      9  C   LIG d   1      -4.356  77.722 117.083  0.00  0.00     0.028 C 
ATOM     10  C   LIG d   1      -3.878  77.930 115.636  0.00  0.00     0.006 C 
ENDBRANCH   8   9
BRANCH   8  11
ATOM     11  C   LIG d   1      -6.237  78.714 118.285  0.00  0.00     0.028 C 
ATOM     12  C   LIG d   1      -7.363  79.673 117.867  0.00  0.00     0.006 C 
ENDBRANCH   8  11
ENDBRANCH   7   8
ENDBRANCH   1   7
BRANCH   6  13
ATOM     13  N   LIG d   1      -5.203  74.281 115.683  0.00  0.00    -0.311 N 
ATOM     14  C   LIG d   1      -3.988  74.112 116.202  0.00  0.00     0.210 C 
ATOM     15  C   LIG d   1      -2.832  74.283 115.212  0.00  0.00     0.109 C 
ATOM     16  O   LIG d   1      -3.760  73.805 117.382  0.00  0.00    -0.276 OA
ATOM     17  H   LIG d   1      -5.297  74.497 114.709  0.00  0.00     0.149 HD
ENDBRANCH   6  13
BRANCH   5  18
ATOM     18  N   LIG d   1      -6.999  71.813 115.795  0.00  0.00     0.381 N 
ATOM     19  H   LIG d   1      -7.527  71.297 115.120  0.00  0.00    -0.090 HD
ATOM     20  H   LIG d   1      -7.140  71.390 116.696  0.00  0.00    -0.090 HD
ATOM     21  H   LIG d   1      -6.032  71.792 115.558  0.00  0.00    -0.090 HD
ENDBRANCH   5  18
BRANCH   3  22
ATOM     22  C   LIG d   1     -10.620  74.687 117.047  0.00  0.00     0.382 C 
ATOM     23  O   LIG d   1     -11.072  75.728 117.582  0.00  0.00    -0.241 OA
ATOM     24  O   LIG d   1     -11.407  73.789 116.691  0.00  0.00    -0.241 OA
ENDBRANCH   3  22
TORSDOF 7
ENDMDL
MODEL 4
REMARK VINA RESULT:      -5.3      2.529      4.753
REMARK  7 active torsions:
REMARK  status: ('A' for Active; 'I' for Inactive)
REMARK    1  A    between atoms: C_2  and  C_3 
REMARK    2  A    between atoms: C_3  and  O_6 
REMARK    3  A    between atoms: C_3  and  C_4 
REMARK    4  A    between atoms: C_7  and  O_6 
REMARK    5  A    between atoms: C_9  and  C_10 
REMARK    6  A    between atoms: N_15  and  C_14 
REMARK    7  A    between atoms: N_20  and  C_19 
REMARK       I    between atoms: C_22  and  N_20 
ROOT
ATOM      1  C   LIG d   1      -5.880  74.515 116.273  0.00  0.00     0.161 C 
ATOM      2  C   LIG d   1      -6.732  73.438 115.978  0.00  0.00     0.016 C 
ATOM      3  C   LIG d   1      -8.106  73.420 116.310  0.00  0.00     0.038 C 
ATOM      4  C   LIG d   1      -8.759  74.549 116.828  0.00  0.00     0.028 C 
ATOM      5  C   LIG d   1      -7.835  75.478 117.607  0.00  0.00    -0.047 C 
ATOM      6  C   LIG d   1      -6.597  75.800 116.738  0.00  0.00     0.091 C 
ENDROOT
BRANCH   1   7
ATOM      7  O   LIG d   1      -5.036  74.795 115.139  0.00  0.00    -0.368 OA
BRANCH   7   8
ATOM      8  C   LIG d   1      -3.626  74.505 115.306  0.00  0.00     0.119 C 
BRANCH   8   9
ATOM      9  C   LIG d   1      -3.439  73.916 116.718  0.00  0.00     0.028 C 
ATOM     10  C   LIG d   1      -2.018  73.373 116.944  0.00  0.00     0.006 C 
ENDBRANCH   8   9
BRANCH   8  11
ATOM     11  C   LIG d   1      -2.787  75.786 115.286  0.00  0.00     0.028 C 
ATOM     12  C   LIG d   1      -3.430  76.906 114.453  0.00  0.00     0.006 C 
ENDBRANCH   8  11
ENDBRANCH   7   8
ENDBRANCH   1   7
BRANCH   6  13
ATOM     13  N   LIG d   1      -5.602  76.636 117.457  0.00  0.00    -0.311 N 
ATOM     14  C   LIG d   1      -5.570  77.966 117.381  0.00  0.00     0.210 C 
ATOM     15  C   LIG d   1      -4.450  78.633 118.185  0.00  0.00     0.109 C 
ATOM     16  O   LIG d   1      -6.384  78.658 116.751  0.00  0.00    -0.276 OA
ATOM     17  H   LIG d   1      -4.923  76.158 118.017  0.00  0.00     0.149 HD
ENDBRANCH   6  13
BRANCH   5  18
ATOM     18  N   LIG d   1      -8.613  76.678 117.971  0.00  0.00     0.381 N 
ATOM     19  H   LIG d   1      -9.219  76.468 118.738  0.00  0.00    -0.090 HD
ATOM     20  H   LIG d   1      -9.179  76.948 117.186  0.00  0.00    -0.090 HD
ATOM     21  H   LIG d   1      -7.998  77.421 118.218  0.00  0.00    -0.090 HD
ENDBRANCH   5  18
BRANCH   3  22
ATOM     22  C   LIG d   1      -8.834  72.249 116.161  0.00  0.00     0.382 C 
ATOM     23  O   LIG d   1     -10.088  72.283 116.183  0.00  0.00    -0.241 OA
ATOM     24  O   LIG d   1      -8.252  71.154 116.049  0.00  0.00    -0.241 OA
ENDBRANCH   3  22
TORSDOF 7
ENDMDL
MODEL 5
REMARK VINA RESULT:      -5.3      1.936      4.598
REMARK  7 active torsions:
REMARK  status: ('A' for Active; 'I' for Inactive)
REMARK    1  A    between atoms: C_2  and  C_3 
REMARK    2  A    between atoms: C_3  and  O_6 
REMARK    3  A    between atoms: C_3  and  C_4 
REMARK    4  A    between atoms: C_7  and  O_6 
REMARK    5  A    between atoms: C_9  and  C_10 
REMARK    6  A    between atoms: N_15  and  C_14 
REMARK    7  A    between atoms: N_20  and  C_19 
REMARK       I    between atoms: C_22  and  N_20 
ROOT
ATOM      1  C   LIG d   1      -8.248  76.178 116.949  0.00  0.00     0.161 C 
ATOM      2  C   LIG d   1      -9.333  75.289 117.018  0.00  0.00     0.016 C 
ATOM      3  C   LIG d   1      -9.216  73.899 116.783  0.00  0.00     0.038 C 
ATOM      4  C   LIG d   1      -7.970  73.279 116.610  0.00  0.00     0.028 C 
ATOM      5  C   LIG d   1      -6.907  74.206 116.031  0.00  0.00    -0.047 C 
ATOM      6  C   LIG d   1      -6.862  75.504 116.870  0.00  0.00     0.091 C 
ENDROOT
BRANCH   1   7
ATOM      7  O   LIG d   1      -8.296  77.095 118.059  0.00  0.00    -0.368 OA
BRANCH   7   8
ATOM      8  C   LIG d   1      -9.428  78.000 118.090  0.00  0.00     0.119 C 
BRANCH   8   9
ATOM      9  C   LIG d   1      -8.873  79.437 118.036  0.00  0.00     0.028 C 
ATOM     10  C   LIG d   1      -7.340  79.470 117.922  0.00  0.00     0.006 C 
ENDBRANCH   8   9
BRANCH   8  11
ATOM     11  C   LIG d   1     -10.180  77.905 119.421  0.00  0.00     0.028 C 
ATOM     12  C   LIG d   1      -9.483  76.985 120.436  0.00  0.00     0.006 C 
ENDBRANCH   8  11
ENDBRANCH   7   8
ENDBRANCH   1   7
BRANCH   6  13
ATOM     13  N   LIG d   1      -5.907  76.501 116.322  0.00  0.00    -0.311 N 
ATOM     14  C   LIG d   1      -4.649  76.620 116.743  0.00  0.00     0.210 C 
ATOM     15  C   LIG d   1      -3.839  77.726 116.058  0.00  0.00     0.109 C 
ATOM     16  O   LIG d   1      -4.117  75.894 117.597  0.00  0.00    -0.276 OA
ATOM     17  H   LIG d   1      -6.246  77.110 115.603  0.00  0.00     0.149 HD
ENDBRANCH   6  13
BRANCH   5  18
ATOM     18  N   LIG d   1      -5.627  73.473 116.032  0.00  0.00     0.381 N 
ATOM     19  H   LIG d   1      -5.190  73.555 116.928  0.00  0.00    -0.090 HD
ATOM     20  H   LIG d   1      -5.018  73.881 115.345  0.00  0.00    -0.090 HD
ATOM     21  H   LIG d   1      -5.784  72.512 115.819  0.00  0.00    -0.090 HD
ENDBRANCH   5  18
BRANCH   3  22
ATOM     22  C   LIG d   1     -10.359  73.121 116.680  0.00  0.00     0.382 C 
ATOM     23  O   LIG d   1     -10.262  71.888 116.473  0.00  0.00    -0.241 OA
ATOM     24  O   LIG d   1     -11.488  73.645 116.748  0.00  0.00    -0.241 OA
ENDBRANCH   3  22
TORSDOF 7
ENDMDL
MODEL 6
REMARK VINA RESULT:      -5.1      2.094      4.980
REMARK  7 active torsions:
REMARK  status: ('A' for Active; 'I' for Inactive)
REMARK    1  A    between atoms: C_2  and  C_3 
REMARK    2  A    between atoms: C_3  and  O_6 
REMARK    3  A    between atoms: C_3  and  C_4 
REMARK    4  A    between atoms: C_7  and  O_6 
REMARK    5  A    between atoms: C_9  and  C_10 
REMARK    6  A    between atoms: N_15  and  C_14 
REMARK    7  A    between atoms: N_20  and  C_19 
REMARK       I    between atoms: C_22  and  N_20 
ROOT
ATOM      1  C   LIG d   1      -6.326  75.184 116.629  0.00  0.00     0.161 C 
ATOM      2  C   LIG d   1      -6.843  73.956 116.183  0.00  0.00     0.016 C 
ATOM      3  C   LIG d   1      -8.171  73.537 116.426  0.00  0.00     0.038 C 
ATOM      4  C   LIG d   1      -9.124  74.390 117.004  0.00  0.00     0.028 C 
ATOM      5  C   LIG d   1      -8.515  75.445 117.921  0.00  0.00    -0.047 C 
ATOM      6  C   LIG d   1      -7.381  76.174 117.163  0.00  0.00     0.091 C 
ENDROOT
BRANCH   1   7
ATOM      7  O   LIG d   1      -5.550  75.796 115.579  0.00  0.00    -0.368 OA
BRANCH   7   8
ATOM      8  C   LIG d   1      -4.145  76.007 115.865  0.00  0.00     0.119 C 
BRANCH   8   9
ATOM      9  C   LIG d   1      -3.699  77.263 115.092  0.00  0.00     0.028 C 
ATOM     10  C   LIG d   1      -3.958  78.559 115.879  0.00  0.00     0.006 C 
ENDBRANCH   8   9
BRANCH   8  11
ATOM     11  C   LIG d   1      -3.287  74.865 115.313  0.00  0.00     0.028 C 
ATOM     12  C   LIG d   1      -2.731  73.951 116.417  0.00  0.00     0.006 C 
ENDBRANCH   8  11
ENDBRANCH   7   8
ENDBRANCH   1   7
BRANCH   6  13
ATOM     13  N   LIG d   1      -6.676  77.166 118.017  0.00  0.00    -0.311 N 
ATOM     14  C   LIG d   1      -6.985  78.461 118.044  0.00  0.00     0.210 C 
ATOM     15  C   LIG d   1      -6.120  79.312 118.978  0.00  0.00     0.109 C 
ATOM     16  O   LIG d   1      -7.914  78.980 117.407  0.00  0.00    -0.276 OA
ATOM     17  H   LIG d   1      -5.928  76.825 118.589  0.00  0.00     0.149 HD
ENDBRANCH   6  13
BRANCH   5  18
ATOM     18  N   LIG d   1      -9.601  76.348 118.344  0.00  0.00     0.381 N 
ATOM     19  H   LIG d   1     -10.044  75.984 119.164  0.00  0.00    -0.090 HD
ATOM     20  H   LIG d   1     -10.287  76.398 117.611  0.00  0.00    -0.090 HD
ATOM     21  H   LIG d   1      -9.237  77.256 118.530  0.00  0.00    -0.090 HD
ENDBRANCH   5  18
BRANCH   3  22
ATOM     22  C   LIG d   1      -8.548  72.237 116.125  0.00  0.00     0.382 C 
ATOM     23  O   LIG d   1      -7.704  71.431 115.663  0.00  0.00    -0.241 OA
ATOM     24  O   LIG d   1      -9.731  71.873 116.266  0.00  0.00    -0.241 OA
ENDBRANCH   3  22
TORSDOF 7
ENDMDL
MODEL 7
REMARK VINA RESULT:      -4.7      1.775      2.560
REMARK  7 active torsions:
REMARK  status: ('A' for Active; 'I' for Inactive)
REMARK    1  A    between atoms: C_2  and  C_3 
REMARK    2  A    between atoms: C_3  and  O_6 
REMARK    3  A    between atoms: C_3  and  C_4 
REMARK    4  A    between atoms: C_7  and  O_6 
REMARK    5  A    between atoms: C_9  and  C_10 
REMARK    6  A    between atoms: N_15  and  C_14 
REMARK    7  A    between atoms: N_20  and  C_19 
REMARK       I    between atoms: C_22  and  N_20 
ROOT
ATOM      1  C   LIG d   1      -6.459  76.530 117.375  0.00  0.00     0.161 C 
ATOM      2  C   LIG d   1      -7.774  76.066 117.541  0.00  0.00     0.016 C 
ATOM      3  C   LIG d   1      -8.866  76.912 117.841  0.00  0.00     0.038 C 
ATOM      4  C   LIG d   1      -8.741  78.309 117.847  0.00  0.00     0.028 C 
ATOM      5  C   LIG d   1      -7.334  78.791 118.183  0.00  0.00    -0.047 C 
ATOM      6  C   LIG d   1      -6.323  78.063 117.268  0.00  0.00     0.091 C 
ENDROOT
BRANCH   1   7
ATOM      7  O   LIG d   1      -5.856  75.892 116.232  0.00  0.00    -0.368 OA
BRANCH   7   8
ATOM      8  C   LIG d   1      -5.572  74.478 116.367  0.00  0.00     0.119 C 
BRANCH   8   9
ATOM      9  C   LIG d   1      -4.058  74.288 116.150  0.00  0.00     0.028 C 
ATOM     10  C   LIG d   1      -3.367  73.644 117.365  0.00  0.00     0.006 C 
ENDBRANCH   8   9
BRANCH   8  11
ATOM     11  C   LIG d   1      -6.245  73.666 115.257  0.00  0.00     0.028 C 
ATOM     12  C   LIG d   1      -7.365  72.753 115.783  0.00  0.00     0.006 C 
ENDBRANCH   8  11
ENDBRANCH   7   8
ENDBRANCH   1   7
BRANCH   6  13
ATOM     13  N   LIG d   1      -4.914  78.413 117.588  0.00  0.00    -0.311 N 
ATOM     14  C   LIG d   1      -4.069  78.937 116.701  0.00  0.00     0.210 C 
ATOM     15  C   LIG d   1      -2.658  79.205 117.233  0.00  0.00     0.109 C 
ATOM     16  O   LIG d   1      -4.364  79.236 115.534  0.00  0.00    -0.276 OA
ATOM     17  H   LIG d   1      -4.600  78.233 118.521  0.00  0.00     0.149 HD
ENDBRANCH   6  13
BRANCH   5  18
ATOM     18  N   LIG d   1      -7.313  80.256 118.019  0.00  0.00     0.381 N 
ATOM     19  H   LIG d   1      -6.774  80.672 118.752  0.00  0.00    -0.090 HD
ATOM     20  H   LIG d   1      -8.253  80.604 118.081  0.00  0.00    -0.090 HD
ATOM     21  H   LIG d   1      -6.921  80.494 117.134  0.00  0.00    -0.090 HD
ENDBRANCH   5  18
BRANCH   3  22
ATOM     22  C   LIG d   1     -10.092  76.359 118.179  0.00  0.00     0.382 C 
ATOM     23  O   LIG d   1     -10.622  75.505 117.429  0.00  0.00    -0.241 OA
ATOM     24  O   LIG d   1     -10.694  76.736 119.202  0.00  0.00    -0.241 OA
ENDBRANCH   3  22
TORSDOF 7
ENDMDL
MODEL 8
REMARK VINA RESULT:      -4.6     15.365     17.572
REMARK  7 active torsions:
REMARK  status: ('A' for Active; 'I' for Inactive)
REMARK    1  A    between atoms: C_2  and  C_3 
REMARK    2  A    between atoms: C_3  and  O_6 
REMARK    3  A    between atoms: C_3  and  C_4 
REMARK    4  A    between atoms: C_7  and  O_6 
REMARK    5  A    between atoms: C_9  and  C_10 
REMARK    6  A    between atoms: N_15  and  C_14 
REMARK    7  A    between atoms: N_20  and  C_19 
REMARK       I    between atoms: C_22  and  N_20 
ROOT
ATOM      1  C   LIG d   1       0.889  90.250 117.946  0.00  0.00     0.161 C 
ATOM      2  C   LIG d   1      -0.505  90.097 118.032  0.00  0.00     0.016 C 
ATOM      3  C   LIG d   1      -1.365  91.083 118.570  0.00  0.00     0.038 C 
ATOM      4  C   LIG d   1      -0.901  92.359 118.921  0.00  0.00     0.028 C 
ATOM      5  C   LIG d   1       0.571  92.380 119.322  0.00  0.00    -0.047 C 
ATOM      6  C   LIG d   1       1.400  91.680 118.221  0.00  0.00     0.091 C 
ENDROOT
BRANCH   1   7
ATOM      7  O   LIG d   1       1.352  89.791 116.660  0.00  0.00    -0.368 OA
BRANCH   7   8
ATOM      8  C   LIG d   1       1.856  88.434 116.612  0.00  0.00     0.119 C 
BRANCH   8   9
ATOM      9  C   LIG d   1       3.369  88.512 116.332  0.00  0.00     0.028 C 
ATOM     10  C   LIG d   1       3.690  89.319 115.062  0.00  0.00     0.006 C 
ENDBRANCH   8   9
BRANCH   8  11
ATOM     11  C   LIG d   1       1.264  87.662 115.429  0.00  0.00     0.028 C 
ATOM     12  C   LIG d   1       0.223  86.617 115.861  0.00  0.00     0.006 C 
ENDBRANCH   8  11
ENDBRANCH   7   8
ENDBRANCH   1   7
BRANCH   6  13
ATOM     13  N   LIG d   1       2.841  91.581 118.573  0.00  0.00    -0.311 N 
ATOM     14  C   LIG d   1       3.822  91.980 117.765  0.00  0.00     0.210 C 
ATOM     15  C   LIG d   1       5.237  91.771 118.314  0.00  0.00     0.109 C 
ATOM     16  O   LIG d   1       3.654  92.516 116.660  0.00  0.00    -0.276 OA
ATOM     17  H   LIG d   1       3.066  91.187 119.466  0.00  0.00     0.149 HD
ENDBRANCH   6  13
BRANCH   5  18
ATOM     18  N   LIG d   1       0.956  93.788 119.528  0.00  0.00     0.381 N 
ATOM     19  H   LIG d   1       1.649  93.848 120.248  0.00  0.00    -0.090 HD
ATOM     20  H   LIG d   1       0.148  94.306 119.826  0.00  0.00    -0.090 HD
ATOM     21  H   LIG d   1       1.313  94.172 118.681  0.00  0.00    -0.090 HD
ENDBRANCH   5  18
BRANCH   3  22
ATOM     22  C   LIG d   1      -2.699  90.781 118.798  0.00  0.00     0.382 C 
ATOM     23  O   LIG d   1      -3.423  91.583 119.435  0.00  0.00    -0.241 OA
ATOM     24  O   LIG d   1      -3.176  89.696 118.414  0.00  0.00    -0.241 OA
ENDBRANCH   3  22
TORSDOF 7
ENDMDL
MODEL 9
REMARK VINA RESULT:      -4.6     11.703     14.465
REMARK  7 active torsions:
REMARK  status: ('A' for Active; 'I' for Inactive)
REMARK    1  A    between atoms: C_2  and  C_3 
REMARK    2  A    between atoms: C_3  and  O_6 
REMARK    3  A    between atoms: C_3  and  C_4 
REMARK    4  A    between atoms: C_7  and  O_6 
REMARK    5  A    between atoms: C_9  and  C_10 
REMARK    6  A    between atoms: N_15  and  C_14 
REMARK    7  A    between atoms: N_20  and  C_19 
REMARK       I    between atoms: C_22  and  N_20 
ROOT
ATOM      1  C   LIG d   1     -15.045  64.193 117.187  0.00  0.00     0.161 C 
ATOM      2  C   LIG d   1     -14.869  65.427 116.539  0.00  0.00     0.016 C 
ATOM      3  C   LIG d   1     -15.635  65.837 115.424  0.00  0.00     0.038 C 
ATOM      4  C   LIG d   1     -16.739  65.099 114.971  0.00  0.00     0.028 C 
ATOM      5  C   LIG d   1     -16.637  63.608 115.275  0.00  0.00    -0.047 C 
ATOM      6  C   LIG d   1     -16.318  63.423 116.776  0.00  0.00     0.091 C 
ENDROOT
BRANCH   1   7
ATOM      7  O   LIG d   1     -15.013  64.381 118.615  0.00  0.00    -0.368 OA
BRANCH   7   8
ATOM      8  C   LIG d   1     -15.002  65.754 119.077  0.00  0.00     0.119 C 
BRANCH   8   9
ATOM      9  C   LIG d   1     -13.955  65.856 120.203  0.00  0.00     0.028 C 
ATOM     10  C   LIG d   1     -13.185  67.186 120.170  0.00  0.00     0.006 C 
ENDBRANCH   8   9
BRANCH   8  11
ATOM     11  C   LIG d   1     -16.336  66.134 119.728  0.00  0.00     0.028 C 
ATOM     12  C   LIG d   1     -17.164  67.101 118.868  0.00  0.00     0.006 C 
ENDBRANCH   8  11
ENDBRANCH   7   8
ENDBRANCH   1   7
BRANCH   6  13
ATOM     13  N   LIG d   1     -16.119  61.996 117.141  0.00  0.00    -0.311 N 
ATOM     14  C   LIG d   1     -16.868  61.357 118.038  0.00  0.00     0.210 C 
ATOM     15  C   LIG d   1     -16.480  59.895 118.280  0.00  0.00     0.109 C 
ATOM     16  O   LIG d   1     -17.837  61.853 118.632  0.00  0.00    -0.276 OA
ATOM     17  H   LIG d   1     -15.374  61.508 116.684  0.00  0.00     0.149 HD
ENDBRANCH   6  13
BRANCH   5  18
ATOM     18  N   LIG d   1     -17.911  62.983 114.873  0.00  0.00     0.381 N 
ATOM     19  H   LIG d   1     -18.411  63.597 114.261  0.00  0.00    -0.090 HD
ATOM     20  H   LIG d   1     -18.471  62.830 115.693  0.00  0.00    -0.090 HD
ATOM     21  H   LIG d   1     -17.736  62.116 114.414  0.00  0.00    -0.090 HD
ENDBRANCH   5  18
BRANCH   3  22
ATOM     22  C   LIG d   1     -15.274  66.978 114.724  0.00  0.00     0.382 C 
ATOM     23  O   LIG d   1     -14.422  66.907 113.806  0.00  0.00    -0.241 OA
ATOM     24  O   LIG d   1     -15.756  68.086 115.030  0.00  0.00    -0.241 OA
ENDBRANCH   3  22
TORSDOF 7
ENDMDL
