MODEL 1
REMARK VINA RESULT:      -5.7      0.000      0.000
REMARK  7 active torsions:
REMARK  status: ('A' for Active; 'I' for Inactive)
REMARK    1  A    between atoms: C_2  and  C_3 
REMARK    2  A    between atoms: C_3  and  O_6 
REMARK    3  A    between atoms: C_3  and  C_4 
REMARK    4  A    between atoms: C_7  and  O_6 
REMARK    5  A    between atoms: C_9  and  C_10 
REMARK    6  A    between atoms: N_15  and  C_14 
REMARK    7  A    between atoms: N_20  and  C_19 
REMARK       I    between atoms: C_22  and  N_20 
ROOT
ATOM      1  C   LIG d   1      -8.293  75.131 118.152  0.00  0.00     0.161 C 
ATOM      2  C   LIG d   1      -9.400  75.823 118.670  0.00  0.00     0.016 C 
ATOM      3  C   LIG d   1      -9.481  77.234 118.721  0.00  0.00     0.038 C 
ATOM      4  C   LIG d   1      -8.519  78.054 118.114  0.00  0.00     0.028 C 
ATOM      5  C   LIG d   1      -7.140  77.408 118.026  0.00  0.00    -0.047 C 
ATOM      6  C   LIG d   1      -7.282  76.009 117.385  0.00  0.00     0.091 C 
ENDROOT
BRANCH   1   7
ATOM      7  O   LIG d   1      -8.742  74.042 117.322  0.00  0.00    -0.368 OA
BRANCH   7   8
ATOM      8  C   LIG d   1      -9.082  72.813 118.010  0.00  0.00     0.119 C 
BRANCH   8   9
ATOM      9  C   LIG d   1      -8.109  71.723 117.519  0.00  0.00     0.028 C 
ATOM     10  C   LIG d   1      -7.483  72.066 116.157  0.00  0.00     0.006 C 
ENDBRANCH   8   9
BRANCH   8  11
ATOM     11  C   LIG d   1     -10.477  72.320 117.615  0.00  0.00     0.028 C 
ATOM     12  C   LIG d   1     -10.605  70.789 117.667  0.00  0.00     0.006 C 
ENDBRANCH   8  11
ENDBRANCH   7   8
ENDBRANCH   1   7
BRANCH   6  13
ATOM     13  N   LIG d   1      -5.992  75.273 117.338  0.00  0.00    -0.311 N 
ATOM     14  C   LIG d   1      -5.171  75.298 116.290  0.00  0.00     0.210 C 
ATOM     15  C   LIG d   1      -3.902  74.453 116.442  0.00  0.00     0.109 C 
ATOM     16  O   LIG d   1      -5.358  75.965 115.261  0.00  0.00    -0.276 OA
ATOM     17  H   LIG d   1      -5.746  74.731 118.144  0.00  0.00     0.149 HD
ENDBRANCH   6  13
BRANCH   5  18
ATOM     18  N   LIG d   1      -6.272  78.314 117.251  0.00  0.00     0.381 N 
ATOM     19  H   LIG d   1      -6.820  79.048 116.849  0.00  0.00    -0.090 HD
ATOM     20  H   LIG d   1      -5.844  77.795 116.505  0.00  0.00    -0.090 HD
ATOM     21  H   LIG d   1      -5.569  78.701 117.842  0.00  0.00    -0.090 HD
ENDBRANCH   5  18
BRANCH   3  22
ATOM     22  C   LIG d   1     -10.516  77.838 119.419  0.00  0.00     0.382 C 
ATOM     23  O   LIG d   1     -10.268  78.760 120.233  0.00  0.00    -0.241 OA
ATOM     24  O   LIG d   1     -11.689  77.442 119.279  0.00  0.00    -0.241 OA
ENDBRANCH   3  22
TORSDOF 7
ENDMDL
MODEL 2
REMARK VINA RESULT:      -5.2      2.102      5.416
REMARK  7 active torsions:
REMARK  status: ('A' for Active; 'I' for Inactive)
REMARK    1  A    between atoms: C_2  and  C_3 
REMARK    2  A    between atoms: C_3  and  O_6 
REMARK    3  A    between atoms: C_3  and  C_4 
REMARK    4  A    between atoms: C_7  and  O_6 
REMARK    5  A    between atoms: C_9  and  C_10 
REMARK    6  A    between atoms: N_15  and  C_14 
REMARK    7  A    between atoms: N_20  and  C_19 
REMARK       I    between atoms: C_22  and  N_20 
ROOT
ATOM      1  C   LIG d   1      -6.363  74.979 116.700  0.00  0.00     0.161 C 
ATOM      2  C   LIG d   1      -6.914  73.692 116.588  0.00  0.00     0.016 C 
ATOM      3  C   LIG d   1      -8.072  73.278 117.285  0.00  0.00     0.038 C 
ATOM      4  C   LIG d   1      -8.850  74.176 118.030  0.00  0.00     0.028 C 
ATOM      5  C   LIG d   1      -8.055  75.356 118.578  0.00  0.00    -0.047 C 
ATOM      6  C   LIG d   1      -7.261  76.006 117.422  0.00  0.00     0.091 C 
ENDROOT
BRANCH   1   7
ATOM      7  O   LIG d   1      -5.992  75.467 115.396  0.00  0.00    -0.368 OA
BRANCH   7   8
ATOM      8  C   LIG d   1      -4.590  75.351 115.047  0.00  0.00     0.119 C 
BRANCH   8   9
ATOM      9  C   LIG d   1      -3.800  75.172 116.358  0.00  0.00     0.028 C 
ATOM     10  C   LIG d   1      -2.631  74.184 116.208  0.00  0.00     0.006 C 
ENDBRANCH   8   9
BRANCH   8  11
ATOM     11  C   LIG d   1      -4.061  76.648 114.428  0.00  0.00     0.028 C 
ATOM     12  C   LIG d   1      -3.798  77.743 115.474  0.00  0.00     0.006 C 
ENDBRANCH   8  11
ENDBRANCH   7   8
ENDBRANCH   1   7
BRANCH   6  13
ATOM     13  N   LIG d   1      -6.390  77.117 117.886  0.00  0.00    -0.311 N 
ATOM     14  C   LIG d   1      -6.776  78.392 117.907  0.00  0.00     0.210 C 
ATOM     15  C   LIG d   1      -5.717  79.380 118.404  0.00  0.00     0.109 C 
ATOM     16  O   LIG d   1      -7.906  78.794 117.592  0.00  0.00    -0.276 OA
ATOM     17  H   LIG d   1      -5.467  76.877 118.190  0.00  0.00     0.149 HD
ENDBRANCH   6  13
BRANCH   5  18
ATOM     18  N   LIG d   1      -9.012  76.282 119.214  0.00  0.00     0.381 N 
ATOM     19  H   LIG d   1      -9.005  76.147 120.205  0.00  0.00    -0.090 HD
ATOM     20  H   LIG d   1      -9.935  76.078 118.874  0.00  0.00    -0.090 HD
ATOM     21  H   LIG d   1      -8.771  77.224 118.997  0.00  0.00    -0.090 HD
ENDBRANCH   5  18
BRANCH   3  22
ATOM     22  C   LIG d   1      -8.440  71.941 117.272  0.00  0.00     0.382 C 
ATOM     23  O   LIG d   1      -8.645  71.337 118.353  0.00  0.00    -0.241 OA
ATOM     24  O   LIG d   1      -8.527  71.319 116.196  0.00  0.00    -0.241 OA
ENDBRANCH   3  22
TORSDOF 7
ENDMDL
MODEL 3
REMARK VINA RESULT:      -5.2      2.110      4.611
REMARK  7 active torsions:
REMARK  status: ('A' for Active; 'I' for Inactive)
REMARK    1  A    between atoms: C_2  and  C_3 
REMARK    2  A    between atoms: C_3  and  O_6 
REMARK    3  A    between atoms: C_3  and  C_4 
REMARK    4  A    between atoms: C_7  and  O_6 
REMARK    5  A    between atoms: C_9  and  C_10 
REMARK    6  A    between atoms: N_15  and  C_14 
REMARK    7  A    between atoms: N_20  and  C_19 
REMARK       I    between atoms: C_22  and  N_20 
ROOT
ATOM      1  C   LIG d   1      -7.096  75.972 117.873  0.00  0.00     0.161 C 
ATOM      2  C   LIG d   1      -7.819  74.779 117.712  0.00  0.00     0.016 C 
ATOM      3  C   LIG d   1      -9.215  74.681 117.917  0.00  0.00     0.038 C 
ATOM      4  C   LIG d   1     -10.011  75.812 118.151  0.00  0.00     0.028 C 
ATOM      5  C   LIG d   1      -9.256  76.956 118.819  0.00  0.00    -0.047 C 
ATOM      6  C   LIG d   1      -7.964  77.240 118.019  0.00  0.00     0.091 C 
ENDROOT
BRANCH   1   7
ATOM      7  O   LIG d   1      -6.161  76.127 116.787  0.00  0.00    -0.368 OA
BRANCH   7   8
ATOM      8  C   LIG d   1      -5.455  74.930 116.378  0.00  0.00     0.119 C 
BRANCH   8   9
ATOM      9  C   LIG d   1      -3.949  75.192 116.574  0.00  0.00     0.028 C 
ATOM     10  C   LIG d   1      -3.223  73.993 117.206  0.00  0.00     0.006 C 
ENDBRANCH   8   9
BRANCH   8  11
ATOM     11  C   LIG d   1      -5.629  74.665 114.879  0.00  0.00     0.028 C 
ATOM     12  C   LIG d   1      -6.516  75.713 114.188  0.00  0.00     0.006 C 
ENDBRANCH   8  11
ENDBRANCH   7   8
ENDBRANCH   1   7
BRANCH   6  13
ATOM     13  N   LIG d   1      -7.124  78.289 118.653  0.00  0.00    -0.311 N 
ATOM     14  C   LIG d   1      -7.192  79.579 118.327  0.00  0.00     0.210 C 
ATOM     15  C   LIG d   1      -6.224  80.490 119.088  0.00  0.00     0.109 C 
ATOM     16  O   LIG d   1      -7.985  80.059 117.503  0.00  0.00    -0.276 OA
ATOM     17  H   LIG d   1      -6.474  77.992 119.355  0.00  0.00     0.149 HD
ENDBRANCH   6  13
BRANCH   5  18
ATOM     18  N   LIG d   1     -10.166  78.116 118.878  0.00  0.00     0.381 N 
ATOM     19  H   LIG d   1     -11.109  77.814 118.736  0.00  0.00    -0.090 HD
ATOM     20  H   LIG d   1      -9.925  78.755 118.141  0.00  0.00    -0.090 HD
ATOM     21  H   LIG d   1     -10.083  78.570 119.761  0.00  0.00    -0.090 HD
ENDBRANCH   5  18
BRANCH   3  22
ATOM     22  C   LIG d   1      -9.822  73.435 117.927  0.00  0.00     0.382 C 
ATOM     23  O   LIG d   1      -9.149  72.412 118.202  0.00  0.00    -0.241 OA
ATOM     24  O   LIG d   1     -11.024  73.315 117.623  0.00  0.00    -0.241 OA
ENDBRANCH   3  22
TORSDOF 7
ENDMDL
MODEL 4
REMARK VINA RESULT:      -5.2      1.903      2.549
REMARK  7 active torsions:
REMARK  status: ('A' for Active; 'I' for Inactive)
REMARK    1  A    between atoms: C_2  and  C_3 
REMARK    2  A    between atoms: C_3  and  O_6 
REMARK    3  A    between atoms: C_3  and  C_4 
REMARK    4  A    between atoms: C_7  and  O_6 
REMARK    5  A    between atoms: C_9  and  C_10 
REMARK    6  A    between atoms: N_15  and  C_14 
REMARK    7  A    between atoms: N_20  and  C_19 
REMARK       I    between atoms: C_22  and  N_20 
ROOT
ATOM      1  C   LIG d   1      -7.338  76.881 117.628  0.00  0.00     0.161 C 
ATOM      2  C   LIG d   1      -8.586  77.331 118.089  0.00  0.00     0.016 C 
ATOM      3  C   LIG d   1      -8.871  78.688 118.364  0.00  0.00     0.038 C 
ATOM      4  C   LIG d   1      -7.967  79.714 118.049  0.00  0.00     0.028 C 
ATOM      5  C   LIG d   1      -6.511  79.261 118.054  0.00  0.00    -0.047 C 
ATOM      6  C   LIG d   1      -6.376  77.998 117.173  0.00  0.00     0.091 C 
ENDROOT
BRANCH   1   7
ATOM      7  O   LIG d   1      -7.526  75.920 116.570  0.00  0.00    -0.368 OA
BRANCH   7   8
ATOM      8  C   LIG d   1      -6.846  74.651 116.733  0.00  0.00     0.119 C 
BRANCH   8   9
ATOM      9  C   LIG d   1      -6.205  74.291 115.379  0.00  0.00     0.028 C 
ATOM     10  C   LIG d   1      -6.304  75.438 114.359  0.00  0.00     0.006 C 
ENDBRANCH   8   9
BRANCH   8  11
ATOM     11  C   LIG d   1      -7.839  73.521 117.025  0.00  0.00     0.028 C 
ATOM     12  C   LIG d   1      -7.507  72.227 116.267  0.00  0.00     0.006 C 
ENDBRANCH   8  11
ENDBRANCH   7   8
ENDBRANCH   1   7
BRANCH   6  13
ATOM     13  N   LIG d   1      -4.998  77.440 117.190  0.00  0.00    -0.311 N 
ATOM     14  C   LIG d   1      -4.070  77.751 116.288  0.00  0.00     0.210 C 
ATOM     15  C   LIG d   1      -2.722  77.048 116.478  0.00  0.00     0.109 C 
ATOM     16  O   LIG d   1      -4.224  78.567 115.367  0.00  0.00    -0.276 OA
ATOM     17  H   LIG d   1      -4.778  76.793 117.922  0.00  0.00     0.149 HD
ENDBRANCH   6  13
BRANCH   5  18
ATOM     18  N   LIG d   1      -5.691  80.390 117.577  0.00  0.00     0.381 N 
ATOM     19  H   LIG d   1      -5.914  80.590 116.622  0.00  0.00    -0.090 HD
ATOM     20  H   LIG d   1      -4.722  80.132 117.627  0.00  0.00    -0.090 HD
ATOM     21  H   LIG d   1      -5.858  81.195 118.140  0.00  0.00    -0.090 HD
ENDBRANCH   5  18
BRANCH   3  22
ATOM     22  C   LIG d   1     -10.057  79.027 118.997  0.00  0.00     0.382 C 
ATOM     23  O   LIG d   1     -10.197  80.169 119.498  0.00  0.00    -0.241 OA
ATOM     24  O   LIG d   1     -10.973  78.191 119.112  0.00  0.00    -0.241 OA
ENDBRANCH   3  22
TORSDOF 7
ENDMDL
MODEL 5
REMARK VINA RESULT:      -5.1      2.438      4.656
REMARK  7 active torsions:
REMARK  status: ('A' for Active; 'I' for Inactive)
REMARK    1  A    between atoms: C_2  and  C_3 
REMARK    2  A    between atoms: C_3  and  O_6 
REMARK    3  A    between atoms: C_3  and  C_4 
REMARK    4  A    between atoms: C_7  and  O_6 
REMARK    5  A    between atoms: C_9  and  C_10 
REMARK    6  A    between atoms: N_15  and  C_14 
REMARK    7  A    between atoms: N_20  and  C_19 
REMARK       I    between atoms: C_22  and  N_20 
ROOT
ATOM      1  C   LIG d   1      -7.474  76.557 117.179  0.00  0.00     0.161 C 
ATOM      2  C   LIG d   1      -6.735  77.751 117.207  0.00  0.00     0.016 C 
ATOM      3  C   LIG d   1      -7.136  78.897 117.932  0.00  0.00     0.038 C 
ATOM      4  C   LIG d   1      -8.234  78.875 118.805  0.00  0.00     0.028 C 
ATOM      5  C   LIG d   1      -9.295  77.851 118.419  0.00  0.00    -0.047 C 
ATOM      6  C   LIG d   1      -8.616  76.478 118.214  0.00  0.00     0.091 C 
ENDROOT
BRANCH   1   7
ATOM      7  O   LIG d   1      -6.588  75.430 117.324  0.00  0.00    -0.368 OA
BRANCH   7   8
ATOM      8  C   LIG d   1      -5.662  75.202 116.233  0.00  0.00     0.119 C 
BRANCH   8   9
ATOM      9  C   LIG d   1      -6.298  74.156 115.298  0.00  0.00     0.028 C 
ATOM     10  C   LIG d   1      -6.932  72.986 116.070  0.00  0.00     0.006 C 
ENDBRANCH   8   9
BRANCH   8  11
ATOM     11  C   LIG d   1      -4.361  74.564 116.730  0.00  0.00     0.028 C 
ATOM     12  C   LIG d   1      -3.154  74.904 115.842  0.00  0.00     0.006 C 
ENDBRANCH   8  11
ENDBRANCH   7   8
ENDBRANCH   1   7
BRANCH   6  13
ATOM     13  N   LIG d   1      -9.571  75.437 117.751  0.00  0.00    -0.311 N 
ATOM     14  C   LIG d   1      -9.568  74.185 118.207  0.00  0.00     0.210 C 
ATOM     15  C   LIG d   1     -10.624  73.267 117.583  0.00  0.00     0.109 C 
ATOM     16  O   LIG d   1      -8.812  73.756 119.091  0.00  0.00    -0.276 OA
ATOM     17  H   LIG d   1     -10.240  75.707 117.057  0.00  0.00     0.149 HD
ENDBRANCH   6  13
BRANCH   5  18
ATOM     18  N   LIG d   1     -10.313  77.839 119.486  0.00  0.00     0.381 N 
ATOM     19  H   LIG d   1     -10.288  78.705 119.988  0.00  0.00    -0.090 HD
ATOM     20  H   LIG d   1     -10.101  77.097 120.129  0.00  0.00    -0.090 HD
ATOM     21  H   LIG d   1     -11.218  77.700 119.094  0.00  0.00    -0.090 HD
ENDBRANCH   5  18
BRANCH   3  22
ATOM     22  C   LIG d   1      -6.458  80.093 117.756  0.00  0.00     0.382 C 
ATOM     23  O   LIG d   1      -7.023  81.056 117.183  0.00  0.00    -0.241 OA
ATOM     24  O   LIG d   1      -5.273  80.208 118.123  0.00  0.00    -0.241 OA
ENDBRANCH   3  22
TORSDOF 7
ENDMDL
MODEL 6
REMARK VINA RESULT:      -4.9      2.116      5.433
REMARK  7 active torsions:
REMARK  status: ('A' for Active; 'I' for Inactive)
REMARK    1  A    between atoms: C_2  and  C_3 
REMARK    2  A    between atoms: C_3  and  O_6 
REMARK    3  A    between atoms: C_3  and  C_4 
REMARK    4  A    between atoms: C_7  and  O_6 
REMARK    5  A    between atoms: C_9  and  C_10 
REMARK    6  A    between atoms: N_15  and  C_14 
REMARK    7  A    between atoms: N_20  and  C_19 
REMARK       I    between atoms: C_22  and  N_20 
ROOT
ATOM      1  C   LIG d   1      -5.798  75.625 116.281  0.00  0.00     0.161 C 
ATOM      2  C   LIG d   1      -4.720  74.746 116.085  0.00  0.00     0.016 C 
ATOM      3  C   LIG d   1      -3.576  74.720 116.915  0.00  0.00     0.038 C 
ATOM      4  C   LIG d   1      -3.499  75.473 118.096  0.00  0.00     0.028 C 
ATOM      5  C   LIG d   1      -4.343  76.743 118.060  0.00  0.00    -0.047 C 
ATOM      6  C   LIG d   1      -5.781  76.377 117.628  0.00  0.00     0.091 C 
ENDROOT
BRANCH   1   7
ATOM      7  O   LIG d   1      -7.042  74.917 116.117  0.00  0.00    -0.368 OA
BRANCH   7   8
ATOM      8  C   LIG d   1      -7.300  73.854 117.068  0.00  0.00     0.119 C 
BRANCH   8   9
ATOM      9  C   LIG d   1      -7.306  72.526 116.287  0.00  0.00     0.028 C 
ATOM     10  C   LIG d   1      -8.221  71.471 116.930  0.00  0.00     0.006 C 
ENDBRANCH   8   9
BRANCH   8  11
ATOM     11  C   LIG d   1      -8.703  73.976 117.671  0.00  0.00     0.028 C 
ATOM     12  C   LIG d   1      -8.700  74.644 119.055  0.00  0.00     0.006 C 
ENDBRANCH   8  11
ENDBRANCH   7   8
ENDBRANCH   1   7
BRANCH   6  13
ATOM     13  N   LIG d   1      -6.652  77.573 117.486  0.00  0.00    -0.311 N 
ATOM     14  C   LIG d   1      -7.343  78.101 118.495  0.00  0.00     0.210 C 
ATOM     15  C   LIG d   1      -8.193  79.321 118.128  0.00  0.00     0.109 C 
ATOM     16  O   LIG d   1      -7.307  77.695 119.666  0.00  0.00    -0.276 OA
ATOM     17  H   LIG d   1      -6.715  77.986 116.576  0.00  0.00     0.149 HD
ENDBRANCH   6  13
BRANCH   5  18
ATOM     18  N   LIG d   1      -4.280  77.358 119.399  0.00  0.00     0.381 N 
ATOM     19  H   LIG d   1      -4.471  76.668 120.098  0.00  0.00    -0.090 HD
ATOM     20  H   LIG d   1      -4.982  78.074 119.461  0.00  0.00    -0.090 HD
ATOM     21  H   LIG d   1      -3.378  77.754 119.550  0.00  0.00    -0.090 HD
ENDBRANCH   5  18
BRANCH   3  22
ATOM     22  C   LIG d   1      -2.475  73.962 116.544  0.00  0.00     0.382 C 
ATOM     23  O   LIG d   1      -2.093  73.953 115.349  0.00  0.00    -0.241 OA
ATOM     24  O   LIG d   1      -1.886  73.253 117.382  0.00  0.00    -0.241 OA
ENDBRANCH   3  22
TORSDOF 7
ENDMDL
MODEL 7
REMARK VINA RESULT:      -4.8      2.519      5.466
REMARK  7 active torsions:
REMARK  status: ('A' for Active; 'I' for Inactive)
REMARK    1  A    between atoms: C_2  and  C_3 
REMARK    2  A    between atoms: C_3  and  O_6 
REMARK    3  A    between atoms: C_3  and  C_4 
REMARK    4  A    between atoms: C_7  and  O_6 
REMARK    5  A    between atoms: C_9  and  C_10 
REMARK    6  A    between atoms: N_15  and  C_14 
REMARK    7  A    between atoms: N_20  and  C_19 
REMARK       I    between atoms: C_22  and  N_20 
ROOT
ATOM      1  C   LIG d   1      -6.502  77.446 117.081  0.00  0.00     0.161 C 
ATOM      2  C   LIG d   1      -5.256  77.595 116.448  0.00  0.00     0.016 C 
ATOM      3  C   LIG d   1      -4.478  78.772 116.529  0.00  0.00     0.038 C 
ATOM      4  C   LIG d   1      -4.826  79.834 117.378  0.00  0.00     0.028 C 
ATOM      5  C   LIG d   1      -6.324  79.933 117.642  0.00  0.00    -0.047 C 
ATOM      6  C   LIG d   1      -6.845  78.552 118.102  0.00  0.00     0.091 C 
ENDROOT
BRANCH   1   7
ATOM      7  O   LIG d   1      -6.582  76.148 117.703  0.00  0.00    -0.368 OA
BRANCH   7   8
ATOM      8  C   LIG d   1      -7.597  75.254 117.183  0.00  0.00     0.119 C 
BRANCH   8   9
ATOM      9  C   LIG d   1      -8.448  74.776 118.376  0.00  0.00     0.028 C 
ATOM     10  C   LIG d   1      -9.623  73.885 117.939  0.00  0.00     0.006 C 
ENDBRANCH   8   9
BRANCH   8  11
ATOM     11  C   LIG d   1      -6.973  73.985 116.595  0.00  0.00     0.028 C 
ATOM     12  C   LIG d   1      -6.314  74.223 115.228  0.00  0.00     0.006 C 
ENDBRANCH   8  11
ENDBRANCH   7   8
ENDBRANCH   1   7
BRANCH   6  13
ATOM     13  N   LIG d   1      -8.317  78.538 118.301  0.00  0.00    -0.311 N 
ATOM     14  C   LIG d   1      -8.897  78.239 119.462  0.00  0.00     0.210 C 
ATOM     15  C   LIG d   1     -10.429  78.265 119.445  0.00  0.00     0.109 C 
ATOM     16  O   LIG d   1      -8.288  77.985 120.512  0.00  0.00    -0.276 OA
ATOM     17  H   LIG d   1      -8.887  78.763 117.509  0.00  0.00     0.149 HD
ENDBRANCH   6  13
BRANCH   5  18
ATOM     18  N   LIG d   1      -6.530  80.992 118.647  0.00  0.00     0.381 N 
ATOM     19  H   LIG d   1      -6.916  80.597 119.482  0.00  0.00    -0.090 HD
ATOM     20  H   LIG d   1      -7.186  81.662 118.284  0.00  0.00    -0.090 HD
ATOM     21  H   LIG d   1      -5.665  81.441 118.853  0.00  0.00    -0.090 HD
ENDBRANCH   5  18
BRANCH   3  22
ATOM     22  C   LIG d   1      -3.358  78.913 115.723  0.00  0.00     0.382 C 
ATOM     23  O   LIG d   1      -2.276  78.370 116.054  0.00  0.00    -0.241 OA
ATOM     24  O   LIG d   1      -3.405  79.611 114.693  0.00  0.00    -0.241 OA
ENDBRANCH   3  22
TORSDOF 7
ENDMDL
MODEL 8
REMARK VINA RESULT:      -4.8      3.138      4.379
REMARK  7 active torsions:
REMARK  status: ('A' for Active; 'I' for Inactive)
REMARK    1  A    between atoms: C_2  and  C_3 
REMARK    2  A    between atoms: C_3  and  O_6 
REMARK    3  A    between atoms: C_3  and  C_4 
REMARK    4  A    between atoms: C_7  and  O_6 
REMARK    5  A    between atoms: C_9  and  C_10 
REMARK    6  A    between atoms: N_15  and  C_14 
REMARK    7  A    between atoms: N_20  and  C_19 
REMARK       I    between atoms: C_22  and  N_20 
ROOT
ATOM      1  C   LIG d   1      -4.970  76.950 118.181  0.00  0.00     0.161 C 
ATOM      2  C   LIG d   1      -5.609  78.194 118.318  0.00  0.00     0.016 C 
ATOM      3  C   LIG d   1      -5.225  79.349 117.598  0.00  0.00     0.038 C 
ATOM      4  C   LIG d   1      -4.268  79.300 116.574  0.00  0.00     0.028 C 
ATOM      5  C   LIG d   1      -3.247  78.182 116.751  0.00  0.00    -0.047 C 
ATOM      6  C   LIG d   1      -3.997  76.851 116.987  0.00  0.00     0.091 C 
ENDROOT
BRANCH   1   7
ATOM      7  O   LIG d   1      -5.955  75.900 118.112  0.00  0.00    -0.368 OA
BRANCH   7   8
ATOM      8  C   LIG d   1      -6.683  75.790 116.864  0.00  0.00     0.119 C 
BRANCH   8   9
ATOM      9  C   LIG d   1      -8.169  76.058 117.170  0.00  0.00     0.028 C 
ATOM     10  C   LIG d   1      -8.770  75.012 118.125  0.00  0.00     0.006 C 
ENDBRANCH   8   9
BRANCH   8  11
ATOM     11  C   LIG d   1      -6.634  74.361 116.315  0.00  0.00     0.028 C 
ATOM     12  C   LIG d   1      -6.150  74.299 114.858  0.00  0.00     0.006 C 
ENDBRANCH   8  11
ENDBRANCH   7   8
ENDBRANCH   1   7
BRANCH   6  13
ATOM     13  N   LIG d   1      -3.072  75.719 117.254  0.00  0.00    -0.311 N 
ATOM     14  C   LIG d   1      -2.587  74.927 116.299  0.00  0.00     0.210 C 
ATOM     15  C   LIG d   1      -1.665  73.807 116.793  0.00  0.00     0.109 C 
ATOM     16  O   LIG d   1      -2.807  75.066 115.087  0.00  0.00    -0.276 OA
ATOM     17  H   LIG d   1      -2.816  75.554 118.208  0.00  0.00     0.149 HD
ENDBRANCH   6  13
BRANCH   5  18
ATOM     18  N   LIG d   1      -2.395  78.160 115.547  0.00  0.00     0.381 N 
ATOM     19  H   LIG d   1      -2.956  78.312 114.733  0.00  0.00    -0.090 HD
ATOM     20  H   LIG d   1      -1.965  77.255 115.469  0.00  0.00    -0.090 HD
ATOM     21  H   LIG d   1      -1.694  78.865 115.612  0.00  0.00    -0.090 HD
ENDBRANCH   5  18
BRANCH   3  22
ATOM     22  C   LIG d   1      -5.774  80.578 117.929  0.00  0.00     0.382 C 
ATOM     23  O   LIG d   1      -5.497  81.113 119.029  0.00  0.00    -0.241 OA
ATOM     24  O   LIG d   1      -6.578  81.139 117.159  0.00  0.00    -0.241 OA
ENDBRANCH   3  22
TORSDOF 7
ENDMDL
MODEL 9
REMARK VINA RESULT:      -4.7      2.143      3.452
REMARK  7 active torsions:
REMARK  status: ('A' for Active; 'I' for Inactive)
REMARK    1  A    between atoms: C_2  and  C_3 
REMARK    2  A    between atoms: C_3  and  O_6 
REMARK    3  A    between atoms: C_3  and  C_4 
REMARK    4  A    between atoms: C_7  and  O_6 
REMARK    5  A    between atoms: C_9  and  C_10 
REMARK    6  A    between atoms: N_15  and  C_14 
REMARK    7  A    between atoms: N_20  and  C_19 
REMARK       I    between atoms: C_22  and  N_20 
ROOT
ATOM      1  C   LIG d   1      -6.418  76.428 117.987  0.00  0.00     0.161 C 
ATOM      2  C   LIG d   1      -7.789  76.149 118.113  0.00  0.00     0.016 C 
ATOM      3  C   LIG d   1      -8.785  77.151 118.169  0.00  0.00     0.038 C 
ATOM      4  C   LIG d   1      -8.488  78.504 117.948  0.00  0.00     0.028 C 
ATOM      5  C   LIG d   1      -7.057  78.879 118.319  0.00  0.00    -0.047 C 
ATOM      6  C   LIG d   1      -6.086  77.893 117.633  0.00  0.00     0.091 C 
ENDROOT
BRANCH   1   7
ATOM      7  O   LIG d   1      -5.824  75.533 117.025  0.00  0.00    -0.368 OA
BRANCH   7   8
ATOM      8  C   LIG d   1      -6.715  75.001 116.015  0.00  0.00     0.119 C 
BRANCH   8   9
ATOM      9  C   LIG d   1      -6.509  73.474 115.974  0.00  0.00     0.028 C 
ATOM     10  C   LIG d   1      -7.648  72.709 116.669  0.00  0.00     0.006 C 
ENDBRANCH   8   9
BRANCH   8  11
ATOM     11  C   LIG d   1      -6.334  75.499 114.618  0.00  0.00     0.028 C 
ATOM     12  C   LIG d   1      -4.934  76.131 114.571  0.00  0.00     0.006 C 
ENDBRANCH   8  11
ENDBRANCH   7   8
ENDBRANCH   1   7
BRANCH   6  13
ATOM     13  N   LIG d   1      -4.669  78.137 118.011  0.00  0.00    -0.311 N 
ATOM     14  C   LIG d   1      -3.840  78.896 117.297  0.00  0.00     0.210 C 
ATOM     15  C   LIG d   1      -2.417  78.999 117.853  0.00  0.00     0.109 C 
ATOM     16  O   LIG d   1      -4.157  79.520 116.273  0.00  0.00    -0.276 OA
ATOM     17  H   LIG d   1      -4.337  77.694 118.845  0.00  0.00     0.149 HD
ENDBRANCH   6  13
BRANCH   5  18
ATOM     18  N   LIG d   1      -6.843  80.280 117.911  0.00  0.00     0.381 N 
ATOM     19  H   LIG d   1      -7.543  80.550 117.248  0.00  0.00    -0.090 HD
ATOM     20  H   LIG d   1      -5.944  80.356 117.469  0.00  0.00    -0.090 HD
ATOM     21  H   LIG d   1      -6.882  80.878 118.707  0.00  0.00    -0.090 HD
ENDBRANCH   5  18
BRANCH   3  22
ATOM     22  C   LIG d   1     -10.089  76.806 118.487  0.00  0.00     0.382 C 
ATOM     23  O   LIG d   1     -10.811  77.608 119.129  0.00  0.00    -0.241 OA
ATOM     24  O   LIG d   1     -10.540  75.686 118.180  0.00  0.00    -0.241 OA
ENDBRANCH   3  22
TORSDOF 7
ENDMDL
