MODEL 1
REMARK VINA RESULT:      -5.2      0.000      0.000
REMARK  7 active torsions:
REMARK  status: ('A' for Active; 'I' for Inactive)
REMARK    1  A    between atoms: C_2  and  C_3 
REMARK    2  A    between atoms: C_3  and  O_6 
REMARK    3  A    between atoms: C_3  and  C_4 
REMARK    4  A    between atoms: C_7  and  O_6 
REMARK    5  A    between atoms: C_9  and  C_10 
REMARK    6  A    between atoms: N_15  and  C_14 
REMARK    7  A    between atoms: N_20  and  C_19 
REMARK       I    between atoms: C_22  and  N_20 
ROOT
ATOM      1  C   LIG d   1      -3.990  91.594 117.992  0.00  0.00     0.161 C 
ATOM      2  C   LIG d   1      -4.785  90.749 117.200  0.00  0.00     0.016 C 
ATOM      3  C   LIG d   1      -6.047  91.125 116.685  0.00  0.00     0.038 C 
ATOM      4  C   LIG d   1      -6.536  92.435 116.804  0.00  0.00     0.028 C 
ATOM      5  C   LIG d   1      -5.999  93.174 118.024  0.00  0.00    -0.047 C 
ATOM      6  C   LIG d   1      -4.457  93.065 118.039  0.00  0.00     0.091 C 
ENDROOT
BRANCH   1   7
ATOM      7  O   LIG d   1      -2.617  91.518 117.563  0.00  0.00    -0.368 OA
BRANCH   7   8
ATOM      8  C   LIG d   1      -1.680  90.963 118.518  0.00  0.00     0.119 C 
BRANCH   8   9
ATOM      9  C   LIG d   1      -0.303  91.597 118.239  0.00  0.00     0.028 C 
ATOM     10  C   LIG d   1       0.140  92.554 119.358  0.00  0.00     0.006 C 
ENDBRANCH   8   9
BRANCH   8  11
ATOM     11  C   LIG d   1      -1.486  89.459 118.299  0.00  0.00     0.028 C 
ATOM     12  C   LIG d   1      -0.038  89.092 117.939  0.00  0.00     0.006 C 
ENDBRANCH   8  11
ENDBRANCH   7   8
ENDBRANCH   1   7
BRANCH   6  13
ATOM     13  N   LIG d   1      -3.855  93.689 119.246  0.00  0.00    -0.311 N 
ATOM     14  C   LIG d   1      -2.923  94.639 119.193  0.00  0.00     0.210 C 
ATOM     15  C   LIG d   1      -2.424  95.132 120.555  0.00  0.00     0.109 C 
ATOM     16  O   LIG d   1      -2.485  95.142 118.148  0.00  0.00    -0.276 OA
ATOM     17  H   LIG d   1      -4.176  93.362 120.137  0.00  0.00     0.149 HD
ENDBRANCH   6  13
BRANCH   5  18
ATOM     18  N   LIG d   1      -6.479  94.567 117.949  0.00  0.00     0.381 N 
ATOM     19  H   LIG d   1      -7.393  94.632 118.350  0.00  0.00    -0.090 HD
ATOM     20  H   LIG d   1      -6.537  94.839 116.984  0.00  0.00    -0.090 HD
ATOM     21  H   LIG d   1      -5.852  95.170 118.435  0.00  0.00    -0.090 HD
ENDBRANCH   5  18
BRANCH   3  22
ATOM     22  C   LIG d   1      -6.852  90.174 116.078  0.00  0.00     0.382 C 
ATOM     23  O   LIG d   1      -6.591  89.781 114.915  0.00  0.00    -0.241 OA
ATOM     24  O   LIG d   1      -7.863  89.736 116.660  0.00  0.00    -0.241 OA
ENDBRANCH   3  22
TORSDOF 7
ENDMDL
MODEL 2
REMARK VINA RESULT:      -5.2     13.285     15.577
REMARK  7 active torsions:
REMARK  status: ('A' for Active; 'I' for Inactive)
REMARK    1  A    between atoms: C_2  and  C_3 
REMARK    2  A    between atoms: C_3  and  O_6 
REMARK    3  A    between atoms: C_3  and  C_4 
REMARK    4  A    between atoms: C_7  and  O_6 
REMARK    5  A    between atoms: C_9  and  C_10 
REMARK    6  A    between atoms: N_15  and  C_14 
REMARK    7  A    between atoms: N_20  and  C_19 
REMARK       I    between atoms: C_22  and  N_20 
ROOT
ATOM      1  C   LIG d   1      -1.312  77.368 114.762  0.00  0.00     0.161 C 
ATOM      2  C   LIG d   1      -2.626  77.112 114.336  0.00  0.00     0.016 C 
ATOM      3  C   LIG d   1      -3.409  76.043 114.829  0.00  0.00     0.038 C 
ATOM      4  C   LIG d   1      -2.982  75.243 115.899  0.00  0.00     0.028 C 
ATOM      5  C   LIG d   1      -1.465  75.147 116.016  0.00  0.00    -0.047 C 
ATOM      6  C   LIG d   1      -0.870  76.574 116.008  0.00  0.00     0.091 C 
ENDROOT
BRANCH   1   7
ATOM      7  O   LIG d   1      -1.136  78.782 114.980  0.00  0.00    -0.368 OA
BRANCH   7   8
ATOM      8  C   LIG d   1      -1.655  79.304 116.228  0.00  0.00     0.119 C 
BRANCH   8   9
ATOM      9  C   LIG d   1      -2.871  80.188 115.891  0.00  0.00     0.028 C 
ATOM     10  C   LIG d   1      -4.182  79.630 116.470  0.00  0.00     0.006 C 
ENDBRANCH   8   9
BRANCH   8  11
ATOM     11  C   LIG d   1      -0.648  80.239 116.903  0.00  0.00     0.028 C 
ATOM     12  C   LIG d   1       0.607  80.479 116.049  0.00  0.00     0.006 C 
ENDBRANCH   8  11
ENDBRANCH   7   8
ENDBRANCH   1   7
BRANCH   6  13
ATOM     13  N   LIG d   1       0.616  76.569 116.034  0.00  0.00    -0.311 N 
ATOM     14  C   LIG d   1       1.332  76.959 117.087  0.00  0.00     0.210 C 
ATOM     15  C   LIG d   1       2.851  76.893 116.897  0.00  0.00     0.109 C 
ATOM     16  O   LIG d   1       0.854  77.323 118.172  0.00  0.00    -0.276 OA
ATOM     17  H   LIG d   1       1.086  76.258 115.206  0.00  0.00     0.149 HD
ENDBRANCH   6  13
BRANCH   5  18
ATOM     18  N   LIG d   1      -1.159  74.400 117.250  0.00  0.00     0.381 N 
ATOM     19  H   LIG d   1      -0.186  74.485 117.466  0.00  0.00    -0.090 HD
ATOM     20  H   LIG d   1      -1.365  73.428 117.101  0.00  0.00    -0.090 HD
ATOM     21  H   LIG d   1      -1.706  74.750 118.005  0.00  0.00    -0.090 HD
ENDBRANCH   5  18
BRANCH   3  22
ATOM     22  C   LIG d   1      -4.619  75.741 114.222  0.00  0.00     0.382 C 
ATOM     23  O   LIG d   1      -5.486  76.636 114.072  0.00  0.00    -0.241 OA
ATOM     24  O   LIG d   1      -4.872  74.575 113.864  0.00  0.00    -0.241 OA
ENDBRANCH   3  22
TORSDOF 7
ENDMDL
MODEL 3
REMARK VINA RESULT:      -4.9      1.801      2.631
REMARK  7 active torsions:
REMARK  status: ('A' for Active; 'I' for Inactive)
REMARK    1  A    between atoms: C_2  and  C_3 
REMARK    2  A    between atoms: C_3  and  O_6 
REMARK    3  A    between atoms: C_3  and  C_4 
REMARK    4  A    between atoms: C_7  and  O_6 
REMARK    5  A    between atoms: C_9  and  C_10 
REMARK    6  A    between atoms: N_15  and  C_14 
REMARK    7  A    between atoms: N_20  and  C_19 
REMARK       I    between atoms: C_22  and  N_20 
ROOT
ATOM      1  C   LIG d   1      -3.041  90.660 118.646  0.00  0.00     0.161 C 
ATOM      2  C   LIG d   1      -4.253  90.354 118.006  0.00  0.00     0.016 C 
ATOM      3  C   LIG d   1      -5.087  91.328 117.410  0.00  0.00     0.038 C 
ATOM      4  C   LIG d   1      -4.687  92.667 117.281  0.00  0.00     0.028 C 
ATOM      5  C   LIG d   1      -3.703  93.111 118.358  0.00  0.00    -0.047 C 
ATOM      6  C   LIG d   1      -2.535  92.100 118.418  0.00  0.00     0.091 C 
ENDROOT
BRANCH   1   7
ATOM      7  O   LIG d   1      -2.031  89.707 118.261  0.00  0.00    -0.368 OA
BRANCH   7   8
ATOM      8  C   LIG d   1      -1.368  89.008 119.344  0.00  0.00     0.119 C 
BRANCH   8   9
ATOM      9  C   LIG d   1      -0.151  88.276 118.745  0.00  0.00     0.028 C 
ATOM     10  C   LIG d   1       0.493  89.057 117.588  0.00  0.00     0.006 C 
ENDBRANCH   8   9
BRANCH   8  11
ATOM     11  C   LIG d   1      -2.260  87.907 119.924  0.00  0.00     0.028 C 
ATOM     12  C   LIG d   1      -1.526  86.564 120.075  0.00  0.00     0.006 C 
ENDBRANCH   8  11
ENDBRANCH   7   8
ENDBRANCH   1   7
BRANCH   6  13
ATOM     13  N   LIG d   1      -1.569  92.414 119.503  0.00  0.00    -0.311 N 
ATOM     14  C   LIG d   1      -0.265  92.589 119.295  0.00  0.00     0.210 C 
ATOM     15  C   LIG d   1       0.556  92.885 120.554  0.00  0.00     0.109 C 
ATOM     16  O   LIG d   1       0.284  92.559 118.184  0.00  0.00    -0.276 OA
ATOM     17  H   LIG d   1      -1.935  92.488 120.432  0.00  0.00     0.149 HD
ENDBRANCH   6  13
BRANCH   5  18
ATOM     18  N   LIG d   1      -3.265  94.480 118.024  0.00  0.00     0.381 N 
ATOM     19  H   LIG d   1      -3.864  95.145 118.471  0.00  0.00    -0.090 HD
ATOM     20  H   LIG d   1      -3.336  94.610 117.030  0.00  0.00    -0.090 HD
ATOM     21  H   LIG d   1      -2.324  94.618 118.318  0.00  0.00    -0.090 HD
ENDBRANCH   5  18
BRANCH   3  22
ATOM     22  C   LIG d   1      -6.353  90.973 116.971  0.00  0.00     0.382 C 
ATOM     23  O   LIG d   1      -6.541  89.853 116.439  0.00  0.00    -0.241 OA
ATOM     24  O   LIG d   1      -7.301  91.777 117.059  0.00  0.00    -0.241 OA
ENDBRANCH   3  22
TORSDOF 7
ENDMDL
MODEL 4
REMARK VINA RESULT:      -4.9     12.714     14.793
REMARK  7 active torsions:
REMARK  status: ('A' for Active; 'I' for Inactive)
REMARK    1  A    between atoms: C_2  and  C_3 
REMARK    2  A    between atoms: C_3  and  O_6 
REMARK    3  A    between atoms: C_3  and  C_4 
REMARK    4  A    between atoms: C_7  and  O_6 
REMARK    5  A    between atoms: C_9  and  C_10 
REMARK    6  A    between atoms: N_15  and  C_14 
REMARK    7  A    between atoms: N_20  and  C_19 
REMARK       I    between atoms: C_22  and  N_20 
ROOT
ATOM      1  C   LIG d   1      -3.157  78.388 114.987  0.00  0.00     0.161 C 
ATOM      2  C   LIG d   1      -4.048  77.306 115.074  0.00  0.00     0.016 C 
ATOM      3  C   LIG d   1      -3.630  75.957 115.137  0.00  0.00     0.038 C 
ATOM      4  C   LIG d   1      -2.278  75.605 115.269  0.00  0.00     0.028 C 
ATOM      5  C   LIG d   1      -1.323  76.636 114.677  0.00  0.00    -0.047 C 
ATOM      6  C   LIG d   1      -1.678  78.031 115.242  0.00  0.00     0.091 C 
ENDROOT
BRANCH   1   7
ATOM      7  O   LIG d   1      -3.579  79.441 115.877  0.00  0.00    -0.368 OA
BRANCH   7   8
ATOM      8  C   LIG d   1      -4.353  79.029 117.030  0.00  0.00     0.119 C 
BRANCH   8   9
ATOM      9  C   LIG d   1      -5.496  80.047 117.208  0.00  0.00     0.028 C 
ATOM     10  C   LIG d   1      -4.998  81.403 117.735  0.00  0.00     0.006 C 
ENDBRANCH   8   9
BRANCH   8  11
ATOM     11  C   LIG d   1      -3.526  79.119 118.317  0.00  0.00     0.028 C 
ATOM     12  C   LIG d   1      -2.977  77.756 118.768  0.00  0.00     0.006 C 
ENDBRANCH   8  11
ENDBRANCH   7   8
ENDBRANCH   1   7
BRANCH   6  13
ATOM     13  N   LIG d   1      -0.846  79.111 114.650  0.00  0.00    -0.311 N 
ATOM     14  C   LIG d   1      -0.300  80.092 115.367  0.00  0.00     0.210 C 
ATOM     15  C   LIG d   1       0.505  81.114 114.557  0.00  0.00     0.109 C 
ATOM     16  O   LIG d   1      -0.379  80.195 116.600  0.00  0.00    -0.276 OA
ATOM     17  H   LIG d   1      -0.704  79.087 113.659  0.00  0.00     0.149 HD
ENDBRANCH   6  13
BRANCH   5  18
ATOM     18  N   LIG d   1       0.051  76.212 115.006  0.00  0.00     0.381 N 
ATOM     19  H   LIG d   1       0.354  76.665 115.844  0.00  0.00    -0.090 HD
ATOM     20  H   LIG d   1       0.664  76.488 114.259  0.00  0.00    -0.090 HD
ATOM     21  H   LIG d   1       0.083  75.223 115.124  0.00  0.00    -0.090 HD
ENDBRANCH   5  18
BRANCH   3  22
ATOM     22  C   LIG d   1      -4.567  74.941 115.026  0.00  0.00     0.382 C 
ATOM     23  O   LIG d   1      -4.607  74.235 113.990  0.00  0.00    -0.241 OA
ATOM     24  O   LIG d   1      -5.401  74.750 115.931  0.00  0.00    -0.241 OA
ENDBRANCH   3  22
TORSDOF 7
ENDMDL
MODEL 5
REMARK VINA RESULT:      -4.9      2.889      4.421
REMARK  7 active torsions:
REMARK  status: ('A' for Active; 'I' for Inactive)
REMARK    1  A    between atoms: C_2  and  C_3 
REMARK    2  A    between atoms: C_3  and  O_6 
REMARK    3  A    between atoms: C_3  and  C_4 
REMARK    4  A    between atoms: C_7  and  O_6 
REMARK    5  A    between atoms: C_9  and  C_10 
REMARK    6  A    between atoms: N_15  and  C_14 
REMARK    7  A    between atoms: N_20  and  C_19 
REMARK       I    between atoms: C_22  and  N_20 
ROOT
ATOM      1  C   LIG d   1      -6.003  93.140 119.796  0.00  0.00     0.161 C 
ATOM      2  C   LIG d   1      -7.379  93.418 119.738  0.00  0.00     0.016 C 
ATOM      3  C   LIG d   1      -7.902  94.690 119.408  0.00  0.00     0.038 C 
ATOM      4  C   LIG d   1      -7.081  95.737 118.962  0.00  0.00     0.028 C 
ATOM      5  C   LIG d   1      -5.653  95.653 119.490  0.00  0.00    -0.047 C 
ATOM      6  C   LIG d   1      -5.095  94.239 119.205  0.00  0.00     0.091 C 
ENDROOT
BRANCH   1   7
ATOM      7  O   LIG d   1      -5.733  91.874 119.162  0.00  0.00    -0.368 OA
BRANCH   7   8
ATOM      8  C   LIG d   1      -5.489  91.915 117.735  0.00  0.00     0.119 C 
BRANCH   8   9
ATOM      9  C   LIG d   1      -6.583  91.072 117.053  0.00  0.00     0.028 C 
ATOM     10  C   LIG d   1      -6.080  90.381 115.774  0.00  0.00     0.006 C 
ENDBRANCH   8   9
BRANCH   8  11
ATOM     11  C   LIG d   1      -4.166  91.230 117.376  0.00  0.00     0.028 C 
ATOM     12  C   LIG d   1      -3.519  90.520 118.576  0.00  0.00     0.006 C 
ENDBRANCH   8  11
ENDBRANCH   7   8
ENDBRANCH   1   7
BRANCH   6  13
ATOM     13  N   LIG d   1      -3.732  94.045 119.764  0.00  0.00    -0.311 N 
ATOM     14  C   LIG d   1      -2.618  94.190 119.047  0.00  0.00     0.210 C 
ATOM     15  C   LIG d   1      -1.318  93.923 119.811  0.00  0.00     0.109 C 
ATOM     16  O   LIG d   1      -2.583  94.544 117.859  0.00  0.00    -0.276 OA
ATOM     17  H   LIG d   1      -3.667  93.786 120.729  0.00  0.00     0.149 HD
ENDBRANCH   6  13
BRANCH   5  18
ATOM     18  N   LIG d   1      -4.874  96.723 118.839  0.00  0.00     0.381 N 
ATOM     19  H   LIG d   1      -5.407  97.570 118.826  0.00  0.00    -0.090 HD
ATOM     20  H   LIG d   1      -4.684  96.456 117.889  0.00  0.00    -0.090 HD
ATOM     21  H   LIG d   1      -4.019  96.869 119.329  0.00  0.00    -0.090 HD
ENDBRANCH   5  18
BRANCH   3  22
ATOM     22  C   LIG d   1      -9.258  94.935 119.560  0.00  0.00     0.382 C 
ATOM     23  O   LIG d   1      -9.645  95.979 120.138  0.00  0.00    -0.241 OA
ATOM     24  O   LIG d   1     -10.099  94.104 119.166  0.00  0.00    -0.241 OA
ENDBRANCH   3  22
TORSDOF 7
ENDMDL
MODEL 6
REMARK VINA RESULT:      -4.9      2.295      4.742
REMARK  7 active torsions:
REMARK  status: ('A' for Active; 'I' for Inactive)
REMARK    1  A    between atoms: C_2  and  C_3 
REMARK    2  A    between atoms: C_3  and  O_6 
REMARK    3  A    between atoms: C_3  and  C_4 
REMARK    4  A    between atoms: C_7  and  O_6 
REMARK    5  A    between atoms: C_9  and  C_10 
REMARK    6  A    between atoms: N_15  and  C_14 
REMARK    7  A    between atoms: N_20  and  C_19 
REMARK       I    between atoms: C_22  and  N_20 
ROOT
ATOM      1  C   LIG d   1      -5.658  92.943 118.803  0.00  0.00     0.161 C 
ATOM      2  C   LIG d   1      -6.580  92.216 118.031  0.00  0.00     0.016 C 
ATOM      3  C   LIG d   1      -6.204  91.195 117.128  0.00  0.00     0.038 C 
ATOM      4  C   LIG d   1      -4.884  90.725 117.048  0.00  0.00     0.028 C 
ATOM      5  C   LIG d   1      -3.844  91.769 117.439  0.00  0.00    -0.047 C 
ATOM      6  C   LIG d   1      -4.226  92.369 118.811  0.00  0.00     0.091 C 
ENDROOT
BRANCH   1   7
ATOM      7  O   LIG d   1      -6.151  93.080 120.150  0.00  0.00    -0.368 OA
BRANCH   7   8
ATOM      8  C   LIG d   1      -6.687  94.379 120.504  0.00  0.00     0.119 C 
BRANCH   8   9
ATOM      9  C   LIG d   1      -8.224  94.274 120.458  0.00  0.00     0.028 C 
ATOM     10  C   LIG d   1      -8.826  95.014 119.252  0.00  0.00     0.006 C 
ENDBRANCH   8   9
BRANCH   8  11
ATOM     11  C   LIG d   1      -6.321  95.436 119.459  0.00  0.00     0.028 C 
ATOM     12  C   LIG d   1      -5.273  96.438 119.967  0.00  0.00     0.006 C 
ENDBRANCH   8  11
ENDBRANCH   7   8
ENDBRANCH   1   7
BRANCH   6  13
ATOM     13  N   LIG d   1      -3.307  93.459 119.229  0.00  0.00    -0.311 N 
ATOM     14  C   LIG d   1      -2.239  93.262 120.001  0.00  0.00     0.210 C 
ATOM     15  C   LIG d   1      -1.437  94.526 120.329  0.00  0.00     0.109 C 
ATOM     16  O   LIG d   1      -1.862  92.157 120.418  0.00  0.00    -0.276 OA
ATOM     17  H   LIG d   1      -3.521  94.384 118.910  0.00  0.00     0.149 HD
ENDBRANCH   6  13
BRANCH   5  18
ATOM     18  N   LIG d   1      -2.527  91.106 117.444  0.00  0.00     0.381 N 
ATOM     19  H   LIG d   1      -1.813  91.770 117.220  0.00  0.00    -0.090 HD
ATOM     20  H   LIG d   1      -2.522  90.388 116.741  0.00  0.00    -0.090 HD
ATOM     21  H   LIG d   1      -2.350  90.706 118.339  0.00  0.00    -0.090 HD
ENDBRANCH   5  18
BRANCH   3  22
ATOM     22  C   LIG d   1      -7.147  90.660 116.264  0.00  0.00     0.382 C 
ATOM     23  O   LIG d   1      -7.497  89.461 116.383  0.00  0.00    -0.241 OA
ATOM     24  O   LIG d   1      -7.619  91.348 115.340  0.00  0.00    -0.241 OA
ENDBRANCH   3  22
TORSDOF 7
ENDMDL
MODEL 7
REMARK VINA RESULT:      -4.9     13.685     16.006
REMARK  7 active torsions:
REMARK  status: ('A' for Active; 'I' for Inactive)
REMARK    1  A    between atoms: C_2  and  C_3 
REMARK    2  A    between atoms: C_3  and  O_6 
REMARK    3  A    between atoms: C_3  and  C_4 
REMARK    4  A    between atoms: C_7  and  O_6 
REMARK    5  A    between atoms: C_9  and  C_10 
REMARK    6  A    between atoms: N_15  and  C_14 
REMARK    7  A    between atoms: N_20  and  C_19 
REMARK       I    between atoms: C_22  and  N_20 
ROOT
ATOM      1  C   LIG d   1      -0.895  77.316 116.177  0.00  0.00     0.161 C 
ATOM      2  C   LIG d   1      -2.157  77.307 115.560  0.00  0.00     0.016 C 
ATOM      3  C   LIG d   1      -2.935  76.138 115.397  0.00  0.00     0.038 C 
ATOM      4  C   LIG d   1      -2.568  74.916 115.981  0.00  0.00     0.028 C 
ATOM      5  C   LIG d   1      -1.063  74.766 116.178  0.00  0.00    -0.047 C 
ATOM      6  C   LIG d   1      -0.528  76.013 116.918  0.00  0.00     0.091 C 
ENDROOT
BRANCH   1   7
ATOM      7  O   LIG d   1      -0.795  78.444 117.069  0.00  0.00    -0.368 OA
BRANCH   7   8
ATOM      8  C   LIG d   1      -2.047  79.056 117.465  0.00  0.00     0.119 C 
BRANCH   8   9
ATOM      9  C   LIG d   1      -1.808  80.575 117.569  0.00  0.00     0.028 C 
ATOM     10  C   LIG d   1      -0.313  80.932 117.603  0.00  0.00     0.006 C 
ENDBRANCH   8   9
BRANCH   8  11
ATOM     11  C   LIG d   1      -2.463  78.614 118.871  0.00  0.00     0.028 C 
ATOM     12  C   LIG d   1      -3.805  77.864 118.888  0.00  0.00     0.006 C 
ENDBRANCH   8  11
ENDBRANCH   7   8
ENDBRANCH   1   7
BRANCH   6  13
ATOM     13  N   LIG d   1       0.949  75.987 117.077  0.00  0.00    -0.311 N 
ATOM     14  C   LIG d   1       1.563  75.488 118.149  0.00  0.00     0.210 C 
ATOM     15  C   LIG d   1       3.092  75.578 118.119  0.00  0.00     0.109 C 
ATOM     16  O   LIG d   1       0.987  74.950 119.107  0.00  0.00    -0.276 OA
ATOM     17  H   LIG d   1       1.495  76.375 116.333  0.00  0.00     0.149 HD
ENDBRANCH   6  13
BRANCH   5  18
ATOM     18  N   LIG d   1      -0.833  73.511 116.918  0.00  0.00     0.381 N 
ATOM     19  H   LIG d   1      -0.030  73.043 116.549  0.00  0.00    -0.090 HD
ATOM     20  H   LIG d   1      -1.631  72.912 116.797  0.00  0.00    -0.090 HD
ATOM     21  H   LIG d   1      -0.698  73.706 117.885  0.00  0.00    -0.090 HD
ENDBRANCH   5  18
BRANCH   3  22
ATOM     22  C   LIG d   1      -4.076  76.176 114.610  0.00  0.00     0.382 C 
ATOM     23  O   LIG d   1      -4.803  77.199 114.608  0.00  0.00    -0.241 OA
ATOM     24  O   LIG d   1      -4.412  75.184 113.936  0.00  0.00    -0.241 OA
ENDBRANCH   3  22
TORSDOF 7
ENDMDL
MODEL 8
REMARK VINA RESULT:      -4.8     13.597     16.318
REMARK  7 active torsions:
REMARK  status: ('A' for Active; 'I' for Inactive)
REMARK    1  A    between atoms: C_2  and  C_3 
REMARK    2  A    between atoms: C_3  and  O_6 
REMARK    3  A    between atoms: C_3  and  C_4 
REMARK    4  A    between atoms: C_7  and  O_6 
REMARK    5  A    between atoms: C_9  and  C_10 
REMARK    6  A    between atoms: N_15  and  C_14 
REMARK    7  A    between atoms: N_20  and  C_19 
REMARK       I    between atoms: C_22  and  N_20 
ROOT
ATOM      1  C   LIG d   1      -2.370  77.025 116.967  0.00  0.00     0.161 C 
ATOM      2  C   LIG d   1      -1.215  77.670 117.439  0.00  0.00     0.016 C 
ATOM      3  C   LIG d   1      -0.002  76.996 117.709  0.00  0.00     0.038 C 
ATOM      4  C   LIG d   1       0.185  75.645 117.379  0.00  0.00     0.028 C 
ATOM      5  C   LIG d   1      -1.110  74.839 117.371  0.00  0.00    -0.047 C 
ATOM      6  C   LIG d   1      -2.152  75.572 116.496  0.00  0.00     0.091 C 
ENDROOT
BRANCH   1   7
ATOM      7  O   LIG d   1      -2.972  77.807 115.917  0.00  0.00    -0.368 OA
BRANCH   7   8
ATOM      8  C   LIG d   1      -2.841  79.245 116.038  0.00  0.00     0.119 C 
BRANCH   8   9
ATOM      9  C   LIG d   1      -4.193  79.793 116.534  0.00  0.00     0.028 C 
ATOM     10  C   LIG d   1      -4.034  80.766 117.714  0.00  0.00     0.006 C 
ENDBRANCH   8   9
BRANCH   8  11
ATOM     11  C   LIG d   1      -2.614  79.900 114.672  0.00  0.00     0.028 C 
ATOM     12  C   LIG d   1      -1.125  80.044 114.321  0.00  0.00     0.006 C 
ENDBRANCH   8  11
ENDBRANCH   7   8
ENDBRANCH   1   7
BRANCH   6  13
ATOM     13  N   LIG d   1      -3.475  74.894 116.502  0.00  0.00    -0.311 N 
ATOM     14  C   LIG d   1      -4.200  74.692 115.404  0.00  0.00     0.210 C 
ATOM     15  C   LIG d   1      -5.543  73.992 115.636  0.00  0.00     0.109 C 
ATOM     16  O   LIG d   1      -3.845  74.997 114.256  0.00  0.00    -0.276 OA
ATOM     17  H   LIG d   1      -3.825  74.585 117.388  0.00  0.00     0.149 HD
ENDBRANCH   6  13
BRANCH   5  18
ATOM     18  N   LIG d   1      -0.789  73.486 116.878  0.00  0.00     0.381 N 
ATOM     19  H   LIG d   1      -0.549  73.527 115.908  0.00  0.00    -0.090 HD
ATOM     20  H   LIG d   1      -1.602  72.903 116.977  0.00  0.00    -0.090 HD
ATOM     21  H   LIG d   1      -0.032  73.104 117.400  0.00  0.00    -0.090 HD
ENDBRANCH   5  18
BRANCH   3  22
ATOM     22  C   LIG d   1       1.028  77.665 118.352  0.00  0.00     0.382 C 
ATOM     23  O   LIG d   1       1.581  77.150 119.354  0.00  0.00    -0.241 OA
ATOM     24  O   LIG d   1       1.381  78.797 117.971  0.00  0.00    -0.241 OA
ENDBRANCH   3  22
TORSDOF 7
ENDMDL
MODEL 9
REMARK VINA RESULT:      -4.7      3.924      5.901
REMARK  7 active torsions:
REMARK  status: ('A' for Active; 'I' for Inactive)
REMARK    1  A    between atoms: C_2  and  C_3 
REMARK    2  A    between atoms: C_3  and  O_6 
REMARK    3  A    between atoms: C_3  and  C_4 
REMARK    4  A    between atoms: C_7  and  O_6 
REMARK    5  A    between atoms: C_9  and  C_10 
REMARK    6  A    between atoms: N_15  and  C_14 
REMARK    7  A    between atoms: N_20  and  C_19 
REMARK       I    between atoms: C_22  and  N_20 
ROOT
ATOM      1  C   LIG d   1       0.918  89.667 117.870  0.00  0.00     0.161 C 
ATOM      2  C   LIG d   1      -0.423  89.249 117.860  0.00  0.00     0.016 C 
ATOM      3  C   LIG d   1      -1.459  89.939 118.531  0.00  0.00     0.038 C 
ATOM      4  C   LIG d   1      -1.247  91.186 119.138  0.00  0.00     0.028 C 
ATOM      5  C   LIG d   1       0.190  91.395 119.606  0.00  0.00    -0.047 C 
ATOM      6  C   LIG d   1       1.149  91.085 118.434  0.00  0.00     0.091 C 
ENDROOT
BRANCH   1   7
ATOM      7  O   LIG d   1       1.474  89.558 116.545  0.00  0.00    -0.368 OA
BRANCH   7   8
ATOM      8  C   LIG d   1       2.630  88.696 116.408  0.00  0.00     0.119 C 
BRANCH   8   9
ATOM      9  C   LIG d   1       3.493  89.257 115.261  0.00  0.00     0.028 C 
ATOM     10  C   LIG d   1       4.976  89.382 115.649  0.00  0.00     0.006 C 
ENDBRANCH   8   9
BRANCH   8  11
ATOM     11  C   LIG d   1       2.225  87.288 115.960  0.00  0.00     0.028 C 
ATOM     12  C   LIG d   1       2.322  86.252 117.091  0.00  0.00     0.006 C 
ENDBRANCH   8  11
ENDBRANCH   7   8
ENDBRANCH   1   7
BRANCH   6  13
ATOM     13  N   LIG d   1       2.578  91.184 118.831  0.00  0.00    -0.311 N 
ATOM     14  C   LIG d   1       3.504  91.790 118.090  0.00  0.00     0.210 C 
ATOM     15  C   LIG d   1       4.920  91.761 118.673  0.00  0.00     0.109 C 
ATOM     16  O   LIG d   1       3.281  92.377 117.020  0.00  0.00    -0.276 OA
ATOM     17  H   LIG d   1       2.841  90.761 119.700  0.00  0.00     0.149 HD
ENDBRANCH   6  13
BRANCH   5  18
ATOM     18  N   LIG d   1       0.302  92.783 120.093  0.00  0.00     0.381 N 
ATOM     19  H   LIG d   1       0.649  92.786 121.031  0.00  0.00    -0.090 HD
ATOM     20  H   LIG d   1      -0.611  93.203 120.093  0.00  0.00    -0.090 HD
ATOM     21  H   LIG d   1       0.914  93.303 119.503  0.00  0.00    -0.090 HD
ENDBRANCH   5  18
BRANCH   3  22
ATOM     22  C   LIG d   1      -2.715  89.361 118.634  0.00  0.00     0.382 C 
ATOM     23  O   LIG d   1      -2.900  88.398 119.417  0.00  0.00    -0.241 OA
ATOM     24  O   LIG d   1      -3.655  89.762 117.922  0.00  0.00    -0.241 OA
ENDBRANCH   3  22
TORSDOF 7
ENDMDL
