MODEL 1
REMARK VINA RESULT:      -5.5      0.000      0.000
REMARK  7 active torsions:
REMARK  status: ('A' for Active; 'I' for Inactive)
REMARK    1  A    between atoms: C_2  and  C_3 
REMARK    2  A    between atoms: C_3  and  O_6 
REMARK    3  A    between atoms: C_3  and  C_4 
REMARK    4  A    between atoms: C_7  and  O_6 
REMARK    5  A    between atoms: C_9  and  C_10 
REMARK    6  A    between atoms: N_15  and  C_14 
REMARK    7  A    between atoms: N_20  and  C_19 
REMARK       I    between atoms: C_22  and  N_20 
ROOT
ATOM      1  C   LIG d   1      -8.233  75.052 117.960  0.00  0.00     0.161 C 
ATOM      2  C   LIG d   1      -9.461  75.631 118.320  0.00  0.00     0.016 C 
ATOM      3  C   LIG d   1      -9.681  77.027 118.362  0.00  0.00     0.038 C 
ATOM      4  C   LIG d   1      -8.725  77.942 117.897  0.00  0.00     0.028 C 
ATOM      5  C   LIG d   1      -7.293  77.428 118.000  0.00  0.00    -0.047 C 
ATOM      6  C   LIG d   1      -7.213  76.031 117.343  0.00  0.00     0.091 C 
ENDROOT
BRANCH   1   7
ATOM      7  O   LIG d   1      -8.459  73.939 117.073  0.00  0.00    -0.368 OA
BRANCH   7   8
ATOM      8  C   LIG d   1      -8.529  72.632 117.695  0.00  0.00     0.119 C 
BRANCH   8   9
ATOM      9  C   LIG d   1      -7.667  71.672 116.853  0.00  0.00     0.028 C 
ATOM     10  C   LIG d   1      -6.907  72.397 115.730  0.00  0.00     0.006 C 
ENDBRANCH   8   9
BRANCH   8  11
ATOM     11  C   LIG d   1      -9.949  72.061 117.634  0.00  0.00     0.028 C 
ATOM     12  C   LIG d   1      -9.980  70.586 117.205  0.00  0.00     0.006 C 
ENDBRANCH   8  11
ENDBRANCH   7   8
ENDBRANCH   1   7
BRANCH   6  13
ATOM     13  N   LIG d   1      -5.865  75.419 117.475  0.00  0.00    -0.311 N 
ATOM     14  C   LIG d   1      -4.926  75.503 116.534  0.00  0.00     0.210 C 
ATOM     15  C   LIG d   1      -3.614  74.783 116.863  0.00  0.00     0.109 C 
ATOM     16  O   LIG d   1      -5.044  76.131 115.471  0.00  0.00    -0.276 OA
ATOM     17  H   LIG d   1      -5.673  74.916 118.319  0.00  0.00     0.149 HD
ENDBRANCH   6  13
BRANCH   5  18
ATOM     18  N   LIG d   1      -6.414  78.422 117.356  0.00  0.00     0.381 N 
ATOM     19  H   LIG d   1      -5.799  78.821 118.036  0.00  0.00    -0.090 HD
ATOM     20  H   LIG d   1      -6.982  79.157 116.973  0.00  0.00    -0.090 HD
ATOM     21  H   LIG d   1      -5.884  77.989 116.631  0.00  0.00    -0.090 HD
ENDBRANCH   5  18
BRANCH   3  22
ATOM     22  C   LIG d   1     -10.854  77.522 118.911  0.00  0.00     0.382 C 
ATOM     23  O   LIG d   1     -10.810  78.462 119.740  0.00  0.00    -0.241 OA
ATOM     24  O   LIG d   1     -11.952  77.011 118.620  0.00  0.00    -0.241 OA
ENDBRANCH   3  22
TORSDOF 7
ENDMDL
MODEL 2
REMARK VINA RESULT:      -5.3      2.758      4.165
REMARK  7 active torsions:
REMARK  status: ('A' for Active; 'I' for Inactive)
REMARK    1  A    between atoms: C_2  and  C_3 
REMARK    2  A    between atoms: C_3  and  O_6 
REMARK    3  A    between atoms: C_3  and  C_4 
REMARK    4  A    between atoms: C_7  and  O_6 
REMARK    5  A    between atoms: C_9  and  C_10 
REMARK    6  A    between atoms: N_15  and  C_14 
REMARK    7  A    between atoms: N_20  and  C_19 
REMARK       I    between atoms: C_22  and  N_20 
ROOT
ATOM      1  C   LIG d   1      -6.925  77.643 117.331  0.00  0.00     0.161 C 
ATOM      2  C   LIG d   1      -8.055  76.831 117.524  0.00  0.00     0.016 C 
ATOM      3  C   LIG d   1      -9.279  77.311 118.043  0.00  0.00     0.038 C 
ATOM      4  C   LIG d   1      -9.505  78.678 118.265  0.00  0.00     0.028 C 
ATOM      5  C   LIG d   1      -8.231  79.462 118.562  0.00  0.00    -0.047 C 
ATOM      6  C   LIG d   1      -7.187  79.158 117.463  0.00  0.00     0.091 C 
ENDROOT
BRANCH   1   7
ATOM      7  O   LIG d   1      -6.323  77.348 116.055  0.00  0.00    -0.368 OA
BRANCH   7   8
ATOM      8  C   LIG d   1      -6.102  75.946 115.764  0.00  0.00     0.119 C 
BRANCH   8   9
ATOM      9  C   LIG d   1      -4.622  75.639 116.065  0.00  0.00     0.028 C 
ATOM     10  C   LIG d   1      -4.444  74.813 117.350  0.00  0.00     0.006 C 
ENDBRANCH   8   9
BRANCH   8  11
ATOM     11  C   LIG d   1      -6.282  75.652 114.271  0.00  0.00     0.028 C 
ATOM     12  C   LIG d   1      -5.483  74.424 113.806  0.00  0.00     0.006 C 
ENDBRANCH   8  11
ENDBRANCH   7   8
ENDBRANCH   1   7
BRANCH   6  13
ATOM     13  N   LIG d   1      -5.882  79.819 117.722  0.00  0.00    -0.311 N 
ATOM     14  C   LIG d   1      -5.524  80.976 117.169  0.00  0.00     0.210 C 
ATOM     15  C   LIG d   1      -4.127  81.473 117.555  0.00  0.00     0.109 C 
ATOM     16  O   LIG d   1      -6.243  81.655 116.420  0.00  0.00    -0.276 OA
ATOM     17  H   LIG d   1      -5.250  79.352 118.343  0.00  0.00     0.149 HD
ENDBRANCH   6  13
BRANCH   5  18
ATOM     18  N   LIG d   1      -8.594  80.890 118.636  0.00  0.00     0.381 N 
ATOM     19  H   LIG d   1      -7.951  81.431 118.092  0.00  0.00    -0.090 HD
ATOM     20  H   LIG d   1      -8.531  81.192 119.592  0.00  0.00    -0.090 HD
ATOM     21  H   LIG d   1      -9.521  81.024 118.297  0.00  0.00    -0.090 HD
ENDBRANCH   5  18
BRANCH   3  22
ATOM     22  C   LIG d   1     -10.280  76.414 118.384  0.00  0.00     0.382 C 
ATOM     23  O   LIG d   1      -9.983  75.252 118.751  0.00  0.00    -0.241 OA
ATOM     24  O   LIG d   1     -11.479  76.739 118.286  0.00  0.00    -0.241 OA
ENDBRANCH   3  22
TORSDOF 7
ENDMDL
MODEL 3
REMARK VINA RESULT:      -5.2      2.388      4.435
REMARK  7 active torsions:
REMARK  status: ('A' for Active; 'I' for Inactive)
REMARK    1  A    between atoms: C_2  and  C_3 
REMARK    2  A    between atoms: C_3  and  O_6 
REMARK    3  A    between atoms: C_3  and  C_4 
REMARK    4  A    between atoms: C_7  and  O_6 
REMARK    5  A    between atoms: C_9  and  C_10 
REMARK    6  A    between atoms: N_15  and  C_14 
REMARK    7  A    between atoms: N_20  and  C_19 
REMARK       I    between atoms: C_22  and  N_20 
ROOT
ATOM      1  C   LIG d   1      -7.366  76.851 117.771  0.00  0.00     0.161 C 
ATOM      2  C   LIG d   1      -8.110  75.658 117.769  0.00  0.00     0.016 C 
ATOM      3  C   LIG d   1      -9.482  75.597 118.102  0.00  0.00     0.038 C 
ATOM      4  C   LIG d   1     -10.246  76.754 118.315  0.00  0.00     0.028 C 
ATOM      5  C   LIG d   1      -9.427  77.936 118.822  0.00  0.00    -0.047 C 
ATOM      6  C   LIG d   1      -8.209  78.138 117.892  0.00  0.00     0.091 C 
ENDROOT
BRANCH   1   7
ATOM      7  O   LIG d   1      -6.531  76.907 116.597  0.00  0.00    -0.368 OA
BRANCH   7   8
ATOM      8  C   LIG d   1      -6.091  75.634 116.066  0.00  0.00     0.119 C 
BRANCH   8   9
ATOM      9  C   LIG d   1      -4.569  75.539 116.289  0.00  0.00     0.028 C 
ATOM     10  C   LIG d   1      -4.201  74.563 117.418  0.00  0.00     0.006 C 
ENDBRANCH   8   9
BRANCH   8  11
ATOM     11  C   LIG d   1      -6.284  75.567 114.548  0.00  0.00     0.028 C 
ATOM     12  C   LIG d   1      -5.013  75.123 113.805  0.00  0.00     0.006 C 
ENDBRANCH   8  11
ENDBRANCH   7   8
ENDBRANCH   1   7
BRANCH   6  13
ATOM     13  N   LIG d   1      -7.308  79.221 118.365  0.00  0.00    -0.311 N 
ATOM     14  C   LIG d   1      -7.347  80.465 117.891  0.00  0.00     0.210 C 
ATOM     15  C   LIG d   1      -6.318  81.422 118.501  0.00  0.00     0.109 C 
ATOM     16  O   LIG d   1      -8.156  80.875 117.046  0.00  0.00    -0.276 OA
ATOM     17  H   LIG d   1      -6.641  78.984 119.072  0.00  0.00     0.149 HD
ENDBRANCH   6  13
BRANCH   5  18
ATOM     18  N   LIG d   1     -10.319  79.109 118.869  0.00  0.00     0.381 N 
ATOM     19  H   LIG d   1      -9.870  79.894 118.441  0.00  0.00    -0.090 HD
ATOM     20  H   LIG d   1     -10.505  79.338 119.830  0.00  0.00    -0.090 HD
ATOM     21  H   LIG d   1     -11.173  78.908 118.397  0.00  0.00    -0.090 HD
ENDBRANCH   5  18
BRANCH   3  22
ATOM     22  C   LIG d   1     -10.095  74.364 118.264  0.00  0.00     0.382 C 
ATOM     23  O   LIG d   1     -11.328  74.246 118.066  0.00  0.00    -0.241 OA
ATOM     24  O   LIG d   1      -9.439  73.378 118.650  0.00  0.00    -0.241 OA
ENDBRANCH   3  22
TORSDOF 7
ENDMDL
MODEL 4
REMARK VINA RESULT:      -4.9      2.491      4.245
REMARK  7 active torsions:
REMARK  status: ('A' for Active; 'I' for Inactive)
REMARK    1  A    between atoms: C_2  and  C_3 
REMARK    2  A    between atoms: C_3  and  O_6 
REMARK    3  A    between atoms: C_3  and  C_4 
REMARK    4  A    between atoms: C_7  and  O_6 
REMARK    5  A    between atoms: C_9  and  C_10 
REMARK    6  A    between atoms: N_15  and  C_14 
REMARK    7  A    between atoms: N_20  and  C_19 
REMARK       I    between atoms: C_22  and  N_20 
ROOT
ATOM      1  C   LIG d   1      -7.168  77.689 117.321  0.00  0.00     0.161 C 
ATOM      2  C   LIG d   1      -8.313  76.886 117.451  0.00  0.00     0.016 C 
ATOM      3  C   LIG d   1      -9.499  77.319 118.087  0.00  0.00     0.038 C 
ATOM      4  C   LIG d   1      -9.674  78.646 118.506  0.00  0.00     0.028 C 
ATOM      5  C   LIG d   1      -8.366  79.350 118.850  0.00  0.00    -0.047 C 
ATOM      6  C   LIG d   1      -7.379  79.177 117.673  0.00  0.00     0.091 C 
ENDROOT
BRANCH   1   7
ATOM      7  O   LIG d   1      -6.629  77.561 115.991  0.00  0.00    -0.368 OA
BRANCH   7   8
ATOM      8  C   LIG d   1      -5.565  76.592 115.825  0.00  0.00     0.119 C 
BRANCH   8   9
ATOM      9  C   LIG d   1      -6.143  75.399 115.039  0.00  0.00     0.028 C 
ATOM     10  C   LIG d   1      -6.285  74.138 115.906  0.00  0.00     0.006 C 
ENDBRANCH   8   9
BRANCH   8  11
ATOM     11  C   LIG d   1      -5.123  76.013 117.172  0.00  0.00     0.028 C 
ATOM     12  C   LIG d   1      -3.668  76.362 117.522  0.00  0.00     0.006 C 
ENDBRANCH   8  11
ENDBRANCH   7   8
ENDBRANCH   1   7
BRANCH   6  13
ATOM     13  N   LIG d   1      -6.044  79.764 117.962  0.00  0.00    -0.311 N 
ATOM     14  C   LIG d   1      -5.561  80.832 117.330  0.00  0.00     0.210 C 
ATOM     15  C   LIG d   1      -4.156  81.261 117.766  0.00  0.00     0.109 C 
ATOM     16  O   LIG d   1      -6.174  81.483 116.471  0.00  0.00    -0.276 OA
ATOM     17  H   LIG d   1      -5.492  79.316 118.667  0.00  0.00     0.149 HD
ENDBRANCH   6  13
BRANCH   5  18
ATOM     18  N   LIG d   1      -8.682  80.762 119.137  0.00  0.00     0.381 N 
ATOM     19  H   LIG d   1      -7.851  81.244 119.418  0.00  0.00    -0.090 HD
ATOM     20  H   LIG d   1      -9.340  80.800 119.895  0.00  0.00    -0.090 HD
ATOM     21  H   LIG d   1      -9.070  81.196 118.329  0.00  0.00    -0.090 HD
ENDBRANCH   5  18
BRANCH   3  22
ATOM     22  C   LIG d   1     -10.512  76.407 118.346  0.00  0.00     0.382 C 
ATOM     23  O   LIG d   1     -11.708  76.786 118.355  0.00  0.00    -0.241 OA
ATOM     24  O   LIG d   1     -10.242  75.222 118.614  0.00  0.00    -0.241 OA
ENDBRANCH   3  22
TORSDOF 7
ENDMDL
MODEL 5
REMARK VINA RESULT:      -4.6     17.373     20.071
REMARK  7 active torsions:
REMARK  status: ('A' for Active; 'I' for Inactive)
REMARK    1  A    between atoms: C_2  and  C_3 
REMARK    2  A    between atoms: C_3  and  O_6 
REMARK    3  A    between atoms: C_3  and  C_4 
REMARK    4  A    between atoms: C_7  and  O_6 
REMARK    5  A    between atoms: C_9  and  C_10 
REMARK    6  A    between atoms: N_15  and  C_14 
REMARK    7  A    between atoms: N_20  and  C_19 
REMARK       I    between atoms: C_22  and  N_20 
ROOT
ATOM      1  C   LIG d   1      11.437  76.513 115.504  0.00  0.00     0.161 C 
ATOM      2  C   LIG d   1      10.067  76.775 115.337  0.00  0.00     0.016 C 
ATOM      3  C   LIG d   1       9.558  78.030 114.933  0.00  0.00     0.038 C 
ATOM      4  C   LIG d   1      10.400  79.073 114.520  0.00  0.00     0.028 C 
ATOM      5  C   LIG d   1      11.787  79.019 115.153  0.00  0.00    -0.047 C 
ATOM      6  C   LIG d   1      12.376  77.605 114.951  0.00  0.00     0.091 C 
ENDROOT
BRANCH   1   7
ATOM      7  O   LIG d   1      11.763  75.232 114.929  0.00  0.00    -0.368 OA
BRANCH   7   8
ATOM      8  C   LIG d   1      11.835  74.118 115.852  0.00  0.00     0.119 C 
BRANCH   8   9
ATOM      9  C   LIG d   1      13.220  74.165 116.527  0.00  0.00     0.028 C 
ATOM     10  C   LIG d   1      14.362  73.857 115.544  0.00  0.00     0.006 C 
ENDBRANCH   8   9
BRANCH   8  11
ATOM     11  C   LIG d   1      11.790  72.778 115.112  0.00  0.00     0.028 C 
ATOM     12  C   LIG d   1      10.741  71.814 115.689  0.00  0.00     0.006 C 
ENDBRANCH   8  11
ENDBRANCH   7   8
ENDBRANCH   1   7
BRANCH   6  13
ATOM     13  N   LIG d   1      13.696  77.441 115.614  0.00  0.00    -0.311 N 
ATOM     14  C   LIG d   1      14.858  77.613 114.987  0.00  0.00     0.210 C 
ATOM     15  C   LIG d   1      16.101  77.375 115.850  0.00  0.00     0.109 C 
ATOM     16  O   LIG d   1      14.978  77.972 113.805  0.00  0.00    -0.276 OA
ATOM     17  H   LIG d   1      13.692  77.181 116.581  0.00  0.00     0.149 HD
ENDBRANCH   6  13
BRANCH   5  18
ATOM     18  N   LIG d   1      12.602  80.080 114.531  0.00  0.00     0.381 N 
ATOM     19  H   LIG d   1      12.896  79.791 113.620  0.00  0.00    -0.090 HD
ATOM     20  H   LIG d   1      13.421  80.232 115.094  0.00  0.00    -0.090 HD
ATOM     21  H   LIG d   1      12.074  80.922 114.466  0.00  0.00    -0.090 HD
ENDBRANCH   5  18
BRANCH   3  22
ATOM     22  C   LIG d   1       8.192  78.265 114.978  0.00  0.00     0.382 C 
ATOM     23  O   LIG d   1       7.740  79.204 115.677  0.00  0.00    -0.241 OA
ATOM     24  O   LIG d   1       7.403  77.524 114.363  0.00  0.00    -0.241 OA
ENDBRANCH   3  22
TORSDOF 7
ENDMDL
MODEL 6
REMARK VINA RESULT:      -4.6      2.720      4.018
REMARK  7 active torsions:
REMARK  status: ('A' for Active; 'I' for Inactive)
REMARK    1  A    between atoms: C_2  and  C_3 
REMARK    2  A    between atoms: C_3  and  O_6 
REMARK    3  A    between atoms: C_3  and  C_4 
REMARK    4  A    between atoms: C_7  and  O_6 
REMARK    5  A    between atoms: C_9  and  C_10 
REMARK    6  A    between atoms: N_15  and  C_14 
REMARK    7  A    between atoms: N_20  and  C_19 
REMARK       I    between atoms: C_22  and  N_20 
ROOT
ATOM      1  C   LIG d   1      -6.528  78.413 118.158  0.00  0.00     0.161 C 
ATOM      2  C   LIG d   1      -7.915  78.442 118.380  0.00  0.00     0.016 C 
ATOM      3  C   LIG d   1      -8.731  79.549 118.053  0.00  0.00     0.038 C 
ATOM      4  C   LIG d   1      -8.236  80.650 117.339  0.00  0.00     0.028 C 
ATOM      5  C   LIG d   1      -6.743  80.883 117.542  0.00  0.00    -0.047 C 
ATOM      6  C   LIG d   1      -5.989  79.560 117.278  0.00  0.00     0.091 C 
ENDROOT
BRANCH   1   7
ATOM      7  O   LIG d   1      -6.148  77.137 117.605  0.00  0.00    -0.368 OA
BRANCH   7   8
ATOM      8  C   LIG d   1      -7.117  76.509 116.729  0.00  0.00     0.119 C 
BRANCH   8   9
ATOM      9  C   LIG d   1      -7.418  75.109 117.300  0.00  0.00     0.028 C 
ATOM     10  C   LIG d   1      -8.683  75.093 118.175  0.00  0.00     0.006 C 
ENDBRANCH   8   9
BRANCH   8  11
ATOM     11  C   LIG d   1      -6.530  76.260 115.336  0.00  0.00     0.028 C 
ATOM     12  C   LIG d   1      -6.149  74.790 115.104  0.00  0.00     0.006 C 
ENDBRANCH   8  11
ENDBRANCH   7   8
ENDBRANCH   1   7
BRANCH   6  13
ATOM     13  N   LIG d   1      -4.530  79.678 117.537  0.00  0.00    -0.311 N 
ATOM     14  C   LIG d   1      -3.640  79.977 116.593  0.00  0.00     0.210 C 
ATOM     15  C   LIG d   1      -2.185  80.029 117.069  0.00  0.00     0.109 C 
ATOM     16  O   LIG d   1      -3.920  80.235 115.413  0.00  0.00    -0.276 OA
ATOM     17  H   LIG d   1      -4.218  79.515 118.475  0.00  0.00     0.149 HD
ENDBRANCH   6  13
BRANCH   5  18
ATOM     18  N   LIG d   1      -6.334  81.973 116.636  0.00  0.00     0.381 N 
ATOM     19  H   LIG d   1      -6.456  82.855 117.091  0.00  0.00    -0.090 HD
ATOM     20  H   LIG d   1      -6.921  81.955 115.820  0.00  0.00    -0.090 HD
ATOM     21  H   LIG d   1      -5.381  81.856 116.370  0.00  0.00    -0.090 HD
ENDBRANCH   5  18
BRANCH   3  22
ATOM     22  C   LIG d   1     -10.051  79.578 118.477  0.00  0.00     0.382 C 
ATOM     23  O   LIG d   1     -10.607  78.524 118.869  0.00  0.00    -0.241 OA
ATOM     24  O   LIG d   1     -10.706  80.637 118.432  0.00  0.00    -0.241 OA
ENDBRANCH   3  22
TORSDOF 7
ENDMDL
MODEL 7
REMARK VINA RESULT:      -4.6      2.930      3.993
REMARK  7 active torsions:
REMARK  status: ('A' for Active; 'I' for Inactive)
REMARK    1  A    between atoms: C_2  and  C_3 
REMARK    2  A    between atoms: C_3  and  O_6 
REMARK    3  A    between atoms: C_3  and  C_4 
REMARK    4  A    between atoms: C_7  and  O_6 
REMARK    5  A    between atoms: C_9  and  C_10 
REMARK    6  A    between atoms: N_15  and  C_14 
REMARK    7  A    between atoms: N_20  and  C_19 
REMARK       I    between atoms: C_22  and  N_20 
ROOT
ATOM      1  C   LIG d   1      -4.787  75.964 117.678  0.00  0.00     0.161 C 
ATOM      2  C   LIG d   1      -5.831  76.883 117.877  0.00  0.00     0.016 C 
ATOM      3  C   LIG d   1      -5.791  78.218 117.413  0.00  0.00     0.038 C 
ATOM      4  C   LIG d   1      -4.763  78.684 116.581  0.00  0.00     0.028 C 
ATOM      5  C   LIG d   1      -3.444  77.942 116.774  0.00  0.00    -0.047 C 
ATOM      6  C   LIG d   1      -3.705  76.421 116.677  0.00  0.00     0.091 C 
ENDROOT
BRANCH   1   7
ATOM      7  O   LIG d   1      -5.328  74.688 117.283  0.00  0.00    -0.368 OA
BRANCH   7   8
ATOM      8  C   LIG d   1      -6.516  74.729 116.454  0.00  0.00     0.119 C 
BRANCH   8   9
ATOM      9  C   LIG d   1      -7.449  73.597 116.927  0.00  0.00     0.028 C 
ATOM     10  C   LIG d   1      -7.197  72.277 116.178  0.00  0.00     0.006 C 
ENDBRANCH   8   9
BRANCH   8  11
ATOM     11  C   LIG d   1      -6.188  74.401 114.994  0.00  0.00     0.028 C 
ATOM     12  C   LIG d   1      -6.227  75.637 114.082  0.00  0.00     0.006 C 
ENDBRANCH   8  11
ENDBRANCH   7   8
ENDBRANCH   1   7
BRANCH   6  13
ATOM     13  N   LIG d   1      -2.482  75.618 116.938  0.00  0.00    -0.311 N 
ATOM     14  C   LIG d   1      -1.982  74.740 116.071  0.00  0.00     0.210 C 
ATOM     15  C   LIG d   1      -0.726  74.004 116.547  0.00  0.00     0.109 C 
ATOM     16  O   LIG d   1      -2.442  74.524 114.939  0.00  0.00    -0.276 OA
ATOM     17  H   LIG d   1      -2.028  75.754 117.820  0.00  0.00     0.149 HD
ENDBRANCH   6  13
BRANCH   5  18
ATOM     18  N   LIG d   1      -2.502  78.434 115.752  0.00  0.00     0.381 N 
ATOM     19  H   LIG d   1      -2.618  77.913 114.906  0.00  0.00    -0.090 HD
ATOM     20  H   LIG d   1      -1.563  78.294 116.081  0.00  0.00    -0.090 HD
ATOM     21  H   LIG d   1      -2.661  79.402 115.579  0.00  0.00    -0.090 HD
ENDBRANCH   5  18
BRANCH   3  22
ATOM     22  C   LIG d   1      -6.770  79.114 117.814  0.00  0.00     0.382 C 
ATOM     23  O   LIG d   1      -7.294  79.004 118.949  0.00  0.00    -0.241 OA
ATOM     24  O   LIG d   1      -7.168  80.005 117.039  0.00  0.00    -0.241 OA
ENDBRANCH   3  22
TORSDOF 7
ENDMDL
MODEL 8
REMARK VINA RESULT:      -4.5      3.232      7.100
REMARK  7 active torsions:
REMARK  status: ('A' for Active; 'I' for Inactive)
REMARK    1  A    between atoms: C_2  and  C_3 
REMARK    2  A    between atoms: C_3  and  O_6 
REMARK    3  A    between atoms: C_3  and  C_4 
REMARK    4  A    between atoms: C_7  and  O_6 
REMARK    5  A    between atoms: C_9  and  C_10 
REMARK    6  A    between atoms: N_15  and  C_14 
REMARK    7  A    between atoms: N_20  and  C_19 
REMARK       I    between atoms: C_22  and  N_20 
ROOT
ATOM      1  C   LIG d   1      -7.115  79.006 117.696  0.00  0.00     0.161 C 
ATOM      2  C   LIG d   1      -6.457  77.972 117.009  0.00  0.00     0.016 C 
ATOM      3  C   LIG d   1      -6.993  76.672 116.860  0.00  0.00     0.038 C 
ATOM      4  C   LIG d   1      -8.300  76.359 117.261  0.00  0.00     0.028 C 
ATOM      5  C   LIG d   1      -8.808  77.229 118.406  0.00  0.00    -0.047 C 
ATOM      6  C   LIG d   1      -8.590  78.715 118.043  0.00  0.00     0.091 C 
ENDROOT
BRANCH   1   7
ATOM      7  O   LIG d   1      -7.009  80.234 116.948  0.00  0.00    -0.368 OA
BRANCH   7   8
ATOM      8  C   LIG d   1      -6.303  81.318 117.600  0.00  0.00     0.119 C 
BRANCH   8   9
ATOM      9  C   LIG d   1      -5.146  81.740 116.673  0.00  0.00     0.028 C 
ATOM     10  C   LIG d   1      -3.967  80.754 116.721  0.00  0.00     0.006 C 
ENDBRANCH   8   9
BRANCH   8  11
ATOM     11  C   LIG d   1      -5.634  80.848 118.895  0.00  0.00     0.028 C 
ATOM     12  C   LIG d   1      -5.999  81.723 120.105  0.00  0.00     0.006 C 
ENDBRANCH   8  11
ENDBRANCH   7   8
ENDBRANCH   1   7
BRANCH   6  13
ATOM     13  N   LIG d   1      -8.982  79.632 119.145  0.00  0.00    -0.311 N 
ATOM     14  C   LIG d   1      -9.921  80.569 119.021  0.00  0.00     0.210 C 
ATOM     15  C   LIG d   1     -10.155  81.418 120.274  0.00  0.00     0.109 C 
ATOM     16  O   LIG d   1     -10.603  80.755 118.003  0.00  0.00    -0.276 OA
ATOM     17  H   LIG d   1      -8.501  79.529 120.017  0.00  0.00     0.149 HD
ENDBRANCH   6  13
BRANCH   5  18
ATOM     18  N   LIG d   1     -10.226  76.889 118.629  0.00  0.00     0.381 N 
ATOM     19  H   LIG d   1     -10.579  77.405 119.410  0.00  0.00    -0.090 HD
ATOM     20  H   LIG d   1     -10.296  75.909 118.840  0.00  0.00    -0.090 HD
ATOM     21  H   LIG d   1     -10.759  77.100 117.814  0.00  0.00    -0.090 HD
ENDBRANCH   5  18
BRANCH   3  22
ATOM     22  C   LIG d   1      -6.203  75.659 116.341  0.00  0.00     0.382 C 
ATOM     23  O   LIG d   1      -6.413  75.232 115.180  0.00  0.00    -0.241 OA
ATOM     24  O   LIG d   1      -5.310  75.135 117.034  0.00  0.00    -0.241 OA
ENDBRANCH   3  22
TORSDOF 7
ENDMDL
MODEL 9
REMARK VINA RESULT:      -4.5     13.765     15.807
REMARK  7 active torsions:
REMARK  status: ('A' for Active; 'I' for Inactive)
REMARK    1  A    between atoms: C_2  and  C_3 
REMARK    2  A    between atoms: C_3  and  O_6 
REMARK    3  A    between atoms: C_3  and  C_4 
REMARK    4  A    between atoms: C_7  and  O_6 
REMARK    5  A    between atoms: C_9  and  C_10 
REMARK    6  A    between atoms: N_15  and  C_14 
REMARK    7  A    between atoms: N_20  and  C_19 
REMARK       I    between atoms: C_22  and  N_20 
ROOT
ATOM      1  C   LIG d   1      -0.276  88.691 117.294  0.00  0.00     0.161 C 
ATOM      2  C   LIG d   1      -1.624  88.930 117.611  0.00  0.00     0.016 C 
ATOM      3  C   LIG d   1      -2.126  90.204 117.965  0.00  0.00     0.038 C 
ATOM      4  C   LIG d   1      -1.338  91.361 117.878  0.00  0.00     0.028 C 
ATOM      5  C   LIG d   1       0.153  91.094 118.051  0.00  0.00    -0.047 C 
ATOM      6  C   LIG d   1       0.575  89.962 117.087  0.00  0.00     0.091 C 
ENDROOT
BRANCH   1   7
ATOM      7  O   LIG d   1      -0.190  87.836 116.137  0.00  0.00    -0.368 OA
BRANCH   7   8
ATOM      8  C   LIG d   1      -0.139  86.412 116.399  0.00  0.00     0.119 C 
BRANCH   8   9
ATOM      9  C   LIG d   1       1.307  85.946 116.145  0.00  0.00     0.028 C 
ATOM     10  C   LIG d   1       1.724  86.101 114.673  0.00  0.00     0.006 C 
ENDBRANCH   8   9
BRANCH   8  11
ATOM     11  C   LIG d   1      -0.998  85.631 115.401  0.00  0.00     0.028 C 
ATOM     12  C   LIG d   1      -2.488  85.618 115.778  0.00  0.00     0.006 C 
ENDBRANCH   8  11
ENDBRANCH   7   8
ENDBRANCH   1   7
BRANCH   6  13
ATOM     13  N   LIG d   1       2.002  89.579 117.251  0.00  0.00    -0.311 N 
ATOM     14  C   LIG d   1       2.830  89.381 116.228  0.00  0.00     0.210 C 
ATOM     15  C   LIG d   1       4.254  88.973 116.618  0.00  0.00     0.109 C 
ATOM     16  O   LIG d   1       2.529  89.535 115.034  0.00  0.00    -0.276 OA
ATOM     17  H   LIG d   1       2.338  89.463 118.187  0.00  0.00     0.149 HD
ENDBRANCH   6  13
BRANCH   5  18
ATOM     18  N   LIG d   1       0.865  92.361 117.802  0.00  0.00     0.381 N 
ATOM     19  H   LIG d   1       0.274  93.134 118.036  0.00  0.00    -0.090 HD
ATOM     20  H   LIG d   1       1.090  92.421 116.824  0.00  0.00    -0.090 HD
ATOM     21  H   LIG d   1       1.700  92.396 118.344  0.00  0.00    -0.090 HD
ENDBRANCH   5  18
BRANCH   3  22
ATOM     22  C   LIG d   1      -3.420  90.322 118.449  0.00  0.00     0.382 C 
ATOM     23  O   LIG d   1      -4.261  89.420 118.217  0.00  0.00    -0.241 OA
ATOM     24  O   LIG d   1      -3.769  91.339 119.077  0.00  0.00    -0.241 OA
ENDBRANCH   3  22
TORSDOF 7
ENDMDL
