MODEL 1
REMARK VINA RESULT:      -6.3      0.000      0.000
REMARK  7 active torsions:
REMARK  status: ('A' for Active; 'I' for Inactive)
REMARK    1  A    between atoms: C_2  and  C_3 
REMARK    2  A    between atoms: C_3  and  O_6 
REMARK    3  A    between atoms: C_3  and  C_4 
REMARK    4  A    between atoms: C_7  and  O_6 
REMARK    5  A    between atoms: C_9  and  C_10 
REMARK    6  A    between atoms: N_15  and  C_14 
REMARK    7  A    between atoms: N_20  and  C_19 
REMARK       I    between atoms: C_22  and  N_20 
ROOT
ATOM      1  C   LIG d   1      -7.100  75.664 116.974  0.00  0.00     0.161 C 
ATOM      2  C   LIG d   1      -6.196  76.452 116.243  0.00  0.00     0.016 C 
ATOM      3  C   LIG d   1      -5.189  75.911 115.411  0.00  0.00     0.038 C 
ATOM      4  C   LIG d   1      -5.115  74.538 115.133  0.00  0.00     0.028 C 
ATOM      5  C   LIG d   1      -5.689  73.663 116.243  0.00  0.00    -0.047 C 
ATOM      6  C   LIG d   1      -7.107  74.168 116.597  0.00  0.00     0.091 C 
ENDROOT
BRANCH   1   7
ATOM      7  O   LIG d   1      -8.428  76.214 116.863  0.00  0.00    -0.368 OA
BRANCH   7   8
ATOM      8  C   LIG d   1      -8.950  76.864 118.048  0.00  0.00     0.119 C 
BRANCH   8   9
ATOM      9  C   LIG d   1      -8.706  78.378 117.890  0.00  0.00     0.028 C 
ATOM     10  C   LIG d   1      -9.794  79.222 118.575  0.00  0.00     0.006 C 
ENDBRANCH   8   9
BRANCH   8  11
ATOM     11  C   LIG d   1      -8.166  76.456 119.298  0.00  0.00     0.028 C 
ATOM     12  C   LIG d   1      -9.059  76.312 120.541  0.00  0.00     0.006 C 
ENDBRANCH   8  11
ENDBRANCH   7   8
ENDBRANCH   1   7
BRANCH   6  13
ATOM     13  N   LIG d   1      -7.707  73.420 117.732  0.00  0.00    -0.311 N 
ATOM     14  C   LIG d   1      -8.347  72.260 117.590  0.00  0.00     0.210 C 
ATOM     15  C   LIG d   1      -8.907  71.668 118.887  0.00  0.00     0.109 C 
ATOM     16  O   LIG d   1      -8.475  71.650 116.518  0.00  0.00    -0.276 OA
ATOM     17  H   LIG d   1      -7.622  73.828 118.643  0.00  0.00     0.149 HD
ENDBRANCH   6  13
BRANCH   5  18
ATOM     18  N   LIG d   1      -5.674  72.268 115.764  0.00  0.00     0.381 N 
ATOM     19  H   LIG d   1      -5.415  71.656 116.511  0.00  0.00    -0.090 HD
ATOM     20  H   LIG d   1      -4.989  72.182 115.034  0.00  0.00    -0.090 HD
ATOM     21  H   LIG d   1      -6.574  72.018 115.416  0.00  0.00    -0.090 HD
ENDBRANCH   5  18
BRANCH   3  22
ATOM     22  C   LIG d   1      -4.217  76.744 114.877  0.00  0.00     0.382 C 
ATOM     23  O   LIG d   1      -3.933  77.822 115.451  0.00  0.00    -0.241 OA
ATOM     24  O   LIG d   1      -3.653  76.451 113.806  0.00  0.00    -0.241 OA
ENDBRANCH   3  22
TORSDOF 7
ENDMDL
MODEL 2
REMARK VINA RESULT:      -6.2      2.355      5.826
REMARK  7 active torsions:
REMARK  status: ('A' for Active; 'I' for Inactive)
REMARK    1  A    between atoms: C_2  and  C_3 
REMARK    2  A    between atoms: C_3  and  O_6 
REMARK    3  A    between atoms: C_3  and  C_4 
REMARK    4  A    between atoms: C_7  and  O_6 
REMARK    5  A    between atoms: C_9  and  C_10 
REMARK    6  A    between atoms: N_15  and  C_14 
REMARK    7  A    between atoms: N_20  and  C_19 
REMARK       I    between atoms: C_22  and  N_20 
ROOT
ATOM      1  C   LIG d   1      -7.414  75.576 117.871  0.00  0.00     0.161 C 
ATOM      2  C   LIG d   1      -8.633  76.073 118.363  0.00  0.00     0.016 C 
ATOM      3  C   LIG d   1      -8.935  77.451 118.448  0.00  0.00     0.038 C 
ATOM      4  C   LIG d   1      -8.091  78.430 117.901  0.00  0.00     0.028 C 
ATOM      5  C   LIG d   1      -6.627  78.007 117.850  0.00  0.00    -0.047 C 
ATOM      6  C   LIG d   1      -6.527  76.624 117.167  0.00  0.00     0.091 C 
ENDROOT
BRANCH   1   7
ATOM      7  O   LIG d   1      -7.660  74.458 116.995  0.00  0.00    -0.368 OA
BRANCH   7   8
ATOM      8  C   LIG d   1      -7.467  73.143 117.571  0.00  0.00     0.119 C 
BRANCH   8   9
ATOM      9  C   LIG d   1      -6.839  72.250 116.484  0.00  0.00     0.028 C 
ATOM     10  C   LIG d   1      -5.702  72.956 115.728  0.00  0.00     0.006 C 
ENDBRANCH   8   9
BRANCH   8  11
ATOM     11  C   LIG d   1      -8.806  72.483 117.915  0.00  0.00     0.028 C 
ATOM     12  C   LIG d   1      -8.809  70.969 117.652  0.00  0.00     0.006 C 
ENDBRANCH   8  11
ENDBRANCH   7   8
ENDBRANCH   1   7
BRANCH   6  13
ATOM     13  N   LIG d   1      -5.137  76.098 117.152  0.00  0.00    -0.311 N 
ATOM     14  C   LIG d   1      -4.289  76.297 116.144  0.00  0.00     0.210 C 
ATOM     15  C   LIG d   1      -2.911  75.651 116.321  0.00  0.00     0.109 C 
ATOM     16  O   LIG d   1      -4.537  76.973 115.134  0.00  0.00    -0.276 OA
ATOM     17  H   LIG d   1      -4.842  75.564 117.946  0.00  0.00     0.149 HD
ENDBRANCH   6  13
BRANCH   5  18
ATOM     18  N   LIG d   1      -5.883  79.061 117.134  0.00  0.00     0.381 N 
ATOM     19  H   LIG d   1      -5.966  79.928 117.626  0.00  0.00    -0.090 HD
ATOM     20  H   LIG d   1      -6.284  79.177 116.220  0.00  0.00    -0.090 HD
ATOM     21  H   LIG d   1      -4.923  78.807 117.054  0.00  0.00    -0.090 HD
ENDBRANCH   5  18
BRANCH   3  22
ATOM     22  C   LIG d   1     -10.074  77.866 119.121  0.00  0.00     0.382 C 
ATOM     23  O   LIG d   1     -10.591  78.977 118.854  0.00  0.00    -0.241 OA
ATOM     24  O   LIG d   1     -10.566  77.161 120.023  0.00  0.00    -0.241 OA
ENDBRANCH   3  22
TORSDOF 7
ENDMDL
MODEL 3
REMARK VINA RESULT:      -6.0      2.285      4.334
REMARK  7 active torsions:
REMARK  status: ('A' for Active; 'I' for Inactive)
REMARK    1  A    between atoms: C_2  and  C_3 
REMARK    2  A    between atoms: C_3  and  O_6 
REMARK    3  A    between atoms: C_3  and  C_4 
REMARK    4  A    between atoms: C_7  and  O_6 
REMARK    5  A    between atoms: C_9  and  C_10 
REMARK    6  A    between atoms: N_15  and  C_14 
REMARK    7  A    between atoms: N_20  and  C_19 
REMARK       I    between atoms: C_22  and  N_20 
ROOT
ATOM      1  C   LIG d   1      -7.830  76.208 116.351  0.00  0.00     0.161 C 
ATOM      2  C   LIG d   1      -6.822  75.776 115.472  0.00  0.00     0.016 C 
ATOM      3  C   LIG d   1      -5.499  76.273 115.500  0.00  0.00     0.038 C 
ATOM      4  C   LIG d   1      -5.051  77.132 116.516  0.00  0.00     0.028 C 
ATOM      5  C   LIG d   1      -6.162  77.983 117.122  0.00  0.00    -0.047 C 
ATOM      6  C   LIG d   1      -7.331  77.061 117.536  0.00  0.00     0.091 C 
ENDROOT
BRANCH   1   7
ATOM      7  O   LIG d   1      -8.578  75.073 116.831  0.00  0.00    -0.368 OA
BRANCH   7   8
ATOM      8  C   LIG d   1      -7.825  74.076 117.563  0.00  0.00     0.119 C 
BRANCH   8   9
ATOM      9  C   LIG d   1      -7.814  72.789 116.715  0.00  0.00     0.028 C 
ATOM     10  C   LIG d   1      -6.394  72.382 116.285  0.00  0.00     0.006 C 
ENDBRANCH   8   9
BRANCH   8  11
ATOM     11  C   LIG d   1      -8.528  73.694 118.869  0.00  0.00     0.028 C 
ATOM     12  C   LIG d   1      -8.651  72.174 119.057  0.00  0.00     0.006 C 
ENDBRANCH   8  11
ENDBRANCH   7   8
ENDBRANCH   1   7
BRANCH   6  13
ATOM     13  N   LIG d   1      -8.494  77.823 118.062  0.00  0.00    -0.311 N 
ATOM     14  C   LIG d   1      -8.952  77.695 119.306  0.00  0.00     0.210 C 
ATOM     15  C   LIG d   1     -10.174  78.558 119.638  0.00  0.00     0.109 C 
ATOM     16  O   LIG d   1      -8.443  76.973 120.177  0.00  0.00    -0.276 OA
ATOM     17  H   LIG d   1      -8.948  78.455 117.432  0.00  0.00     0.149 HD
ENDBRANCH   6  13
BRANCH   5  18
ATOM     18  N   LIG d   1      -5.583  78.727 118.257  0.00  0.00     0.381 N 
ATOM     19  H   LIG d   1      -5.935  78.360 119.118  0.00  0.00    -0.090 HD
ATOM     20  H   LIG d   1      -5.859  79.691 118.189  0.00  0.00    -0.090 HD
ATOM     21  H   LIG d   1      -4.589  78.657 118.239  0.00  0.00    -0.090 HD
ENDBRANCH   5  18
BRANCH   3  22
ATOM     22  C   LIG d   1      -4.619  75.943 114.482  0.00  0.00     0.382 C 
ATOM     23  O   LIG d   1      -3.934  76.837 113.929  0.00  0.00    -0.241 OA
ATOM     24  O   LIG d   1      -4.532  74.767 114.078  0.00  0.00    -0.241 OA
ENDBRANCH   3  22
TORSDOF 7
ENDMDL
MODEL 4
REMARK VINA RESULT:      -5.7      3.088      6.511
REMARK  7 active torsions:
REMARK  status: ('A' for Active; 'I' for Inactive)
REMARK    1  A    between atoms: C_2  and  C_3 
REMARK    2  A    between atoms: C_3  and  O_6 
REMARK    3  A    between atoms: C_3  and  C_4 
REMARK    4  A    between atoms: C_7  and  O_6 
REMARK    5  A    between atoms: C_9  and  C_10 
REMARK    6  A    between atoms: N_15  and  C_14 
REMARK    7  A    between atoms: N_20  and  C_19 
REMARK       I    between atoms: C_22  and  N_20 
ROOT
ATOM      1  C   LIG d   1      -6.477  77.440 118.260  0.00  0.00     0.161 C 
ATOM      2  C   LIG d   1      -7.856  77.361 118.513  0.00  0.00     0.016 C 
ATOM      3  C   LIG d   1      -8.731  78.467 118.408  0.00  0.00     0.038 C 
ATOM      4  C   LIG d   1      -8.308  79.700 117.891  0.00  0.00     0.028 C 
ATOM      5  C   LIG d   1      -6.822  79.967 118.100  0.00  0.00    -0.047 C 
ATOM      6  C   LIG d   1      -6.017  78.751 117.588  0.00  0.00     0.091 C 
ENDROOT
BRANCH   1   7
ATOM      7  O   LIG d   1      -6.057  76.303 117.479  0.00  0.00    -0.368 OA
BRANCH   7   8
ATOM      8  C   LIG d   1      -7.020  75.798 116.522  0.00  0.00     0.119 C 
BRANCH   8   9
ATOM      9  C   LIG d   1      -7.061  74.265 116.672  0.00  0.00     0.028 C 
ATOM     10  C   LIG d   1      -8.284  73.786 117.472  0.00  0.00     0.006 C 
ENDBRANCH   8   9
BRANCH   8  11
ATOM     11  C   LIG d   1      -6.561  76.052 115.083  0.00  0.00     0.028 C 
ATOM     12  C   LIG d   1      -5.215  75.383 114.760  0.00  0.00     0.006 C 
ENDBRANCH   8  11
ENDBRANCH   7   8
ENDBRANCH   1   7
BRANCH   6  13
ATOM     13  N   LIG d   1      -4.558  78.893 117.832  0.00  0.00    -0.311 N 
ATOM     14  C   LIG d   1      -3.641  78.800 116.870  0.00  0.00     0.210 C 
ATOM     15  C   LIG d   1      -2.192  78.958 117.340  0.00  0.00     0.109 C 
ATOM     16  O   LIG d   1      -3.892  78.632 115.667  0.00  0.00    -0.276 OA
ATOM     17  H   LIG d   1      -4.267  79.062 118.775  0.00  0.00     0.149 HD
ENDBRANCH   6  13
BRANCH   5  18
ATOM     18  N   LIG d   1      -6.490  81.219 117.394  0.00  0.00     0.381 N 
ATOM     19  H   LIG d   1      -5.939  81.015 116.584  0.00  0.00    -0.090 HD
ATOM     20  H   LIG d   1      -5.947  81.803 118.006  0.00  0.00    -0.090 HD
ATOM     21  H   LIG d   1      -7.325  81.691 117.127  0.00  0.00    -0.090 HD
ENDBRANCH   5  18
BRANCH   3  22
ATOM     22  C   LIG d   1     -10.037  78.355 118.859  0.00  0.00     0.382 C 
ATOM     23  O   LIG d   1     -10.807  77.506 118.347  0.00  0.00    -0.241 OA
ATOM     24  O   LIG d   1     -10.469  79.121 119.742  0.00  0.00    -0.241 OA
ENDBRANCH   3  22
TORSDOF 7
ENDMDL
MODEL 5
REMARK VINA RESULT:      -5.6      2.812      5.216
REMARK  7 active torsions:
REMARK  status: ('A' for Active; 'I' for Inactive)
REMARK    1  A    between atoms: C_2  and  C_3 
REMARK    2  A    between atoms: C_3  and  O_6 
REMARK    3  A    between atoms: C_3  and  C_4 
REMARK    4  A    between atoms: C_7  and  O_6 
REMARK    5  A    between atoms: C_9  and  C_10 
REMARK    6  A    between atoms: N_15  and  C_14 
REMARK    7  A    between atoms: N_20  and  C_19 
REMARK       I    between atoms: C_22  and  N_20 
ROOT
ATOM      1  C   LIG d   1      -6.630  77.628 117.282  0.00  0.00     0.161 C 
ATOM      2  C   LIG d   1      -6.571  79.030 117.343  0.00  0.00     0.016 C 
ATOM      3  C   LIG d   1      -7.628  79.833 117.830  0.00  0.00     0.038 C 
ATOM      4  C   LIG d   1      -8.766  79.276 118.433  0.00  0.00     0.028 C 
ATOM      5  C   LIG d   1      -9.089  77.871 117.934  0.00  0.00    -0.047 C 
ATOM      6  C   LIG d   1      -7.818  76.997 118.039  0.00  0.00     0.091 C 
ENDROOT
BRANCH   1   7
ATOM      7  O   LIG d   1      -5.386  77.066 117.746  0.00  0.00    -0.368 OA
BRANCH   7   8
ATOM      8  C   LIG d   1      -4.429  76.704 116.720  0.00  0.00     0.119 C 
BRANCH   8   9
ATOM      9  C   LIG d   1      -4.796  75.294 116.220  0.00  0.00     0.028 C 
ATOM     10  C   LIG d   1      -5.195  75.282 114.735  0.00  0.00     0.006 C 
ENDBRANCH   8   9
BRANCH   8  11
ATOM     11  C   LIG d   1      -3.016  76.576 117.296  0.00  0.00     0.028 C 
ATOM     12  C   LIG d   1      -2.549  75.116 117.409  0.00  0.00     0.006 C 
ENDBRANCH   8  11
ENDBRANCH   7   8
ENDBRANCH   1   7
BRANCH   6  13
ATOM     13  N   LIG d   1      -8.024  75.630 117.493  0.00  0.00    -0.311 N 
ATOM     14  C   LIG d   1      -8.359  74.583 118.245  0.00  0.00     0.210 C 
ATOM     15  C   LIG d   1      -8.502  73.261 117.485  0.00  0.00     0.109 C 
ATOM     16  O   LIG d   1      -8.582  74.631 119.464  0.00  0.00    -0.276 OA
ATOM     17  H   LIG d   1      -7.894  75.508 116.508  0.00  0.00     0.149 HD
ENDBRANCH   6  13
BRANCH   5  18
ATOM     18  N   LIG d   1     -10.211  77.359 118.743  0.00  0.00     0.381 N 
ATOM     19  H   LIG d   1     -10.814  78.114 119.004  0.00  0.00    -0.090 HD
ATOM     20  H   LIG d   1      -9.845  76.944 119.581  0.00  0.00    -0.090 HD
ATOM     21  H   LIG d   1     -10.723  76.680 118.224  0.00  0.00    -0.090 HD
ENDBRANCH   5  18
BRANCH   3  22
ATOM     22  C   LIG d   1      -7.571  81.210 117.678  0.00  0.00     0.382 C 
ATOM     23  O   LIG d   1      -8.328  81.947 118.355  0.00  0.00    -0.241 OA
ATOM     24  O   LIG d   1      -6.804  81.722 116.842  0.00  0.00    -0.241 OA
ENDBRANCH   3  22
TORSDOF 7
ENDMDL
MODEL 6
REMARK VINA RESULT:      -5.5     16.116     18.146
REMARK  7 active torsions:
REMARK  status: ('A' for Active; 'I' for Inactive)
REMARK    1  A    between atoms: C_2  and  C_3 
REMARK    2  A    between atoms: C_3  and  O_6 
REMARK    3  A    between atoms: C_3  and  C_4 
REMARK    4  A    between atoms: C_7  and  O_6 
REMARK    5  A    between atoms: C_9  and  C_10 
REMARK    6  A    between atoms: N_15  and  C_14 
REMARK    7  A    between atoms: N_20  and  C_19 
REMARK       I    between atoms: C_22  and  N_20 
ROOT
ATOM      1  C   LIG d   1      -4.938  92.627 117.879  0.00  0.00     0.161 C 
ATOM      2  C   LIG d   1      -4.227  91.450 117.595  0.00  0.00     0.016 C 
ATOM      3  C   LIG d   1      -2.992  91.121 118.201  0.00  0.00     0.038 C 
ATOM      4  C   LIG d   1      -2.456  91.882 119.251  0.00  0.00     0.028 C 
ATOM      5  C   LIG d   1      -2.885  93.345 119.220  0.00  0.00    -0.047 C 
ATOM      6  C   LIG d   1      -4.425  93.414 119.102  0.00  0.00     0.091 C 
ENDROOT
BRANCH   1   7
ATOM      7  O   LIG d   1      -6.340  92.327 118.028  0.00  0.00    -0.368 OA
BRANCH   7   8
ATOM      8  C   LIG d   1      -7.192  92.687 116.913  0.00  0.00     0.119 C 
BRANCH   8   9
ATOM      9  C   LIG d   1      -8.486  93.289 117.494  0.00  0.00     0.028 C 
ATOM     10  C   LIG d   1      -8.649  94.778 117.144  0.00  0.00     0.006 C 
ENDBRANCH   8   9
BRANCH   8  11
ATOM     11  C   LIG d   1      -7.637  91.448 116.129  0.00  0.00     0.028 C 
ATOM     12  C   LIG d   1      -6.808  91.219 114.855  0.00  0.00     0.006 C 
ENDBRANCH   8  11
ENDBRANCH   7   8
ENDBRANCH   1   7
BRANCH   6  13
ATOM     13  N   LIG d   1      -4.922  94.809 118.981  0.00  0.00    -0.311 N 
ATOM     14  C   LIG d   1      -5.944  95.288 119.688  0.00  0.00     0.210 C 
ATOM     15  C   LIG d   1      -6.307  96.747 119.394  0.00  0.00     0.109 C 
ATOM     16  O   LIG d   1      -6.563  94.653 120.555  0.00  0.00    -0.276 OA
ATOM     17  H   LIG d   1      -4.457  95.404 118.323  0.00  0.00     0.149 HD
ENDBRANCH   6  13
BRANCH   5  18
ATOM     18  N   LIG d   1      -2.369  93.987 120.443  0.00  0.00     0.381 N 
ATOM     19  H   LIG d   1      -2.242  94.967 120.284  0.00  0.00    -0.090 HD
ATOM     20  H   LIG d   1      -1.476  93.586 120.669  0.00  0.00    -0.090 HD
ATOM     21  H   LIG d   1      -3.005  93.845 121.197  0.00  0.00    -0.090 HD
ENDBRANCH   5  18
BRANCH   3  22
ATOM     22  C   LIG d   1      -2.260  90.043 117.729  0.00  0.00     0.382 C 
ATOM     23  O   LIG d   1      -1.136  90.229 117.203  0.00  0.00    -0.241 OA
ATOM     24  O   LIG d   1      -2.728  88.890 117.782  0.00  0.00    -0.241 OA
ENDBRANCH   3  22
TORSDOF 7
ENDMDL
MODEL 7
REMARK VINA RESULT:      -5.5      3.573      5.430
REMARK  7 active torsions:
REMARK  status: ('A' for Active; 'I' for Inactive)
REMARK    1  A    between atoms: C_2  and  C_3 
REMARK    2  A    between atoms: C_3  and  O_6 
REMARK    3  A    between atoms: C_3  and  C_4 
REMARK    4  A    between atoms: C_7  and  O_6 
REMARK    5  A    between atoms: C_9  and  C_10 
REMARK    6  A    between atoms: N_15  and  C_14 
REMARK    7  A    between atoms: N_20  and  C_19 
REMARK       I    between atoms: C_22  and  N_20 
ROOT
ATOM      1  C   LIG d   1      -5.790  77.378 118.232  0.00  0.00     0.161 C 
ATOM      2  C   LIG d   1      -6.648  78.478 118.062  0.00  0.00     0.016 C 
ATOM      3  C   LIG d   1      -6.205  79.752 117.638  0.00  0.00     0.038 C 
ATOM      4  C   LIG d   1      -4.889  79.974 117.206  0.00  0.00     0.028 C 
ATOM      5  C   LIG d   1      -3.876  79.026 117.839  0.00  0.00    -0.047 C 
ATOM      6  C   LIG d   1      -4.370  77.572 117.660  0.00  0.00     0.091 C 
ENDROOT
BRANCH   1   7
ATOM      7  O   LIG d   1      -6.397  76.195 117.677  0.00  0.00    -0.368 OA
BRANCH   7   8
ATOM      8  C   LIG d   1      -7.369  76.411 116.625  0.00  0.00     0.119 C 
BRANCH   8   9
ATOM      9  C   LIG d   1      -8.551  75.456 116.884  0.00  0.00     0.028 C 
ATOM     10  C   LIG d   1      -8.286  74.499 118.058  0.00  0.00     0.006 C 
ENDBRANCH   8   9
BRANCH   8  11
ATOM     11  C   LIG d   1      -6.811  76.003 115.258  0.00  0.00     0.028 C 
ATOM     12  C   LIG d   1      -5.782  74.866 115.350  0.00  0.00     0.006 C 
ENDBRANCH   8  11
ENDBRANCH   7   8
ENDBRANCH   1   7
BRANCH   6  13
ATOM     13  N   LIG d   1      -3.479  76.585 118.324  0.00  0.00    -0.311 N 
ATOM     14  C   LIG d   1      -2.690  75.744 117.657  0.00  0.00     0.210 C 
ATOM     15  C   LIG d   1      -1.868  74.795 118.534  0.00  0.00     0.109 C 
ATOM     16  O   LIG d   1      -2.570  75.716 116.423  0.00  0.00    -0.276 OA
ATOM     17  H   LIG d   1      -3.491  76.561 119.325  0.00  0.00     0.149 HD
ENDBRANCH   6  13
BRANCH   5  18
ATOM     18  N   LIG d   1      -2.571  79.276 117.199  0.00  0.00     0.381 N 
ATOM     19  H   LIG d   1      -2.710  79.634 116.275  0.00  0.00    -0.090 HD
ATOM     20  H   LIG d   1      -2.071  78.407 117.128  0.00  0.00    -0.090 HD
ATOM     21  H   LIG d   1      -2.045  79.927 117.740  0.00  0.00    -0.090 HD
ENDBRANCH   5  18
BRANCH   3  22
ATOM     22  C   LIG d   1      -7.075  80.831 117.680  0.00  0.00     0.382 C 
ATOM     23  O   LIG d   1      -6.925  81.789 116.885  0.00  0.00    -0.241 OA
ATOM     24  O   LIG d   1      -7.981  80.878 118.534  0.00  0.00    -0.241 OA
ENDBRANCH   3  22
TORSDOF 7
ENDMDL
MODEL 8
REMARK VINA RESULT:      -5.5      2.682      4.738
REMARK  7 active torsions:
REMARK  status: ('A' for Active; 'I' for Inactive)
REMARK    1  A    between atoms: C_2  and  C_3 
REMARK    2  A    between atoms: C_3  and  O_6 
REMARK    3  A    between atoms: C_3  and  C_4 
REMARK    4  A    between atoms: C_7  and  O_6 
REMARK    5  A    between atoms: C_9  and  C_10 
REMARK    6  A    between atoms: N_15  and  C_14 
REMARK    7  A    between atoms: N_20  and  C_19 
REMARK       I    between atoms: C_22  and  N_20 
ROOT
ATOM      1  C   LIG d   1      -7.389  77.179 116.731  0.00  0.00     0.161 C 
ATOM      2  C   LIG d   1      -6.655  76.497 115.746  0.00  0.00     0.016 C 
ATOM      3  C   LIG d   1      -5.248  76.573 115.633  0.00  0.00     0.038 C 
ATOM      4  C   LIG d   1      -4.460  77.220 116.597  0.00  0.00     0.028 C 
ATOM      5  C   LIG d   1      -5.193  78.343 117.323  0.00  0.00    -0.047 C 
ATOM      6  C   LIG d   1      -6.538  77.800 117.858  0.00  0.00     0.091 C 
ENDROOT
BRANCH   1   7
ATOM      7  O   LIG d   1      -8.393  76.306 117.284  0.00  0.00    -0.368 OA
BRANCH   7   8
ATOM      8  C   LIG d   1      -7.907  75.222 118.114  0.00  0.00     0.119 C 
BRANCH   8   9
ATOM      9  C   LIG d   1      -8.256  73.901 117.401  0.00  0.00     0.028 C 
ATOM     10  C   LIG d   1      -8.522  72.753 118.389  0.00  0.00     0.006 C 
ENDBRANCH   8   9
BRANCH   8  11
ATOM     11  C   LIG d   1      -8.650  75.168 119.452  0.00  0.00     0.028 C 
ATOM     12  C   LIG d   1      -9.412  76.466 119.763  0.00  0.00     0.006 C 
ENDBRANCH   8  11
ENDBRANCH   7   8
ENDBRANCH   1   7
BRANCH   6  13
ATOM     13  N   LIG d   1      -7.356  78.856 118.509  0.00  0.00    -0.311 N 
ATOM     14  C   LIG d   1      -7.434  80.107 118.057  0.00  0.00     0.210 C 
ATOM     15  C   LIG d   1      -8.318  81.042 118.889  0.00  0.00     0.109 C 
ATOM     16  O   LIG d   1      -6.880  80.523 117.028  0.00  0.00    -0.276 OA
ATOM     17  H   LIG d   1      -7.863  78.598 119.333  0.00  0.00     0.149 HD
ENDBRANCH   6  13
BRANCH   5  18
ATOM     18  N   LIG d   1      -4.304  78.837 118.391  0.00  0.00     0.381 N 
ATOM     19  H   LIG d   1      -4.100  79.805 118.241  0.00  0.00    -0.090 HD
ATOM     20  H   LIG d   1      -3.440  78.325 118.358  0.00  0.00    -0.090 HD
ATOM     21  H   LIG d   1      -4.737  78.715 119.280  0.00  0.00    -0.090 HD
ENDBRANCH   5  18
BRANCH   3  22
ATOM     22  C   LIG d   1      -4.618  76.030 114.524  0.00  0.00     0.382 C 
ATOM     23  O   LIG d   1      -4.750  74.810 114.262  0.00  0.00    -0.241 OA
ATOM     24  O   LIG d   1      -3.883  76.735 113.806  0.00  0.00    -0.241 OA
ENDBRANCH   3  22
TORSDOF 7
ENDMDL
MODEL 9
REMARK VINA RESULT:      -5.4      3.207      5.123
REMARK  7 active torsions:
REMARK  status: ('A' for Active; 'I' for Inactive)
REMARK    1  A    between atoms: C_2  and  C_3 
REMARK    2  A    between atoms: C_3  and  O_6 
REMARK    3  A    between atoms: C_3  and  C_4 
REMARK    4  A    between atoms: C_7  and  O_6 
REMARK    5  A    between atoms: C_9  and  C_10 
REMARK    6  A    between atoms: N_15  and  C_14 
REMARK    7  A    between atoms: N_20  and  C_19 
REMARK       I    between atoms: C_22  and  N_20 
ROOT
ATOM      1  C   LIG d   1      -4.931  76.296 116.489  0.00  0.00     0.161 C 
ATOM      2  C   LIG d   1      -3.807  75.454 116.542  0.00  0.00     0.016 C 
ATOM      3  C   LIG d   1      -2.866  75.478 117.597  0.00  0.00     0.038 C 
ATOM      4  C   LIG d   1      -3.068  76.247 118.753  0.00  0.00     0.028 C 
ATOM      5  C   LIG d   1      -3.927  77.485 118.515  0.00  0.00    -0.047 C 
ATOM      6  C   LIG d   1      -5.227  77.062 117.795  0.00  0.00     0.091 C 
ENDROOT
BRANCH   1   7
ATOM      7  O   LIG d   1      -6.088  75.541 116.077  0.00  0.00    -0.368 OA
BRANCH   7   8
ATOM      8  C   LIG d   1      -6.526  74.501 116.985  0.00  0.00     0.119 C 
BRANCH   8   9
ATOM      9  C   LIG d   1      -6.387  73.154 116.248  0.00  0.00     0.028 C 
ATOM     10  C   LIG d   1      -7.301  72.066 116.837  0.00  0.00     0.006 C 
ENDBRANCH   8   9
BRANCH   8  11
ATOM     11  C   LIG d   1      -8.017  74.635 117.307  0.00  0.00     0.028 C 
ATOM     12  C   LIG d   1      -8.679  75.818 116.585  0.00  0.00     0.006 C 
ENDBRANCH   8  11
ENDBRANCH   7   8
ENDBRANCH   1   7
BRANCH   6  13
ATOM     13  N   LIG d   1      -6.087  78.224 117.449  0.00  0.00    -0.311 N 
ATOM     14  C   LIG d   1      -7.074  78.664 118.227  0.00  0.00     0.210 C 
ATOM     15  C   LIG d   1      -7.849  79.863 117.674  0.00  0.00     0.109 C 
ATOM     16  O   LIG d   1      -7.360  78.194 119.339  0.00  0.00    -0.276 OA
ATOM     17  H   LIG d   1      -5.903  78.684 116.578  0.00  0.00     0.149 HD
ENDBRANCH   6  13
BRANCH   5  18
ATOM     18  N   LIG d   1      -4.171  78.116 119.826  0.00  0.00     0.381 N 
ATOM     19  H   LIG d   1      -3.878  77.501 120.558  0.00  0.00    -0.090 HD
ATOM     20  H   LIG d   1      -5.157  78.281 119.928  0.00  0.00    -0.090 HD
ATOM     21  H   LIG d   1      -3.674  78.977 119.887  0.00  0.00    -0.090 HD
ENDBRANCH   5  18
BRANCH   3  22
ATOM     22  C   LIG d   1      -1.687  74.757 117.483  0.00  0.00     0.382 C 
ATOM     23  O   LIG d   1      -1.307  74.024 118.427  0.00  0.00    -0.241 OA
ATOM     24  O   LIG d   1      -0.976  74.865 116.466  0.00  0.00    -0.241 OA
ENDBRANCH   3  22
TORSDOF 7
ENDMDL
