MODEL 1
REMARK VINA RESULT:      -5.7      0.000      0.000
REMARK  7 active torsions:
REMARK  status: ('A' for Active; 'I' for Inactive)
REMARK    1  A    between atoms: C_2  and  C_3 
REMARK    2  A    between atoms: C_3  and  O_6 
REMARK    3  A    between atoms: C_3  and  C_4 
REMARK    4  A    between atoms: C_7  and  O_6 
REMARK    5  A    between atoms: C_9  and  C_10 
REMARK    6  A    between atoms: N_15  and  C_14 
REMARK    7  A    between atoms: N_20  and  C_19 
REMARK       I    between atoms: C_22  and  N_20 
ROOT
ATOM      1  C   LIG d   1      -5.794  75.916 115.643  0.00  0.00     0.161 C 
ATOM      2  C   LIG d   1      -4.676  75.135 115.306  0.00  0.00     0.016 C 
ATOM      3  C   LIG d   1      -3.460  75.167 116.026  0.00  0.00     0.038 C 
ATOM      4  C   LIG d   1      -3.329  75.874 117.230  0.00  0.00     0.028 C 
ATOM      5  C   LIG d   1      -4.266  77.072 117.334  0.00  0.00    -0.047 C 
ATOM      6  C   LIG d   1      -5.708  76.610 117.019  0.00  0.00     0.091 C 
ENDROOT
BRANCH   1   7
ATOM      7  O   LIG d   1      -6.991  75.117 115.560  0.00  0.00    -0.368 OA
BRANCH   7   8
ATOM      8  C   LIG d   1      -7.306  74.317 116.726  0.00  0.00     0.119 C 
BRANCH   8   9
ATOM      9  C   LIG d   1      -7.210  72.836 116.312  0.00  0.00     0.028 C 
ATOM     10  C   LIG d   1      -8.513  72.065 116.582  0.00  0.00     0.006 C 
ENDBRANCH   8   9
BRANCH   8  11
ATOM     11  C   LIG d   1      -8.759  74.522 117.166  0.00  0.00     0.028 C 
ATOM     12  C   LIG d   1      -9.489  75.588 116.335  0.00  0.00     0.006 C 
ENDBRANCH   8  11
ENDBRANCH   7   8
ENDBRANCH   1   7
BRANCH   6  13
ATOM     13  N   LIG d   1      -6.676  77.737 117.016  0.00  0.00    -0.311 N 
ATOM     14  C   LIG d   1      -7.410  78.076 118.075  0.00  0.00     0.210 C 
ATOM     15  C   LIG d   1      -8.361  79.256 117.852  0.00  0.00     0.109 C 
ATOM     16  O   LIG d   1      -7.341  77.531 119.187  0.00  0.00    -0.276 OA
ATOM     17  H   LIG d   1      -6.773  78.253 116.164  0.00  0.00     0.149 HD
ENDBRANCH   6  13
BRANCH   5  18
ATOM     18  N   LIG d   1      -4.123  77.634 118.691  0.00  0.00     0.381 N 
ATOM     19  H   LIG d   1      -3.827  78.588 118.633  0.00  0.00    -0.090 HD
ATOM     20  H   LIG d   1      -3.419  77.114 119.185  0.00  0.00    -0.090 HD
ATOM     21  H   LIG d   1      -4.991  77.577 119.177  0.00  0.00    -0.090 HD
ENDBRANCH   5  18
BRANCH   3  22
ATOM     22  C   LIG d   1      -2.345  74.516 115.519  0.00  0.00     0.382 C 
ATOM     23  O   LIG d   1      -2.270  74.262 114.293  0.00  0.00    -0.241 OA
ATOM     24  O   LIG d   1      -1.433  74.141 116.280  0.00  0.00    -0.241 OA
ENDBRANCH   3  22
TORSDOF 7
ENDMDL
MODEL 2
REMARK VINA RESULT:      -5.6      0.847      1.810
REMARK  7 active torsions:
REMARK  status: ('A' for Active; 'I' for Inactive)
REMARK    1  A    between atoms: C_2  and  C_3 
REMARK    2  A    between atoms: C_3  and  O_6 
REMARK    3  A    between atoms: C_3  and  C_4 
REMARK    4  A    between atoms: C_7  and  O_6 
REMARK    5  A    between atoms: C_9  and  C_10 
REMARK    6  A    between atoms: N_15  and  C_14 
REMARK    7  A    between atoms: N_20  and  C_19 
REMARK       I    between atoms: C_22  and  N_20 
ROOT
ATOM      1  C   LIG d   1      -5.936  75.792 116.406  0.00  0.00     0.161 C 
ATOM      2  C   LIG d   1      -4.842  74.974 116.079  0.00  0.00     0.016 C 
ATOM      3  C   LIG d   1      -3.499  75.328 116.347  0.00  0.00     0.038 C 
ATOM      4  C   LIG d   1      -3.167  76.463 117.101  0.00  0.00     0.028 C 
ATOM      5  C   LIG d   1      -4.208  77.574 117.013  0.00  0.00    -0.047 C 
ATOM      6  C   LIG d   1      -5.601  76.982 117.329  0.00  0.00     0.091 C 
ENDROOT
BRANCH   1   7
ATOM      7  O   LIG d   1      -6.988  74.992 116.982  0.00  0.00    -0.368 OA
BRANCH   7   8
ATOM      8  C   LIG d   1      -8.061  74.610 116.086  0.00  0.00     0.119 C 
BRANCH   8   9
ATOM      9  C   LIG d   1      -9.190  75.645 116.247  0.00  0.00     0.028 C 
ATOM     10  C   LIG d   1      -9.565  75.881 117.720  0.00  0.00     0.006 C 
ENDBRANCH   8   9
BRANCH   8  11
ATOM     11  C   LIG d   1      -8.678  73.269 116.497  0.00  0.00     0.028 C 
ATOM     12  C   LIG d   1      -7.704  72.091 116.338  0.00  0.00     0.006 C 
ENDBRANCH   8  11
ENDBRANCH   7   8
ENDBRANCH   1   7
BRANCH   6  13
ATOM     13  N   LIG d   1      -6.689  77.984 117.183  0.00  0.00    -0.311 N 
ATOM     14  C   LIG d   1      -7.153  78.716 118.195  0.00  0.00     0.210 C 
ATOM     15  C   LIG d   1      -8.290  79.675 117.832  0.00  0.00     0.109 C 
ATOM     16  O   LIG d   1      -6.708  78.684 119.352  0.00  0.00    -0.276 OA
ATOM     17  H   LIG d   1      -7.086  78.097 116.271  0.00  0.00     0.149 HD
ENDBRANCH   6  13
BRANCH   5  18
ATOM     18  N   LIG d   1      -3.805  78.637 117.953  0.00  0.00     0.381 N 
ATOM     19  H   LIG d   1      -3.805  79.521 117.484  0.00  0.00    -0.090 HD
ATOM     20  H   LIG d   1      -2.872  78.451 118.274  0.00  0.00    -0.090 HD
ATOM     21  H   LIG d   1      -4.432  78.664 118.727  0.00  0.00    -0.090 HD
ENDBRANCH   5  18
BRANCH   3  22
ATOM     22  C   LIG d   1      -2.469  74.561 115.823  0.00  0.00     0.382 C 
ATOM     23  O   LIG d   1      -1.625  74.038 116.589  0.00  0.00    -0.241 OA
ATOM     24  O   LIG d   1      -2.348  74.423 114.591  0.00  0.00    -0.241 OA
ENDBRANCH   3  22
TORSDOF 7
ENDMDL
MODEL 3
REMARK VINA RESULT:      -5.6      2.051      4.686
REMARK  7 active torsions:
REMARK  status: ('A' for Active; 'I' for Inactive)
REMARK    1  A    between atoms: C_2  and  C_3 
REMARK    2  A    between atoms: C_3  and  O_6 
REMARK    3  A    between atoms: C_3  and  C_4 
REMARK    4  A    between atoms: C_7  and  O_6 
REMARK    5  A    between atoms: C_9  and  C_10 
REMARK    6  A    between atoms: N_15  and  C_14 
REMARK    7  A    between atoms: N_20  and  C_19 
REMARK       I    between atoms: C_22  and  N_20 
ROOT
ATOM      1  C   LIG d   1      -6.579  75.416 117.454  0.00  0.00     0.161 C 
ATOM      2  C   LIG d   1      -6.916  74.133 116.991  0.00  0.00     0.016 C 
ATOM      3  C   LIG d   1      -8.245  73.716 116.753  0.00  0.00     0.038 C 
ATOM      4  C   LIG d   1      -9.325  74.609 116.816  0.00  0.00     0.028 C 
ATOM      5  C   LIG d   1      -9.089  75.779 117.766  0.00  0.00    -0.047 C 
ATOM      6  C   LIG d   1      -7.734  76.439 117.422  0.00  0.00     0.091 C 
ENDROOT
BRANCH   1   7
ATOM      7  O   LIG d   1      -5.445  75.918 116.718  0.00  0.00    -0.368 OA
BRANCH   7   8
ATOM      8  C   LIG d   1      -4.688  74.938 115.966  0.00  0.00     0.119 C 
BRANCH   8   9
ATOM      9  C   LIG d   1      -3.236  74.982 116.478  0.00  0.00     0.028 C 
ATOM     10  C   LIG d   1      -2.217  74.610 115.387  0.00  0.00     0.006 C 
ENDBRANCH   8   9
BRANCH   8  11
ATOM     11  C   LIG d   1      -4.608  75.314 114.484  0.00  0.00     0.028 C 
ATOM     12  C   LIG d   1      -5.949  75.812 113.922  0.00  0.00     0.006 C 
ENDBRANCH   8  11
ENDBRANCH   7   8
ENDBRANCH   1   7
BRANCH   6  13
ATOM     13  N   LIG d   1      -7.386  77.539 118.358  0.00  0.00    -0.311 N 
ATOM     14  C   LIG d   1      -6.913  78.719 117.959  0.00  0.00     0.210 C 
ATOM     15  C   LIG d   1      -6.600  79.705 119.088  0.00  0.00     0.109 C 
ATOM     16  O   LIG d   1      -6.754  79.054 116.776  0.00  0.00    -0.276 OA
ATOM     17  H   LIG d   1      -7.514  77.364 119.336  0.00  0.00     0.149 HD
ENDBRANCH   6  13
BRANCH   5  18
ATOM     18  N   LIG d   1     -10.232  76.701 117.631  0.00  0.00     0.381 N 
ATOM     19  H   LIG d   1     -10.063  77.343 116.882  0.00  0.00    -0.090 HD
ATOM     20  H   LIG d   1     -10.328  77.227 118.482  0.00  0.00    -0.090 HD
ATOM     21  H   LIG d   1     -11.066  76.186 117.454  0.00  0.00    -0.090 HD
ENDBRANCH   5  18
BRANCH   3  22
ATOM     22  C   LIG d   1      -8.510  72.381 116.485  0.00  0.00     0.382 C 
ATOM     23  O   LIG d   1      -7.625  71.659 115.966  0.00  0.00    -0.241 OA
ATOM     24  O   LIG d   1      -9.636  71.902 116.714  0.00  0.00    -0.241 OA
ENDBRANCH   3  22
TORSDOF 7
ENDMDL
MODEL 4
REMARK VINA RESULT:      -5.5      2.035      5.406
REMARK  7 active torsions:
REMARK  status: ('A' for Active; 'I' for Inactive)
REMARK    1  A    between atoms: C_2  and  C_3 
REMARK    2  A    between atoms: C_3  and  O_6 
REMARK    3  A    between atoms: C_3  and  C_4 
REMARK    4  A    between atoms: C_7  and  O_6 
REMARK    5  A    between atoms: C_9  and  C_10 
REMARK    6  A    between atoms: N_15  and  C_14 
REMARK    7  A    between atoms: N_20  and  C_19 
REMARK       I    between atoms: C_22  and  N_20 
ROOT
ATOM      1  C   LIG d   1      -7.662  76.740 117.619  0.00  0.00     0.161 C 
ATOM      2  C   LIG d   1      -8.887  77.375 117.885  0.00  0.00     0.016 C 
ATOM      3  C   LIG d   1      -9.022  78.775 118.028  0.00  0.00     0.038 C 
ATOM      4  C   LIG d   1      -7.961  79.653 117.764  0.00  0.00     0.028 C 
ATOM      5  C   LIG d   1      -6.588  79.028 117.987  0.00  0.00    -0.047 C 
ATOM      6  C   LIG d   1      -6.515  77.690 117.218  0.00  0.00     0.091 C 
ENDROOT
BRANCH   1   7
ATOM      7  O   LIG d   1      -7.847  75.724 116.613  0.00  0.00    -0.368 OA
BRANCH   7   8
ATOM      8  C   LIG d   1      -7.945  74.361 117.093  0.00  0.00     0.119 C 
BRANCH   8   9
ATOM      9  C   LIG d   1      -6.727  73.589 116.550  0.00  0.00     0.028 C 
ATOM     10  C   LIG d   1      -6.116  74.258 115.307  0.00  0.00     0.006 C 
ENDBRANCH   8   9
BRANCH   8  11
ATOM     11  C   LIG d   1      -9.169  73.651 116.508  0.00  0.00     0.028 C 
ATOM     12  C   LIG d   1      -9.188  72.145 116.815  0.00  0.00     0.006 C 
ENDBRANCH   8  11
ENDBRANCH   7   8
ENDBRANCH   1   7
BRANCH   6  13
ATOM     13  N   LIG d   1      -5.234  76.972 117.450  0.00  0.00    -0.311 N 
ATOM     14  C   LIG d   1      -4.172  77.093 116.656  0.00  0.00     0.210 C 
ATOM     15  C   LIG d   1      -2.960  76.249 117.065  0.00  0.00     0.109 C 
ATOM     16  O   LIG d   1      -4.106  77.843 115.671  0.00  0.00    -0.276 OA
ATOM     17  H   LIG d   1      -5.189  76.365 118.245  0.00  0.00     0.149 HD
ENDBRANCH   6  13
BRANCH   5  18
ATOM     18  N   LIG d   1      -5.576  80.006 117.544  0.00  0.00     0.381 N 
ATOM     19  H   LIG d   1      -4.674  79.738 117.884  0.00  0.00    -0.090 HD
ATOM     20  H   LIG d   1      -5.803  80.906 117.929  0.00  0.00    -0.090 HD
ATOM     21  H   LIG d   1      -5.562  80.056 116.549  0.00  0.00    -0.090 HD
ENDBRANCH   5  18
BRANCH   3  22
ATOM     22  C   LIG d   1     -10.221  79.307 118.479  0.00  0.00     0.382 C 
ATOM     23  O   LIG d   1     -10.606  80.426 118.063  0.00  0.00    -0.241 OA
ATOM     24  O   LIG d   1     -10.899  78.702 119.331  0.00  0.00    -0.241 OA
ENDBRANCH   3  22
TORSDOF 7
ENDMDL
MODEL 5
REMARK VINA RESULT:      -5.1      2.251      4.741
REMARK  7 active torsions:
REMARK  status: ('A' for Active; 'I' for Inactive)
REMARK    1  A    between atoms: C_2  and  C_3 
REMARK    2  A    between atoms: C_3  and  O_6 
REMARK    3  A    between atoms: C_3  and  C_4 
REMARK    4  A    between atoms: C_7  and  O_6 
REMARK    5  A    between atoms: C_9  and  C_10 
REMARK    6  A    between atoms: N_15  and  C_14 
REMARK    7  A    between atoms: N_20  and  C_19 
REMARK       I    between atoms: C_22  and  N_20 
ROOT
ATOM      1  C   LIG d   1      -7.593  76.259 117.084  0.00  0.00     0.161 C 
ATOM      2  C   LIG d   1      -8.255  75.027 116.953  0.00  0.00     0.016 C 
ATOM      3  C   LIG d   1      -7.596  73.821 116.619  0.00  0.00     0.038 C 
ATOM      4  C   LIG d   1      -6.198  73.737 116.543  0.00  0.00     0.028 C 
ATOM      5  C   LIG d   1      -5.531  75.057 116.171  0.00  0.00    -0.047 C 
ATOM      6  C   LIG d   1      -6.053  76.166 117.113  0.00  0.00     0.091 C 
ENDROOT
BRANCH   1   7
ATOM      7  O   LIG d   1      -8.075  76.950 118.254  0.00  0.00    -0.368 OA
BRANCH   7   8
ATOM      8  C   LIG d   1      -8.947  78.081 118.011  0.00  0.00     0.119 C 
BRANCH   8   9
ATOM      9  C   LIG d   1      -8.123  79.361 118.250  0.00  0.00     0.028 C 
ATOM     10  C   LIG d   1      -8.903  80.637 117.893  0.00  0.00     0.006 C 
ENDBRANCH   8   9
BRANCH   8  11
ATOM     11  C   LIG d   1     -10.087  78.136 119.033  0.00  0.00     0.028 C 
ATOM     12  C   LIG d   1     -11.250  77.195 118.680  0.00  0.00     0.006 C 
ENDBRANCH   8  11
ENDBRANCH   7   8
ENDBRANCH   1   7
BRANCH   6  13
ATOM     13  N   LIG d   1      -5.515  77.506 116.764  0.00  0.00    -0.311 N 
ATOM     14  C   LIG d   1      -4.450  78.046 117.356  0.00  0.00     0.210 C 
ATOM     15  C   LIG d   1      -4.075  79.446 116.860  0.00  0.00     0.109 C 
ATOM     16  O   LIG d   1      -3.762  77.484 118.221  0.00  0.00    -0.276 OA
ATOM     17  H   LIG d   1      -5.995  78.019 116.050  0.00  0.00     0.149 HD
ENDBRANCH   6  13
BRANCH   5  18
ATOM     18  N   LIG d   1      -4.072  74.861 116.261  0.00  0.00     0.381 N 
ATOM     19  H   LIG d   1      -3.620  75.323 115.498  0.00  0.00    -0.090 HD
ATOM     20  H   LIG d   1      -3.872  73.878 116.199  0.00  0.00    -0.090 HD
ATOM     21  H   LIG d   1      -3.732  75.222 117.125  0.00  0.00    -0.090 HD
ENDBRANCH   5  18
BRANCH   3  22
ATOM     22  C   LIG d   1      -8.341  72.691 116.320  0.00  0.00     0.382 C 
ATOM     23  O   LIG d   1      -7.765  71.593 116.125  0.00  0.00    -0.241 OA
ATOM     24  O   LIG d   1      -9.579  72.764 116.198  0.00  0.00    -0.241 OA
ENDBRANCH   3  22
TORSDOF 7
ENDMDL
MODEL 6
REMARK VINA RESULT:      -5.0     15.694     18.732
REMARK  7 active torsions:
REMARK  status: ('A' for Active; 'I' for Inactive)
REMARK    1  A    between atoms: C_2  and  C_3 
REMARK    2  A    between atoms: C_3  and  O_6 
REMARK    3  A    between atoms: C_3  and  C_4 
REMARK    4  A    between atoms: C_7  and  O_6 
REMARK    5  A    between atoms: C_9  and  C_10 
REMARK    6  A    between atoms: N_15  and  C_14 
REMARK    7  A    between atoms: N_20  and  C_19 
REMARK       I    between atoms: C_22  and  N_20 
ROOT
ATOM      1  C   LIG d   1      -6.415  93.023 119.734  0.00  0.00     0.161 C 
ATOM      2  C   LIG d   1      -7.686  93.568 119.486  0.00  0.00     0.016 C 
ATOM      3  C   LIG d   1      -7.900  94.929 119.167  0.00  0.00     0.038 C 
ATOM      4  C   LIG d   1      -6.836  95.809 118.923  0.00  0.00     0.028 C 
ATOM      5  C   LIG d   1      -5.553  95.427 119.655  0.00  0.00    -0.047 C 
ATOM      6  C   LIG d   1      -5.233  93.943 119.364  0.00  0.00     0.091 C 
ENDROOT
BRANCH   1   7
ATOM      7  O   LIG d   1      -6.289  91.752 119.065  0.00  0.00    -0.368 OA
BRANCH   7   8
ATOM      8  C   LIG d   1      -5.815  91.797 117.697  0.00  0.00     0.119 C 
BRANCH   8   9
ATOM      9  C   LIG d   1      -6.983  91.369 116.787  0.00  0.00     0.028 C 
ATOM     10  C   LIG d   1      -7.337  92.442 115.743  0.00  0.00     0.006 C 
ENDBRANCH   8   9
BRANCH   8  11
ATOM     11  C   LIG d   1      -4.713  90.762 117.455  0.00  0.00     0.028 C 
ATOM     12  C   LIG d   1      -4.213  90.109 118.754  0.00  0.00     0.006 C 
ENDBRANCH   8  11
ENDBRANCH   7   8
ENDBRANCH   1   7
BRANCH   6  13
ATOM     13  N   LIG d   1      -4.040  93.464 120.110  0.00  0.00    -0.311 N 
ATOM     14  C   LIG d   1      -2.818  93.411 119.581  0.00  0.00     0.210 C 
ATOM     15  C   LIG d   1      -1.733  92.866 120.515  0.00  0.00     0.109 C 
ATOM     16  O   LIG d   1      -2.525  93.792 118.438  0.00  0.00    -0.276 OA
ATOM     17  H   LIG d   1      -4.182  93.164 121.054  0.00  0.00     0.149 HD
ENDBRANCH   6  13
BRANCH   5  18
ATOM     18  N   LIG d   1      -4.492  96.347 119.205  0.00  0.00     0.381 N 
ATOM     19  H   LIG d   1      -4.770  97.293 119.372  0.00  0.00    -0.090 HD
ATOM     20  H   LIG d   1      -4.357  96.228 118.216  0.00  0.00    -0.090 HD
ATOM     21  H   LIG d   1      -3.643  96.152 119.689  0.00  0.00    -0.090 HD
ENDBRANCH   5  18
BRANCH   3  22
ATOM     22  C   LIG d   1      -9.192  95.430 119.127  0.00  0.00     0.382 C 
ATOM     23  O   LIG d   1     -10.159  94.698 119.449  0.00  0.00    -0.241 OA
ATOM     24  O   LIG d   1      -9.407  96.591 118.731  0.00  0.00    -0.241 OA
ENDBRANCH   3  22
TORSDOF 7
ENDMDL
MODEL 7
REMARK VINA RESULT:      -4.7     14.585     18.107
REMARK  7 active torsions:
REMARK  status: ('A' for Active; 'I' for Inactive)
REMARK    1  A    between atoms: C_2  and  C_3 
REMARK    2  A    between atoms: C_3  and  O_6 
REMARK    3  A    between atoms: C_3  and  C_4 
REMARK    4  A    between atoms: C_7  and  O_6 
REMARK    5  A    between atoms: C_9  and  C_10 
REMARK    6  A    between atoms: N_15  and  C_14 
REMARK    7  A    between atoms: N_20  and  C_19 
REMARK       I    between atoms: C_22  and  N_20 
ROOT
ATOM      1  C   LIG d   1      -5.492  92.822 118.638  0.00  0.00     0.161 C 
ATOM      2  C   LIG d   1      -6.032  93.988 119.205  0.00  0.00     0.016 C 
ATOM      3  C   LIG d   1      -7.143  94.675 118.662  0.00  0.00     0.038 C 
ATOM      4  C   LIG d   1      -7.888  94.153 117.594  0.00  0.00     0.028 C 
ATOM      5  C   LIG d   1      -7.077  93.242 116.678  0.00  0.00    -0.047 C 
ATOM      6  C   LIG d   1      -6.360  92.176 117.538  0.00  0.00     0.091 C 
ENDROOT
BRANCH   1   7
ATOM      7  O   LIG d   1      -5.204  91.863 119.675  0.00  0.00    -0.368 OA
BRANCH   7   8
ATOM      8  C   LIG d   1      -3.802  91.646 119.970  0.00  0.00     0.119 C 
BRANCH   8   9
ATOM      9  C   LIG d   1      -3.019  92.848 119.408  0.00  0.00     0.028 C 
ATOM     10  C   LIG d   1      -2.444  93.744 120.518  0.00  0.00     0.006 C 
ENDBRANCH   8   9
BRANCH   8  11
ATOM     11  C   LIG d   1      -3.259  90.424 119.224  0.00  0.00     0.028 C 
ATOM     12  C   LIG d   1      -2.148  90.782 118.223  0.00  0.00     0.006 C 
ENDBRANCH   8  11
ENDBRANCH   7   8
ENDBRANCH   1   7
BRANCH   6  13
ATOM     13  N   LIG d   1      -5.478  91.295 116.728  0.00  0.00    -0.311 N 
ATOM     14  C   LIG d   1      -5.913  90.211 116.089  0.00  0.00     0.210 C 
ATOM     15  C   LIG d   1      -4.834  89.433 115.329  0.00  0.00     0.109 C 
ATOM     16  O   LIG d   1      -7.095  89.837 116.052  0.00  0.00    -0.276 OA
ATOM     17  H   LIG d   1      -4.509  91.542 116.678  0.00  0.00     0.149 HD
ENDBRANCH   6  13
BRANCH   5  18
ATOM     18  N   LIG d   1      -8.007  92.660 115.692  0.00  0.00     0.381 N 
ATOM     19  H   LIG d   1      -8.554  93.386 115.273  0.00  0.00    -0.090 HD
ATOM     20  H   LIG d   1      -8.630  92.029 116.165  0.00  0.00    -0.090 HD
ATOM     21  H   LIG d   1      -7.497  92.171 114.990  0.00  0.00    -0.090 HD
ENDBRANCH   5  18
BRANCH   3  22
ATOM     22  C   LIG d   1      -7.494  95.919 119.164  0.00  0.00     0.382 C 
ATOM     23  O   LIG d   1      -6.693  96.548 119.897  0.00  0.00    -0.241 OA
ATOM     24  O   LIG d   1      -8.619  96.400 118.930  0.00  0.00    -0.241 OA
ENDBRANCH   3  22
TORSDOF 7
ENDMDL
MODEL 8
REMARK VINA RESULT:      -4.6     15.120     17.968
REMARK  7 active torsions:
REMARK  status: ('A' for Active; 'I' for Inactive)
REMARK    1  A    between atoms: C_2  and  C_3 
REMARK    2  A    between atoms: C_3  and  O_6 
REMARK    3  A    between atoms: C_3  and  C_4 
REMARK    4  A    between atoms: C_7  and  O_6 
REMARK    5  A    between atoms: C_9  and  C_10 
REMARK    6  A    between atoms: N_15  and  C_14 
REMARK    7  A    between atoms: N_20  and  C_19 
REMARK       I    between atoms: C_22  and  N_20 
ROOT
ATOM      1  C   LIG d   1      -5.480  92.564 118.691  0.00  0.00     0.161 C 
ATOM      2  C   LIG d   1      -4.754  93.608 119.288  0.00  0.00     0.016 C 
ATOM      3  C   LIG d   1      -5.253  94.924 119.425  0.00  0.00     0.038 C 
ATOM      4  C   LIG d   1      -6.580  95.250 119.108  0.00  0.00     0.028 C 
ATOM      5  C   LIG d   1      -7.185  94.350 118.036  0.00  0.00    -0.047 C 
ATOM      6  C   LIG d   1      -6.971  92.874 118.440  0.00  0.00     0.091 C 
ENDROOT
BRANCH   1   7
ATOM      7  O   LIG d   1      -5.343  91.363 119.476  0.00  0.00    -0.368 OA
BRANCH   7   8
ATOM      8  C   LIG d   1      -4.390  90.388 118.988  0.00  0.00     0.119 C 
BRANCH   8   9
ATOM      9  C   LIG d   1      -3.152  90.451 119.904  0.00  0.00     0.028 C 
ATOM     10  C   LIG d   1      -1.913  91.000 119.178  0.00  0.00     0.006 C 
ENDBRANCH   8   9
BRANCH   8  11
ATOM     11  C   LIG d   1      -3.881  90.757 117.592  0.00  0.00     0.028 C 
ATOM     12  C   LIG d   1      -4.342  89.769 116.508  0.00  0.00     0.006 C 
ENDBRANCH   8  11
ENDBRANCH   7   8
ENDBRANCH   1   7
BRANCH   6  13
ATOM     13  N   LIG d   1      -7.459  91.926 117.405  0.00  0.00    -0.311 N 
ATOM     14  C   LIG d   1      -7.054  91.954 116.136  0.00  0.00     0.210 C 
ATOM     15  C   LIG d   1      -7.697  90.900 115.229  0.00  0.00     0.109 C 
ATOM     16  O   LIG d   1      -6.199  92.730 115.683  0.00  0.00    -0.276 OA
ATOM     17  H   LIG d   1      -8.131  91.242 117.693  0.00  0.00     0.149 HD
ENDBRANCH   6  13
BRANCH   5  18
ATOM     18  N   LIG d   1      -8.609  94.712 117.903  0.00  0.00     0.381 N 
ATOM     19  H   LIG d   1      -8.941  94.453 116.995  0.00  0.00    -0.090 HD
ATOM     20  H   LIG d   1      -8.702  95.708 118.000  0.00  0.00    -0.090 HD
ATOM     21  H   LIG d   1      -9.146  94.251 118.604  0.00  0.00    -0.090 HD
ENDBRANCH   5  18
BRANCH   3  22
ATOM     22  C   LIG d   1      -4.408  95.939 119.847  0.00  0.00     0.382 C 
ATOM     23  O   LIG d   1      -3.166  95.764 119.842  0.00  0.00    -0.241 OA
ATOM     24  O   LIG d   1      -4.874  97.012 120.275  0.00  0.00    -0.241 OA
ENDBRANCH   3  22
TORSDOF 7
ENDMDL
MODEL 9
REMARK VINA RESULT:      -4.4      2.810      5.920
REMARK  7 active torsions:
REMARK  status: ('A' for Active; 'I' for Inactive)
REMARK    1  A    between atoms: C_2  and  C_3 
REMARK    2  A    between atoms: C_3  and  O_6 
REMARK    3  A    between atoms: C_3  and  C_4 
REMARK    4  A    between atoms: C_7  and  O_6 
REMARK    5  A    between atoms: C_9  and  C_10 
REMARK    6  A    between atoms: N_15  and  C_14 
REMARK    7  A    between atoms: N_20  and  C_19 
REMARK       I    between atoms: C_22  and  N_20 
ROOT
ATOM      1  C   LIG d   1      -6.031  78.438 117.565  0.00  0.00     0.161 C 
ATOM      2  C   LIG d   1      -7.389  78.145 117.776  0.00  0.00     0.016 C 
ATOM      3  C   LIG d   1      -8.382  79.138 117.944  0.00  0.00     0.038 C 
ATOM      4  C   LIG d   1      -8.106  80.501 117.762  0.00  0.00     0.028 C 
ATOM      5  C   LIG d   1      -6.654  80.869 118.047  0.00  0.00    -0.047 C 
ATOM      6  C   LIG d   1      -5.730  79.919 117.252  0.00  0.00     0.091 C 
ENDROOT
BRANCH   1   7
ATOM      7  O   LIG d   1      -5.504  77.589 116.526  0.00  0.00    -0.368 OA
BRANCH   7   8
ATOM      8  C   LIG d   1      -5.045  76.280 116.945  0.00  0.00     0.119 C 
BRANCH   8   9
ATOM      9  C   LIG d   1      -3.714  76.002 116.220  0.00  0.00     0.028 C 
ATOM     10  C   LIG d   1      -3.242  77.201 115.380  0.00  0.00     0.006 C 
ENDBRANCH   8   9
BRANCH   8  11
ATOM     11  C   LIG d   1      -6.000  75.179 116.476  0.00  0.00     0.028 C 
ATOM     12  C   LIG d   1      -6.387  75.316 114.994  0.00  0.00     0.006 C 
ENDBRANCH   8  11
ENDBRANCH   7   8
ENDBRANCH   1   7
BRANCH   6  13
ATOM     13  N   LIG d   1      -4.291  80.155 117.540  0.00  0.00    -0.311 N 
ATOM     14  C   LIG d   1      -3.419  80.573 116.623  0.00  0.00     0.210 C 
ATOM     15  C   LIG d   1      -1.981  80.734 117.125  0.00  0.00     0.109 C 
ATOM     16  O   LIG d   1      -3.707  80.856 115.451  0.00  0.00    -0.276 OA
ATOM     17  H   LIG d   1      -3.978  79.980 118.474  0.00  0.00     0.149 HD
ENDBRANCH   6  13
BRANCH   5  18
ATOM     18  N   LIG d   1      -6.474  82.288 117.685  0.00  0.00     0.381 N 
ATOM     19  H   LIG d   1      -6.719  82.869 118.462  0.00  0.00    -0.090 HD
ATOM     20  H   LIG d   1      -7.087  82.508 116.920  0.00  0.00    -0.090 HD
ATOM     21  H   LIG d   1      -5.528  82.455 117.422  0.00  0.00    -0.090 HD
ENDBRANCH   5  18
BRANCH   3  22
ATOM     22  C   LIG d   1      -9.660  78.771 118.339  0.00  0.00     0.382 C 
ATOM     23  O   LIG d   1      -9.859  77.642 118.847  0.00  0.00    -0.241 OA
ATOM     24  O   LIG d   1     -10.623  79.539 118.152  0.00  0.00    -0.241 OA
ENDBRANCH   3  22
TORSDOF 7
ENDMDL
