MODEL 1
REMARK VINA RESULT:      -5.3      0.000      0.000
REMARK  7 active torsions:
REMARK  status: ('A' for Active; 'I' for Inactive)
REMARK    1  A    between atoms: C_2  and  C_3 
REMARK    2  A    between atoms: C_3  and  O_6 
REMARK    3  A    between atoms: C_3  and  C_4 
REMARK    4  A    between atoms: C_7  and  O_6 
REMARK    5  A    between atoms: C_9  and  C_10 
REMARK    6  A    between atoms: N_15  and  C_14 
REMARK    7  A    between atoms: N_20  and  C_19 
REMARK       I    between atoms: C_22  and  N_20 
ROOT
ATOM      1  C   LIG d   1      -6.697  77.365 117.420  0.00  0.00     0.161 C 
ATOM      2  C   LIG d   1      -8.004  77.730 117.780  0.00  0.00     0.016 C 
ATOM      3  C   LIG d   1      -8.423  79.072 117.933  0.00  0.00     0.038 C 
ATOM      4  C   LIG d   1      -7.597  80.151 117.585  0.00  0.00     0.028 C 
ATOM      5  C   LIG d   1      -6.109  79.836 117.700  0.00  0.00    -0.047 C 
ATOM      6  C   LIG d   1      -5.812  78.530 116.928  0.00  0.00     0.091 C 
ENDROOT
BRANCH   1   7
ATOM      7  O   LIG d   1      -6.737  76.316 116.432  0.00  0.00    -0.368 OA
BRANCH   7   8
ATOM      8  C   LIG d   1      -6.245  75.021 116.857  0.00  0.00     0.119 C 
BRANCH   8   9
ATOM      9  C   LIG d   1      -5.623  74.336 115.625  0.00  0.00     0.028 C 
ATOM     10  C   LIG d   1      -5.335  75.326 114.485  0.00  0.00     0.006 C 
ENDBRANCH   8   9
BRANCH   8  11
ATOM     11  C   LIG d   1      -7.392  74.105 117.295  0.00  0.00     0.028 C 
ATOM     12  C   LIG d   1      -7.257  72.677 116.744  0.00  0.00     0.006 C 
ENDBRANCH   8  11
ENDBRANCH   7   8
ENDBRANCH   1   7
BRANCH   6  13
ATOM     13  N   LIG d   1      -4.394  78.104 117.060  0.00  0.00    -0.311 N 
ATOM     14  C   LIG d   1      -3.530  78.108 116.046  0.00  0.00     0.210 C 
ATOM     15  C   LIG d   1      -2.123  77.612 116.393  0.00  0.00     0.109 C 
ATOM     16  O   LIG d   1      -3.787  78.507 114.900  0.00  0.00    -0.276 OA
ATOM     17  H   LIG d   1      -4.093  77.795 117.963  0.00  0.00     0.149 HD
ENDBRANCH   6  13
BRANCH   5  18
ATOM     18  N   LIG d   1      -5.366  80.998 117.178  0.00  0.00     0.381 N 
ATOM     19  H   LIG d   1      -5.989  81.771 117.053  0.00  0.00    -0.090 HD
ATOM     20  H   LIG d   1      -4.977  80.759 116.282  0.00  0.00    -0.090 HD
ATOM     21  H   LIG d   1      -4.637  81.248 117.809  0.00  0.00    -0.090 HD
ENDBRANCH   5  18
BRANCH   3  22
ATOM     22  C   LIG d   1      -9.669  79.346 118.476  0.00  0.00     0.382 C 
ATOM     23  O   LIG d   1     -10.553  78.455 118.498  0.00  0.00    -0.241 OA
ATOM     24  O   LIG d   1      -9.936  80.484 118.904  0.00  0.00    -0.241 OA
ENDBRANCH   3  22
TORSDOF 7
ENDMDL
MODEL 2
REMARK VINA RESULT:      -5.0      1.849      2.744
REMARK  7 active torsions:
REMARK  status: ('A' for Active; 'I' for Inactive)
REMARK    1  A    between atoms: C_2  and  C_3 
REMARK    2  A    between atoms: C_3  and  O_6 
REMARK    3  A    between atoms: C_3  and  C_4 
REMARK    4  A    between atoms: C_7  and  O_6 
REMARK    5  A    between atoms: C_9  and  C_10 
REMARK    6  A    between atoms: N_15  and  C_14 
REMARK    7  A    between atoms: N_20  and  C_19 
REMARK       I    between atoms: C_22  and  N_20 
ROOT
ATOM      1  C   LIG d   1      -6.384  79.311 117.622  0.00  0.00     0.161 C 
ATOM      2  C   LIG d   1      -7.721  78.982 117.899  0.00  0.00     0.016 C 
ATOM      3  C   LIG d   1      -8.672  79.920 118.363  0.00  0.00     0.038 C 
ATOM      4  C   LIG d   1      -8.387  81.291 118.436  0.00  0.00     0.028 C 
ATOM      5  C   LIG d   1      -6.907  81.591 118.648  0.00  0.00    -0.047 C 
ATOM      6  C   LIG d   1      -6.082  80.824 117.590  0.00  0.00     0.091 C 
ENDROOT
BRANCH   1   7
ATOM      7  O   LIG d   1      -5.975  78.692 116.385  0.00  0.00    -0.368 OA
BRANCH   7   8
ATOM      8  C   LIG d   1      -5.360  77.385 116.499  0.00  0.00     0.119 C 
BRANCH   8   9
ATOM      9  C   LIG d   1      -3.834  77.584 116.433  0.00  0.00     0.028 C 
ATOM     10  C   LIG d   1      -3.387  78.265 115.128  0.00  0.00     0.006 C 
ENDBRANCH   8   9
BRANCH   8  11
ATOM     11  C   LIG d   1      -5.706  76.500 115.298  0.00  0.00     0.028 C 
ATOM     12  C   LIG d   1      -5.374  75.018 115.535  0.00  0.00     0.006 C 
ENDBRANCH   8  11
ENDBRANCH   7   8
ENDBRANCH   1   7
BRANCH   6  13
ATOM     13  N   LIG d   1      -4.618  80.995 117.778  0.00  0.00    -0.311 N 
ATOM     14  C   LIG d   1      -3.818  81.527 116.856  0.00  0.00     0.210 C 
ATOM     15  C   LIG d   1      -2.337  81.592 117.245  0.00  0.00     0.109 C 
ATOM     16  O   LIG d   1      -4.198  81.980 115.766  0.00  0.00    -0.276 OA
ATOM     17  H   LIG d   1      -4.230  80.682 118.647  0.00  0.00     0.149 HD
ENDBRANCH   6  13
BRANCH   5  18
ATOM     18  N   LIG d   1      -6.732  83.054 118.567  0.00  0.00     0.381 N 
ATOM     19  H   LIG d   1      -6.269  83.386 119.389  0.00  0.00    -0.090 HD
ATOM     20  H   LIG d   1      -7.638  83.487 118.520  0.00  0.00    -0.090 HD
ATOM     21  H   LIG d   1      -6.200  83.290 117.759  0.00  0.00    -0.090 HD
ENDBRANCH   5  18
BRANCH   3  22
ATOM     22  C   LIG d   1      -9.914  79.482 118.797  0.00  0.00     0.382 C 
ATOM     23  O   LIG d   1     -10.493  80.073 119.739  0.00  0.00    -0.241 OA
ATOM     24  O   LIG d   1     -10.442  78.475 118.287  0.00  0.00    -0.241 OA
ENDBRANCH   3  22
TORSDOF 7
ENDMDL
MODEL 3
REMARK VINA RESULT:      -4.9     18.821     20.688
REMARK  7 active torsions:
REMARK  status: ('A' for Active; 'I' for Inactive)
REMARK    1  A    between atoms: C_2  and  C_3 
REMARK    2  A    between atoms: C_3  and  O_6 
REMARK    3  A    between atoms: C_3  and  C_4 
REMARK    4  A    between atoms: C_7  and  O_6 
REMARK    5  A    between atoms: C_9  and  C_10 
REMARK    6  A    between atoms: N_15  and  C_14 
REMARK    7  A    between atoms: N_20  and  C_19 
REMARK       I    between atoms: C_22  and  N_20 
ROOT
ATOM      1  C   LIG d   1      -0.656  58.192 119.456  0.00  0.00     0.161 C 
ATOM      2  C   LIG d   1      -1.993  58.010 119.066  0.00  0.00     0.016 C 
ATOM      3  C   LIG d   1      -2.549  58.587 117.901  0.00  0.00     0.038 C 
ATOM      4  C   LIG d   1      -1.760  59.265 116.961  0.00  0.00     0.028 C 
ATOM      5  C   LIG d   1      -0.513  59.903 117.563  0.00  0.00    -0.047 C 
ATOM      6  C   LIG d   1       0.248  58.837 118.385  0.00  0.00     0.091 C 
ENDROOT
BRANCH   1   7
ATOM      7  O   LIG d   1      -0.098  56.936 119.892  0.00  0.00    -0.368 OA
BRANCH   7   8
ATOM      8  C   LIG d   1       0.055  55.919 118.872  0.00  0.00     0.119 C 
BRANCH   8   9
ATOM      9  C   LIG d   1      -0.648  54.645 119.379  0.00  0.00     0.028 C 
ATOM     10  C   LIG d   1      -1.945  54.344 118.611  0.00  0.00     0.006 C 
ENDBRANCH   8   9
BRANCH   8  11
ATOM     11  C   LIG d   1       1.524  55.527 118.691  0.00  0.00     0.028 C 
ATOM     12  C   LIG d   1       2.400  55.932 119.888  0.00  0.00     0.006 C 
ENDBRANCH   8  11
ENDBRANCH   7   8
ENDBRANCH   1   7
BRANCH   6  13
ATOM     13  N   LIG d   1       1.437  59.399 119.078  0.00  0.00    -0.311 N 
ATOM     14  C   LIG d   1       2.582  59.680 118.458  0.00  0.00     0.210 C 
ATOM     15  C   LIG d   1       3.688  60.233 119.363  0.00  0.00     0.109 C 
ATOM     16  O   LIG d   1       2.776  59.555 117.240  0.00  0.00    -0.276 OA
ATOM     17  H   LIG d   1       1.357  59.561 120.063  0.00  0.00     0.149 HD
ENDBRANCH   6  13
BRANCH   5  18
ATOM     18  N   LIG d   1       0.286  60.456 116.453  0.00  0.00     0.381 N 
ATOM     19  H   LIG d   1      -0.053  61.367 116.214  0.00  0.00    -0.090 HD
ATOM     20  H   LIG d   1       0.183  59.861 115.651  0.00  0.00    -0.090 HD
ATOM     21  H   LIG d   1       1.245  60.509 116.717  0.00  0.00    -0.090 HD
ENDBRANCH   5  18
BRANCH   3  22
ATOM     22  C   LIG d   1      -3.918  58.521 117.688  0.00  0.00     0.382 C 
ATOM     23  O   LIG d   1      -4.504  59.454 117.089  0.00  0.00    -0.241 OA
ATOM     24  O   LIG d   1      -4.580  57.561 118.126  0.00  0.00    -0.241 OA
ENDBRANCH   3  22
TORSDOF 7
ENDMDL
MODEL 4
REMARK VINA RESULT:      -4.6     13.209     16.055
REMARK  7 active torsions:
REMARK  status: ('A' for Active; 'I' for Inactive)
REMARK    1  A    between atoms: C_2  and  C_3 
REMARK    2  A    between atoms: C_3  and  O_6 
REMARK    3  A    between atoms: C_3  and  C_4 
REMARK    4  A    between atoms: C_7  and  O_6 
REMARK    5  A    between atoms: C_9  and  C_10 
REMARK    6  A    between atoms: N_15  and  C_14 
REMARK    7  A    between atoms: N_20  and  C_19 
REMARK       I    between atoms: C_22  and  N_20 
ROOT
ATOM      1  C   LIG d   1       4.438  87.965 117.368  0.00  0.00     0.161 C 
ATOM      2  C   LIG d   1       4.736  86.705 116.822  0.00  0.00     0.016 C 
ATOM      3  C   LIG d   1       3.929  86.067 115.852  0.00  0.00     0.038 C 
ATOM      4  C   LIG d   1       2.844  86.717 115.247  0.00  0.00     0.028 C 
ATOM      5  C   LIG d   1       2.211  87.788 116.128  0.00  0.00    -0.047 C 
ATOM      6  C   LIG d   1       3.319  88.737 116.638  0.00  0.00     0.091 C 
ENDROOT
BRANCH   1   7
ATOM      7  O   LIG d   1       5.636  88.764 117.435  0.00  0.00    -0.368 OA
BRANCH   7   8
ATOM      8  C   LIG d   1       6.529  88.671 116.298  0.00  0.00     0.119 C 
BRANCH   8   9
ATOM      9  C   LIG d   1       7.972  88.731 116.835  0.00  0.00     0.028 C 
ATOM     10  C   LIG d   1       8.786  87.477 116.474  0.00  0.00     0.006 C 
ENDBRANCH   8   9
BRANCH   8  11
ATOM     11  C   LIG d   1       6.388  89.887 115.378  0.00  0.00     0.028 C 
ATOM     12  C   LIG d   1       5.821  89.526 113.995  0.00  0.00     0.006 C 
ENDBRANCH   8  11
ENDBRANCH   7   8
ENDBRANCH   1   7
BRANCH   6  13
ATOM     13  N   LIG d   1       2.797  89.766 117.576  0.00  0.00    -0.311 N 
ATOM     14  C   LIG d   1       2.965  91.074 117.396  0.00  0.00     0.210 C 
ATOM     15  C   LIG d   1       2.365  91.960 118.492  0.00  0.00     0.109 C 
ATOM     16  O   LIG d   1       3.526  91.587 116.416  0.00  0.00    -0.276 OA
ATOM     17  H   LIG d   1       2.302  89.438 118.382  0.00  0.00     0.149 HD
ENDBRANCH   6  13
BRANCH   5  18
ATOM     18  N   LIG d   1       1.184  88.477 115.324  0.00  0.00     0.381 N 
ATOM     19  H   LIG d   1       1.512  88.597 114.386  0.00  0.00    -0.090 HD
ATOM     20  H   LIG d   1       1.018  89.386 115.719  0.00  0.00    -0.090 HD
ATOM     21  H   LIG d   1       0.340  87.948 115.323  0.00  0.00    -0.090 HD
ENDBRANCH   5  18
BRANCH   3  22
ATOM     22  C   LIG d   1       4.183  84.748 115.508  0.00  0.00     0.382 C 
ATOM     23  O   LIG d   1       3.480  84.181 114.637  0.00  0.00    -0.241 OA
ATOM     24  O   LIG d   1       5.077  84.104 116.088  0.00  0.00    -0.241 OA
ENDBRANCH   3  22
TORSDOF 7
ENDMDL
MODEL 5
REMARK VINA RESULT:      -4.5      1.338      2.011
REMARK  7 active torsions:
REMARK  status: ('A' for Active; 'I' for Inactive)
REMARK    1  A    between atoms: C_2  and  C_3 
REMARK    2  A    between atoms: C_3  and  O_6 
REMARK    3  A    between atoms: C_3  and  C_4 
REMARK    4  A    between atoms: C_7  and  O_6 
REMARK    5  A    between atoms: C_9  and  C_10 
REMARK    6  A    between atoms: N_15  and  C_14 
REMARK    7  A    between atoms: N_20  and  C_19 
REMARK       I    between atoms: C_22  and  N_20 
ROOT
ATOM      1  C   LIG d   1      -6.329  78.394 118.284  0.00  0.00     0.161 C 
ATOM      2  C   LIG d   1      -7.728  78.414 118.409  0.00  0.00     0.016 C 
ATOM      3  C   LIG d   1      -8.526  79.523 118.048  0.00  0.00     0.038 C 
ATOM      4  C   LIG d   1      -7.989  80.641 117.391  0.00  0.00     0.028 C 
ATOM      5  C   LIG d   1      -6.515  80.875 117.703  0.00  0.00    -0.047 C 
ATOM      6  C   LIG d   1      -5.736  79.561 117.467  0.00  0.00     0.091 C 
ENDROOT
BRANCH   1   7
ATOM      7  O   LIG d   1      -5.905  77.131 117.734  0.00  0.00    -0.368 OA
BRANCH   7   8
ATOM      8  C   LIG d   1      -6.211  76.910 116.335  0.00  0.00     0.119 C 
BRANCH   8   9
ATOM      9  C   LIG d   1      -7.188  75.721 116.257  0.00  0.00     0.028 C 
ATOM     10  C   LIG d   1      -7.071  74.785 117.472  0.00  0.00     0.006 C 
ENDBRANCH   8   9
BRANCH   8  11
ATOM     11  C   LIG d   1      -4.969  76.467 115.556  0.00  0.00     0.028 C 
ATOM     12  C   LIG d   1      -5.315  75.720 114.258  0.00  0.00     0.006 C 
ENDBRANCH   8  11
ENDBRANCH   7   8
ENDBRANCH   1   7
BRANCH   6  13
ATOM     13  N   LIG d   1      -4.300  79.680 117.829  0.00  0.00    -0.311 N 
ATOM     14  C   LIG d   1      -3.317  79.709 116.931  0.00  0.00     0.210 C 
ATOM     15  C   LIG d   1      -1.907  79.816 117.518  0.00  0.00     0.109 C 
ATOM     16  O   LIG d   1      -3.482  79.688 115.701  0.00  0.00    -0.276 OA
ATOM     17  H   LIG d   1      -4.078  79.734 118.804  0.00  0.00     0.149 HD
ENDBRANCH   6  13
BRANCH   5  18
ATOM     18  N   LIG d   1      -6.050  81.984 116.849  0.00  0.00     0.381 N 
ATOM     19  H   LIG d   1      -5.756  82.752 117.420  0.00  0.00    -0.090 HD
ATOM     20  H   LIG d   1      -6.813  82.294 116.273  0.00  0.00    -0.090 HD
ATOM     21  H   LIG d   1      -5.294  81.680 116.275  0.00  0.00    -0.090 HD
ENDBRANCH   5  18
BRANCH   3  22
ATOM     22  C   LIG d   1      -9.872  79.539 118.379  0.00  0.00     0.382 C 
ATOM     23  O   LIG d   1     -10.453  78.471 118.691  0.00  0.00    -0.241 OA
ATOM     24  O   LIG d   1     -10.524  80.599 118.328  0.00  0.00    -0.241 OA
ENDBRANCH   3  22
TORSDOF 7
ENDMDL
MODEL 6
REMARK VINA RESULT:      -4.4      2.197      3.381
REMARK  7 active torsions:
REMARK  status: ('A' for Active; 'I' for Inactive)
REMARK    1  A    between atoms: C_2  and  C_3 
REMARK    2  A    between atoms: C_3  and  O_6 
REMARK    3  A    between atoms: C_3  and  C_4 
REMARK    4  A    between atoms: C_7  and  O_6 
REMARK    5  A    between atoms: C_9  and  C_10 
REMARK    6  A    between atoms: N_15  and  C_14 
REMARK    7  A    between atoms: N_20  and  C_19 
REMARK       I    between atoms: C_22  and  N_20 
ROOT
ATOM      1  C   LIG d   1      -6.271  79.750 119.169  0.00  0.00     0.161 C 
ATOM      2  C   LIG d   1      -7.572  79.256 119.366  0.00  0.00     0.016 C 
ATOM      3  C   LIG d   1      -8.697  79.718 118.645  0.00  0.00     0.038 C 
ATOM      4  C   LIG d   1      -8.572  80.604 117.564  0.00  0.00     0.028 C 
ATOM      5  C   LIG d   1      -7.349  81.509 117.661  0.00  0.00    -0.047 C 
ATOM      6  C   LIG d   1      -6.099  80.636 117.918  0.00  0.00     0.091 C 
ENDROOT
BRANCH   1   7
ATOM      7  O   LIG d   1      -5.332  78.656 119.141  0.00  0.00    -0.368 OA
BRANCH   7   8
ATOM      8  C   LIG d   1      -5.119  78.032 117.852  0.00  0.00     0.119 C 
BRANCH   8   9
ATOM      9  C   LIG d   1      -5.749  76.626 117.908  0.00  0.00     0.028 C 
ATOM     10  C   LIG d   1      -6.952  76.484 116.960  0.00  0.00     0.006 C 
ENDBRANCH   8   9
BRANCH   8  11
ATOM     11  C   LIG d   1      -3.629  77.798 117.585  0.00  0.00     0.028 C 
ATOM     12  C   LIG d   1      -2.723  78.518 118.596  0.00  0.00     0.006 C 
ENDBRANCH   8  11
ENDBRANCH   7   8
ENDBRANCH   1   7
BRANCH   6  13
ATOM     13  N   LIG d   1      -4.870  81.450 118.109  0.00  0.00    -0.311 N 
ATOM     14  C   LIG d   1      -3.992  81.692 117.137  0.00  0.00     0.210 C 
ATOM     15  C   LIG d   1      -2.784  82.537 117.553  0.00  0.00     0.109 C 
ATOM     16  O   LIG d   1      -4.117  81.316 115.962  0.00  0.00    -0.276 OA
ATOM     17  H   LIG d   1      -4.706  81.821 119.025  0.00  0.00     0.149 HD
ENDBRANCH   6  13
BRANCH   5  18
ATOM     18  N   LIG d   1      -7.266  82.282 116.408  0.00  0.00     0.381 N 
ATOM     19  H   LIG d   1      -7.767  81.807 115.683  0.00  0.00    -0.090 HD
ATOM     20  H   LIG d   1      -6.303  82.352 116.131  0.00  0.00    -0.090 HD
ATOM     21  H   LIG d   1      -7.648  83.192 116.543  0.00  0.00    -0.090 HD
ENDBRANCH   5  18
BRANCH   3  22
ATOM     22  C   LIG d   1      -9.969  79.322 119.029  0.00  0.00     0.382 C 
ATOM     23  O   LIG d   1     -10.571  78.431 118.382  0.00  0.00    -0.241 OA
ATOM     24  O   LIG d   1     -10.540  79.876 119.988  0.00  0.00    -0.241 OA
ENDBRANCH   3  22
TORSDOF 7
ENDMDL
MODEL 7
REMARK VINA RESULT:      -4.4      3.190      5.002
REMARK  7 active torsions:
REMARK  status: ('A' for Active; 'I' for Inactive)
REMARK    1  A    between atoms: C_2  and  C_3 
REMARK    2  A    between atoms: C_3  and  O_6 
REMARK    3  A    between atoms: C_3  and  C_4 
REMARK    4  A    between atoms: C_7  and  O_6 
REMARK    5  A    between atoms: C_9  and  C_10 
REMARK    6  A    between atoms: N_15  and  C_14 
REMARK    7  A    between atoms: N_20  and  C_19 
REMARK       I    between atoms: C_22  and  N_20 
ROOT
ATOM      1  C   LIG d   1      -3.338  77.894 117.339  0.00  0.00     0.161 C 
ATOM      2  C   LIG d   1      -3.611  79.257 117.132  0.00  0.00     0.016 C 
ATOM      3  C   LIG d   1      -2.969  80.038 116.145  0.00  0.00     0.038 C 
ATOM      4  C   LIG d   1      -2.112  79.470 115.191  0.00  0.00     0.028 C 
ATOM      5  C   LIG d   1      -1.421  78.200 115.677  0.00  0.00    -0.047 C 
ATOM      6  C   LIG d   1      -2.488  77.231 116.235  0.00  0.00     0.091 C 
ENDROOT
BRANCH   1   7
ATOM      7  O   LIG d   1      -4.571  77.171 117.525  0.00  0.00    -0.368 OA
BRANCH   7   8
ATOM      8  C   LIG d   1      -5.572  77.343 116.492  0.00  0.00     0.119 C 
BRANCH   8   9
ATOM      9  C   LIG d   1      -6.880  77.775 117.183  0.00  0.00     0.028 C 
ATOM     10  C   LIG d   1      -7.933  76.653 117.200  0.00  0.00     0.006 C 
ENDBRANCH   8   9
BRANCH   8  11
ATOM     11  C   LIG d   1      -5.897  76.013 115.804  0.00  0.00     0.028 C 
ATOM     12  C   LIG d   1      -5.321  75.922 114.382  0.00  0.00     0.006 C 
ENDBRANCH   8  11
ENDBRANCH   7   8
ENDBRANCH   1   7
BRANCH   6  13
ATOM     13  N   LIG d   1      -1.888  75.998 116.809  0.00  0.00    -0.311 N 
ATOM     14  C   LIG d   1      -1.718  74.874 116.115  0.00  0.00     0.210 C 
ATOM     15  C   LIG d   1      -1.100  73.715 116.903  0.00  0.00     0.109 C 
ATOM     16  O   LIG d   1      -1.991  74.737 114.913  0.00  0.00    -0.276 OA
ATOM     17  H   LIG d   1      -1.610  76.031 117.770  0.00  0.00     0.149 HD
ENDBRANCH   6  13
BRANCH   5  18
ATOM     18  N   LIG d   1      -0.668  77.639 114.539  0.00  0.00     0.381 N 
ATOM     19  H   LIG d   1      -1.301  77.384 113.807  0.00  0.00    -0.090 HD
ATOM     20  H   LIG d   1      -0.188  76.811 114.844  0.00  0.00    -0.090 HD
ATOM     21  H   LIG d   1      -0.011  78.308 114.202  0.00  0.00    -0.090 HD
ENDBRANCH   5  18
BRANCH   3  22
ATOM     22  C   LIG d   1      -3.151  81.413 116.131  0.00  0.00     0.382 C 
ATOM     23  O   LIG d   1      -2.162  82.177 116.248  0.00  0.00    -0.241 OA
ATOM     24  O   LIG d   1      -4.295  81.898 116.048  0.00  0.00    -0.241 OA
ENDBRANCH   3  22
TORSDOF 7
ENDMDL
MODEL 8
REMARK VINA RESULT:      -4.3     14.109     17.182
REMARK  7 active torsions:
REMARK  status: ('A' for Active; 'I' for Inactive)
REMARK    1  A    between atoms: C_2  and  C_3 
REMARK    2  A    between atoms: C_3  and  O_6 
REMARK    3  A    between atoms: C_3  and  C_4 
REMARK    4  A    between atoms: C_7  and  O_6 
REMARK    5  A    between atoms: C_9  and  C_10 
REMARK    6  A    between atoms: N_15  and  C_14 
REMARK    7  A    between atoms: N_20  and  C_19 
REMARK       I    between atoms: C_22  and  N_20 
ROOT
ATOM      1  C   LIG d   1     -15.813  64.083 117.055  0.00  0.00     0.161 C 
ATOM      2  C   LIG d   1     -15.307  65.309 117.518  0.00  0.00     0.016 C 
ATOM      3  C   LIG d   1     -15.459  66.528 116.818  0.00  0.00     0.038 C 
ATOM      4  C   LIG d   1     -16.263  66.630 115.673  0.00  0.00     0.028 C 
ATOM      5  C   LIG d   1     -16.376  65.324 114.893  0.00  0.00    -0.047 C 
ATOM      6  C   LIG d   1     -16.788  64.194 115.864  0.00  0.00     0.091 C 
ENDROOT
BRANCH   1   7
ATOM      7  O   LIG d   1     -16.429  63.367 118.143  0.00  0.00    -0.368 OA
BRANCH   7   8
ATOM      8  C   LIG d   1     -17.822  63.675 118.400  0.00  0.00     0.119 C 
BRANCH   8   9
ATOM      9  C   LIG d   1     -17.906  64.297 119.808  0.00  0.00     0.028 C 
ATOM     10  C   LIG d   1     -18.047  65.828 119.765  0.00  0.00     0.006 C 
ENDBRANCH   8   9
BRANCH   8  11
ATOM     11  C   LIG d   1     -18.670  62.402 118.469  0.00  0.00     0.028 C 
ATOM     12  C   LIG d   1     -20.077  62.591 117.881  0.00  0.00     0.006 C 
ENDBRANCH   8  11
ENDBRANCH   7   8
ENDBRANCH   1   7
BRANCH   6  13
ATOM     13  N   LIG d   1     -16.839  62.866 115.200  0.00  0.00    -0.311 N 
ATOM     14  C   LIG d   1     -17.937  62.374 114.629  0.00  0.00     0.210 C 
ATOM     15  C   LIG d   1     -17.778  60.978 114.018  0.00  0.00     0.109 C 
ATOM     16  O   LIG d   1     -19.019  62.974 114.542  0.00  0.00    -0.276 OA
ATOM     17  H   LIG d   1     -15.997  62.325 115.196  0.00  0.00     0.149 HD
ENDBRANCH   6  13
BRANCH   5  18
ATOM     18  N   LIG d   1     -17.350  65.537 113.807  0.00  0.00     0.381 N 
ATOM     19  H   LIG d   1     -17.965  66.289 114.045  0.00  0.00    -0.090 HD
ATOM     20  H   LIG d   1     -17.900  64.703 113.695  0.00  0.00    -0.090 HD
ATOM     21  H   LIG d   1     -16.873  65.745 112.957  0.00  0.00    -0.090 HD
ENDBRANCH   5  18
BRANCH   3  22
ATOM     22  C   LIG d   1     -14.768  67.654 117.240  0.00  0.00     0.382 C 
ATOM     23  O   LIG d   1     -13.620  67.890 116.793  0.00  0.00    -0.241 OA
ATOM     24  O   LIG d   1     -15.261  68.413 118.096  0.00  0.00    -0.241 OA
ENDBRANCH   3  22
TORSDOF 7
ENDMDL
MODEL 9
REMARK VINA RESULT:      -4.3     14.321     16.923
REMARK  7 active torsions:
REMARK  status: ('A' for Active; 'I' for Inactive)
REMARK    1  A    between atoms: C_2  and  C_3 
REMARK    2  A    between atoms: C_3  and  O_6 
REMARK    3  A    between atoms: C_3  and  C_4 
REMARK    4  A    between atoms: C_7  and  O_6 
REMARK    5  A    between atoms: C_9  and  C_10 
REMARK    6  A    between atoms: N_15  and  C_14 
REMARK    7  A    between atoms: N_20  and  C_19 
REMARK       I    between atoms: C_22  and  N_20 
ROOT
ATOM      1  C   LIG d   1     -16.553  65.665 117.991  0.00  0.00     0.161 C 
ATOM      2  C   LIG d   1     -16.210  66.698 117.104  0.00  0.00     0.016 C 
ATOM      3  C   LIG d   1     -16.010  66.500 115.718  0.00  0.00     0.038 C 
ATOM      4  C   LIG d   1     -16.290  65.273 115.097  0.00  0.00     0.028 C 
ATOM      5  C   LIG d   1     -16.152  64.076 116.031  0.00  0.00    -0.047 C 
ATOM      6  C   LIG d   1     -16.971  64.343 117.314  0.00  0.00     0.091 C 
ENDROOT
BRANCH   1   7
ATOM      7  O   LIG d   1     -17.585  66.115 118.890  0.00  0.00    -0.368 OA
BRANCH   7   8
ATOM      8  C   LIG d   1     -18.436  67.181 118.401  0.00  0.00     0.119 C 
BRANCH   8   9
ATOM      9  C   LIG d   1     -18.760  68.100 119.594  0.00  0.00     0.028 C 
ATOM     10  C   LIG d   1     -17.745  69.247 119.743  0.00  0.00     0.006 C 
ENDBRANCH   8   9
BRANCH   8  11
ATOM     11  C   LIG d   1     -19.789  66.640 117.927  0.00  0.00     0.028 C 
ATOM     12  C   LIG d   1     -19.956  66.708 116.401  0.00  0.00     0.006 C 
ENDBRANCH   8  11
ENDBRANCH   7   8
ENDBRANCH   1   7
BRANCH   6  13
ATOM     13  N   LIG d   1     -16.822  63.256 118.318  0.00  0.00    -0.311 N 
ATOM     14  C   LIG d   1     -17.846  62.738 118.994  0.00  0.00     0.210 C 
ATOM     15  C   LIG d   1     -17.470  61.641 119.995  0.00  0.00     0.109 C 
ATOM     16  O   LIG d   1     -19.033  63.060 118.837  0.00  0.00    -0.276 OA
ATOM     17  H   LIG d   1     -15.896  62.914 118.485  0.00  0.00     0.149 HD
ENDBRANCH   6  13
BRANCH   5  18
ATOM     18  N   LIG d   1     -16.605  62.881 115.294  0.00  0.00     0.381 N 
ATOM     19  H   LIG d   1     -15.813  62.349 114.992  0.00  0.00    -0.090 HD
ATOM     20  H   LIG d   1     -17.116  63.175 114.480  0.00  0.00    -0.090 HD
ATOM     21  H   LIG d   1     -17.187  62.321 115.877  0.00  0.00    -0.090 HD
ENDBRANCH   5  18
BRANCH   3  22
ATOM     22  C   LIG d   1     -15.487  67.525 114.945  0.00  0.00     0.382 C 
ATOM     23  O   LIG d   1     -15.025  67.278 113.805  0.00  0.00    -0.241 OA
ATOM     24  O   LIG d   1     -15.431  68.687 115.391  0.00  0.00    -0.241 OA
ENDBRANCH   3  22
TORSDOF 7
ENDMDL
