MODEL 1
REMARK VINA RESULT:      -5.5      0.000      0.000
REMARK  7 active torsions:
REMARK  status: ('A' for Active; 'I' for Inactive)
REMARK    1  A    between atoms: C_2  and  C_3 
REMARK    2  A    between atoms: C_3  and  O_6 
REMARK    3  A    between atoms: C_3  and  C_4 
REMARK    4  A    between atoms: C_7  and  O_6 
REMARK    5  A    between atoms: C_9  and  C_10 
REMARK    6  A    between atoms: N_15  and  C_14 
REMARK    7  A    between atoms: N_20  and  C_19 
REMARK       I    between atoms: C_22  and  N_20 
ROOT
ATOM      1  C   LIG d   1      -4.965  75.549 117.508  0.00  0.00     0.161 C 
ATOM      2  C   LIG d   1      -6.118  76.349 117.567  0.00  0.00     0.016 C 
ATOM      3  C   LIG d   1      -6.120  77.734 117.284  0.00  0.00     0.038 C 
ATOM      4  C   LIG d   1      -4.989  78.388 116.773  0.00  0.00     0.028 C 
ATOM      5  C   LIG d   1      -3.674  77.730 117.177  0.00  0.00    -0.047 C 
ATOM      6  C   LIG d   1      -3.745  76.222 116.844  0.00  0.00     0.091 C 
ENDROOT
BRANCH   1   7
ATOM      7  O   LIG d   1      -5.268  74.302 116.852  0.00  0.00    -0.368 OA
BRANCH   7   8
ATOM      8  C   LIG d   1      -6.316  74.346 115.852  0.00  0.00     0.119 C 
BRANCH   8   9
ATOM      9  C   LIG d   1      -7.072  73.005 115.914  0.00  0.00     0.028 C 
ATOM     10  C   LIG d   1      -6.822  72.251 117.231  0.00  0.00     0.006 C 
ENDBRANCH   8   9
BRANCH   8  11
ATOM     11  C   LIG d   1      -5.733  74.418 114.437  0.00  0.00     0.028 C 
ATOM     12  C   LIG d   1      -5.828  75.824 113.824  0.00  0.00     0.006 C 
ENDBRANCH   8  11
ENDBRANCH   7   8
ENDBRANCH   1   7
BRANCH   6  13
ATOM     13  N   LIG d   1      -2.531  75.486 117.285  0.00  0.00    -0.311 N 
ATOM     14  C   LIG d   1      -1.940  74.542 116.555  0.00  0.00     0.210 C 
ATOM     15  C   LIG d   1      -0.713  73.895 117.204  0.00  0.00     0.109 C 
ATOM     16  O   LIG d   1      -2.298  74.200 115.418  0.00  0.00    -0.276 OA
ATOM     17  H   LIG d   1      -2.155  75.723 118.182  0.00  0.00     0.149 HD
ENDBRANCH   6  13
BRANCH   5  18
ATOM     18  N   LIG d   1      -2.588  78.429 116.464  0.00  0.00     0.381 N 
ATOM     19  H   LIG d   1      -2.448  78.010 115.566  0.00  0.00    -0.090 HD
ATOM     20  H   LIG d   1      -1.739  78.334 116.993  0.00  0.00    -0.090 HD
ATOM     21  H   LIG d   1      -2.815  79.393 116.358  0.00  0.00    -0.090 HD
ENDBRANCH   5  18
BRANCH   3  22
ATOM     22  C   LIG d   1      -7.252  78.489 117.551  0.00  0.00     0.382 C 
ATOM     23  O   LIG d   1      -8.361  77.923 117.702  0.00  0.00    -0.241 OA
ATOM     24  O   LIG d   1      -7.186  79.732 117.599  0.00  0.00    -0.241 OA
ENDBRANCH   3  22
TORSDOF 7
ENDMDL
MODEL 2
REMARK VINA RESULT:      -5.4      2.114      3.106
REMARK  7 active torsions:
REMARK  status: ('A' for Active; 'I' for Inactive)
REMARK    1  A    between atoms: C_2  and  C_3 
REMARK    2  A    between atoms: C_3  and  O_6 
REMARK    3  A    between atoms: C_3  and  C_4 
REMARK    4  A    between atoms: C_7  and  O_6 
REMARK    5  A    between atoms: C_9  and  C_10 
REMARK    6  A    between atoms: N_15  and  C_14 
REMARK    7  A    between atoms: N_20  and  C_19 
REMARK       I    between atoms: C_22  and  N_20 
ROOT
ATOM      1  C   LIG d   1      -6.734  77.138 117.352  0.00  0.00     0.161 C 
ATOM      2  C   LIG d   1      -7.964  77.641 117.809  0.00  0.00     0.016 C 
ATOM      3  C   LIG d   1      -8.172  78.997 118.149  0.00  0.00     0.038 C 
ATOM      4  C   LIG d   1      -7.199  79.979 117.910  0.00  0.00     0.028 C 
ATOM      5  C   LIG d   1      -5.774  79.436 117.924  0.00  0.00    -0.047 C 
ATOM      6  C   LIG d   1      -5.694  78.214 116.980  0.00  0.00     0.091 C 
ENDROOT
BRANCH   1   7
ATOM      7  O   LIG d   1      -6.954  76.247 116.241  0.00  0.00    -0.368 OA
BRANCH   7   8
ATOM      8  C   LIG d   1      -6.422  74.907 116.383  0.00  0.00     0.119 C 
BRANCH   8   9
ATOM      9  C   LIG d   1      -5.849  74.488 115.015  0.00  0.00     0.028 C 
ATOM     10  C   LIG d   1      -5.681  75.681 114.059  0.00  0.00     0.006 C 
ENDBRANCH   8   9
BRANCH   8  11
ATOM     11  C   LIG d   1      -7.532  73.896 116.685  0.00  0.00     0.028 C 
ATOM     12  C   LIG d   1      -7.190  72.475 116.208  0.00  0.00     0.006 C 
ENDBRANCH   8  11
ENDBRANCH   7   8
ENDBRANCH   1   7
BRANCH   6  13
ATOM     13  N   LIG d   1      -4.354  77.571 116.998  0.00  0.00    -0.311 N 
ATOM     14  C   LIG d   1      -3.414  77.808 116.085  0.00  0.00     0.210 C 
ATOM     15  C   LIG d   1      -2.112  77.024 116.279  0.00  0.00     0.109 C 
ATOM     16  O   LIG d   1      -3.523  78.617 115.152  0.00  0.00    -0.276 OA
ATOM     17  H   LIG d   1      -4.170  76.923 117.739  0.00  0.00     0.149 HD
ENDBRANCH   6  13
BRANCH   5  18
ATOM     18  N   LIG d   1      -4.874  80.534 117.526  0.00  0.00     0.381 N 
ATOM     19  H   LIG d   1      -4.445  80.320 116.648  0.00  0.00    -0.090 HD
ATOM     20  H   LIG d   1      -4.150  80.628 118.216  0.00  0.00    -0.090 HD
ATOM     21  H   LIG d   1      -5.386  81.386 117.454  0.00  0.00    -0.090 HD
ENDBRANCH   5  18
BRANCH   3  22
ATOM     22  C   LIG d   1      -9.351  79.377 118.773  0.00  0.00     0.382 C 
ATOM     23  O   LIG d   1      -9.656  78.887 119.887  0.00  0.00    -0.241 OA
ATOM     24  O   LIG d   1     -10.134  80.168 118.215  0.00  0.00    -0.241 OA
ENDBRANCH   3  22
TORSDOF 7
ENDMDL
MODEL 3
REMARK VINA RESULT:      -5.3     13.605     16.256
REMARK  7 active torsions:
REMARK  status: ('A' for Active; 'I' for Inactive)
REMARK    1  A    between atoms: C_2  and  C_3 
REMARK    2  A    between atoms: C_3  and  O_6 
REMARK    3  A    between atoms: C_3  and  C_4 
REMARK    4  A    between atoms: C_7  and  O_6 
REMARK    5  A    between atoms: C_9  and  C_10 
REMARK    6  A    between atoms: N_15  and  C_14 
REMARK    7  A    between atoms: N_20  and  C_19 
REMARK       I    between atoms: C_22  and  N_20 
ROOT
ATOM      1  C   LIG d   1      -2.992  92.111 117.631  0.00  0.00     0.161 C 
ATOM      2  C   LIG d   1      -3.069  93.140 118.585  0.00  0.00     0.016 C 
ATOM      3  C   LIG d   1      -4.281  93.761 118.964  0.00  0.00     0.038 C 
ATOM      4  C   LIG d   1      -5.526  93.289 118.522  0.00  0.00     0.028 C 
ATOM      5  C   LIG d   1      -5.462  92.582 117.173  0.00  0.00    -0.047 C 
ATOM      6  C   LIG d   1      -4.352  91.507 117.221  0.00  0.00     0.091 C 
ENDROOT
BRANCH   1   7
ATOM      7  O   LIG d   1      -2.105  91.076 118.099  0.00  0.00    -0.368 OA
BRANCH   7   8
ATOM      8  C   LIG d   1      -2.692  90.080 118.972  0.00  0.00     0.119 C 
BRANCH   8   9
ATOM      9  C   LIG d   1      -2.136  90.321 120.389  0.00  0.00     0.028 C 
ATOM     10  C   LIG d   1      -0.624  90.600 120.386  0.00  0.00     0.006 C 
ENDBRANCH   8   9
BRANCH   8  11
ATOM     11  C   LIG d   1      -2.236  88.668 118.592  0.00  0.00     0.028 C 
ATOM     12  C   LIG d   1      -1.516  88.620 117.235  0.00  0.00     0.006 C 
ENDBRANCH   8  11
ENDBRANCH   7   8
ENDBRANCH   1   7
BRANCH   6  13
ATOM     13  N   LIG d   1      -4.165  90.826 115.914  0.00  0.00    -0.311 N 
ATOM     14  C   LIG d   1      -4.824  89.723 115.561  0.00  0.00     0.210 C 
ATOM     15  C   LIG d   1      -4.468  89.172 114.177  0.00  0.00     0.109 C 
ATOM     16  O   LIG d   1      -5.694  89.169 116.249  0.00  0.00    -0.276 OA
ATOM     17  H   LIG d   1      -3.501  91.227 115.281  0.00  0.00     0.149 HD
ENDBRANCH   6  13
BRANCH   5  18
ATOM     18  N   LIG d   1      -6.798  92.021 116.899  0.00  0.00     0.381 N 
ATOM     19  H   LIG d   1      -7.498  92.717 117.064  0.00  0.00    -0.090 HD
ATOM     20  H   LIG d   1      -6.963  91.254 117.526  0.00  0.00    -0.090 HD
ATOM     21  H   LIG d   1      -6.849  91.706 115.956  0.00  0.00    -0.090 HD
ENDBRANCH   5  18
BRANCH   3  22
ATOM     22  C   LIG d   1      -4.252  94.894 119.763  0.00  0.00     0.382 C 
ATOM     23  O   LIG d   1      -5.272  95.617 119.863  0.00  0.00    -0.241 OA
ATOM     24  O   LIG d   1      -3.205  95.226 120.351  0.00  0.00    -0.241 OA
ENDBRANCH   3  22
TORSDOF 7
ENDMDL
MODEL 4
REMARK VINA RESULT:      -5.1     13.785     16.540
REMARK  7 active torsions:
REMARK  status: ('A' for Active; 'I' for Inactive)
REMARK    1  A    between atoms: C_2  and  C_3 
REMARK    2  A    between atoms: C_3  and  O_6 
REMARK    3  A    between atoms: C_3  and  C_4 
REMARK    4  A    between atoms: C_7  and  O_6 
REMARK    5  A    between atoms: C_9  and  C_10 
REMARK    6  A    between atoms: N_15  and  C_14 
REMARK    7  A    between atoms: N_20  and  C_19 
REMARK       I    between atoms: C_22  and  N_20 
ROOT
ATOM      1  C   LIG d   1      -3.049  92.107 117.619  0.00  0.00     0.161 C 
ATOM      2  C   LIG d   1      -3.147  93.147 118.559  0.00  0.00     0.016 C 
ATOM      3  C   LIG d   1      -4.368  93.774 118.901  0.00  0.00     0.038 C 
ATOM      4  C   LIG d   1      -5.602  93.297 118.435  0.00  0.00     0.028 C 
ATOM      5  C   LIG d   1      -5.506  92.574 117.096  0.00  0.00    -0.047 C 
ATOM      6  C   LIG d   1      -4.398  91.499 117.184  0.00  0.00     0.091 C 
ENDROOT
BRANCH   1   7
ATOM      7  O   LIG d   1      -2.174  91.077 118.121  0.00  0.00    -0.368 OA
BRANCH   7   8
ATOM      8  C   LIG d   1      -0.864  90.999 117.507  0.00  0.00     0.119 C 
BRANCH   8   9
ATOM      9  C   LIG d   1      -0.560  89.510 117.253  0.00  0.00     0.028 C 
ATOM     10  C   LIG d   1      -1.743  88.598 117.621  0.00  0.00     0.006 C 
ENDBRANCH   8   9
BRANCH   8  11
ATOM     11  C   LIG d   1       0.230  91.478 118.465  0.00  0.00     0.028 C 
ATOM     12  C   LIG d   1       0.694  92.914 118.170  0.00  0.00     0.006 C 
ENDBRANCH   8  11
ENDBRANCH   7   8
ENDBRANCH   1   7
BRANCH   6  13
ATOM     13  N   LIG d   1      -4.181  90.802 115.890  0.00  0.00    -0.311 N 
ATOM     14  C   LIG d   1      -4.840  89.702 115.530  0.00  0.00     0.210 C 
ATOM     15  C   LIG d   1      -4.449  89.132 114.163  0.00  0.00     0.109 C 
ATOM     16  O   LIG d   1      -5.734  89.162 116.199  0.00  0.00    -0.276 OA
ATOM     17  H   LIG d   1      -3.495  91.190 115.272  0.00  0.00     0.149 HD
ENDBRANCH   6  13
BRANCH   5  18
ATOM     18  N   LIG d   1      -6.836  92.011 116.797  0.00  0.00     0.381 N 
ATOM     19  H   LIG d   1      -7.531  92.726 116.872  0.00  0.00    -0.090 HD
ATOM     20  H   LIG d   1      -7.045  91.296 117.471  0.00  0.00    -0.090 HD
ATOM     21  H   LIG d   1      -6.844  91.625 115.878  0.00  0.00    -0.090 HD
ENDBRANCH   5  18
BRANCH   3  22
ATOM     22  C   LIG d   1      -4.357  94.916 119.687  0.00  0.00     0.382 C 
ATOM     23  O   LIG d   1      -3.430  95.100 120.512  0.00  0.00    -0.241 OA
ATOM     24  O   LIG d   1      -5.286  95.742 119.613  0.00  0.00    -0.241 OA
ENDBRANCH   3  22
TORSDOF 7
ENDMDL
MODEL 5
REMARK VINA RESULT:      -5.1      2.805      5.995
REMARK  7 active torsions:
REMARK  status: ('A' for Active; 'I' for Inactive)
REMARK    1  A    between atoms: C_2  and  C_3 
REMARK    2  A    between atoms: C_3  and  O_6 
REMARK    3  A    between atoms: C_3  and  C_4 
REMARK    4  A    between atoms: C_7  and  O_6 
REMARK    5  A    between atoms: C_9  and  C_10 
REMARK    6  A    between atoms: N_15  and  C_14 
REMARK    7  A    between atoms: N_20  and  C_19 
REMARK       I    between atoms: C_22  and  N_20 
ROOT
ATOM      1  C   LIG d   1      -4.529  77.771 116.389  0.00  0.00     0.161 C 
ATOM      2  C   LIG d   1      -4.719  76.573 115.680  0.00  0.00     0.016 C 
ATOM      3  C   LIG d   1      -5.949  75.877 115.646  0.00  0.00     0.038 C 
ATOM      4  C   LIG d   1      -7.122  76.414 116.197  0.00  0.00     0.028 C 
ATOM      5  C   LIG d   1      -6.862  77.375 117.353  0.00  0.00    -0.047 C 
ATOM      6  C   LIG d   1      -5.825  78.430 116.905  0.00  0.00     0.091 C 
ENDROOT
BRANCH   1   7
ATOM      7  O   LIG d   1      -3.780  78.702 115.582  0.00  0.00    -0.368 OA
BRANCH   7   8
ATOM      8  C   LIG d   1      -2.514  79.144 116.129  0.00  0.00     0.119 C 
BRANCH   8   9
ATOM      9  C   LIG d   1      -2.537  80.685 116.166  0.00  0.00     0.028 C 
ATOM     10  C   LIG d   1      -2.120  81.245 117.536  0.00  0.00     0.006 C 
ENDBRANCH   8   9
BRANCH   8  11
ATOM     11  C   LIG d   1      -1.349  78.779 115.204  0.00  0.00     0.028 C 
ATOM     12  C   LIG d   1      -0.775  77.382 115.492  0.00  0.00     0.006 C 
ENDBRANCH   8  11
ENDBRANCH   7   8
ENDBRANCH   1   7
BRANCH   6  13
ATOM     13  N   LIG d   1      -5.451  79.359 118.003  0.00  0.00    -0.311 N 
ATOM     14  C   LIG d   1      -5.988  80.568 118.156  0.00  0.00     0.210 C 
ATOM     15  C   LIG d   1      -5.446  81.372 119.342  0.00  0.00     0.109 C 
ATOM     16  O   LIG d   1      -6.886  81.039 117.440  0.00  0.00    -0.276 OA
ATOM     17  H   LIG d   1      -4.752  79.045 118.648  0.00  0.00     0.149 HD
ENDBRANCH   6  13
BRANCH   5  18
ATOM     18  N   LIG d   1      -8.157  77.965 117.742  0.00  0.00     0.381 N 
ATOM     19  H   LIG d   1      -8.041  78.525 118.563  0.00  0.00    -0.090 HD
ATOM     20  H   LIG d   1      -8.801  77.224 117.954  0.00  0.00    -0.090 HD
ATOM     21  H   LIG d   1      -8.514  78.523 116.998  0.00  0.00    -0.090 HD
ENDBRANCH   5  18
BRANCH   3  22
ATOM     22  C   LIG d   1      -6.005  74.609 115.088  0.00  0.00     0.382 C 
ATOM     23  O   LIG d   1      -6.598  73.683 115.693  0.00  0.00    -0.241 OA
ATOM     24  O   LIG d   1      -5.433  74.368 114.008  0.00  0.00    -0.241 OA
ENDBRANCH   3  22
TORSDOF 7
ENDMDL
MODEL 6
REMARK VINA RESULT:      -5.0      2.320      3.250
REMARK  7 active torsions:
REMARK  status: ('A' for Active; 'I' for Inactive)
REMARK    1  A    between atoms: C_2  and  C_3 
REMARK    2  A    between atoms: C_3  and  O_6 
REMARK    3  A    between atoms: C_3  and  C_4 
REMARK    4  A    between atoms: C_7  and  O_6 
REMARK    5  A    between atoms: C_9  and  C_10 
REMARK    6  A    between atoms: N_15  and  C_14 
REMARK    7  A    between atoms: N_20  and  C_19 
REMARK       I    between atoms: C_22  and  N_20 
ROOT
ATOM      1  C   LIG d   1      -3.163  76.535 117.117  0.00  0.00     0.161 C 
ATOM      2  C   LIG d   1      -3.519  77.767 116.543  0.00  0.00     0.016 C 
ATOM      3  C   LIG d   1      -2.661  78.508 115.698  0.00  0.00     0.038 C 
ATOM      4  C   LIG d   1      -1.438  77.991 115.245  0.00  0.00     0.028 C 
ATOM      5  C   LIG d   1      -0.819  76.976 116.200  0.00  0.00    -0.047 C 
ATOM      6  C   LIG d   1      -1.877  75.903 116.546  0.00  0.00     0.091 C 
ENDROOT
BRANCH   1   7
ATOM      7  O   LIG d   1      -4.265  75.612 117.012  0.00  0.00    -0.368 OA
BRANCH   7   8
ATOM      8  C   LIG d   1      -5.548  76.187 116.665  0.00  0.00     0.119 C 
BRANCH   8   9
ATOM      9  C   LIG d   1      -6.595  75.603 117.634  0.00  0.00     0.028 C 
ATOM     10  C   LIG d   1      -6.352  76.035 119.089  0.00  0.00     0.006 C 
ENDBRANCH   8   9
BRANCH   8  11
ATOM     11  C   LIG d   1      -5.997  75.745 115.269  0.00  0.00     0.028 C 
ATOM     12  C   LIG d   1      -5.383  74.402 114.843  0.00  0.00     0.006 C 
ENDBRANCH   8  11
ENDBRANCH   7   8
ENDBRANCH   1   7
BRANCH   6  13
ATOM     13  N   LIG d   1      -1.380  74.917 117.541  0.00  0.00    -0.311 N 
ATOM     14  C   LIG d   1      -0.881  73.728 117.208  0.00  0.00     0.210 C 
ATOM     15  C   LIG d   1      -0.444  72.857 118.390  0.00  0.00     0.109 C 
ATOM     16  O   LIG d   1      -0.728  73.325 116.045  0.00  0.00    -0.276 OA
ATOM     17  H   LIG d   1      -1.438  75.175 118.506  0.00  0.00     0.149 HD
ENDBRANCH   6  13
BRANCH   5  18
ATOM     18  N   LIG d   1       0.377  76.417 115.542  0.00  0.00     0.381 N 
ATOM     19  H   LIG d   1       0.258  76.437 114.549  0.00  0.00    -0.090 HD
ATOM     20  H   LIG d   1       0.488  75.460 115.827  0.00  0.00    -0.090 HD
ATOM     21  H   LIG d   1       1.184  76.943 115.798  0.00  0.00    -0.090 HD
ENDBRANCH   5  18
BRANCH   3  22
ATOM     22  C   LIG d   1      -3.007  79.799 115.329  0.00  0.00     0.382 C 
ATOM     23  O   LIG d   1      -3.416  80.610 116.194  0.00  0.00    -0.241 OA
ATOM     24  O   LIG d   1      -2.958  80.150 114.135  0.00  0.00    -0.241 OA
ENDBRANCH   3  22
TORSDOF 7
ENDMDL
MODEL 7
REMARK VINA RESULT:      -4.8      2.137      4.747
REMARK  7 active torsions:
REMARK  status: ('A' for Active; 'I' for Inactive)
REMARK    1  A    between atoms: C_2  and  C_3 
REMARK    2  A    between atoms: C_3  and  O_6 
REMARK    3  A    between atoms: C_3  and  C_4 
REMARK    4  A    between atoms: C_7  and  O_6 
REMARK    5  A    between atoms: C_9  and  C_10 
REMARK    6  A    between atoms: N_15  and  C_14 
REMARK    7  A    between atoms: N_20  and  C_19 
REMARK       I    between atoms: C_22  and  N_20 
ROOT
ATOM      1  C   LIG d   1      -6.261  76.470 115.861  0.00  0.00     0.161 C 
ATOM      2  C   LIG d   1      -7.077  75.358 116.123  0.00  0.00     0.016 C 
ATOM      3  C   LIG d   1      -6.570  74.063 116.378  0.00  0.00     0.038 C 
ATOM      4  C   LIG d   1      -5.197  73.823 116.539  0.00  0.00     0.028 C 
ATOM      5  C   LIG d   1      -4.317  74.814 115.785  0.00  0.00    -0.047 C 
ATOM      6  C   LIG d   1      -4.760  76.252 116.142  0.00  0.00     0.091 C 
ENDROOT
BRANCH   1   7
ATOM      7  O   LIG d   1      -6.746  77.615 116.591  0.00  0.00    -0.368 OA
BRANCH   7   8
ATOM      8  C   LIG d   1      -7.477  77.331 117.809  0.00  0.00     0.119 C 
BRANCH   8   9
ATOM      9  C   LIG d   1      -8.567  78.410 117.956  0.00  0.00     0.028 C 
ATOM     10  C   LIG d   1      -7.978  79.816 118.162  0.00  0.00     0.006 C 
ENDBRANCH   8   9
BRANCH   8  11
ATOM     11  C   LIG d   1      -6.585  77.484 119.044  0.00  0.00     0.028 C 
ATOM     12  C   LIG d   1      -6.432  76.176 119.835  0.00  0.00     0.006 C 
ENDBRANCH   8  11
ENDBRANCH   7   8
ENDBRANCH   1   7
BRANCH   6  13
ATOM     13  N   LIG d   1      -4.005  77.282 115.382  0.00  0.00    -0.311 N 
ATOM     14  C   LIG d   1      -2.914  77.886 115.851  0.00  0.00     0.210 C 
ATOM     15  C   LIG d   1      -2.301  78.932 114.914  0.00  0.00     0.109 C 
ATOM     16  O   LIG d   1      -2.377  77.631 116.939  0.00  0.00    -0.276 OA
ATOM     17  H   LIG d   1      -4.353  77.527 114.476  0.00  0.00     0.149 HD
ENDBRANCH   6  13
BRANCH   5  18
ATOM     18  N   LIG d   1      -2.915  74.533 116.151  0.00  0.00     0.381 N 
ATOM     19  H   LIG d   1      -2.300  75.038 115.544  0.00  0.00    -0.090 HD
ATOM     20  H   LIG d   1      -2.739  73.551 116.033  0.00  0.00    -0.090 HD
ATOM     21  H   LIG d   1      -2.751  74.797 117.097  0.00  0.00    -0.090 HD
ENDBRANCH   5  18
BRANCH   3  22
ATOM     22  C   LIG d   1      -7.438  72.983 116.436  0.00  0.00     0.382 C 
ATOM     23  O   LIG d   1      -7.013  71.825 116.210  0.00  0.00    -0.241 OA
ATOM     24  O   LIG d   1      -8.649  73.159 116.668  0.00  0.00    -0.241 OA
ENDBRANCH   3  22
TORSDOF 7
ENDMDL
MODEL 8
REMARK VINA RESULT:      -4.6     14.533     17.057
REMARK  7 active torsions:
REMARK  status: ('A' for Active; 'I' for Inactive)
REMARK    1  A    between atoms: C_2  and  C_3 
REMARK    2  A    between atoms: C_3  and  O_6 
REMARK    3  A    between atoms: C_3  and  C_4 
REMARK    4  A    between atoms: C_7  and  O_6 
REMARK    5  A    between atoms: C_9  and  C_10 
REMARK    6  A    between atoms: N_15  and  C_14 
REMARK    7  A    between atoms: N_20  and  C_19 
REMARK       I    between atoms: C_22  and  N_20 
ROOT
ATOM      1  C   LIG d   1      -0.186  91.524 117.531  0.00  0.00     0.161 C 
ATOM      2  C   LIG d   1      -1.479  91.000 117.366  0.00  0.00     0.016 C 
ATOM      3  C   LIG d   1      -2.655  91.712 117.696  0.00  0.00     0.038 C 
ATOM      4  C   LIG d   1      -2.623  93.062 118.073  0.00  0.00     0.028 C 
ATOM      5  C   LIG d   1      -1.313  93.475 118.736  0.00  0.00    -0.047 C 
ATOM      6  C   LIG d   1      -0.136  93.036 117.836  0.00  0.00     0.091 C 
ENDROOT
BRANCH   1   7
ATOM      7  O   LIG d   1       0.616  91.220 116.372  0.00  0.00    -0.368 OA
BRANCH   7   8
ATOM      8  C   LIG d   1       1.666  90.241 116.563  0.00  0.00     0.119 C 
BRANCH   8   9
ATOM      9  C   LIG d   1       2.984  90.874 116.076  0.00  0.00     0.028 C 
ATOM     10  C   LIG d   1       4.120  90.724 117.101  0.00  0.00     0.006 C 
ENDBRANCH   8   9
BRANCH   8  11
ATOM     11  C   LIG d   1       1.452  89.014 115.672  0.00  0.00     0.028 C 
ATOM     12  C   LIG d   1       0.381  88.058 116.221  0.00  0.00     0.006 C 
ENDBRANCH   8  11
ENDBRANCH   7   8
ENDBRANCH   1   7
BRANCH   6  13
ATOM     13  N   LIG d   1       1.186  93.327 118.450  0.00  0.00    -0.311 N 
ATOM     14  C   LIG d   1       2.181  93.927 117.799  0.00  0.00     0.210 C 
ATOM     15  C   LIG d   1       3.466  94.113 118.612  0.00  0.00     0.109 C 
ATOM     16  O   LIG d   1       2.110  94.352 116.636  0.00  0.00    -0.276 OA
ATOM     17  H   LIG d   1       1.319  93.044 119.402  0.00  0.00     0.149 HD
ENDBRANCH   6  13
BRANCH   5  18
ATOM     18  N   LIG d   1      -1.364  94.934 118.952  0.00  0.00     0.381 N 
ATOM     19  H   LIG d   1      -1.448  95.404 118.072  0.00  0.00    -0.090 HD
ATOM     20  H   LIG d   1      -0.506  95.228 119.385  0.00  0.00    -0.090 HD
ATOM     21  H   LIG d   1      -2.136  95.166 119.536  0.00  0.00    -0.090 HD
ENDBRANCH   5  18
BRANCH   3  22
ATOM     22  C   LIG d   1      -3.878  91.059 117.688  0.00  0.00     0.382 C 
ATOM     23  O   LIG d   1      -3.920  89.805 117.666  0.00  0.00    -0.241 OA
ATOM     24  O   LIG d   1      -4.941  91.708 117.657  0.00  0.00    -0.241 OA
ENDBRANCH   3  22
TORSDOF 7
ENDMDL
MODEL 9
REMARK VINA RESULT:      -4.5      3.270      5.009
REMARK  7 active torsions:
REMARK  status: ('A' for Active; 'I' for Inactive)
REMARK    1  A    between atoms: C_2  and  C_3 
REMARK    2  A    between atoms: C_3  and  O_6 
REMARK    3  A    between atoms: C_3  and  C_4 
REMARK    4  A    between atoms: C_7  and  O_6 
REMARK    5  A    between atoms: C_9  and  C_10 
REMARK    6  A    between atoms: N_15  and  C_14 
REMARK    7  A    between atoms: N_20  and  C_19 
REMARK       I    between atoms: C_22  and  N_20 
ROOT
ATOM      1  C   LIG d   1      -3.812  79.195 116.381  0.00  0.00     0.161 C 
ATOM      2  C   LIG d   1      -3.455  80.528 116.119  0.00  0.00     0.016 C 
ATOM      3  C   LIG d   1      -2.469  80.898 115.175  0.00  0.00     0.038 C 
ATOM      4  C   LIG d   1      -1.877  79.961 114.315  0.00  0.00     0.028 C 
ATOM      5  C   LIG d   1      -1.839  78.550 114.892  0.00  0.00    -0.047 C 
ATOM      6  C   LIG d   1      -3.256  78.167 115.374  0.00  0.00     0.091 C 
ENDROOT
BRANCH   1   7
ATOM      7  O   LIG d   1      -5.246  79.083 116.472  0.00  0.00    -0.368 OA
BRANCH   7   8
ATOM      8  C   LIG d   1      -5.804  79.114 117.809  0.00  0.00     0.119 C 
BRANCH   8   9
ATOM      9  C   LIG d   1      -6.895  78.028 117.881  0.00  0.00     0.028 C 
ATOM     10  C   LIG d   1      -6.886  77.105 116.652  0.00  0.00     0.006 C 
ENDBRANCH   8   9
BRANCH   8  11
ATOM     11  C   LIG d   1      -6.529  80.436 118.079  0.00  0.00     0.028 C 
ATOM     12  C   LIG d   1      -8.053  80.267 118.192  0.00  0.00     0.006 C 
ENDBRANCH   8  11
ENDBRANCH   7   8
ENDBRANCH   1   7
BRANCH   6  13
ATOM     13  N   LIG d   1      -3.291  76.833 116.029  0.00  0.00    -0.311 N 
ATOM     14  C   LIG d   1      -3.663  75.718 115.402  0.00  0.00     0.210 C 
ATOM     15  C   LIG d   1      -3.646  74.454 116.267  0.00  0.00     0.109 C 
ATOM     16  O   LIG d   1      -3.976  75.651 114.204  0.00  0.00    -0.276 OA
ATOM     17  H   LIG d   1      -3.022  76.790 116.992  0.00  0.00     0.149 HD
ENDBRANCH   6  13
BRANCH   5  18
ATOM     18  N   LIG d   1      -1.323  77.653 113.840  0.00  0.00     0.381 N 
ATOM     19  H   LIG d   1      -0.606  77.066 114.217  0.00  0.00    -0.090 HD
ATOM     20  H   LIG d   1      -0.922  78.210 113.106  0.00  0.00    -0.090 HD
ATOM     21  H   LIG d   1      -2.063  77.094 113.476  0.00  0.00    -0.090 HD
ENDBRANCH   5  18
BRANCH   3  22
ATOM     22  C   LIG d   1      -2.038  82.215 115.112  0.00  0.00     0.382 C 
ATOM     23  O   LIG d   1      -2.826  83.115 114.735  0.00  0.00    -0.241 OA
ATOM     24  O   LIG d   1      -0.858  82.507 115.386  0.00  0.00    -0.241 OA
ENDBRANCH   3  22
TORSDOF 7
ENDMDL
