MODEL 1
REMARK VINA RESULT:      -6.0      0.000      0.000
REMARK  7 active torsions:
REMARK  status: ('A' for Active; 'I' for Inactive)
REMARK    1  A    between atoms: C_2  and  C_3 
REMARK    2  A    between atoms: C_3  and  O_6 
REMARK    3  A    between atoms: C_3  and  C_4 
REMARK    4  A    between atoms: C_7  and  O_6 
REMARK    5  A    between atoms: C_9  and  C_10 
REMARK    6  A    between atoms: N_15  and  C_14 
REMARK    7  A    between atoms: N_20  and  C_19 
REMARK       I    between atoms: C_22  and  N_20 
ROOT
ATOM      1  C   LIG d   1      -7.530  75.943 117.295  0.00  0.00     0.161 C 
ATOM      2  C   LIG d   1      -8.816  76.382 117.650  0.00  0.00     0.016 C 
ATOM      3  C   LIG d   1      -9.128  77.732 117.930  0.00  0.00     0.038 C 
ATOM      4  C   LIG d   1      -8.202  78.765 117.724  0.00  0.00     0.028 C 
ATOM      5  C   LIG d   1      -6.751  78.312 117.853  0.00  0.00    -0.047 C 
ATOM      6  C   LIG d   1      -6.532  77.071 116.958  0.00  0.00     0.091 C 
ENDROOT
BRANCH   1   7
ATOM      7  O   LIG d   1      -7.617  75.008 116.201  0.00  0.00    -0.368 OA
BRANCH   7   8
ATOM      8  C   LIG d   1      -7.463  73.610 116.545  0.00  0.00     0.119 C 
BRANCH   8   9
ATOM      9  C   LIG d   1      -6.677  72.936 115.403  0.00  0.00     0.028 C 
ATOM     10  C   LIG d   1      -5.797  73.933 114.629  0.00  0.00     0.006 C 
ENDBRANCH   8   9
BRANCH   8  11
ATOM     11  C   LIG d   1      -8.815  72.893 116.584  0.00  0.00     0.028 C 
ATOM     12  C   LIG d   1      -8.682  71.363 116.512  0.00  0.00     0.006 C 
ENDBRANCH   8  11
ENDBRANCH   7   8
ENDBRANCH   1   7
BRANCH   6  13
ATOM     13  N   LIG d   1      -5.161  76.513 117.089  0.00  0.00    -0.311 N 
ATOM     14  C   LIG d   1      -4.159  76.829 116.270  0.00  0.00     0.210 C 
ATOM     15  C   LIG d   1      -2.832  76.125 116.569  0.00  0.00     0.109 C 
ATOM     16  O   LIG d   1      -4.235  77.650 115.344  0.00  0.00    -0.276 OA
ATOM     17  H   LIG d   1      -5.003  75.862 117.833  0.00  0.00     0.149 HD
ENDBRANCH   6  13
BRANCH   5  18
ATOM     18  N   LIG d   1      -5.893  79.453 117.480  0.00  0.00     0.381 N 
ATOM     19  H   LIG d   1      -5.981  80.180 118.162  0.00  0.00    -0.090 HD
ATOM     20  H   LIG d   1      -6.199  79.814 116.593  0.00  0.00    -0.090 HD
ATOM     21  H   LIG d   1      -4.944  79.159 117.417  0.00  0.00    -0.090 HD
ENDBRANCH   5  18
BRANCH   3  22
ATOM     22  C   LIG d   1     -10.369  78.056 118.459  0.00  0.00     0.382 C 
ATOM     23  O   LIG d   1     -10.535  79.155 119.040  0.00  0.00    -0.241 OA
ATOM     24  O   LIG d   1     -11.311  77.243 118.401  0.00  0.00    -0.241 OA
ENDBRANCH   3  22
TORSDOF 7
ENDMDL
MODEL 2
REMARK VINA RESULT:      -5.4     14.322     16.818
REMARK  7 active torsions:
REMARK  status: ('A' for Active; 'I' for Inactive)
REMARK    1  A    between atoms: C_2  and  C_3 
REMARK    2  A    between atoms: C_3  and  O_6 
REMARK    3  A    between atoms: C_3  and  C_4 
REMARK    4  A    between atoms: C_7  and  O_6 
REMARK    5  A    between atoms: C_9  and  C_10 
REMARK    6  A    between atoms: N_15  and  C_14 
REMARK    7  A    between atoms: N_20  and  C_19 
REMARK       I    between atoms: C_22  and  N_20 
ROOT
ATOM      1  C   LIG d   1      -4.317  92.557 117.170  0.00  0.00     0.161 C 
ATOM      2  C   LIG d   1      -3.819  93.369 118.202  0.00  0.00     0.016 C 
ATOM      3  C   LIG d   1      -4.642  94.164 119.032  0.00  0.00     0.038 C 
ATOM      4  C   LIG d   1      -6.042  94.084 118.984  0.00  0.00     0.028 C 
ATOM      5  C   LIG d   1      -6.578  93.659 117.621  0.00  0.00    -0.047 C 
ATOM      6  C   LIG d   1      -5.849  92.371 117.174  0.00  0.00     0.091 C 
ENDROOT
BRANCH   1   7
ATOM      7  O   LIG d   1      -3.657  91.275 117.194  0.00  0.00    -0.368 OA
BRANCH   7   8
ATOM      8  C   LIG d   1      -2.791  91.026 118.329  0.00  0.00     0.119 C 
BRANCH   8   9
ATOM      9  C   LIG d   1      -1.383  90.725 117.780  0.00  0.00     0.028 C 
ATOM     10  C   LIG d   1      -0.379  91.847 118.094  0.00  0.00     0.006 C 
ENDBRANCH   8   9
BRANCH   8  11
ATOM     11  C   LIG d   1      -3.211  89.761 119.083  0.00  0.00     0.028 C 
ATOM     12  C   LIG d   1      -2.537  88.492 118.540  0.00  0.00     0.006 C 
ENDBRANCH   8  11
ENDBRANCH   7   8
ENDBRANCH   1   7
BRANCH   6  13
ATOM     13  N   LIG d   1      -6.253  91.934 115.812  0.00  0.00    -0.311 N 
ATOM     14  C   LIG d   1      -6.801  90.748 115.556  0.00  0.00     0.210 C 
ATOM     15  C   LIG d   1      -7.125  90.490 114.081  0.00  0.00     0.109 C 
ATOM     16  O   LIG d   1      -7.080  89.897 116.414  0.00  0.00    -0.276 OA
ATOM     17  H   LIG d   1      -6.091  92.575 115.061  0.00  0.00     0.149 HD
ENDBRANCH   6  13
BRANCH   5  18
ATOM     18  N   LIG d   1      -8.036  93.483 117.750  0.00  0.00     0.381 N 
ATOM     19  H   LIG d   1      -8.431  93.262 116.858  0.00  0.00    -0.090 HD
ATOM     20  H   LIG d   1      -8.441  94.345 118.069  0.00  0.00    -0.090 HD
ATOM     21  H   LIG d   1      -8.235  92.754 118.400  0.00  0.00    -0.090 HD
ENDBRANCH   5  18
BRANCH   3  22
ATOM     22  C   LIG d   1      -4.065  95.081 119.897  0.00  0.00     0.382 C 
ATOM     23  O   LIG d   1      -4.758  96.006 120.384  0.00  0.00    -0.241 OA
ATOM     24  O   LIG d   1      -2.849  95.022 120.161  0.00  0.00    -0.241 OA
ENDBRANCH   3  22
TORSDOF 7
ENDMDL
MODEL 3
REMARK VINA RESULT:      -5.3     13.940     16.260
REMARK  7 active torsions:
REMARK  status: ('A' for Active; 'I' for Inactive)
REMARK    1  A    between atoms: C_2  and  C_3 
REMARK    2  A    between atoms: C_3  and  O_6 
REMARK    3  A    between atoms: C_3  and  C_4 
REMARK    4  A    between atoms: C_7  and  O_6 
REMARK    5  A    between atoms: C_9  and  C_10 
REMARK    6  A    between atoms: N_15  and  C_14 
REMARK    7  A    between atoms: N_20  and  C_19 
REMARK       I    between atoms: C_22  and  N_20 
ROOT
ATOM      1  C   LIG d   1      -4.124  91.451 117.883  0.00  0.00     0.161 C 
ATOM      2  C   LIG d   1      -4.916  90.654 117.040  0.00  0.00     0.016 C 
ATOM      3  C   LIG d   1      -6.111  91.108 116.435  0.00  0.00     0.038 C 
ATOM      4  C   LIG d   1      -6.517  92.448 116.513  0.00  0.00     0.028 C 
ATOM      5  C   LIG d   1      -6.019  93.161 117.765  0.00  0.00    -0.047 C 
ATOM      6  C   LIG d   1      -4.493  92.949 117.890  0.00  0.00     0.091 C 
ENDROOT
BRANCH   1   7
ATOM      7  O   LIG d   1      -2.732  91.279 117.552  0.00  0.00    -0.368 OA
BRANCH   7   8
ATOM      8  C   LIG d   1      -1.926  90.578 118.531  0.00  0.00     0.119 C 
BRANCH   8   9
ATOM      9  C   LIG d   1      -0.499  91.155 118.453  0.00  0.00     0.028 C 
ATOM     10  C   LIG d   1       0.137  90.962 117.066  0.00  0.00     0.006 C 
ENDBRANCH   8   9
BRANCH   8  11
ATOM     11  C   LIG d   1      -1.784  89.095 118.176  0.00  0.00     0.028 C 
ATOM     12  C   LIG d   1      -2.449  88.170 119.208  0.00  0.00     0.006 C 
ENDBRANCH   8  11
ENDBRANCH   7   8
ENDBRANCH   1   7
BRANCH   6  13
ATOM     13  N   LIG d   1      -3.938  93.544 119.133  0.00  0.00    -0.311 N 
ATOM     14  C   LIG d   1      -2.820  94.267 119.165  0.00  0.00     0.210 C 
ATOM     15  C   LIG d   1      -2.413  94.769 120.554  0.00  0.00     0.109 C 
ATOM     16  O   LIG d   1      -2.144  94.569 118.169  0.00  0.00    -0.276 OA
ATOM     17  H   LIG d   1      -4.440  93.375 119.983  0.00  0.00     0.149 HD
ENDBRANCH   6  13
BRANCH   5  18
ATOM     18  N   LIG d   1      -6.398  94.582 117.650  0.00  0.00     0.381 N 
ATOM     19  H   LIG d   1      -7.374  94.657 117.444  0.00  0.00    -0.090 HD
ATOM     20  H   LIG d   1      -5.884  94.995 116.892  0.00  0.00    -0.090 HD
ATOM     21  H   LIG d   1      -6.193  95.060 118.500  0.00  0.00    -0.090 HD
ENDBRANCH   5  18
BRANCH   3  22
ATOM     22  C   LIG d   1      -6.933  90.207 115.776  0.00  0.00     0.382 C 
ATOM     23  O   LIG d   1      -6.667  89.859 114.601  0.00  0.00    -0.241 OA
ATOM     24  O   LIG d   1      -7.962  89.772 116.327  0.00  0.00    -0.241 OA
ENDBRANCH   3  22
TORSDOF 7
ENDMDL
MODEL 4
REMARK VINA RESULT:      -5.2      1.793      2.748
REMARK  7 active torsions:
REMARK  status: ('A' for Active; 'I' for Inactive)
REMARK    1  A    between atoms: C_2  and  C_3 
REMARK    2  A    between atoms: C_3  and  O_6 
REMARK    3  A    between atoms: C_3  and  C_4 
REMARK    4  A    between atoms: C_7  and  O_6 
REMARK    5  A    between atoms: C_9  and  C_10 
REMARK    6  A    between atoms: N_15  and  C_14 
REMARK    7  A    between atoms: N_20  and  C_19 
REMARK       I    between atoms: C_22  and  N_20 
ROOT
ATOM      1  C   LIG d   1      -6.232  76.852 116.495  0.00  0.00     0.161 C 
ATOM      2  C   LIG d   1      -7.597  76.518 116.505  0.00  0.00     0.016 C 
ATOM      3  C   LIG d   1      -8.554  77.178 117.309  0.00  0.00     0.038 C 
ATOM      4  C   LIG d   1      -8.234  78.326 118.050  0.00  0.00     0.028 C 
ATOM      5  C   LIG d   1      -6.768  78.392 118.462  0.00  0.00    -0.047 C 
ATOM      6  C   LIG d   1      -5.885  78.173 117.213  0.00  0.00     0.091 C 
ENDROOT
BRANCH   1   7
ATOM      7  O   LIG d   1      -5.745  76.875 115.139  0.00  0.00    -0.368 OA
BRANCH   7   8
ATOM      8  C   LIG d   1      -4.903  75.764 114.745  0.00  0.00     0.119 C 
BRANCH   8   9
ATOM      9  C   LIG d   1      -5.821  74.671 114.163  0.00  0.00     0.028 C 
ATOM     10  C   LIG d   1      -5.903  73.431 115.069  0.00  0.00     0.006 C 
ENDBRANCH   8   9
BRANCH   8  11
ATOM     11  C   LIG d   1      -4.225  75.121 115.958  0.00  0.00     0.028 C 
ATOM     12  C   LIG d   1      -2.691  75.162 115.874  0.00  0.00     0.006 C 
ENDBRANCH   8  11
ENDBRANCH   7   8
ENDBRANCH   1   7
BRANCH   6  13
ATOM     13  N   LIG d   1      -4.436  78.139 117.541  0.00  0.00    -0.311 N 
ATOM     14  C   LIG d   1      -3.505  78.757 116.816  0.00  0.00     0.210 C 
ATOM     15  C   LIG d   1      -2.069  78.577 117.319  0.00  0.00     0.109 C 
ATOM     16  O   LIG d   1      -3.735  79.464 115.824  0.00  0.00    -0.276 OA
ATOM     17  H   LIG d   1      -4.164  77.613 118.349  0.00  0.00     0.149 HD
ENDBRANCH   6  13
BRANCH   5  18
ATOM     18  N   LIG d   1      -6.544  79.700 119.106  0.00  0.00     0.381 N 
ATOM     19  H   LIG d   1      -5.698  79.675 119.639  0.00  0.00    -0.090 HD
ATOM     20  H   LIG d   1      -7.307  79.889 119.733  0.00  0.00    -0.090 HD
ATOM     21  H   LIG d   1      -6.489  80.416 118.415  0.00  0.00    -0.090 HD
ENDBRANCH   5  18
BRANCH   3  22
ATOM     22  C   LIG d   1      -9.839  76.667 117.409  0.00  0.00     0.382 C 
ATOM     23  O   LIG d   1     -10.696  77.258 118.108  0.00  0.00    -0.241 OA
ATOM     24  O   LIG d   1     -10.139  75.598 116.844  0.00  0.00    -0.241 OA
ENDBRANCH   3  22
TORSDOF 7
ENDMDL
MODEL 5
REMARK VINA RESULT:      -5.2      2.114      5.370
REMARK  7 active torsions:
REMARK  status: ('A' for Active; 'I' for Inactive)
REMARK    1  A    between atoms: C_2  and  C_3 
REMARK    2  A    between atoms: C_3  and  O_6 
REMARK    3  A    between atoms: C_3  and  C_4 
REMARK    4  A    between atoms: C_7  and  O_6 
REMARK    5  A    between atoms: C_9  and  C_10 
REMARK    6  A    between atoms: N_15  and  C_14 
REMARK    7  A    between atoms: N_20  and  C_19 
REMARK       I    between atoms: C_22  and  N_20 
ROOT
ATOM      1  C   LIG d   1      -5.255  76.405 115.777  0.00  0.00     0.161 C 
ATOM      2  C   LIG d   1      -4.243  75.463 115.529  0.00  0.00     0.016 C 
ATOM      3  C   LIG d   1      -3.095  75.323 116.342  0.00  0.00     0.038 C 
ATOM      4  C   LIG d   1      -2.953  76.018 117.552  0.00  0.00     0.028 C 
ATOM      5  C   LIG d   1      -3.707  77.343 117.581  0.00  0.00    -0.047 C 
ATOM      6  C   LIG d   1      -5.173  77.096 117.154  0.00  0.00     0.091 C 
ENDROOT
BRANCH   1   7
ATOM      7  O   LIG d   1      -6.548  75.792 115.601  0.00  0.00    -0.368 OA
BRANCH   7   8
ATOM      8  C   LIG d   1      -6.876  74.723 116.521  0.00  0.00     0.119 C 
BRANCH   8   9
ATOM      9  C   LIG d   1      -6.987  73.423 115.700  0.00  0.00     0.028 C 
ATOM     10  C   LIG d   1      -7.983  72.425 116.313  0.00  0.00     0.006 C 
ENDBRANCH   8   9
BRANCH   8  11
ATOM     11  C   LIG d   1      -8.261  74.928 117.143  0.00  0.00     0.028 C 
ATOM     12  C   LIG d   1      -8.881  76.287 116.780  0.00  0.00     0.006 C 
ENDBRANCH   8  11
ENDBRANCH   7   8
ENDBRANCH   1   7
BRANCH   6  13
ATOM     13  N   LIG d   1      -5.959  78.355 117.074  0.00  0.00    -0.311 N 
ATOM     14  C   LIG d   1      -6.690  78.828 118.082  0.00  0.00     0.210 C 
ATOM     15  C   LIG d   1      -7.439  80.130 117.782  0.00  0.00     0.109 C 
ATOM     16  O   LIG d   1      -6.763  78.310 119.206  0.00  0.00    -0.276 OA
ATOM     17  H   LIG d   1      -5.932  78.856 116.207  0.00  0.00     0.149 HD
ENDBRANCH   6  13
BRANCH   5  18
ATOM     18  N   LIG d   1      -3.587  77.895 118.943  0.00  0.00     0.381 N 
ATOM     19  H   LIG d   1      -3.433  77.153 119.597  0.00  0.00    -0.090 HD
ATOM     20  H   LIG d   1      -4.448  78.354 119.185  0.00  0.00    -0.090 HD
ATOM     21  H   LIG d   1      -2.833  78.544 118.983  0.00  0.00    -0.090 HD
ENDBRANCH   5  18
BRANCH   3  22
ATOM     22  C   LIG d   1      -2.054  74.508 115.925  0.00  0.00     0.382 C 
ATOM     23  O   LIG d   1      -1.645  73.583 116.668  0.00  0.00    -0.241 OA
ATOM     24  O   LIG d   1      -1.489  74.713 114.834  0.00  0.00    -0.241 OA
ENDBRANCH   3  22
TORSDOF 7
ENDMDL
MODEL 6
REMARK VINA RESULT:      -5.0      1.564      2.395
REMARK  7 active torsions:
REMARK  status: ('A' for Active; 'I' for Inactive)
REMARK    1  A    between atoms: C_2  and  C_3 
REMARK    2  A    between atoms: C_3  and  O_6 
REMARK    3  A    between atoms: C_3  and  C_4 
REMARK    4  A    between atoms: C_7  and  O_6 
REMARK    5  A    between atoms: C_9  and  C_10 
REMARK    6  A    between atoms: N_15  and  C_14 
REMARK    7  A    between atoms: N_20  and  C_19 
REMARK       I    between atoms: C_22  and  N_20 
ROOT
ATOM      1  C   LIG d   1      -6.726  77.382 118.200  0.00  0.00     0.161 C 
ATOM      2  C   LIG d   1      -8.106  77.212 118.395  0.00  0.00     0.016 C 
ATOM      3  C   LIG d   1      -9.035  78.277 118.352  0.00  0.00     0.038 C 
ATOM      4  C   LIG d   1      -8.662  79.571 117.959  0.00  0.00     0.028 C 
ATOM      5  C   LIG d   1      -7.199  79.893 118.246  0.00  0.00    -0.047 C 
ATOM      6  C   LIG d   1      -6.315  78.768 117.661  0.00  0.00     0.091 C 
ENDROOT
BRANCH   1   7
ATOM      7  O   LIG d   1      -6.221  76.341 117.342  0.00  0.00    -0.368 OA
BRANCH   7   8
ATOM      8  C   LIG d   1      -7.095  75.925 116.263  0.00  0.00     0.119 C 
BRANCH   8   9
ATOM      9  C   LIG d   1      -7.158  74.385 116.286  0.00  0.00     0.028 C 
ATOM     10  C   LIG d   1      -8.487  73.861 116.855  0.00  0.00     0.006 C 
ENDBRANCH   8   9
BRANCH   8  11
ATOM     11  C   LIG d   1      -6.505  76.286 114.897  0.00  0.00     0.028 C 
ATOM     12  C   LIG d   1      -5.712  75.131 114.266  0.00  0.00     0.006 C 
ENDBRANCH   8  11
ENDBRANCH   7   8
ENDBRANCH   1   7
BRANCH   6  13
ATOM     13  N   LIG d   1      -4.874  78.962 117.970  0.00  0.00    -0.311 N 
ATOM     14  C   LIG d   1      -3.908  78.863 117.058  0.00  0.00     0.210 C 
ATOM     15  C   LIG d   1      -2.489  79.080 117.592  0.00  0.00     0.109 C 
ATOM     16  O   LIG d   1      -4.095  78.648 115.851  0.00  0.00    -0.276 OA
ATOM     17  H   LIG d   1      -4.635  79.171 118.920  0.00  0.00     0.149 HD
ENDBRANCH   6  13
BRANCH   5  18
ATOM     18  N   LIG d   1      -6.912  81.217 117.663  0.00  0.00     0.381 N 
ATOM     19  H   LIG d   1      -6.154  81.144 117.014  0.00  0.00    -0.090 HD
ATOM     20  H   LIG d   1      -6.638  81.844 118.399  0.00  0.00    -0.090 HD
ATOM     21  H   LIG d   1      -7.721  81.569 117.201  0.00  0.00    -0.090 HD
ENDBRANCH   5  18
BRANCH   3  22
ATOM     22  C   LIG d   1     -10.348  78.060 118.744  0.00  0.00     0.382 C 
ATOM     23  O   LIG d   1     -10.810  78.657 119.746  0.00  0.00    -0.241 OA
ATOM     24  O   LIG d   1     -11.062  77.242 118.134  0.00  0.00    -0.241 OA
ENDBRANCH   3  22
TORSDOF 7
ENDMDL
MODEL 7
REMARK VINA RESULT:      -4.9     14.549     17.402
REMARK  7 active torsions:
REMARK  status: ('A' for Active; 'I' for Inactive)
REMARK    1  A    between atoms: C_2  and  C_3 
REMARK    2  A    between atoms: C_3  and  O_6 
REMARK    3  A    between atoms: C_3  and  C_4 
REMARK    4  A    between atoms: C_7  and  O_6 
REMARK    5  A    between atoms: C_9  and  C_10 
REMARK    6  A    between atoms: N_15  and  C_14 
REMARK    7  A    between atoms: N_20  and  C_19 
REMARK       I    between atoms: C_22  and  N_20 
ROOT
ATOM      1  C   LIG d   1      -5.796  92.928 118.399  0.00  0.00     0.161 C 
ATOM      2  C   LIG d   1      -6.688  92.165 117.628  0.00  0.00     0.016 C 
ATOM      3  C   LIG d   1      -6.281  91.099 116.793  0.00  0.00     0.038 C 
ATOM      4  C   LIG d   1      -4.961  90.624 116.788  0.00  0.00     0.028 C 
ATOM      5  C   LIG d   1      -3.933  91.686 117.167  0.00  0.00    -0.047 C 
ATOM      6  C   LIG d   1      -4.367  92.353 118.492  0.00  0.00     0.091 C 
ENDROOT
BRANCH   1   7
ATOM      7  O   LIG d   1      -6.340  93.132 119.718  0.00  0.00    -0.368 OA
BRANCH   7   8
ATOM      8  C   LIG d   1      -6.610  94.506 120.090  0.00  0.00     0.119 C 
BRANCH   8   9
ATOM      9  C   LIG d   1      -8.079  94.581 120.550  0.00  0.00     0.028 C 
ATOM     10  C   LIG d   1      -9.067  94.289 119.409  0.00  0.00     0.006 C 
ENDBRANCH   8   9
BRANCH   8  11
ATOM     11  C   LIG d   1      -6.516  95.440 118.880  0.00  0.00     0.028 C 
ATOM     12  C   LIG d   1      -5.698  96.709 119.168  0.00  0.00     0.006 C 
ENDBRANCH   8  11
ENDBRANCH   7   8
ENDBRANCH   1   7
BRANCH   6  13
ATOM     13  N   LIG d   1      -3.461  93.462 118.891  0.00  0.00    -0.311 N 
ATOM     14  C   LIG d   1      -2.430  93.305 119.719  0.00  0.00     0.210 C 
ATOM     15  C   LIG d   1      -1.636  94.581 120.014  0.00  0.00     0.109 C 
ATOM     16  O   LIG d   1      -2.077  92.222 120.212  0.00  0.00    -0.276 OA
ATOM     17  H   LIG d   1      -3.655  94.368 118.512  0.00  0.00     0.149 HD
ENDBRANCH   6  13
BRANCH   5  18
ATOM     18  N   LIG d   1      -2.619  91.022 117.256  0.00  0.00     0.381 N 
ATOM     19  H   LIG d   1      -1.900  91.656 116.970  0.00  0.00    -0.090 HD
ATOM     20  H   LIG d   1      -2.610  90.234 116.633  0.00  0.00    -0.090 HD
ATOM     21  H   LIG d   1      -2.453  90.719 118.190  0.00  0.00    -0.090 HD
ENDBRANCH   5  18
BRANCH   3  22
ATOM     22  C   LIG d   1      -7.191  90.523 115.921  0.00  0.00     0.382 C 
ATOM     23  O   LIG d   1      -7.379  91.027 114.787  0.00  0.00    -0.241 OA
ATOM     24  O   LIG d   1      -7.860  89.531 116.269  0.00  0.00    -0.241 OA
ENDBRANCH   3  22
TORSDOF 7
ENDMDL
MODEL 8
REMARK VINA RESULT:      -4.6      2.270      5.291
REMARK  7 active torsions:
REMARK  status: ('A' for Active; 'I' for Inactive)
REMARK    1  A    between atoms: C_2  and  C_3 
REMARK    2  A    between atoms: C_3  and  O_6 
REMARK    3  A    between atoms: C_3  and  C_4 
REMARK    4  A    between atoms: C_7  and  O_6 
REMARK    5  A    between atoms: C_9  and  C_10 
REMARK    6  A    between atoms: N_15  and  C_14 
REMARK    7  A    between atoms: N_20  and  C_19 
REMARK       I    between atoms: C_22  and  N_20 
ROOT
ATOM      1  C   LIG d   1      -6.241  77.663 117.111  0.00  0.00     0.161 C 
ATOM      2  C   LIG d   1      -5.776  76.836 116.075  0.00  0.00     0.016 C 
ATOM      3  C   LIG d   1      -4.405  76.649 115.785  0.00  0.00     0.038 C 
ATOM      4  C   LIG d   1      -3.395  77.162 116.613  0.00  0.00     0.028 C 
ATOM      5  C   LIG d   1      -3.814  78.416 117.373  0.00  0.00    -0.047 C 
ATOM      6  C   LIG d   1      -5.153  78.142 118.094  0.00  0.00     0.091 C 
ENDROOT
BRANCH   1   7
ATOM      7  O   LIG d   1      -7.305  77.001 117.824  0.00  0.00    -0.368 OA
BRANCH   7   8
ATOM      8  C   LIG d   1      -8.650  77.283 117.369  0.00  0.00     0.119 C 
BRANCH   8   9
ATOM      9  C   LIG d   1      -9.390  77.993 118.520  0.00  0.00     0.028 C 
ATOM     10  C   LIG d   1      -9.540  79.504 118.278  0.00  0.00     0.006 C 
ENDBRANCH   8   9
BRANCH   8  11
ATOM     11  C   LIG d   1      -9.436  75.993 117.116  0.00  0.00     0.028 C 
ATOM     12  C   LIG d   1      -8.534  74.750 117.050  0.00  0.00     0.006 C 
ENDBRANCH   8  11
ENDBRANCH   7   8
ENDBRANCH   1   7
BRANCH   6  13
ATOM     13  N   LIG d   1      -5.677  79.345 118.793  0.00  0.00    -0.311 N 
ATOM     14  C   LIG d   1      -6.022  80.467 118.164  0.00  0.00     0.210 C 
ATOM     15  C   LIG d   1      -6.519  81.593 119.076  0.00  0.00     0.109 C 
ATOM     16  O   LIG d   1      -5.993  80.625 116.934  0.00  0.00    -0.276 OA
ATOM     17  H   LIG d   1      -5.762  79.292 119.790  0.00  0.00     0.149 HD
ENDBRANCH   6  13
BRANCH   5  18
ATOM     18  N   LIG d   1      -2.719  78.763 118.298  0.00  0.00     0.381 N 
ATOM     19  H   LIG d   1      -2.424  77.946 118.795  0.00  0.00    -0.090 HD
ATOM     20  H   LIG d   1      -3.058  79.433 118.966  0.00  0.00    -0.090 HD
ATOM     21  H   LIG d   1      -1.952  79.147 117.791  0.00  0.00    -0.090 HD
ENDBRANCH   5  18
BRANCH   3  22
ATOM     22  C   LIG d   1      -4.032  75.975 114.632  0.00  0.00     0.382 C 
ATOM     23  O   LIG d   1      -4.491  74.832 114.398  0.00  0.00    -0.241 OA
ATOM     24  O   LIG d   1      -3.208  76.478 113.845  0.00  0.00    -0.241 OA
ENDBRANCH   3  22
TORSDOF 7
ENDMDL
MODEL 9
REMARK VINA RESULT:      -4.6     14.747     17.243
REMARK  7 active torsions:
REMARK  status: ('A' for Active; 'I' for Inactive)
REMARK    1  A    between atoms: C_2  and  C_3 
REMARK    2  A    between atoms: C_3  and  O_6 
REMARK    3  A    between atoms: C_3  and  C_4 
REMARK    4  A    between atoms: C_7  and  O_6 
REMARK    5  A    between atoms: C_9  and  C_10 
REMARK    6  A    between atoms: N_15  and  C_14 
REMARK    7  A    between atoms: N_20  and  C_19 
REMARK       I    between atoms: C_22  and  N_20 
ROOT
ATOM      1  C   LIG d   1      -4.765  92.668 118.293  0.00  0.00     0.161 C 
ATOM      2  C   LIG d   1      -4.297  93.874 118.841  0.00  0.00     0.016 C 
ATOM      3  C   LIG d   1      -5.130  94.985 119.103  0.00  0.00     0.038 C 
ATOM      4  C   LIG d   1      -6.525  94.913 118.975  0.00  0.00     0.028 C 
ATOM      5  C   LIG d   1      -6.986  93.884 117.947  0.00  0.00    -0.047 C 
ATOM      6  C   LIG d   1      -6.302  92.531 118.250  0.00  0.00     0.091 C 
ENDROOT
BRANCH   1   7
ATOM      7  O   LIG d   1      -4.183  91.553 118.996  0.00  0.00    -0.368 OA
BRANCH   7   8
ATOM      8  C   LIG d   1      -3.305  90.700 118.222  0.00  0.00     0.119 C 
BRANCH   8   9
ATOM      9  C   LIG d   1      -3.077  89.410 119.034  0.00  0.00     0.028 C 
ATOM     10  C   LIG d   1      -2.286  88.352 118.246  0.00  0.00     0.006 C 
ENDBRANCH   8   9
BRANCH   8  11
ATOM     11  C   LIG d   1      -1.917  91.327 118.061  0.00  0.00     0.028 C 
ATOM     12  C   LIG d   1      -1.280  91.718 119.404  0.00  0.00     0.006 C 
ENDBRANCH   8  11
ENDBRANCH   7   8
ENDBRANCH   1   7
BRANCH   6  13
ATOM     13  N   LIG d   1      -6.632  91.491 117.242  0.00  0.00    -0.311 N 
ATOM     14  C   LIG d   1      -6.456  91.656 115.932  0.00  0.00     0.210 C 
ATOM     15  C   LIG d   1      -6.881  90.466 115.067  0.00  0.00     0.109 C 
ATOM     16  O   LIG d   1      -5.958  92.664 115.408  0.00  0.00    -0.276 OA
ATOM     17  H   LIG d   1      -7.013  90.630 117.583  0.00  0.00     0.149 HD
ENDBRANCH   6  13
BRANCH   5  18
ATOM     18  N   LIG d   1      -8.458  93.815 118.015  0.00  0.00     0.381 N 
ATOM     19  H   LIG d   1      -8.764  94.013 118.947  0.00  0.00    -0.090 HD
ATOM     20  H   LIG d   1      -8.751  92.884 117.778  0.00  0.00    -0.090 HD
ATOM     21  H   LIG d   1      -8.859  94.470 117.380  0.00  0.00    -0.090 HD
ENDBRANCH   5  18
BRANCH   3  22
ATOM     22  C   LIG d   1      -4.564  96.199 119.461  0.00  0.00     0.382 C 
ATOM     23  O   LIG d   1      -3.388  96.239 119.898  0.00  0.00    -0.241 OA
ATOM     24  O   LIG d   1      -5.229  97.251 119.395  0.00  0.00    -0.241 OA
ENDBRANCH   3  22
TORSDOF 7
ENDMDL
