MODEL 1
REMARK VINA RESULT:      -5.0      0.000      0.000
REMARK  7 active torsions:
REMARK  status: ('A' for Active; 'I' for Inactive)
REMARK    1  A    between atoms: C_2  and  C_3 
REMARK    2  A    between atoms: C_3  and  O_6 
REMARK    3  A    between atoms: C_3  and  C_4 
REMARK    4  A    between atoms: C_7  and  O_6 
REMARK    5  A    between atoms: C_9  and  C_10 
REMARK    6  A    between atoms: N_15  and  C_14 
REMARK    7  A    between atoms: N_20  and  C_19 
REMARK       I    between atoms: C_22  and  N_20 
ROOT
ATOM      1  C   LIG d   1      -4.247  91.702 117.496  0.00  0.00     0.161 C 
ATOM      2  C   LIG d   1      -3.761  92.517 118.532  0.00  0.00     0.016 C 
ATOM      3  C   LIG d   1      -4.545  93.495 119.186  0.00  0.00     0.038 C 
ATOM      4  C   LIG d   1      -5.922  93.621 118.950  0.00  0.00     0.028 C 
ATOM      5  C   LIG d   1      -6.342  93.165 117.557  0.00  0.00    -0.047 C 
ATOM      6  C   LIG d   1      -5.777  91.749 117.301  0.00  0.00     0.091 C 
ENDROOT
BRANCH   1   7
ATOM      7  O   LIG d   1      -3.809  90.344 117.696  0.00  0.00    -0.368 OA
BRANCH   7   8
ATOM      8  C   LIG d   1      -2.575  90.175 118.438  0.00  0.00     0.119 C 
BRANCH   8   9
ATOM      9  C   LIG d   1      -1.441  89.987 117.412  0.00  0.00     0.028 C 
ATOM     10  C   LIG d   1      -0.357  91.072 117.531  0.00  0.00     0.006 C 
ENDBRANCH   8   9
BRANCH   8  11
ATOM     11  C   LIG d   1      -2.594  88.885 119.263  0.00  0.00     0.028 C 
ATOM     12  C   LIG d   1      -1.632  87.817 118.720  0.00  0.00     0.006 C 
ENDBRANCH   8  11
ENDBRANCH   7   8
ENDBRANCH   1   7
BRANCH   6  13
ATOM     13  N   LIG d   1      -6.070  91.261 115.928  0.00  0.00    -0.311 N 
ATOM     14  C   LIG d   1      -7.088  90.452 115.640  0.00  0.00     0.210 C 
ATOM     15  C   LIG d   1      -7.199  90.053 114.165  0.00  0.00     0.109 C 
ATOM     16  O   LIG d   1      -7.929  90.052 116.460  0.00  0.00    -0.276 OA
ATOM     17  H   LIG d   1      -5.457  91.561 115.197  0.00  0.00     0.149 HD
ENDBRANCH   6  13
BRANCH   5  18
ATOM     18  N   LIG d   1      -7.814  93.220 117.495  0.00  0.00     0.381 N 
ATOM     19  H   LIG d   1      -8.112  94.166 117.364  0.00  0.00    -0.090 HD
ATOM     20  H   LIG d   1      -8.189  92.889 118.366  0.00  0.00    -0.090 HD
ATOM     21  H   LIG d   1      -8.145  92.653 116.745  0.00  0.00    -0.090 HD
ENDBRANCH   5  18
BRANCH   3  22
ATOM     22  C   LIG d   1      -3.942  94.387 120.060  0.00  0.00     0.382 C 
ATOM     23  O   LIG d   1      -2.786  94.159 120.491  0.00  0.00    -0.241 OA
ATOM     24  O   LIG d   1      -4.557  95.395 120.458  0.00  0.00    -0.241 OA
ENDBRANCH   3  22
TORSDOF 7
ENDMDL
MODEL 2
REMARK VINA RESULT:      -5.0      2.657      4.927
REMARK  7 active torsions:
REMARK  status: ('A' for Active; 'I' for Inactive)
REMARK    1  A    between atoms: C_2  and  C_3 
REMARK    2  A    between atoms: C_3  and  O_6 
REMARK    3  A    between atoms: C_3  and  C_4 
REMARK    4  A    between atoms: C_7  and  O_6 
REMARK    5  A    between atoms: C_9  and  C_10 
REMARK    6  A    between atoms: N_15  and  C_14 
REMARK    7  A    between atoms: N_20  and  C_19 
REMARK       I    between atoms: C_22  and  N_20 
ROOT
ATOM      1  C   LIG d   1      -5.322  92.702 118.189  0.00  0.00     0.161 C 
ATOM      2  C   LIG d   1      -6.613  93.255 118.191  0.00  0.00     0.016 C 
ATOM      3  C   LIG d   1      -6.959  94.422 118.910  0.00  0.00     0.038 C 
ATOM      4  C   LIG d   1      -5.994  95.206 119.559  0.00  0.00     0.028 C 
ATOM      5  C   LIG d   1      -4.769  94.414 120.004  0.00  0.00    -0.047 C 
ATOM      6  C   LIG d   1      -4.231  93.605 118.801  0.00  0.00     0.091 C 
ENDROOT
BRANCH   1   7
ATOM      7  O   LIG d   1      -4.958  92.314 116.850  0.00  0.00    -0.368 OA
BRANCH   7   8
ATOM      8  C   LIG d   1      -5.687  91.195 116.290  0.00  0.00     0.119 C 
BRANCH   8   9
ATOM      9  C   LIG d   1      -4.654  90.129 115.877  0.00  0.00     0.028 C 
ATOM     10  C   LIG d   1      -3.537  89.959 116.920  0.00  0.00     0.006 C 
ENDBRANCH   8   9
BRANCH   8  11
ATOM     11  C   LIG d   1      -6.404  91.588 114.995  0.00  0.00     0.028 C 
ATOM     12  C   LIG d   1      -7.450  90.551 114.554  0.00  0.00     0.006 C 
ENDBRANCH   8  11
ENDBRANCH   7   8
ENDBRANCH   1   7
BRANCH   6  13
ATOM     13  N   LIG d   1      -3.083  92.737 119.171  0.00  0.00    -0.311 N 
ATOM     14  C   LIG d   1      -1.871  92.854 118.630  0.00  0.00     0.210 C 
ATOM     15  C   LIG d   1      -0.836  91.845 119.137  0.00  0.00     0.109 C 
ATOM     16  O   LIG d   1      -1.547  93.718 117.801  0.00  0.00    -0.276 OA
ATOM     17  H   LIG d   1      -3.249  92.029 119.859  0.00  0.00     0.149 HD
ENDBRANCH   6  13
BRANCH   5  18
ATOM     18  N   LIG d   1      -3.787  95.376 120.540  0.00  0.00     0.381 N 
ATOM     19  H   LIG d   1      -4.052  95.650 121.465  0.00  0.00    -0.090 HD
ATOM     20  H   LIG d   1      -3.782  96.195 119.957  0.00  0.00    -0.090 HD
ATOM     21  H   LIG d   1      -2.880  94.964 120.554  0.00  0.00    -0.090 HD
ENDBRANCH   5  18
BRANCH   3  22
ATOM     22  C   LIG d   1      -8.291  94.794 119.018  0.00  0.00     0.382 C 
ATOM     23  O   LIG d   1      -8.664  95.518 119.971  0.00  0.00    -0.241 OA
ATOM     24  O   LIG d   1      -9.131  94.377 118.198  0.00  0.00    -0.241 OA
ENDBRANCH   3  22
TORSDOF 7
ENDMDL
MODEL 3
REMARK VINA RESULT:      -4.8     12.606     15.242
REMARK  7 active torsions:
REMARK  status: ('A' for Active; 'I' for Inactive)
REMARK    1  A    between atoms: C_2  and  C_3 
REMARK    2  A    between atoms: C_3  and  O_6 
REMARK    3  A    between atoms: C_3  and  C_4 
REMARK    4  A    between atoms: C_7  and  O_6 
REMARK    5  A    between atoms: C_9  and  C_10 
REMARK    6  A    between atoms: N_15  and  C_14 
REMARK    7  A    between atoms: N_20  and  C_19 
REMARK       I    between atoms: C_22  and  N_20 
ROOT
ATOM      1  C   LIG d   1      -2.619  78.607 116.010  0.00  0.00     0.161 C 
ATOM      2  C   LIG d   1      -3.713  77.826 115.604  0.00  0.00     0.016 C 
ATOM      3  C   LIG d   1      -3.581  76.607 114.898  0.00  0.00     0.038 C 
ATOM      4  C   LIG d   1      -2.332  76.008 114.682  0.00  0.00     0.028 C 
ATOM      5  C   LIG d   1      -1.181  77.007 114.630  0.00  0.00    -0.047 C 
ATOM      6  C   LIG d   1      -1.246  77.913 115.881  0.00  0.00     0.091 C 
ENDROOT
BRANCH   1   7
ATOM      7  O   LIG d   1      -2.822  79.068 117.360  0.00  0.00    -0.368 OA
BRANCH   7   8
ATOM      8  C   LIG d   1      -3.987  78.545 118.044  0.00  0.00     0.119 C 
BRANCH   8   9
ATOM      9  C   LIG d   1      -4.843  79.748 118.486  0.00  0.00     0.028 C 
ATOM     10  C   LIG d   1      -6.081  79.946 117.596  0.00  0.00     0.006 C 
ENDBRANCH   8   9
BRANCH   8  11
ATOM     11  C   LIG d   1      -3.597  77.826 119.339  0.00  0.00     0.028 C 
ATOM     12  C   LIG d   1      -2.613  76.669 119.105  0.00  0.00     0.006 C 
ENDBRANCH   8  11
ENDBRANCH   7   8
ENDBRANCH   1   7
BRANCH   6  13
ATOM     13  N   LIG d   1      -0.206  78.974 115.867  0.00  0.00    -0.311 N 
ATOM     14  C   LIG d   1       0.554  79.270 116.920  0.00  0.00     0.210 C 
ATOM     15  C   LIG d   1       1.551  80.412 116.698  0.00  0.00     0.109 C 
ATOM     16  O   LIG d   1       0.519  78.674 118.007  0.00  0.00    -0.276 OA
ATOM     17  H   LIG d   1      -0.088  79.487 115.015  0.00  0.00     0.149 HD
ENDBRANCH   6  13
BRANCH   5  18
ATOM     18  N   LIG d   1       0.074  76.237 114.539  0.00  0.00     0.381 N 
ATOM     19  H   LIG d   1       0.395  76.223 113.591  0.00  0.00    -0.090 HD
ATOM     20  H   LIG d   1      -0.103  75.291 114.826  0.00  0.00    -0.090 HD
ATOM     21  H   LIG d   1       0.768  76.645 115.126  0.00  0.00    -0.090 HD
ENDBRANCH   5  18
BRANCH   3  22
ATOM     22  C   LIG d   1      -4.706  75.996 114.366  0.00  0.00     0.382 C 
ATOM     23  O   LIG d   1      -5.829  76.545 114.475  0.00  0.00    -0.241 OA
ATOM     24  O   LIG d   1      -4.619  74.882 113.816  0.00  0.00    -0.241 OA
ENDBRANCH   3  22
TORSDOF 7
ENDMDL
MODEL 4
REMARK VINA RESULT:      -4.7     12.032     14.783
REMARK  7 active torsions:
REMARK  status: ('A' for Active; 'I' for Inactive)
REMARK    1  A    between atoms: C_2  and  C_3 
REMARK    2  A    between atoms: C_3  and  O_6 
REMARK    3  A    between atoms: C_3  and  C_4 
REMARK    4  A    between atoms: C_7  and  O_6 
REMARK    5  A    between atoms: C_9  and  C_10 
REMARK    6  A    between atoms: N_15  and  C_14 
REMARK    7  A    between atoms: N_20  and  C_19 
REMARK       I    between atoms: C_22  and  N_20 
ROOT
ATOM      1  C   LIG d   1      -5.803  77.611 117.241  0.00  0.00     0.161 C 
ATOM      2  C   LIG d   1      -6.766  78.622 117.401  0.00  0.00     0.016 C 
ATOM      3  C   LIG d   1      -6.523  79.824 118.103  0.00  0.00     0.038 C 
ATOM      4  C   LIG d   1      -5.244  80.167 118.567  0.00  0.00     0.028 C 
ATOM      5  C   LIG d   1      -4.366  78.957 118.870  0.00  0.00    -0.047 C 
ATOM      6  C   LIG d   1      -4.370  78.015 117.644  0.00  0.00     0.091 C 
ENDROOT
BRANCH   1   7
ATOM      7  O   LIG d   1      -5.825  77.126 115.884  0.00  0.00    -0.368 OA
BRANCH   7   8
ATOM      8  C   LIG d   1      -6.741  76.038 115.610  0.00  0.00     0.119 C 
BRANCH   8   9
ATOM      9  C   LIG d   1      -6.259  74.814 116.413  0.00  0.00     0.028 C 
ATOM     10  C   LIG d   1      -7.413  73.875 116.800  0.00  0.00     0.006 C 
ENDBRANCH   8   9
BRANCH   8  11
ATOM     11  C   LIG d   1      -6.675  75.610 114.141  0.00  0.00     0.028 C 
ATOM     12  C   LIG d   1      -5.396  74.827 113.806  0.00  0.00     0.006 C 
ENDBRANCH   8  11
ENDBRANCH   7   8
ENDBRANCH   1   7
BRANCH   6  13
ATOM     13  N   LIG d   1      -3.602  76.766 117.888  0.00  0.00    -0.311 N 
ATOM     14  C   LIG d   1      -2.753  76.243 117.005  0.00  0.00     0.210 C 
ATOM     15  C   LIG d   1      -2.081  74.940 117.447  0.00  0.00     0.109 C 
ATOM     16  O   LIG d   1      -2.468  76.753 115.910  0.00  0.00    -0.276 OA
ATOM     17  H   LIG d   1      -3.749  76.303 118.763  0.00  0.00     0.149 HD
ENDBRANCH   6  13
BRANCH   5  18
ATOM     18  N   LIG d   1      -3.021  79.457 119.211  0.00  0.00     0.381 N 
ATOM     19  H   LIG d   1      -2.460  79.512 118.384  0.00  0.00    -0.090 HD
ATOM     20  H   LIG d   1      -2.585  78.811 119.845  0.00  0.00    -0.090 HD
ATOM     21  H   LIG d   1      -3.089  80.356 119.635  0.00  0.00    -0.090 HD
ENDBRANCH   5  18
BRANCH   3  22
ATOM     22  C   LIG d   1      -7.576  80.682 118.382  0.00  0.00     0.382 C 
ATOM     23  O   LIG d   1      -8.292  81.120 117.450  0.00  0.00    -0.241 OA
ATOM     24  O   LIG d   1      -7.792  81.058 119.550  0.00  0.00    -0.241 OA
ENDBRANCH   3  22
TORSDOF 7
ENDMDL
MODEL 5
REMARK VINA RESULT:      -4.4     27.133     29.575
REMARK  7 active torsions:
REMARK  status: ('A' for Active; 'I' for Inactive)
REMARK    1  A    between atoms: C_2  and  C_3 
REMARK    2  A    between atoms: C_3  and  O_6 
REMARK    3  A    between atoms: C_3  and  C_4 
REMARK    4  A    between atoms: C_7  and  O_6 
REMARK    5  A    between atoms: C_9  and  C_10 
REMARK    6  A    between atoms: N_15  and  C_14 
REMARK    7  A    between atoms: N_20  and  C_19 
REMARK       I    between atoms: C_22  and  N_20 
ROOT
ATOM      1  C   LIG d   1     -16.070  64.836 117.001  0.00  0.00     0.161 C 
ATOM      2  C   LIG d   1     -16.232  66.230 116.943  0.00  0.00     0.016 C 
ATOM      3  C   LIG d   1     -15.833  67.103 117.981  0.00  0.00     0.038 C 
ATOM      4  C   LIG d   1     -15.103  66.652 119.091  0.00  0.00     0.028 C 
ATOM      5  C   LIG d   1     -15.361  65.187 119.430  0.00  0.00    -0.047 C 
ATOM      6  C   LIG d   1     -15.175  64.336 118.154  0.00  0.00     0.091 C 
ENDROOT
BRANCH   1   7
ATOM      7  O   LIG d   1     -15.577  64.349 115.737  0.00  0.00    -0.368 OA
BRANCH   7   8
ATOM      8  C   LIG d   1     -16.517  63.590 114.936  0.00  0.00     0.119 C 
BRANCH   8   9
ATOM      9  C   LIG d   1     -17.072  64.535 113.853  0.00  0.00     0.028 C 
ATOM     10  C   LIG d   1     -18.600  64.688 113.935  0.00  0.00     0.006 C 
ENDBRANCH   8   9
BRANCH   8  11
ATOM     11  C   LIG d   1     -17.733  63.161 115.762  0.00  0.00     0.028 C 
ATOM     12  C   LIG d   1     -17.858  61.634 115.890  0.00  0.00     0.006 C 
ENDBRANCH   8  11
ENDBRANCH   7   8
ENDBRANCH   1   7
BRANCH   6  13
ATOM     13  N   LIG d   1     -15.490  62.901 118.378  0.00  0.00    -0.311 N 
ATOM     14  C   LIG d   1     -14.689  61.906 118.000  0.00  0.00     0.210 C 
ATOM     15  C   LIG d   1     -15.214  60.501 118.310  0.00  0.00     0.109 C 
ATOM     16  O   LIG d   1     -13.580  62.056 117.466  0.00  0.00    -0.276 OA
ATOM     17  H   LIG d   1     -16.357  62.690 118.833  0.00  0.00     0.149 HD
ENDBRANCH   6  13
BRANCH   5  18
ATOM     18  N   LIG d   1     -14.435  64.812 120.516  0.00  0.00     0.381 N 
ATOM     19  H   LIG d   1     -14.863  64.991 121.402  0.00  0.00    -0.090 HD
ATOM     20  H   LIG d   1     -13.606  65.376 120.446  0.00  0.00    -0.090 HD
ATOM     21  H   LIG d   1     -14.197  63.847 120.442  0.00  0.00    -0.090 HD
ENDBRANCH   5  18
BRANCH   3  22
ATOM     22  C   LIG d   1     -16.201  68.439 117.935  0.00  0.00     0.382 C 
ATOM     23  O   LIG d   1     -16.205  69.050 116.839  0.00  0.00    -0.241 OA
ATOM     24  O   LIG d   1     -16.486  69.053 118.980  0.00  0.00    -0.241 OA
ENDBRANCH   3  22
TORSDOF 7
ENDMDL
MODEL 6
REMARK VINA RESULT:      -4.4     12.647     14.877
REMARK  7 active torsions:
REMARK  status: ('A' for Active; 'I' for Inactive)
REMARK    1  A    between atoms: C_2  and  C_3 
REMARK    2  A    between atoms: C_3  and  O_6 
REMARK    3  A    between atoms: C_3  and  C_4 
REMARK    4  A    between atoms: C_7  and  O_6 
REMARK    5  A    between atoms: C_9  and  C_10 
REMARK    6  A    between atoms: N_15  and  C_14 
REMARK    7  A    between atoms: N_20  and  C_19 
REMARK       I    between atoms: C_22  and  N_20 
ROOT
ATOM      1  C   LIG d   1      -3.942  77.599 117.398  0.00  0.00     0.161 C 
ATOM      2  C   LIG d   1      -5.051  78.292 117.911  0.00  0.00     0.016 C 
ATOM      3  C   LIG d   1      -6.390  77.942 117.620  0.00  0.00     0.038 C 
ATOM      4  C   LIG d   1      -6.715  76.776 116.912  0.00  0.00     0.028 C 
ATOM      5  C   LIG d   1      -5.620  76.327 115.950  0.00  0.00    -0.047 C 
ATOM      6  C   LIG d   1      -4.278  76.257 116.714  0.00  0.00     0.091 C 
ENDROOT
BRANCH   1   7
ATOM      7  O   LIG d   1      -2.965  77.400 118.439  0.00  0.00    -0.368 OA
BRANCH   7   8
ATOM      8  C   LIG d   1      -1.681  78.039 118.238  0.00  0.00     0.119 C 
BRANCH   8   9
ATOM      9  C   LIG d   1      -1.437  78.975 119.438  0.00  0.00     0.028 C 
ATOM     10  C   LIG d   1      -2.156  80.326 119.284  0.00  0.00     0.006 C 
ENDBRANCH   8   9
BRANCH   8  11
ATOM     11  C   LIG d   1      -1.699  78.952 117.009  0.00  0.00     0.028 C 
ATOM     12  C   LIG d   1      -0.607  78.598 115.987  0.00  0.00     0.006 C 
ENDBRANCH   8  11
ENDBRANCH   7   8
ENDBRANCH   1   7
BRANCH   6  13
ATOM     13  N   LIG d   1      -3.139  75.906 115.827  0.00  0.00    -0.311 N 
ATOM     14  C   LIG d   1      -2.230  74.981 116.131  0.00  0.00     0.210 C 
ATOM     15  C   LIG d   1      -1.127  74.790 115.085  0.00  0.00     0.109 C 
ATOM     16  O   LIG d   1      -2.252  74.278 117.152  0.00  0.00    -0.276 OA
ATOM     17  H   LIG d   1      -3.063  76.407 114.963  0.00  0.00     0.149 HD
ENDBRANCH   6  13
BRANCH   5  18
ATOM     18  N   LIG d   1      -6.031  75.029 115.383  0.00  0.00     0.381 N 
ATOM     19  H   LIG d   1      -5.239  74.568 114.982  0.00  0.00    -0.090 HD
ATOM     20  H   LIG d   1      -6.704  75.190 114.654  0.00  0.00    -0.090 HD
ATOM     21  H   LIG d   1      -6.432  74.457 116.094  0.00  0.00    -0.090 HD
ENDBRANCH   5  18
BRANCH   3  22
ATOM     22  C   LIG d   1      -7.420  78.787 118.006  0.00  0.00     0.382 C 
ATOM     23  O   LIG d   1      -7.420  79.985 117.634  0.00  0.00    -0.241 OA
ATOM     24  O   LIG d   1      -8.324  78.378 118.758  0.00  0.00    -0.241 OA
ENDBRANCH   3  22
TORSDOF 7
ENDMDL
MODEL 7
REMARK VINA RESULT:      -4.4     12.151     14.613
REMARK  7 active torsions:
REMARK  status: ('A' for Active; 'I' for Inactive)
REMARK    1  A    between atoms: C_2  and  C_3 
REMARK    2  A    between atoms: C_3  and  O_6 
REMARK    3  A    between atoms: C_3  and  C_4 
REMARK    4  A    between atoms: C_7  and  O_6 
REMARK    5  A    between atoms: C_9  and  C_10 
REMARK    6  A    between atoms: N_15  and  C_14 
REMARK    7  A    between atoms: N_20  and  C_19 
REMARK       I    between atoms: C_22  and  N_20 
ROOT
ATOM      1  C   LIG d   1      -4.822  77.486 117.542  0.00  0.00     0.161 C 
ATOM      2  C   LIG d   1      -6.140  77.958 117.427  0.00  0.00     0.016 C 
ATOM      3  C   LIG d   1      -6.582  79.177 117.990  0.00  0.00     0.038 C 
ATOM      4  C   LIG d   1      -5.692  80.087 118.581  0.00  0.00     0.028 C 
ATOM      5  C   LIG d   1      -4.448  79.425 119.164  0.00  0.00    -0.047 C 
ATOM      6  C   LIG d   1      -3.811  78.517 118.087  0.00  0.00     0.091 C 
ENDROOT
BRANCH   1   7
ATOM      7  O   LIG d   1      -4.375  76.970 116.272  0.00  0.00    -0.368 OA
BRANCH   7   8
ATOM      8  C   LIG d   1      -3.999  75.571 116.249  0.00  0.00     0.119 C 
BRANCH   8   9
ATOM      9  C   LIG d   1      -2.891  75.407 115.191  0.00  0.00     0.028 C 
ATOM     10  C   LIG d   1      -1.586  74.854 115.788  0.00  0.00     0.006 C 
ENDBRANCH   8   9
BRANCH   8  11
ATOM     11  C   LIG d   1      -5.155  74.691 115.766  0.00  0.00     0.028 C 
ATOM     12  C   LIG d   1      -5.500  74.920 114.286  0.00  0.00     0.006 C 
ENDBRANCH   8  11
ENDBRANCH   7   8
ENDBRANCH   1   7
BRANCH   6  13
ATOM     13  N   LIG d   1      -2.636  77.766 118.601  0.00  0.00    -0.311 N 
ATOM     14  C   LIG d   1      -1.443  77.778 118.010  0.00  0.00     0.210 C 
ATOM     15  C   LIG d   1      -0.374  76.919 118.693  0.00  0.00     0.109 C 
ATOM     16  O   LIG d   1      -1.159  78.443 117.003  0.00  0.00    -0.276 OA
ATOM     17  H   LIG d   1      -2.769  77.224 119.432  0.00  0.00     0.149 HD
ENDBRANCH   6  13
BRANCH   5  18
ATOM     18  N   LIG d   1      -3.546  80.498 119.623  0.00  0.00     0.381 N 
ATOM     19  H   LIG d   1      -3.859  80.848 120.506  0.00  0.00    -0.090 HD
ATOM     20  H   LIG d   1      -3.572  81.251 118.958  0.00  0.00    -0.090 HD
ATOM     21  H   LIG d   1      -2.617  80.150 119.705  0.00  0.00    -0.090 HD
ENDBRANCH   5  18
BRANCH   3  22
ATOM     22  C   LIG d   1      -7.936  79.479 118.000  0.00  0.00     0.382 C 
ATOM     23  O   LIG d   1      -8.329  80.609 117.622  0.00  0.00    -0.241 OA
ATOM     24  O   LIG d   1      -8.764  78.651 118.423  0.00  0.00    -0.241 OA
ENDBRANCH   3  22
TORSDOF 7
ENDMDL
MODEL 8
REMARK VINA RESULT:      -4.3      4.674      7.518
REMARK  7 active torsions:
REMARK  status: ('A' for Active; 'I' for Inactive)
REMARK    1  A    between atoms: C_2  and  C_3 
REMARK    2  A    between atoms: C_3  and  O_6 
REMARK    3  A    between atoms: C_3  and  C_4 
REMARK    4  A    between atoms: C_7  and  O_6 
REMARK    5  A    between atoms: C_9  and  C_10 
REMARK    6  A    between atoms: N_15  and  C_14 
REMARK    7  A    between atoms: N_20  and  C_19 
REMARK       I    between atoms: C_22  and  N_20 
ROOT
ATOM      1  C   LIG d   1       1.052  89.188 117.139  0.00  0.00     0.161 C 
ATOM      2  C   LIG d   1      -0.332  88.944 117.159  0.00  0.00     0.016 C 
ATOM      3  C   LIG d   1      -1.281  89.882 117.628  0.00  0.00     0.038 C 
ATOM      4  C   LIG d   1      -0.920  91.193 117.971  0.00  0.00     0.028 C 
ATOM      5  C   LIG d   1       0.524  91.320 118.445  0.00  0.00    -0.047 C 
ATOM      6  C   LIG d   1       1.454  90.654 117.406  0.00  0.00     0.091 C 
ENDROOT
BRANCH   1   7
ATOM      7  O   LIG d   1       1.610  88.735 115.890  0.00  0.00    -0.368 OA
BRANCH   7   8
ATOM      8  C   LIG d   1       2.516  87.607 115.970  0.00  0.00     0.119 C 
BRANCH   8   9
ATOM      9  C   LIG d   1       3.649  87.851 114.953  0.00  0.00     0.028 C 
ATOM     10  C   LIG d   1       3.651  89.291 114.411  0.00  0.00     0.006 C 
ENDBRANCH   8   9
BRANCH   8  11
ATOM     11  C   LIG d   1       1.836  86.312 115.515  0.00  0.00     0.028 C 
ATOM     12  C   LIG d   1       0.930  86.513 114.291  0.00  0.00     0.006 C 
ENDBRANCH   8  11
ENDBRANCH   7   8
ENDBRANCH   1   7
BRANCH   6  13
ATOM     13  N   LIG d   1       2.877  90.659 117.833  0.00  0.00    -0.311 N 
ATOM     14  C   LIG d   1       3.757  91.578 117.439  0.00  0.00     0.210 C 
ATOM     15  C   LIG d   1       5.178  91.387 117.980  0.00  0.00     0.109 C 
ATOM     16  O   LIG d   1       3.489  92.552 116.719  0.00  0.00    -0.276 OA
ATOM     17  H   LIG d   1       3.173  89.922 118.443  0.00  0.00     0.149 HD
ENDBRANCH   6  13
BRANCH   5  18
ATOM     18  N   LIG d   1       0.806  92.755 118.637  0.00  0.00     0.381 N 
ATOM     19  H   LIG d   1       1.452  93.070 117.941  0.00  0.00    -0.090 HD
ATOM     20  H   LIG d   1       1.226  92.886 119.540  0.00  0.00    -0.090 HD
ATOM     21  H   LIG d   1      -0.039  93.280 118.578  0.00  0.00    -0.090 HD
ENDBRANCH   5  18
BRANCH   3  22
ATOM     22  C   LIG d   1      -2.602  89.497 117.796  0.00  0.00     0.382 C 
ATOM     23  O   LIG d   1      -3.485  89.931 117.017  0.00  0.00    -0.241 OA
ATOM     24  O   LIG d   1      -2.929  88.756 118.742  0.00  0.00    -0.241 OA
ENDBRANCH   3  22
TORSDOF 7
ENDMDL
MODEL 9
REMARK VINA RESULT:      -4.3     18.400     22.021
REMARK  7 active torsions:
REMARK  status: ('A' for Active; 'I' for Inactive)
REMARK    1  A    between atoms: C_2  and  C_3 
REMARK    2  A    between atoms: C_3  and  O_6 
REMARK    3  A    between atoms: C_3  and  C_4 
REMARK    4  A    between atoms: C_7  and  O_6 
REMARK    5  A    between atoms: C_9  and  C_10 
REMARK    6  A    between atoms: N_15  and  C_14 
REMARK    7  A    between atoms: N_20  and  C_19 
REMARK       I    between atoms: C_22  and  N_20 
ROOT
ATOM      1  C   LIG d   1      10.439  77.244 114.535  0.00  0.00     0.161 C 
ATOM      2  C   LIG d   1       9.758  76.066 114.884  0.00  0.00     0.016 C 
ATOM      3  C   LIG d   1      10.372  74.980 115.550  0.00  0.00     0.038 C 
ATOM      4  C   LIG d   1      11.680  75.060 116.049  0.00  0.00     0.028 C 
ATOM      5  C   LIG d   1      12.564  76.035 115.277  0.00  0.00    -0.047 C 
ATOM      6  C   LIG d   1      11.837  77.395 115.170  0.00  0.00     0.091 C 
ENDROOT
BRANCH   1   7
ATOM      7  O   LIG d   1       9.622  78.391 114.844  0.00  0.00    -0.368 OA
BRANCH   7   8
ATOM      8  C   LIG d   1       8.516  78.160 115.750  0.00  0.00     0.119 C 
BRANCH   8   9
ATOM      9  C   LIG d   1       7.271  78.836 115.144  0.00  0.00     0.028 C 
ATOM     10  C   LIG d   1       6.029  78.689 116.038  0.00  0.00     0.006 C 
ENDBRANCH   8   9
BRANCH   8  11
ATOM     11  C   LIG d   1       8.742  78.857 117.095  0.00  0.00     0.028 C 
ATOM     12  C   LIG d   1       9.480  77.970 118.110  0.00  0.00     0.006 C 
ENDBRANCH   8  11
ENDBRANCH   7   8
ENDBRANCH   1   7
BRANCH   6  13
ATOM     13  N   LIG d   1      12.596  78.380 114.357  0.00  0.00    -0.311 N 
ATOM     14  C   LIG d   1      13.475  79.236 114.876  0.00  0.00     0.210 C 
ATOM     15  C   LIG d   1      14.133  80.180 113.864  0.00  0.00     0.109 C 
ATOM     16  O   LIG d   1      13.797  79.282 116.072  0.00  0.00    -0.276 OA
ATOM     17  H   LIG d   1      12.420  78.391 113.372  0.00  0.00     0.149 HD
ENDBRANCH   6  13
BRANCH   5  18
ATOM     18  N   LIG d   1      13.855  76.123 115.986  0.00  0.00     0.381 N 
ATOM     19  H   LIG d   1      13.699  76.117 116.975  0.00  0.00    -0.090 HD
ATOM     20  H   LIG d   1      14.301  76.990 115.743  0.00  0.00    -0.090 HD
ATOM     21  H   LIG d   1      14.438  75.357 115.730  0.00  0.00    -0.090 HD
ENDBRANCH   5  18
BRANCH   3  22
ATOM     22  C   LIG d   1       9.687  73.782 115.686  0.00  0.00     0.382 C 
ATOM     23  O   LIG d   1       9.003  73.339 114.733  0.00  0.00    -0.241 OA
ATOM     24  O   LIG d   1       9.709  73.161 116.766  0.00  0.00    -0.241 OA
ENDBRANCH   3  22
TORSDOF 7
ENDMDL
