MODEL 1
REMARK VINA RESULT:      -5.7      0.000      0.000
REMARK  7 active torsions:
REMARK  status: ('A' for Active; 'I' for Inactive)
REMARK    1  A    between atoms: C_2  and  C_3 
REMARK    2  A    between atoms: C_3  and  O_6 
REMARK    3  A    between atoms: C_3  and  C_4 
REMARK    4  A    between atoms: C_7  and  O_6 
REMARK    5  A    between atoms: C_9  and  C_10 
REMARK    6  A    between atoms: N_15  and  C_14 
REMARK    7  A    between atoms: N_20  and  C_19 
REMARK       I    between atoms: C_22  and  N_20 
ROOT
ATOM      1  C   LIG d   1      -5.637  92.779 117.671  0.00  0.00     0.161 C 
ATOM      2  C   LIG d   1      -6.676  91.865 117.431  0.00  0.00     0.016 C 
ATOM      3  C   LIG d   1      -6.460  90.537 116.997  0.00  0.00     0.038 C 
ATOM      4  C   LIG d   1      -5.174  89.983 116.920  0.00  0.00     0.028 C 
ATOM      5  C   LIG d   1      -4.083  91.018 116.666  0.00  0.00    -0.047 C 
ATOM      6  C   LIG d   1      -4.224  92.159 117.698  0.00  0.00     0.091 C 
ENDROOT
BRANCH   1   7
ATOM      7  O   LIG d   1      -5.892  93.499 118.893  0.00  0.00    -0.368 OA
BRANCH   7   8
ATOM      8  C   LIG d   1      -6.287  94.885 118.746  0.00  0.00     0.119 C 
BRANCH   8   9
ATOM      9  C   LIG d   1      -5.200  95.750 119.414  0.00  0.00     0.028 C 
ATOM     10  C   LIG d   1      -5.370  97.247 119.106  0.00  0.00     0.006 C 
ENDBRANCH   8   9
BRANCH   8  11
ATOM     11  C   LIG d   1      -7.574  95.183 119.520  0.00  0.00     0.028 C 
ATOM     12  C   LIG d   1      -8.817  95.223 118.617  0.00  0.00     0.006 C 
ENDBRANCH   8  11
ENDBRANCH   7   8
ENDBRANCH   1   7
BRANCH   6  13
ATOM     13  N   LIG d   1      -3.247  93.256 117.469  0.00  0.00    -0.311 N 
ATOM     14  C   LIG d   1      -2.074  93.335 118.094  0.00  0.00     0.210 C 
ATOM     15  C   LIG d   1      -1.226  94.557 117.726  0.00  0.00     0.109 C 
ATOM     16  O   LIG d   1      -1.641  92.493 118.894  0.00  0.00    -0.276 OA
ATOM     17  H   LIG d   1      -3.505  93.966 116.811  0.00  0.00     0.149 HD
ENDBRANCH   6  13
BRANCH   5  18
ATOM     18  N   LIG d   1      -2.783  90.324 116.746  0.00  0.00     0.381 N 
ATOM     19  H   LIG d   1      -2.930  89.348 116.912  0.00  0.00    -0.090 HD
ATOM     20  H   LIG d   1      -2.261  90.700 117.517  0.00  0.00    -0.090 HD
ATOM     21  H   LIG d   1      -2.276  90.452 115.898  0.00  0.00    -0.090 HD
ENDBRANCH   5  18
BRANCH   3  22
ATOM     22  C   LIG d   1      -7.537  89.760 116.598  0.00  0.00     0.382 C 
ATOM     23  O   LIG d   1      -7.646  89.409 115.399  0.00  0.00    -0.241 OA
ATOM     24  O   LIG d   1      -8.424  89.444 117.413  0.00  0.00    -0.241 OA
ENDBRANCH   3  22
TORSDOF 7
ENDMDL
MODEL 2
REMARK VINA RESULT:      -5.4     14.112     17.253
REMARK  7 active torsions:
REMARK  status: ('A' for Active; 'I' for Inactive)
REMARK    1  A    between atoms: C_2  and  C_3 
REMARK    2  A    between atoms: C_3  and  O_6 
REMARK    3  A    between atoms: C_3  and  C_4 
REMARK    4  A    between atoms: C_7  and  O_6 
REMARK    5  A    between atoms: C_9  and  C_10 
REMARK    6  A    between atoms: N_15  and  C_14 
REMARK    7  A    between atoms: N_20  and  C_19 
REMARK       I    between atoms: C_22  and  N_20 
ROOT
ATOM      1  C   LIG d   1      -4.801  75.848 118.311  0.00  0.00     0.161 C 
ATOM      2  C   LIG d   1      -5.826  76.807 118.259  0.00  0.00     0.016 C 
ATOM      3  C   LIG d   1      -5.631  78.130 117.800  0.00  0.00     0.038 C 
ATOM      4  C   LIG d   1      -4.424  78.542 117.216  0.00  0.00     0.028 C 
ATOM      5  C   LIG d   1      -3.213  77.758 117.711  0.00  0.00    -0.047 C 
ATOM      6  C   LIG d   1      -3.505  76.246 117.575  0.00  0.00     0.091 C 
ENDROOT
BRANCH   1   7
ATOM      7  O   LIG d   1      -5.289  74.584 117.819  0.00  0.00    -0.368 OA
BRANCH   7   8
ATOM      8  C   LIG d   1      -6.329  74.651 116.813  0.00  0.00     0.119 C 
BRANCH   8   9
ATOM      9  C   LIG d   1      -7.358  73.550 117.136  0.00  0.00     0.028 C 
ATOM     10  C   LIG d   1      -7.024  72.215 116.450  0.00  0.00     0.006 C 
ENDBRANCH   8   9
BRANCH   8  11
ATOM     11  C   LIG d   1      -5.784  74.301 115.425  0.00  0.00     0.028 C 
ATOM     12  C   LIG d   1      -5.588  75.537 114.533  0.00  0.00     0.006 C 
ENDBRANCH   8  11
ENDBRANCH   7   8
ENDBRANCH   1   7
BRANCH   6  13
ATOM     13  N   LIG d   1      -2.405  75.406 118.116  0.00  0.00    -0.311 N 
ATOM     14  C   LIG d   1      -1.886  74.367 117.462  0.00  0.00     0.210 C 
ATOM     15  C   LIG d   1      -0.773  73.624 118.208  0.00  0.00     0.109 C 
ATOM     16  O   LIG d   1      -2.220  74.011 116.322  0.00  0.00    -0.276 OA
ATOM     17  H   LIG d   1      -2.052  75.644 119.022  0.00  0.00     0.149 HD
ENDBRANCH   6  13
BRANCH   5  18
ATOM     18  N   LIG d   1      -2.046  78.195 116.922  0.00  0.00     0.381 N 
ATOM     19  H   LIG d   1      -1.211  78.083 117.462  0.00  0.00    -0.090 HD
ATOM     20  H   LIG d   1      -2.150  79.169 116.700  0.00  0.00    -0.090 HD
ATOM     21  H   LIG d   1      -1.982  77.661 116.084  0.00  0.00    -0.090 HD
ENDBRANCH   5  18
BRANCH   3  22
ATOM     22  C   LIG d   1      -6.639  79.069 117.959  0.00  0.00     0.382 C 
ATOM     23  O   LIG d   1      -6.559  80.180 117.381  0.00  0.00    -0.241 OA
ATOM     24  O   LIG d   1      -7.607  78.836 118.708  0.00  0.00    -0.241 OA
ENDBRANCH   3  22
TORSDOF 7
ENDMDL
MODEL 3
REMARK VINA RESULT:      -5.3      1.984      4.900
REMARK  7 active torsions:
REMARK  status: ('A' for Active; 'I' for Inactive)
REMARK    1  A    between atoms: C_2  and  C_3 
REMARK    2  A    between atoms: C_3  and  O_6 
REMARK    3  A    between atoms: C_3  and  C_4 
REMARK    4  A    between atoms: C_7  and  O_6 
REMARK    5  A    between atoms: C_9  and  C_10 
REMARK    6  A    between atoms: N_15  and  C_14 
REMARK    7  A    between atoms: N_20  and  C_19 
REMARK       I    between atoms: C_22  and  N_20 
ROOT
ATOM      1  C   LIG d   1      -5.885  92.645 118.625  0.00  0.00     0.161 C 
ATOM      2  C   LIG d   1      -7.141  93.265 118.724  0.00  0.00     0.016 C 
ATOM      3  C   LIG d   1      -7.309  94.644 118.991  0.00  0.00     0.038 C 
ATOM      4  C   LIG d   1      -6.222  95.529 119.028  0.00  0.00     0.028 C 
ATOM      5  C   LIG d   1      -4.912  94.864 119.436  0.00  0.00    -0.047 C 
ATOM      6  C   LIG d   1      -4.687  93.615 118.553  0.00  0.00     0.091 C 
ENDROOT
BRANCH   1   7
ATOM      7  O   LIG d   1      -5.871  91.747 117.498  0.00  0.00    -0.368 OA
BRANCH   7   8
ATOM      8  C   LIG d   1      -7.164  91.299 117.023  0.00  0.00     0.119 C 
BRANCH   8   9
ATOM      9  C   LIG d   1      -7.073  89.778 116.795  0.00  0.00     0.028 C 
ATOM     10  C   LIG d   1      -8.454  89.102 116.790  0.00  0.00     0.006 C 
ENDBRANCH   8   9
BRANCH   8  11
ATOM     11  C   LIG d   1      -7.491  91.896 115.651  0.00  0.00     0.028 C 
ATOM     12  C   LIG d   1      -6.263  91.979 114.730  0.00  0.00     0.006 C 
ENDBRANCH   8  11
ENDBRANCH   7   8
ENDBRANCH   1   7
BRANCH   6  13
ATOM     13  N   LIG d   1      -3.470  92.857 118.942  0.00  0.00    -0.311 N 
ATOM     14  C   LIG d   1      -2.266  93.086 118.420  0.00  0.00     0.210 C 
ATOM     15  C   LIG d   1      -1.150  92.178 118.946  0.00  0.00     0.109 C 
ATOM     16  O   LIG d   1      -2.010  93.977 117.596  0.00  0.00    -0.276 OA
ATOM     17  H   LIG d   1      -3.581  92.137 119.628  0.00  0.00     0.149 HD
ENDBRANCH   6  13
BRANCH   5  18
ATOM     18  N   LIG d   1      -3.840  95.868 119.300  0.00  0.00     0.381 N 
ATOM     19  H   LIG d   1      -3.933  96.347 118.426  0.00  0.00    -0.090 HD
ATOM     20  H   LIG d   1      -2.952  95.399 119.310  0.00  0.00    -0.090 HD
ATOM     21  H   LIG d   1      -3.888  96.522 120.051  0.00  0.00    -0.090 HD
ENDBRANCH   5  18
BRANCH   3  22
ATOM     22  C   LIG d   1      -8.574  95.141 119.264  0.00  0.00     0.382 C 
ATOM     23  O   LIG d   1      -9.572  94.382 119.210  0.00  0.00    -0.241 OA
ATOM     24  O   LIG d   1      -8.736  96.350 119.519  0.00  0.00    -0.241 OA
ENDBRANCH   3  22
TORSDOF 7
ENDMDL
MODEL 4
REMARK VINA RESULT:      -5.2     15.039     17.989
REMARK  7 active torsions:
REMARK  status: ('A' for Active; 'I' for Inactive)
REMARK    1  A    between atoms: C_2  and  C_3 
REMARK    2  A    between atoms: C_3  and  O_6 
REMARK    3  A    between atoms: C_3  and  C_4 
REMARK    4  A    between atoms: C_7  and  O_6 
REMARK    5  A    between atoms: C_9  and  C_10 
REMARK    6  A    between atoms: N_15  and  C_14 
REMARK    7  A    between atoms: N_20  and  C_19 
REMARK       I    between atoms: C_22  and  N_20 
ROOT
ATOM      1  C   LIG d   1      -4.102  74.534 116.582  0.00  0.00     0.161 C 
ATOM      2  C   LIG d   1      -5.071  73.535 116.392  0.00  0.00     0.016 C 
ATOM      3  C   LIG d   1      -6.437  73.704 116.714  0.00  0.00     0.038 C 
ATOM      4  C   LIG d   1      -6.957  74.944 117.112  0.00  0.00     0.028 C 
ATOM      5  C   LIG d   1      -5.931  75.839 117.799  0.00  0.00    -0.047 C 
ATOM      6  C   LIG d   1      -4.669  75.931 116.911  0.00  0.00     0.091 C 
ENDROOT
BRANCH   1   7
ATOM      7  O   LIG d   1      -3.237  74.602 115.431  0.00  0.00    -0.368 OA
BRANCH   7   8
ATOM      8  C   LIG d   1      -1.834  74.335 115.672  0.00  0.00     0.119 C 
BRANCH   8   9
ATOM      9  C   LIG d   1      -1.698  73.849 117.128  0.00  0.00     0.028 C 
ATOM     10  C   LIG d   1      -0.488  74.473 117.844  0.00  0.00     0.006 C 
ENDBRANCH   8   9
BRANCH   8  11
ATOM     11  C   LIG d   1      -1.000  75.617 115.593  0.00  0.00     0.028 C 
ATOM     12  C   LIG d   1      -1.527  76.607 114.541  0.00  0.00     0.006 C 
ENDBRANCH   8  11
ENDBRANCH   7   8
ENDBRANCH   1   7
BRANCH   6  13
ATOM     13  N   LIG d   1      -3.583  76.719 117.548  0.00  0.00    -0.311 N 
ATOM     14  C   LIG d   1      -3.406  78.023 117.343  0.00  0.00     0.210 C 
ATOM     15  C   LIG d   1      -2.214  78.638 118.082  0.00  0.00     0.109 C 
ATOM     16  O   LIG d   1      -4.142  78.736 116.644  0.00  0.00    -0.276 OA
ATOM     17  H   LIG d   1      -2.958  76.226 118.156  0.00  0.00     0.149 HD
ENDBRANCH   6  13
BRANCH   5  18
ATOM     18  N   LIG d   1      -6.568  77.148 118.035  0.00  0.00     0.381 N 
ATOM     19  H   LIG d   1      -7.158  77.382 117.262  0.00  0.00    -0.090 HD
ATOM     20  H   LIG d   1      -5.853  77.849 118.110  0.00  0.00    -0.090 HD
ATOM     21  H   LIG d   1      -7.104  77.120 118.875  0.00  0.00    -0.090 HD
ENDBRANCH   5  18
BRANCH   3  22
ATOM     22  C   LIG d   1      -7.291  72.612 116.678  0.00  0.00     0.382 C 
ATOM     23  O   LIG d   1      -8.381  72.649 117.300  0.00  0.00    -0.241 OA
ATOM     24  O   LIG d   1      -6.967  71.575 116.069  0.00  0.00    -0.241 OA
ENDBRANCH   3  22
TORSDOF 7
ENDMDL
MODEL 5
REMARK VINA RESULT:      -4.9      2.452      4.281
REMARK  7 active torsions:
REMARK  status: ('A' for Active; 'I' for Inactive)
REMARK    1  A    between atoms: C_2  and  C_3 
REMARK    2  A    between atoms: C_3  and  O_6 
REMARK    3  A    between atoms: C_3  and  C_4 
REMARK    4  A    between atoms: C_7  and  O_6 
REMARK    5  A    between atoms: C_9  and  C_10 
REMARK    6  A    between atoms: N_15  and  C_14 
REMARK    7  A    between atoms: N_20  and  C_19 
REMARK       I    between atoms: C_22  and  N_20 
ROOT
ATOM      1  C   LIG d   1      -5.412  91.834 119.270  0.00  0.00     0.161 C 
ATOM      2  C   LIG d   1      -4.577  90.954 118.562  0.00  0.00     0.016 C 
ATOM      3  C   LIG d   1      -4.758  90.639 117.195  0.00  0.00     0.038 C 
ATOM      4  C   LIG d   1      -5.702  91.306 116.400  0.00  0.00     0.028 C 
ATOM      5  C   LIG d   1      -6.896  91.832 117.190  0.00  0.00    -0.047 C 
ATOM      6  C   LIG d   1      -6.379  92.655 118.392  0.00  0.00     0.091 C 
ENDROOT
BRANCH   1   7
ATOM      7  O   LIG d   1      -4.614  92.710 120.091  0.00  0.00    -0.368 OA
BRANCH   7   8
ATOM      8  C   LIG d   1      -4.156  93.932 119.461  0.00  0.00     0.119 C 
BRANCH   8   9
ATOM      9  C   LIG d   1      -2.616  93.886 119.427  0.00  0.00     0.028 C 
ATOM     10  C   LIG d   1      -2.067  93.632 118.012  0.00  0.00     0.006 C 
ENDBRANCH   8   9
BRANCH   8  11
ATOM     11  C   LIG d   1      -4.506  95.160 120.306  0.00  0.00     0.028 C 
ATOM     12  C   LIG d   1      -3.807  96.438 119.818  0.00  0.00     0.006 C 
ENDBRANCH   8  11
ENDBRANCH   7   8
ENDBRANCH   1   7
BRANCH   6  13
ATOM     13  N   LIG d   1      -7.481  93.137 119.265  0.00  0.00    -0.311 N 
ATOM     14  C   LIG d   1      -8.011  94.355 119.173  0.00  0.00     0.210 C 
ATOM     15  C   LIG d   1      -9.123  94.655 120.182  0.00  0.00     0.109 C 
ATOM     16  O   LIG d   1      -7.687  95.205 118.329  0.00  0.00    -0.276 OA
ATOM     17  H   LIG d   1      -7.826  92.501 119.957  0.00  0.00     0.149 HD
ENDBRANCH   6  13
BRANCH   5  18
ATOM     18  N   LIG d   1      -7.730  92.622 116.264  0.00  0.00     0.381 N 
ATOM     19  H   LIG d   1      -7.214  93.412 115.934  0.00  0.00    -0.090 HD
ATOM     20  H   LIG d   1      -8.538  92.956 116.759  0.00  0.00    -0.090 HD
ATOM     21  H   LIG d   1      -8.014  92.056 115.494  0.00  0.00    -0.090 HD
ENDBRANCH   5  18
BRANCH   3  22
ATOM     22  C   LIG d   1      -4.015  89.619 116.621  0.00  0.00     0.382 C 
ATOM     23  O   LIG d   1      -4.410  89.077 115.560  0.00  0.00    -0.241 OA
ATOM     24  O   LIG d   1      -2.979  89.204 117.173  0.00  0.00    -0.241 OA
ENDBRANCH   3  22
TORSDOF 7
ENDMDL
MODEL 6
REMARK VINA RESULT:      -4.9     14.637     17.071
REMARK  7 active torsions:
REMARK  status: ('A' for Active; 'I' for Inactive)
REMARK    1  A    between atoms: C_2  and  C_3 
REMARK    2  A    between atoms: C_3  and  O_6 
REMARK    3  A    between atoms: C_3  and  C_4 
REMARK    4  A    between atoms: C_7  and  O_6 
REMARK    5  A    between atoms: C_9  and  C_10 
REMARK    6  A    between atoms: N_15  and  C_14 
REMARK    7  A    between atoms: N_20  and  C_19 
REMARK       I    between atoms: C_22  and  N_20 
ROOT
ATOM      1  C   LIG d   1      -1.693  76.735 116.703  0.00  0.00     0.161 C 
ATOM      2  C   LIG d   1      -2.855  76.694 115.915  0.00  0.00     0.016 C 
ATOM      3  C   LIG d   1      -3.399  75.498 115.394  0.00  0.00     0.038 C 
ATOM      4  C   LIG d   1      -2.900  74.237 115.754  0.00  0.00     0.028 C 
ATOM      5  C   LIG d   1      -1.424  74.258 116.139  0.00  0.00    -0.047 C 
ATOM      6  C   LIG d   1      -1.197  75.361 117.198  0.00  0.00     0.091 C 
ENDROOT
BRANCH   1   7
ATOM      7  O   LIG d   1      -1.890  77.628 117.818  0.00  0.00    -0.368 OA
BRANCH   7   8
ATOM      8  C   LIG d   1      -3.261  77.829 118.239  0.00  0.00     0.119 C 
BRANCH   8   9
ATOM      9  C   LIG d   1      -3.341  79.213 118.912  0.00  0.00     0.028 C 
ATOM     10  C   LIG d   1      -4.771  79.780 118.919  0.00  0.00     0.006 C 
ENDBRANCH   8   9
BRANCH   8  11
ATOM     11  C   LIG d   1      -3.663  76.826 119.325  0.00  0.00     0.028 C 
ATOM     12  C   LIG d   1      -4.973  76.090 119.001  0.00  0.00     0.006 C 
ENDBRANCH   8  11
ENDBRANCH   7   8
ENDBRANCH   1   7
BRANCH   6  13
ATOM     13  N   LIG d   1       0.235  75.505 117.569  0.00  0.00    -0.311 N 
ATOM     14  C   LIG d   1       0.797  74.857 118.587  0.00  0.00     0.210 C 
ATOM     15  C   LIG d   1       2.282  75.165 118.808  0.00  0.00     0.109 C 
ATOM     16  O   LIG d   1       0.216  74.033 119.309  0.00  0.00    -0.276 OA
ATOM     17  H   LIG d   1       0.788  76.131 117.016  0.00  0.00     0.149 HD
ENDBRANCH   6  13
BRANCH   5  18
ATOM     18  N   LIG d   1      -1.071  72.910 116.623  0.00  0.00     0.381 N 
ATOM     19  H   LIG d   1      -0.855  72.946 117.599  0.00  0.00    -0.090 HD
ATOM     20  H   LIG d   1      -0.255  72.591 116.131  0.00  0.00    -0.090 HD
ATOM     21  H   LIG d   1      -1.828  72.282 116.467  0.00  0.00    -0.090 HD
ENDBRANCH   5  18
BRANCH   3  22
ATOM     22  C   LIG d   1      -4.432  75.557 114.470  0.00  0.00     0.382 C 
ATOM     23  O   LIG d   1      -4.645  76.619 113.837  0.00  0.00    -0.241 OA
ATOM     24  O   LIG d   1      -5.180  74.577 114.295  0.00  0.00    -0.241 OA
ENDBRANCH   3  22
TORSDOF 7
ENDMDL
MODEL 7
REMARK VINA RESULT:      -4.8      1.444      1.835
REMARK  7 active torsions:
REMARK  status: ('A' for Active; 'I' for Inactive)
REMARK    1  A    between atoms: C_2  and  C_3 
REMARK    2  A    between atoms: C_3  and  O_6 
REMARK    3  A    between atoms: C_3  and  C_4 
REMARK    4  A    between atoms: C_7  and  O_6 
REMARK    5  A    between atoms: C_9  and  C_10 
REMARK    6  A    between atoms: N_15  and  C_14 
REMARK    7  A    between atoms: N_20  and  C_19 
REMARK       I    between atoms: C_22  and  N_20 
ROOT
ATOM      1  C   LIG d   1      -4.661  92.630 117.021  0.00  0.00     0.161 C 
ATOM      2  C   LIG d   1      -5.889  92.198 116.494  0.00  0.00     0.016 C 
ATOM      3  C   LIG d   1      -6.171  90.848 116.183  0.00  0.00     0.038 C 
ATOM      4  C   LIG d   1      -5.291  89.810 116.523  0.00  0.00     0.028 C 
ATOM      5  C   LIG d   1      -3.833  90.251 116.594  0.00  0.00    -0.047 C 
ATOM      6  C   LIG d   1      -3.729  91.498 117.502  0.00  0.00     0.091 C 
ENDROOT
BRANCH   1   7
ATOM      7  O   LIG d   1      -4.891  93.575 118.085  0.00  0.00    -0.368 OA
BRANCH   7   8
ATOM      8  C   LIG d   1      -6.275  93.799 118.450  0.00  0.00     0.119 C 
BRANCH   8   9
ATOM      9  C   LIG d   1      -6.480  95.321 118.578  0.00  0.00     0.028 C 
ATOM     10  C   LIG d   1      -7.266  95.703 119.843  0.00  0.00     0.006 C 
ENDBRANCH   8   9
BRANCH   8  11
ATOM     11  C   LIG d   1      -6.585  93.230 119.838  0.00  0.00     0.028 C 
ATOM     12  C   LIG d   1      -5.336  92.694 120.554  0.00  0.00     0.006 C 
ENDBRANCH   8  11
ENDBRANCH   7   8
ENDBRANCH   1   7
BRANCH   6  13
ATOM     13  N   LIG d   1      -2.349  92.045 117.559  0.00  0.00    -0.311 N 
ATOM     14  C   LIG d   1      -1.486  91.758 118.532  0.00  0.00     0.210 C 
ATOM     15  C   LIG d   1      -0.122  92.444 118.410  0.00  0.00     0.109 C 
ATOM     16  O   LIG d   1      -1.710  90.975 119.468  0.00  0.00    -0.276 OA
ATOM     17  H   LIG d   1      -2.073  92.664 116.822  0.00  0.00     0.149 HD
ENDBRANCH   6  13
BRANCH   5  18
ATOM     18  N   LIG d   1      -3.045  89.107 117.091  0.00  0.00     0.381 N 
ATOM     19  H   LIG d   1      -3.650  88.446 117.535  0.00  0.00    -0.090 HD
ATOM     20  H   LIG d   1      -2.385  89.438 117.773  0.00  0.00    -0.090 HD
ATOM     21  H   LIG d   1      -2.562  88.672 116.336  0.00  0.00    -0.090 HD
ENDBRANCH   5  18
BRANCH   3  22
ATOM     22  C   LIG d   1      -7.328  90.529 115.489  0.00  0.00     0.382 C 
ATOM     23  O   LIG d   1      -7.345  90.590 114.236  0.00  0.00    -0.241 OA
ATOM     24  O   LIG d   1      -8.369  90.224 116.103  0.00  0.00    -0.241 OA
ENDBRANCH   3  22
TORSDOF 7
ENDMDL
MODEL 8
REMARK VINA RESULT:      -4.6      2.317      4.343
REMARK  7 active torsions:
REMARK  status: ('A' for Active; 'I' for Inactive)
REMARK    1  A    between atoms: C_2  and  C_3 
REMARK    2  A    between atoms: C_3  and  O_6 
REMARK    3  A    between atoms: C_3  and  C_4 
REMARK    4  A    between atoms: C_7  and  O_6 
REMARK    5  A    between atoms: C_9  and  C_10 
REMARK    6  A    between atoms: N_15  and  C_14 
REMARK    7  A    between atoms: N_20  and  C_19 
REMARK       I    between atoms: C_22  and  N_20 
ROOT
ATOM      1  C   LIG d   1      -3.000  92.184 118.078  0.00  0.00     0.161 C 
ATOM      2  C   LIG d   1      -4.241  92.840 118.145  0.00  0.00     0.016 C 
ATOM      3  C   LIG d   1      -5.413  92.354 117.520  0.00  0.00     0.038 C 
ATOM      4  C   LIG d   1      -5.458  91.093 116.908  0.00  0.00     0.028 C 
ATOM      5  C   LIG d   1      -4.105  90.627 116.380  0.00  0.00    -0.047 C 
ATOM      6  C   LIG d   1      -3.056  90.751 117.509  0.00  0.00     0.091 C 
ENDROOT
BRANCH   1   7
ATOM      7  O   LIG d   1      -2.377  92.183 119.378  0.00  0.00    -0.368 OA
BRANCH   7   8
ATOM      8  C   LIG d   1      -1.228  93.052 119.535  0.00  0.00     0.119 C 
BRANCH   8   9
ATOM      9  C   LIG d   1      -1.695  94.302 120.304  0.00  0.00     0.028 C 
ATOM     10  C   LIG d   1      -1.679  95.569 119.431  0.00  0.00     0.006 C 
ENDBRANCH   8   9
BRANCH   8  11
ATOM     11  C   LIG d   1      -0.733  93.570 118.181  0.00  0.00     0.028 C 
ATOM     12  C   LIG d   1       0.662  93.038 117.815  0.00  0.00     0.006 C 
ENDBRANCH   8  11
ENDBRANCH   7   8
ENDBRANCH   1   7
BRANCH   6  13
ATOM     13  N   LIG d   1      -1.687  90.395 117.052  0.00  0.00    -0.311 N 
ATOM     14  C   LIG d   1      -0.885  89.567 117.718  0.00  0.00     0.210 C 
ATOM     15  C   LIG d   1       0.493  89.351 117.083  0.00  0.00     0.109 C 
ATOM     16  O   LIG d   1      -1.194  88.965 118.757  0.00  0.00    -0.276 OA
ATOM     17  H   LIG d   1      -1.367  90.814 116.201  0.00  0.00     0.149 HD
ENDBRANCH   6  13
BRANCH   5  18
ATOM     18  N   LIG d   1      -4.269  89.244 115.893  0.00  0.00     0.381 N 
ATOM     19  H   LIG d   1      -4.960  89.219 115.170  0.00  0.00    -0.090 HD
ATOM     20  H   LIG d   1      -4.587  88.667 116.653  0.00  0.00    -0.090 HD
ATOM     21  H   LIG d   1      -3.401  88.899 115.546  0.00  0.00    -0.090 HD
ENDBRANCH   5  18
BRANCH   3  22
ATOM     22  C   LIG d   1      -6.546  93.152 117.469  0.00  0.00     0.382 C 
ATOM     23  O   LIG d   1      -6.545  94.278 118.022  0.00  0.00    -0.241 OA
ATOM     24  O   LIG d   1      -7.583  92.741 116.915  0.00  0.00    -0.241 OA
ENDBRANCH   3  22
TORSDOF 7
ENDMDL
MODEL 9
REMARK VINA RESULT:      -4.4      2.182      3.483
REMARK  7 active torsions:
REMARK  status: ('A' for Active; 'I' for Inactive)
REMARK    1  A    between atoms: C_2  and  C_3 
REMARK    2  A    between atoms: C_3  and  O_6 
REMARK    3  A    between atoms: C_3  and  C_4 
REMARK    4  A    between atoms: C_7  and  O_6 
REMARK    5  A    between atoms: C_9  and  C_10 
REMARK    6  A    between atoms: N_15  and  C_14 
REMARK    7  A    between atoms: N_20  and  C_19 
REMARK       I    between atoms: C_22  and  N_20 
ROOT
ATOM      1  C   LIG d   1      -3.581  92.474 117.969  0.00  0.00     0.161 C 
ATOM      2  C   LIG d   1      -4.739  92.695 117.205  0.00  0.00     0.016 C 
ATOM      3  C   LIG d   1      -5.317  91.713 116.367  0.00  0.00     0.038 C 
ATOM      4  C   LIG d   1      -4.860  90.387 116.353  0.00  0.00     0.028 C 
ATOM      5  C   LIG d   1      -3.387  90.250 116.725  0.00  0.00    -0.047 C 
ATOM      6  C   LIG d   1      -3.133  90.999 118.053  0.00  0.00     0.091 C 
ENDROOT
BRANCH   1   7
ATOM      7  O   LIG d   1      -3.758  93.019 119.292  0.00  0.00    -0.368 OA
BRANCH   7   8
ATOM      8  C   LIG d   1      -2.954  94.180 119.615  0.00  0.00     0.119 C 
BRANCH   8   9
ATOM      9  C   LIG d   1      -3.898  95.396 119.671  0.00  0.00     0.028 C 
ATOM     10  C   LIG d   1      -5.313  95.019 120.142  0.00  0.00     0.006 C 
ENDBRANCH   8   9
BRANCH   8  11
ATOM     11  C   LIG d   1      -1.955  94.494 118.497  0.00  0.00     0.028 C 
ATOM     12  C   LIG d   1      -0.516  94.657 119.012  0.00  0.00     0.006 C 
ENDBRANCH   8  11
ENDBRANCH   7   8
ENDBRANCH   1   7
BRANCH   6  13
ATOM     13  N   LIG d   1      -1.700  90.987 118.445  0.00  0.00    -0.311 N 
ATOM     14  C   LIG d   1      -1.173  90.083 119.270  0.00  0.00     0.210 C 
ATOM     15  C   LIG d   1       0.320  90.264 119.558  0.00  0.00     0.109 C 
ATOM     16  O   LIG d   1      -1.794  89.131 119.765  0.00  0.00    -0.276 OA
ATOM     17  H   LIG d   1      -1.116  91.706 118.064  0.00  0.00     0.149 HD
ENDBRANCH   6  13
BRANCH   5  18
ATOM     18  N   LIG d   1      -3.080  88.810 116.805  0.00  0.00     0.381 N 
ATOM     19  H   LIG d   1      -2.127  88.682 117.083  0.00  0.00    -0.090 HD
ATOM     20  H   LIG d   1      -3.201  88.400 115.895  0.00  0.00    -0.090 HD
ATOM     21  H   LIG d   1      -3.687  88.368 117.460  0.00  0.00    -0.090 HD
ENDBRANCH   5  18
BRANCH   3  22
ATOM     22  C   LIG d   1      -6.341  92.066 115.501  0.00  0.00     0.382 C 
ATOM     23  O   LIG d   1      -7.536  91.977 115.873  0.00  0.00    -0.241 OA
ATOM     24  O   LIG d   1      -6.087  92.430 114.337  0.00  0.00    -0.241 OA
ENDBRANCH   3  22
TORSDOF 7
ENDMDL
