MODEL 1
REMARK VINA RESULT:      -5.3      0.000      0.000
REMARK  7 active torsions:
REMARK  status: ('A' for Active; 'I' for Inactive)
REMARK    1  A    between atoms: C_2  and  C_3 
REMARK    2  A    between atoms: C_3  and  O_6 
REMARK    3  A    between atoms: C_3  and  C_4 
REMARK    4  A    between atoms: C_7  and  O_6 
REMARK    5  A    between atoms: C_9  and  C_10 
REMARK    6  A    between atoms: N_15  and  C_14 
REMARK    7  A    between atoms: N_20  and  C_19 
REMARK       I    between atoms: C_22  and  N_20 
ROOT
ATOM      1  C   LIG d   1      -6.342  93.561 118.274  0.00  0.00     0.161 C 
ATOM      2  C   LIG d   1      -7.141  92.699 117.504  0.00  0.00     0.016 C 
ATOM      3  C   LIG d   1      -6.623  91.608 116.769  0.00  0.00     0.038 C 
ATOM      4  C   LIG d   1      -5.281  91.211 116.877  0.00  0.00     0.028 C 
ATOM      5  C   LIG d   1      -4.340  92.353 117.244  0.00  0.00    -0.047 C 
ATOM      6  C   LIG d   1      -4.893  93.078 118.493  0.00  0.00     0.091 C 
ENDROOT
BRANCH   1   7
ATOM      7  O   LIG d   1      -6.981  93.817 119.540  0.00  0.00    -0.368 OA
BRANCH   7   8
ATOM      8  C   LIG d   1      -7.558  95.136 119.708  0.00  0.00     0.119 C 
BRANCH   8   9
ATOM      9  C   LIG d   1      -9.053  95.036 119.350  0.00  0.00     0.028 C 
ATOM     10  C   LIG d   1      -9.773  93.928 120.137  0.00  0.00     0.006 C 
ENDBRANCH   8   9
BRANCH   8  11
ATOM     11  C   LIG d   1      -6.967  96.134 118.707  0.00  0.00     0.028 C 
ATOM     12  C   LIG d   1      -6.035  97.161 119.370  0.00  0.00     0.006 C 
ENDBRANCH   8  11
ENDBRANCH   7   8
ENDBRANCH   1   7
BRANCH   6  13
ATOM     13  N   LIG d   1      -4.077  94.261 118.870  0.00  0.00    -0.311 N 
ATOM     14  C   LIG d   1      -3.103  94.220 119.778  0.00  0.00     0.210 C 
ATOM     15  C   LIG d   1      -2.400  95.557 120.031  0.00  0.00     0.109 C 
ATOM     16  O   LIG d   1      -2.734  93.198 120.374  0.00  0.00    -0.276 OA
ATOM     17  H   LIG d   1      -4.288  95.126 118.412  0.00  0.00     0.149 HD
ENDBRANCH   6  13
BRANCH   5  18
ATOM     18  N   LIG d   1      -3.000  91.775 117.458  0.00  0.00     0.381 N 
ATOM     19  H   LIG d   1      -2.509  92.305 118.150  0.00  0.00    -0.090 HD
ATOM     20  H   LIG d   1      -2.483  91.824 116.598  0.00  0.00    -0.090 HD
ATOM     21  H   LIG d   1      -3.081  90.826 117.751  0.00  0.00    -0.090 HD
ENDBRANCH   5  18
BRANCH   3  22
ATOM     22  C   LIG d   1      -7.442  90.924 115.884  0.00  0.00     0.382 C 
ATOM     23  O   LIG d   1      -7.807  89.752 116.144  0.00  0.00    -0.241 OA
ATOM     24  O   LIG d   1      -7.786  91.449 114.808  0.00  0.00    -0.241 OA
ENDBRANCH   3  22
TORSDOF 7
ENDMDL
MODEL 2
REMARK VINA RESULT:      -5.3     15.266     17.819
REMARK  7 active torsions:
REMARK  status: ('A' for Active; 'I' for Inactive)
REMARK    1  A    between atoms: C_2  and  C_3 
REMARK    2  A    between atoms: C_3  and  O_6 
REMARK    3  A    between atoms: C_3  and  C_4 
REMARK    4  A    between atoms: C_7  and  O_6 
REMARK    5  A    between atoms: C_9  and  C_10 
REMARK    6  A    between atoms: N_15  and  C_14 
REMARK    7  A    between atoms: N_20  and  C_19 
REMARK       I    between atoms: C_22  and  N_20 
ROOT
ATOM      1  C   LIG d   1      -3.399  76.628 116.874  0.00  0.00     0.161 C 
ATOM      2  C   LIG d   1      -3.369  77.837 116.160  0.00  0.00     0.016 C 
ATOM      3  C   LIG d   1      -2.224  78.312 115.481  0.00  0.00     0.038 C 
ATOM      4  C   LIG d   1      -1.067  77.531 115.342  0.00  0.00     0.028 C 
ATOM      5  C   LIG d   1      -0.878  76.524 116.471  0.00  0.00    -0.047 C 
ATOM      6  C   LIG d   1      -2.181  75.710 116.641  0.00  0.00     0.091 C 
ENDROOT
BRANCH   1   7
ATOM      7  O   LIG d   1      -4.621  75.920 116.586  0.00  0.00    -0.368 OA
BRANCH   7   8
ATOM      8  C   LIG d   1      -5.426  76.452 115.505  0.00  0.00     0.119 C 
BRANCH   8   9
ATOM      9  C   LIG d   1      -6.884  76.514 116.001  0.00  0.00     0.028 C 
ATOM     10  C   LIG d   1      -7.066  77.499 117.168  0.00  0.00     0.006 C 
ENDBRANCH   8   9
BRANCH   8  11
ATOM     11  C   LIG d   1      -5.446  75.501 114.305  0.00  0.00     0.028 C 
ATOM     12  C   LIG d   1      -4.949  74.090 114.655  0.00  0.00     0.006 C 
ENDBRANCH   8  11
ENDBRANCH   7   8
ENDBRANCH   1   7
BRANCH   6  13
ATOM     13  N   LIG d   1      -2.110  74.758 117.780  0.00  0.00    -0.311 N 
ATOM     14  C   LIG d   1      -1.665  73.508 117.665  0.00  0.00     0.210 C 
ATOM     15  C   LIG d   1      -1.695  72.689 118.959  0.00  0.00     0.109 C 
ATOM     16  O   LIG d   1      -1.219  73.010 116.621  0.00  0.00    -0.276 OA
ATOM     17  H   LIG d   1      -2.424  75.090 118.671  0.00  0.00     0.149 HD
ENDBRANCH   6  13
BRANCH   5  18
ATOM     18  N   LIG d   1       0.287  75.686 116.129  0.00  0.00     0.381 N 
ATOM     19  H   LIG d   1       0.183  75.322 115.203  0.00  0.00    -0.090 HD
ATOM     20  H   LIG d   1       0.330  74.912 116.769  0.00  0.00    -0.090 HD
ATOM     21  H   LIG d   1       1.124  76.223 116.190  0.00  0.00    -0.090 HD
ENDBRANCH   5  18
BRANCH   3  22
ATOM     22  C   LIG d   1      -2.215  79.599 114.965  0.00  0.00     0.382 C 
ATOM     23  O   LIG d   1      -1.208  80.331 115.122  0.00  0.00    -0.241 OA
ATOM     24  O   LIG d   1      -3.219  80.054 114.383  0.00  0.00    -0.241 OA
ENDBRANCH   3  22
TORSDOF 7
ENDMDL
MODEL 3
REMARK VINA RESULT:      -5.1     13.813     16.617
REMARK  7 active torsions:
REMARK  status: ('A' for Active; 'I' for Inactive)
REMARK    1  A    between atoms: C_2  and  C_3 
REMARK    2  A    between atoms: C_3  and  O_6 
REMARK    3  A    between atoms: C_3  and  C_4 
REMARK    4  A    between atoms: C_7  and  O_6 
REMARK    5  A    between atoms: C_9  and  C_10 
REMARK    6  A    between atoms: N_15  and  C_14 
REMARK    7  A    between atoms: N_20  and  C_19 
REMARK       I    between atoms: C_22  and  N_20 
ROOT
ATOM      1  C   LIG d   1      -6.784  77.110 116.969  0.00  0.00     0.161 C 
ATOM      2  C   LIG d   1      -7.992  76.396 117.032  0.00  0.00     0.016 C 
ATOM      3  C   LIG d   1      -9.098  76.806 117.812  0.00  0.00     0.038 C 
ATOM      4  C   LIG d   1      -9.124  78.046 118.468  0.00  0.00     0.028 C 
ATOM      5  C   LIG d   1      -7.739  78.563 118.841  0.00  0.00    -0.047 C 
ATOM      6  C   LIG d   1      -6.833  78.522 117.589  0.00  0.00     0.091 C 
ENDROOT
BRANCH   1   7
ATOM      7  O   LIG d   1      -6.328  77.178 115.603  0.00  0.00    -0.368 OA
BRANCH   7   8
ATOM      8  C   LIG d   1      -5.078  76.506 115.314  0.00  0.00     0.119 C 
BRANCH   8   9
ATOM      9  C   LIG d   1      -5.357  75.463 114.215  0.00  0.00     0.028 C 
ATOM     10  C   LIG d   1      -5.002  74.033 114.658  0.00  0.00     0.006 C 
ENDBRANCH   8   9
BRANCH   8  11
ATOM     11  C   LIG d   1      -4.586  75.701 116.521  0.00  0.00     0.028 C 
ATOM     12  C   LIG d   1      -3.237  76.201 117.062  0.00  0.00     0.006 C 
ENDBRANCH   8  11
ENDBRANCH   7   8
ENDBRANCH   1   7
BRANCH   6  13
ATOM     13  N   LIG d   1      -5.436  78.932 117.887  0.00  0.00    -0.311 N 
ATOM     14  C   LIG d   1      -5.002  80.187 117.782  0.00  0.00     0.210 C 
ATOM     15  C   LIG d   1      -3.521  80.389 118.117  0.00  0.00     0.109 C 
ATOM     16  O   LIG d   1      -5.711  81.157 117.476  0.00  0.00    -0.276 OA
ATOM     17  H   LIG d   1      -4.801  78.213 118.172  0.00  0.00     0.149 HD
ENDBRANCH   6  13
BRANCH   5  18
ATOM     18  N   LIG d   1      -7.903  79.922 119.392  0.00  0.00     0.381 N 
ATOM     19  H   LIG d   1      -7.016  80.383 119.427  0.00  0.00    -0.090 HD
ATOM     20  H   LIG d   1      -8.260  79.852 120.329  0.00  0.00    -0.090 HD
ATOM     21  H   LIG d   1      -8.535  80.444 118.826  0.00  0.00    -0.090 HD
ENDBRANCH   5  18
BRANCH   3  22
ATOM     22  C   LIG d   1     -10.179  75.953 117.974  0.00  0.00     0.382 C 
ATOM     23  O   LIG d   1     -10.054  74.730 117.724  0.00  0.00    -0.241 OA
ATOM     24  O   LIG d   1     -11.288  76.398 118.324  0.00  0.00    -0.241 OA
ENDBRANCH   3  22
TORSDOF 7
ENDMDL
MODEL 4
REMARK VINA RESULT:      -5.1      2.552      6.405
REMARK  7 active torsions:
REMARK  status: ('A' for Active; 'I' for Inactive)
REMARK    1  A    between atoms: C_2  and  C_3 
REMARK    2  A    between atoms: C_3  and  O_6 
REMARK    3  A    between atoms: C_3  and  C_4 
REMARK    4  A    between atoms: C_7  and  O_6 
REMARK    5  A    between atoms: C_9  and  C_10 
REMARK    6  A    between atoms: N_15  and  C_14 
REMARK    7  A    between atoms: N_20  and  C_19 
REMARK       I    between atoms: C_22  and  N_20 
ROOT
ATOM      1  C   LIG d   1      -4.715  92.544 117.488  0.00  0.00     0.161 C 
ATOM      2  C   LIG d   1      -4.261  93.356 118.541  0.00  0.00     0.016 C 
ATOM      3  C   LIG d   1      -5.091  94.267 119.234  0.00  0.00     0.038 C 
ATOM      4  C   LIG d   1      -6.477  94.318 119.020  0.00  0.00     0.028 C 
ATOM      5  C   LIG d   1      -6.890  93.878 117.620  0.00  0.00    -0.047 C 
ATOM      6  C   LIG d   1      -6.247  92.505 117.315  0.00  0.00     0.091 C 
ENDROOT
BRANCH   1   7
ATOM      7  O   LIG d   1      -4.194  91.209 117.642  0.00  0.00    -0.368 OA
BRANCH   7   8
ATOM      8  C   LIG d   1      -2.980  91.084 118.423  0.00  0.00     0.119 C 
BRANCH   8   9
ATOM      9  C   LIG d   1      -1.790  91.207 117.453  0.00  0.00     0.028 C 
ATOM     10  C   LIG d   1      -0.884  92.405 117.784  0.00  0.00     0.006 C 
ENDBRANCH   8   9
BRANCH   8  11
ATOM     11  C   LIG d   1      -2.857  89.688 119.042  0.00  0.00     0.028 C 
ATOM     12  C   LIG d   1      -1.978  88.743 118.208  0.00  0.00     0.006 C 
ENDBRANCH   8  11
ENDBRANCH   7   8
ENDBRANCH   1   7
BRANCH   6  13
ATOM     13  N   LIG d   1      -6.532  92.041 115.932  0.00  0.00    -0.311 N 
ATOM     14  C   LIG d   1      -7.114  90.875 115.656  0.00  0.00     0.210 C 
ATOM     15  C   LIG d   1      -7.297  90.581 114.163  0.00  0.00     0.109 C 
ATOM     16  O   LIG d   1      -7.524  90.070 116.505  0.00  0.00    -0.276 OA
ATOM     17  H   LIG d   1      -6.260  92.646 115.182  0.00  0.00     0.149 HD
ENDBRANCH   6  13
BRANCH   5  18
ATOM     18  N   LIG d   1      -8.364  93.848 117.579  0.00  0.00     0.381 N 
ATOM     19  H   LIG d   1      -8.671  93.230 116.854  0.00  0.00    -0.090 HD
ATOM     20  H   LIG d   1      -8.703  94.771 117.370  0.00  0.00    -0.090 HD
ATOM     21  H   LIG d   1      -8.724  93.545 118.457  0.00  0.00    -0.090 HD
ENDBRANCH   5  18
BRANCH   3  22
ATOM     22  C   LIG d   1      -4.529  95.167 120.126  0.00  0.00     0.382 C 
ATOM     23  O   LIG d   1      -3.364  94.982 120.553  0.00  0.00    -0.241 OA
ATOM     24  O   LIG d   1      -5.188  96.139 120.542  0.00  0.00    -0.241 OA
ENDBRANCH   3  22
TORSDOF 7
ENDMDL
MODEL 5
REMARK VINA RESULT:      -4.8      1.237      2.170
REMARK  7 active torsions:
REMARK  status: ('A' for Active; 'I' for Inactive)
REMARK    1  A    between atoms: C_2  and  C_3 
REMARK    2  A    between atoms: C_3  and  O_6 
REMARK    3  A    between atoms: C_3  and  C_4 
REMARK    4  A    between atoms: C_7  and  O_6 
REMARK    5  A    between atoms: C_9  and  C_10 
REMARK    6  A    between atoms: N_15  and  C_14 
REMARK    7  A    between atoms: N_20  and  C_19 
REMARK       I    between atoms: C_22  and  N_20 
ROOT
ATOM      1  C   LIG d   1      -5.894  93.183 118.223  0.00  0.00     0.161 C 
ATOM      2  C   LIG d   1      -6.714  92.871 117.126  0.00  0.00     0.016 C 
ATOM      3  C   LIG d   1      -6.428  91.833 116.210  0.00  0.00     0.038 C 
ATOM      4  C   LIG d   1      -5.373  90.931 116.417  0.00  0.00     0.028 C 
ATOM      5  C   LIG d   1      -4.226  91.518 117.234  0.00  0.00    -0.047 C 
ATOM      6  C   LIG d   1      -4.799  92.139 118.528  0.00  0.00     0.091 C 
ENDROOT
BRANCH   1   7
ATOM      7  O   LIG d   1      -6.706  93.413 119.391  0.00  0.00    -0.368 OA
BRANCH   7   8
ATOM      8  C   LIG d   1      -7.094  94.787 119.637  0.00  0.00     0.119 C 
BRANCH   8   9
ATOM      9  C   LIG d   1      -6.026  95.412 120.555  0.00  0.00     0.028 C 
ATOM     10  C   LIG d   1      -5.149  96.439 119.820  0.00  0.00     0.006 C 
ENDBRANCH   8   9
BRANCH   8  11
ATOM     11  C   LIG d   1      -8.404  94.863 120.427  0.00  0.00     0.028 C 
ATOM     12  C   LIG d   1      -9.477  93.900 119.896  0.00  0.00     0.006 C 
ENDBRANCH   8  11
ENDBRANCH   7   8
ENDBRANCH   1   7
BRANCH   6  13
ATOM     13  N   LIG d   1      -3.754  92.810 119.345  0.00  0.00    -0.311 N 
ATOM     14  C   LIG d   1      -2.717  93.459 118.820  0.00  0.00     0.210 C 
ATOM     15  C   LIG d   1      -1.746  94.061 119.840  0.00  0.00     0.109 C 
ATOM     16  O   LIG d   1      -2.525  93.620 117.605  0.00  0.00    -0.276 OA
ATOM     17  H   LIG d   1      -3.848  92.755 120.341  0.00  0.00     0.149 HD
ENDBRANCH   6  13
BRANCH   5  18
ATOM     18  N   LIG d   1      -3.261  90.432 117.491  0.00  0.00     0.381 N 
ATOM     19  H   LIG d   1      -3.709  89.694 117.996  0.00  0.00    -0.090 HD
ATOM     20  H   LIG d   1      -2.511  90.791 118.056  0.00  0.00    -0.090 HD
ATOM     21  H   LIG d   1      -2.901  90.085 116.629  0.00  0.00    -0.090 HD
ENDBRANCH   5  18
BRANCH   3  22
ATOM     22  C   LIG d   1      -7.178  91.713 115.050  0.00  0.00     0.382 C 
ATOM     23  O   LIG d   1      -7.950  90.736 114.900  0.00  0.00    -0.241 OA
ATOM     24  O   LIG d   1      -7.059  92.547 114.132  0.00  0.00    -0.241 OA
ENDBRANCH   3  22
TORSDOF 7
ENDMDL
MODEL 6
REMARK VINA RESULT:      -4.7      2.352      4.306
REMARK  7 active torsions:
REMARK  status: ('A' for Active; 'I' for Inactive)
REMARK    1  A    between atoms: C_2  and  C_3 
REMARK    2  A    between atoms: C_3  and  O_6 
REMARK    3  A    between atoms: C_3  and  C_4 
REMARK    4  A    between atoms: C_7  and  O_6 
REMARK    5  A    between atoms: C_9  and  C_10 
REMARK    6  A    between atoms: N_15  and  C_14 
REMARK    7  A    between atoms: N_20  and  C_19 
REMARK       I    between atoms: C_22  and  N_20 
ROOT
ATOM      1  C   LIG d   1      -4.165  92.808 117.874  0.00  0.00     0.161 C 
ATOM      2  C   LIG d   1      -3.436  91.642 117.590  0.00  0.00     0.016 C 
ATOM      3  C   LIG d   1      -2.109  91.428 118.028  0.00  0.00     0.038 C 
ATOM      4  C   LIG d   1      -1.470  92.309 118.914  0.00  0.00     0.028 C 
ATOM      5  C   LIG d   1      -1.983  93.742 118.819  0.00  0.00    -0.047 C 
ATOM      6  C   LIG d   1      -3.524  93.731 118.932  0.00  0.00     0.091 C 
ENDROOT
BRANCH   1   7
ATOM      7  O   LIG d   1      -5.510  92.462 118.260  0.00  0.00    -0.368 OA
BRANCH   7   8
ATOM      8  C   LIG d   1      -6.555  92.824 117.325  0.00  0.00     0.119 C 
BRANCH   8   9
ATOM      9  C   LIG d   1      -7.818  93.152 118.146  0.00  0.00     0.028 C 
ATOM     10  C   LIG d   1      -8.197  94.641 118.069  0.00  0.00     0.006 C 
ENDBRANCH   8   9
BRANCH   8  11
ATOM     11  C   LIG d   1      -6.945  91.638 116.438  0.00  0.00     0.028 C 
ATOM     12  C   LIG d   1      -7.229  92.048 114.985  0.00  0.00     0.006 C 
ENDBRANCH   8  11
ENDBRANCH   7   8
ENDBRANCH   1   7
BRANCH   6  13
ATOM     13  N   LIG d   1      -4.114  95.085 118.764  0.00  0.00    -0.311 N 
ATOM     14  C   LIG d   1      -5.060  95.576 119.563  0.00  0.00     0.210 C 
ATOM     15  C   LIG d   1      -5.544  96.984 119.202  0.00  0.00     0.109 C 
ATOM     16  O   LIG d   1      -5.522  94.992 120.555  0.00  0.00    -0.276 OA
ATOM     17  H   LIG d   1      -3.775  95.639 118.003  0.00  0.00     0.149 HD
ENDBRANCH   6  13
BRANCH   5  18
ATOM     18  N   LIG d   1      -1.330  94.520 119.889  0.00  0.00     0.381 N 
ATOM     19  H   LIG d   1      -0.371  94.249 119.968  0.00  0.00    -0.090 HD
ATOM     20  H   LIG d   1      -1.787  94.321 120.761  0.00  0.00    -0.090 HD
ATOM     21  H   LIG d   1      -1.392  95.494 119.688  0.00  0.00    -0.090 HD
ENDBRANCH   5  18
BRANCH   3  22
ATOM     22  C   LIG d   1      -1.393  90.343 117.547  0.00  0.00     0.382 C 
ATOM     23  O   LIG d   1      -0.455  90.521 116.733  0.00  0.00    -0.241 OA
ATOM     24  O   LIG d   1      -1.701  89.184 117.883  0.00  0.00    -0.241 OA
ENDBRANCH   3  22
TORSDOF 7
ENDMDL
MODEL 7
REMARK VINA RESULT:      -4.7      2.165      4.426
REMARK  7 active torsions:
REMARK  status: ('A' for Active; 'I' for Inactive)
REMARK    1  A    between atoms: C_2  and  C_3 
REMARK    2  A    between atoms: C_3  and  O_6 
REMARK    3  A    between atoms: C_3  and  C_4 
REMARK    4  A    between atoms: C_7  and  O_6 
REMARK    5  A    between atoms: C_9  and  C_10 
REMARK    6  A    between atoms: N_15  and  C_14 
REMARK    7  A    between atoms: N_20  and  C_19 
REMARK       I    between atoms: C_22  and  N_20 
ROOT
ATOM      1  C   LIG d   1      -5.686  93.249 119.679  0.00  0.00     0.161 C 
ATOM      2  C   LIG d   1      -7.076  93.302 119.486  0.00  0.00     0.016 C 
ATOM      3  C   LIG d   1      -7.768  94.482 119.130  0.00  0.00     0.038 C 
ATOM      4  C   LIG d   1      -7.093  95.664 118.793  0.00  0.00     0.028 C 
ATOM      5  C   LIG d   1      -5.729  95.794 119.463  0.00  0.00    -0.047 C 
ATOM      6  C   LIG d   1      -4.920  94.502 119.208  0.00  0.00     0.091 C 
ENDROOT
BRANCH   1   7
ATOM      7  O   LIG d   1      -5.150  92.068 119.051  0.00  0.00    -0.368 OA
BRANCH   7   8
ATOM      8  C   LIG d   1      -4.683  92.227 117.688  0.00  0.00     0.119 C 
BRANCH   8   9
ATOM      9  C   LIG d   1      -5.601  91.383 116.783  0.00  0.00     0.028 C 
ATOM     10  C   LIG d   1      -6.667  92.234 116.072  0.00  0.00     0.006 C 
ENDBRANCH   8   9
BRANCH   8  11
ATOM     11  C   LIG d   1      -3.282  91.637 117.507  0.00  0.00     0.028 C 
ATOM     12  C   LIG d   1      -2.730  91.004 118.794  0.00  0.00     0.006 C 
ENDBRANCH   8  11
ENDBRANCH   7   8
ENDBRANCH   1   7
BRANCH   6  13
ATOM     13  N   LIG d   1      -3.604  94.512 119.900  0.00  0.00    -0.311 N 
ATOM     14  C   LIG d   1      -2.460  94.827 119.295  0.00  0.00     0.210 C 
ATOM     15  C   LIG d   1      -1.216  94.754 120.186  0.00  0.00     0.109 C 
ATOM     16  O   LIG d   1      -2.362  95.192 118.114  0.00  0.00    -0.276 OA
ATOM     17  H   LIG d   1      -3.596  94.259 120.868  0.00  0.00     0.149 HD
ENDBRANCH   6  13
BRANCH   5  18
ATOM     18  N   LIG d   1      -5.078  97.001 118.918  0.00  0.00     0.381 N 
ATOM     19  H   LIG d   1      -4.340  96.736 118.297  0.00  0.00    -0.090 HD
ATOM     20  H   LIG d   1      -4.679  97.526 119.676  0.00  0.00    -0.090 HD
ATOM     21  H   LIG d   1      -5.746  97.559 118.433  0.00  0.00    -0.090 HD
ENDBRANCH   5  18
BRANCH   3  22
ATOM     22  C   LIG d   1      -9.155  94.498 119.147  0.00  0.00     0.382 C 
ATOM     23  O   LIG d   1      -9.777  95.464 118.644  0.00  0.00    -0.241 OA
ATOM     24  O   LIG d   1      -9.790  93.579 119.699  0.00  0.00    -0.241 OA
ENDBRANCH   3  22
TORSDOF 7
ENDMDL
MODEL 8
REMARK VINA RESULT:      -4.6     28.665     31.499
REMARK  7 active torsions:
REMARK  status: ('A' for Active; 'I' for Inactive)
REMARK    1  A    between atoms: C_2  and  C_3 
REMARK    2  A    between atoms: C_3  and  O_6 
REMARK    3  A    between atoms: C_3  and  C_4 
REMARK    4  A    between atoms: C_7  and  O_6 
REMARK    5  A    between atoms: C_9  and  C_10 
REMARK    6  A    between atoms: N_15  and  C_14 
REMARK    7  A    between atoms: N_20  and  C_19 
REMARK       I    between atoms: C_22  and  N_20 
ROOT
ATOM      1  C   LIG d   1     -16.380  63.525 116.830  0.00  0.00     0.161 C 
ATOM      2  C   LIG d   1     -17.299  63.117 115.850  0.00  0.00     0.016 C 
ATOM      3  C   LIG d   1     -17.986  64.019 115.004  0.00  0.00     0.038 C 
ATOM      4  C   LIG d   1     -17.685  65.389 114.980  0.00  0.00     0.028 C 
ATOM      5  C   LIG d   1     -17.129  65.910 116.301  0.00  0.00    -0.047 C 
ATOM      6  C   LIG d   1     -15.955  65.006 116.743  0.00  0.00     0.091 C 
ENDROOT
BRANCH   1   7
ATOM      7  O   LIG d   1     -15.220  62.669 116.798  0.00  0.00    -0.368 OA
BRANCH   7   8
ATOM      8  C   LIG d   1     -15.116  61.698 117.868  0.00  0.00     0.119 C 
BRANCH   8   9
ATOM      9  C   LIG d   1     -15.650  60.357 117.329  0.00  0.00     0.028 C 
ATOM     10  C   LIG d   1     -16.952  59.922 118.023  0.00  0.00     0.006 C 
ENDBRANCH   8   9
BRANCH   8  11
ATOM     11  C   LIG d   1     -16.034  62.058 119.040  0.00  0.00     0.028 C 
ATOM     12  C   LIG d   1     -15.258  62.518 120.285  0.00  0.00     0.006 C 
ENDBRANCH   8  11
ENDBRANCH   7   8
ENDBRANCH   1   7
BRANCH   6  13
ATOM     13  N   LIG d   1     -15.408  65.396 118.069  0.00  0.00    -0.311 N 
ATOM     14  C   LIG d   1     -14.297  66.114 118.220  0.00  0.00     0.210 C 
ATOM     15  C   LIG d   1     -13.897  66.388 119.674  0.00  0.00     0.109 C 
ATOM     16  O   LIG d   1     -13.622  66.578 117.289  0.00  0.00    -0.276 OA
ATOM     17  H   LIG d   1     -15.910  65.088 118.878  0.00  0.00     0.149 HD
ENDBRANCH   6  13
BRANCH   5  18
ATOM     18  N   LIG d   1     -16.730  67.315 116.093  0.00  0.00     0.381 N 
ATOM     19  H   LIG d   1     -16.617  67.769 116.977  0.00  0.00    -0.090 HD
ATOM     20  H   LIG d   1     -17.458  67.788 115.587  0.00  0.00    -0.090 HD
ATOM     21  H   LIG d   1     -15.878  67.355 115.579  0.00  0.00    -0.090 HD
ENDBRANCH   5  18
BRANCH   3  22
ATOM     22  C   LIG d   1     -19.016  63.557 114.199  0.00  0.00     0.382 C 
ATOM     23  O   LIG d   1     -19.967  64.318 113.898  0.00  0.00    -0.241 OA
ATOM     24  O   LIG d   1     -19.028  62.375 113.805  0.00  0.00    -0.241 OA
ENDBRANCH   3  22
TORSDOF 7
ENDMDL
MODEL 9
REMARK VINA RESULT:      -4.5      2.482      4.424
REMARK  7 active torsions:
REMARK  status: ('A' for Active; 'I' for Inactive)
REMARK    1  A    between atoms: C_2  and  C_3 
REMARK    2  A    between atoms: C_3  and  O_6 
REMARK    3  A    between atoms: C_3  and  C_4 
REMARK    4  A    between atoms: C_7  and  O_6 
REMARK    5  A    between atoms: C_9  and  C_10 
REMARK    6  A    between atoms: N_15  and  C_14 
REMARK    7  A    between atoms: N_20  and  C_19 
REMARK       I    between atoms: C_22  and  N_20 
ROOT
ATOM      1  C   LIG d   1      -5.594  93.235 119.715  0.00  0.00     0.161 C 
ATOM      2  C   LIG d   1      -4.483  92.464 119.335  0.00  0.00     0.016 C 
ATOM      3  C   LIG d   1      -4.368  91.831 118.077  0.00  0.00     0.038 C 
ATOM      4  C   LIG d   1      -5.297  92.051 117.049  0.00  0.00     0.028 C 
ATOM      5  C   LIG d   1      -6.689  92.413 117.557  0.00  0.00    -0.047 C 
ATOM      6  C   LIG d   1      -6.566  93.577 118.567  0.00  0.00     0.091 C 
ENDROOT
BRANCH   1   7
ATOM      7  O   LIG d   1      -5.153  94.438 120.374  0.00  0.00    -0.368 OA
BRANCH   7   8
ATOM      8  C   LIG d   1      -4.674  95.499 119.510  0.00  0.00     0.119 C 
BRANCH   8   9
ATOM      9  C   LIG d   1      -3.171  95.685 119.794  0.00  0.00     0.028 C 
ATOM     10  C   LIG d   1      -2.293  95.268 118.602  0.00  0.00     0.006 C 
ENDBRANCH   8   9
BRANCH   8  11
ATOM     11  C   LIG d   1      -5.323  96.840 119.863  0.00  0.00     0.028 C 
ATOM     12  C   LIG d   1      -4.796  98.001 119.005  0.00  0.00     0.006 C 
ENDBRANCH   8  11
ENDBRANCH   7   8
ENDBRANCH   1   7
BRANCH   6  13
ATOM     13  N   LIG d   1      -7.873  93.939 119.176  0.00  0.00    -0.311 N 
ATOM     14  C   LIG d   1      -8.524  95.067 118.899  0.00  0.00     0.210 C 
ATOM     15  C   LIG d   1      -9.845  95.253 119.652  0.00  0.00     0.109 C 
ATOM     16  O   LIG d   1      -8.149  95.917 118.077  0.00  0.00    -0.276 OA
ATOM     17  H   LIG d   1      -8.265  93.291 119.831  0.00  0.00     0.149 HD
ENDBRANCH   6  13
BRANCH   5  18
ATOM     18  N   LIG d   1      -7.518  92.750 116.384  0.00  0.00     0.381 N 
ATOM     19  H   LIG d   1      -8.400  93.112 116.686  0.00  0.00    -0.090 HD
ATOM     20  H   LIG d   1      -7.685  91.913 115.854  0.00  0.00    -0.090 HD
ATOM     21  H   LIG d   1      -7.050  93.423 115.818  0.00  0.00    -0.090 HD
ENDBRANCH   5  18
BRANCH   3  22
ATOM     22  C   LIG d   1      -3.335  90.934 117.850  0.00  0.00     0.382 C 
ATOM     23  O   LIG d   1      -3.524  89.705 118.019  0.00  0.00    -0.241 OA
ATOM     24  O   LIG d   1      -2.205  91.342 117.522  0.00  0.00    -0.241 OA
ENDBRANCH   3  22
TORSDOF 7
ENDMDL
