MODEL 1
REMARK VINA RESULT:      -5.3      0.000      0.000
REMARK  7 active torsions:
REMARK  status: ('A' for Active; 'I' for Inactive)
REMARK    1  A    between atoms: C_2  and  C_3 
REMARK    2  A    between atoms: C_3  and  O_6 
REMARK    3  A    between atoms: C_3  and  C_4 
REMARK    4  A    between atoms: C_7  and  O_6 
REMARK    5  A    between atoms: C_9  and  C_10 
REMARK    6  A    between atoms: N_15  and  C_14 
REMARK    7  A    between atoms: N_20  and  C_19 
REMARK       I    between atoms: C_22  and  N_20 
ROOT
ATOM      1  C   LIG d   1      -6.003  78.782 117.494  0.00  0.00     0.161 C 
ATOM      2  C   LIG d   1      -7.376  78.586 117.719  0.00  0.00     0.016 C 
ATOM      3  C   LIG d   1      -8.278  79.639 117.995  0.00  0.00     0.038 C 
ATOM      4  C   LIG d   1      -7.891  80.986 117.916  0.00  0.00     0.028 C 
ATOM      5  C   LIG d   1      -6.408  81.207 118.189  0.00  0.00    -0.047 C 
ATOM      6  C   LIG d   1      -5.584  80.253 117.294  0.00  0.00     0.091 C 
ENDROOT
BRANCH   1   7
ATOM      7  O   LIG d   1      -5.572  77.981 116.376  0.00  0.00    -0.368 OA
BRANCH   7   8
ATOM      8  C   LIG d   1      -5.809  76.556 116.483  0.00  0.00     0.119 C 
BRANCH   8   9
ATOM      9  C   LIG d   1      -4.434  75.864 116.570  0.00  0.00     0.028 C 
ATOM     10  C   LIG d   1      -4.473  74.588 117.427  0.00  0.00     0.006 C 
ENDBRANCH   8   9
BRANCH   8  11
ATOM     11  C   LIG d   1      -6.462  76.002 115.213  0.00  0.00     0.028 C 
ATOM     12  C   LIG d   1      -5.462  75.814 114.062  0.00  0.00     0.006 C 
ENDBRANCH   8  11
ENDBRANCH   7   8
ENDBRANCH   1   7
BRANCH   6  13
ATOM     13  N   LIG d   1      -4.125  80.345 117.559  0.00  0.00    -0.311 N 
ATOM     14  C   LIG d   1      -3.224  80.615 116.616  0.00  0.00     0.210 C 
ATOM     15  C   LIG d   1      -1.771  80.644 117.099  0.00  0.00     0.109 C 
ATOM     16  O   LIG d   1      -3.494  80.865 115.431  0.00  0.00    -0.276 OA
ATOM     17  H   LIG d   1      -3.821  80.187 118.500  0.00  0.00     0.149 HD
ENDBRANCH   6  13
BRANCH   5  18
ATOM     18  N   LIG d   1      -6.116  82.631 117.939  0.00  0.00     0.381 N 
ATOM     19  H   LIG d   1      -5.372  82.935 118.535  0.00  0.00    -0.090 HD
ATOM     20  H   LIG d   1      -6.934  83.173 118.155  0.00  0.00    -0.090 HD
ATOM     21  H   LIG d   1      -5.863  82.765 116.985  0.00  0.00    -0.090 HD
ENDBRANCH   5  18
BRANCH   3  22
ATOM     22  C   LIG d   1      -9.573  79.348 118.395  0.00  0.00     0.382 C 
ATOM     23  O   LIG d   1     -10.077  78.231 118.124  0.00  0.00    -0.241 OA
ATOM     24  O   LIG d   1     -10.260  80.204 118.983  0.00  0.00    -0.241 OA
ENDBRANCH   3  22
TORSDOF 7
ENDMDL
MODEL 2
REMARK VINA RESULT:      -5.0      2.899      4.476
REMARK  7 active torsions:
REMARK  status: ('A' for Active; 'I' for Inactive)
REMARK    1  A    between atoms: C_2  and  C_3 
REMARK    2  A    between atoms: C_3  and  O_6 
REMARK    3  A    between atoms: C_3  and  C_4 
REMARK    4  A    between atoms: C_7  and  O_6 
REMARK    5  A    between atoms: C_9  and  C_10 
REMARK    6  A    between atoms: N_15  and  C_14 
REMARK    7  A    between atoms: N_20  and  C_19 
REMARK       I    between atoms: C_22  and  N_20 
ROOT
ATOM      1  C   LIG d   1      -4.196  75.792 117.806  0.00  0.00     0.161 C 
ATOM      2  C   LIG d   1      -5.273  76.672 117.609  0.00  0.00     0.016 C 
ATOM      3  C   LIG d   1      -5.112  78.042 117.298  0.00  0.00     0.038 C 
ATOM      4  C   LIG d   1      -3.854  78.594 117.013  0.00  0.00     0.028 C 
ATOM      5  C   LIG d   1      -2.702  77.862 117.693  0.00  0.00    -0.047 C 
ATOM      6  C   LIG d   1      -2.819  76.351 117.390  0.00  0.00     0.091 C 
ENDROOT
BRANCH   1   7
ATOM      7  O   LIG d   1      -4.455  74.544 117.132  0.00  0.00    -0.368 OA
BRANCH   7   8
ATOM      8  C   LIG d   1      -5.488  74.571 116.116  0.00  0.00     0.119 C 
BRANCH   8   9
ATOM      9  C   LIG d   1      -6.199  73.204 116.144  0.00  0.00     0.028 C 
ATOM     10  C   LIG d   1      -5.695  72.303 117.283  0.00  0.00     0.006 C 
ENDBRANCH   8   9
BRANCH   8  11
ATOM     11  C   LIG d   1      -4.886  74.687 114.712  0.00  0.00     0.028 C 
ATOM     12  C   LIG d   1      -5.452  75.874 113.918  0.00  0.00     0.006 C 
ENDBRANCH   8  11
ENDBRANCH   7   8
ENDBRANCH   1   7
BRANCH   6  13
ATOM     13  N   LIG d   1      -1.779  75.550 118.087  0.00  0.00    -0.311 N 
ATOM     14  C   LIG d   1      -1.074  74.589 117.494  0.00  0.00     0.210 C 
ATOM     15  C   LIG d   1      -0.066  73.874 118.399  0.00  0.00     0.109 C 
ATOM     16  O   LIG d   1      -1.164  74.283 116.295  0.00  0.00    -0.276 OA
ATOM     17  H   LIG d   1      -1.619  75.754 119.054  0.00  0.00     0.149 HD
ENDBRANCH   6  13
BRANCH   5  18
ATOM     18  N   LIG d   1      -1.445  78.455 117.202  0.00  0.00     0.381 N 
ATOM     19  H   LIG d   1      -0.739  78.386 117.907  0.00  0.00    -0.090 HD
ATOM     20  H   LIG d   1      -1.599  79.428 117.004  0.00  0.00    -0.090 HD
ATOM     21  H   LIG d   1      -1.146  77.984 116.376  0.00  0.00    -0.090 HD
ENDBRANCH   5  18
BRANCH   3  22
ATOM     22  C   LIG d   1      -6.214  78.883 117.310  0.00  0.00     0.382 C 
ATOM     23  O   LIG d   1      -6.078  80.097 117.021  0.00  0.00    -0.241 OA
ATOM     24  O   LIG d   1      -7.333  78.454 117.648  0.00  0.00    -0.241 OA
ENDBRANCH   3  22
TORSDOF 7
ENDMDL
MODEL 3
REMARK VINA RESULT:      -4.8      5.079      7.217
REMARK  7 active torsions:
REMARK  status: ('A' for Active; 'I' for Inactive)
REMARK    1  A    between atoms: C_2  and  C_3 
REMARK    2  A    between atoms: C_3  and  O_6 
REMARK    3  A    between atoms: C_3  and  C_4 
REMARK    4  A    between atoms: C_7  and  O_6 
REMARK    5  A    between atoms: C_9  and  C_10 
REMARK    6  A    between atoms: N_15  and  C_14 
REMARK    7  A    between atoms: N_20  and  C_19 
REMARK       I    between atoms: C_22  and  N_20 
ROOT
ATOM      1  C   LIG d   1      -0.914  77.179 115.793  0.00  0.00     0.161 C 
ATOM      2  C   LIG d   1      -2.227  77.016 115.322  0.00  0.00     0.016 C 
ATOM      3  C   LIG d   1      -3.009  75.867 115.579  0.00  0.00     0.038 C 
ATOM      4  C   LIG d   1      -2.581  74.860 116.457  0.00  0.00     0.028 C 
ATOM      5  C   LIG d   1      -1.064  74.744 116.553  0.00  0.00    -0.047 C 
ATOM      6  C   LIG d   1      -0.471  76.141 116.846  0.00  0.00     0.091 C 
ENDROOT
BRANCH   1   7
ATOM      7  O   LIG d   1      -0.740  78.516 116.304  0.00  0.00    -0.368 OA
BRANCH   7   8
ATOM      8  C   LIG d   1      -0.379  79.527 115.331  0.00  0.00     0.119 C 
BRANCH   8   9
ATOM      9  C   LIG d   1       1.034  80.028 115.687  0.00  0.00     0.028 C 
ATOM     10  C   LIG d   1       1.632  80.926 114.591  0.00  0.00     0.006 C 
ENDBRANCH   8   9
BRANCH   8  11
ATOM     11  C   LIG d   1      -1.285  80.757 115.444  0.00  0.00     0.028 C 
ATOM     12  C   LIG d   1      -2.505  80.686 114.511  0.00  0.00     0.006 C 
ENDBRANCH   8  11
ENDBRANCH   7   8
ENDBRANCH   1   7
BRANCH   6  13
ATOM     13  N   LIG d   1       1.015  76.132 116.871  0.00  0.00    -0.311 N 
ATOM     14  C   LIG d   1       1.733  76.587 117.897  0.00  0.00     0.210 C 
ATOM     15  C   LIG d   1       3.251  76.504 117.710  0.00  0.00     0.109 C 
ATOM     16  O   LIG d   1       1.257  77.022 118.956  0.00  0.00    -0.276 OA
ATOM     17  H   LIG d   1       1.483  75.768 116.065  0.00  0.00     0.149 HD
ENDBRANCH   6  13
BRANCH   5  18
ATOM     18  N   LIG d   1      -0.758  73.754 117.603  0.00  0.00     0.381 N 
ATOM     19  H   LIG d   1      -0.488  72.887 117.183  0.00  0.00    -0.090 HD
ATOM     20  H   LIG d   1      -1.585  73.596 118.151  0.00  0.00    -0.090 HD
ATOM     21  H   LIG d   1      -0.023  74.092 118.186  0.00  0.00    -0.090 HD
ENDBRANCH   5  18
BRANCH   3  22
ATOM     22  C   LIG d   1      -4.218  75.697 114.921  0.00  0.00     0.382 C 
ATOM     23  O   LIG d   1      -4.911  76.697 114.615  0.00  0.00    -0.241 OA
ATOM     24  O   LIG d   1      -4.645  74.554 114.669  0.00  0.00    -0.241 OA
ENDBRANCH   3  22
TORSDOF 7
ENDMDL
MODEL 4
REMARK VINA RESULT:      -4.8     11.093     13.627
REMARK  7 active torsions:
REMARK  status: ('A' for Active; 'I' for Inactive)
REMARK    1  A    between atoms: C_2  and  C_3 
REMARK    2  A    between atoms: C_3  and  O_6 
REMARK    3  A    between atoms: C_3  and  C_4 
REMARK    4  A    between atoms: C_7  and  O_6 
REMARK    5  A    between atoms: C_9  and  C_10 
REMARK    6  A    between atoms: N_15  and  C_14 
REMARK    7  A    between atoms: N_20  and  C_19 
REMARK       I    between atoms: C_22  and  N_20 
ROOT
ATOM      1  C   LIG d   1      -0.643  90.432 117.317  0.00  0.00     0.161 C 
ATOM      2  C   LIG d   1       0.504  90.887 117.988  0.00  0.00     0.016 C 
ATOM      3  C   LIG d   1       0.485  91.927 118.945  0.00  0.00     0.038 C 
ATOM      4  C   LIG d   1      -0.715  92.484 119.410  0.00  0.00     0.028 C 
ATOM      5  C   LIG d   1      -1.852  92.408 118.396  0.00  0.00    -0.047 C 
ATOM      6  C   LIG d   1      -1.977  90.952 117.893  0.00  0.00     0.091 C 
ENDROOT
BRANCH   1   7
ATOM      7  O   LIG d   1      -0.645  88.991 117.273  0.00  0.00    -0.368 OA
BRANCH   7   8
ATOM      8  C   LIG d   1       0.655  88.352 117.277  0.00  0.00     0.119 C 
BRANCH   8   9
ATOM      9  C   LIG d   1       0.995  87.983 115.820  0.00  0.00     0.028 C 
ATOM     10  C   LIG d   1       2.226  88.739 115.294  0.00  0.00     0.006 C 
ENDBRANCH   8   9
BRANCH   8  11
ATOM     11  C   LIG d   1       0.620  87.022 118.035  0.00  0.00     0.028 C 
ATOM     12  C   LIG d   1       1.127  87.146 119.480  0.00  0.00     0.006 C 
ENDBRANCH   8  11
ENDBRANCH   7   8
ENDBRANCH   1   7
BRANCH   6  13
ATOM     13  N   LIG d   1      -3.011  90.806 116.835  0.00  0.00    -0.311 N 
ATOM     14  C   LIG d   1      -4.279  90.484 117.088  0.00  0.00     0.210 C 
ATOM     15  C   LIG d   1      -5.175  90.365 115.851  0.00  0.00     0.109 C 
ATOM     16  O   LIG d   1      -4.753  90.317 118.221  0.00  0.00    -0.276 OA
ATOM     17  H   LIG d   1      -2.720  90.954 115.888  0.00  0.00     0.149 HD
ENDBRANCH   6  13
BRANCH   5  18
ATOM     18  N   LIG d   1      -3.075  92.898 119.060  0.00  0.00     0.381 N 
ATOM     19  H   LIG d   1      -3.798  92.210 118.988  0.00  0.00    -0.090 HD
ATOM     20  H   LIG d   1      -3.385  93.732 118.594  0.00  0.00    -0.090 HD
ATOM     21  H   LIG d   1      -2.887  93.094 120.018  0.00  0.00    -0.090 HD
ENDBRANCH   5  18
BRANCH   3  22
ATOM     22  C   LIG d   1       1.680  92.447 119.418  0.00  0.00     0.382 C 
ATOM     23  O   LIG d   1       1.693  93.135 120.467  0.00  0.00    -0.241 OA
ATOM     24  O   LIG d   1       2.739  92.275 118.785  0.00  0.00    -0.241 OA
ENDBRANCH   3  22
TORSDOF 7
ENDMDL
MODEL 5
REMARK VINA RESULT:      -4.7      4.562      6.895
REMARK  7 active torsions:
REMARK  status: ('A' for Active; 'I' for Inactive)
REMARK    1  A    between atoms: C_2  and  C_3 
REMARK    2  A    between atoms: C_3  and  O_6 
REMARK    3  A    between atoms: C_3  and  C_4 
REMARK    4  A    between atoms: C_7  and  O_6 
REMARK    5  A    between atoms: C_9  and  C_10 
REMARK    6  A    between atoms: N_15  and  C_14 
REMARK    7  A    between atoms: N_20  and  C_19 
REMARK       I    between atoms: C_22  and  N_20 
ROOT
ATOM      1  C   LIG d   1      -0.991  77.203 115.892  0.00  0.00     0.161 C 
ATOM      2  C   LIG d   1      -2.309  77.030 115.437  0.00  0.00     0.016 C 
ATOM      3  C   LIG d   1      -3.062  75.855 115.661  0.00  0.00     0.038 C 
ATOM      4  C   LIG d   1      -2.597  74.824 116.492  0.00  0.00     0.028 C 
ATOM      5  C   LIG d   1      -1.076  74.737 116.556  0.00  0.00    -0.047 C 
ATOM      6  C   LIG d   1      -0.507  76.134 116.894  0.00  0.00     0.091 C 
ENDROOT
BRANCH   1   7
ATOM      7  O   LIG d   1      -0.836  78.521 116.452  0.00  0.00    -0.368 OA
BRANCH   7   8
ATOM      8  C   LIG d   1      -2.034  79.127 116.998  0.00  0.00     0.119 C 
BRANCH   8   9
ATOM      9  C   LIG d   1      -2.026  80.614 116.595  0.00  0.00     0.028 C 
ATOM     10  C   LIG d   1      -3.443  81.205 116.506  0.00  0.00     0.006 C 
ENDBRANCH   8   9
BRANCH   8  11
ATOM     11  C   LIG d   1      -2.013  79.121 118.529  0.00  0.00     0.028 C 
ATOM     12  C   LIG d   1      -2.938  78.054 119.134  0.00  0.00     0.006 C 
ENDBRANCH   8  11
ENDBRANCH   7   8
ENDBRANCH   1   7
BRANCH   6  13
ATOM     13  N   LIG d   1       0.979  76.156 116.893  0.00  0.00    -0.311 N 
ATOM     14  C   LIG d   1       1.706  76.593 117.920  0.00  0.00     0.210 C 
ATOM     15  C   LIG d   1       3.222  76.549 117.704  0.00  0.00     0.109 C 
ATOM     16  O   LIG d   1       1.240  76.983 119.001  0.00  0.00    -0.276 OA
ATOM     17  H   LIG d   1       1.440  75.828 116.067  0.00  0.00     0.149 HD
ENDBRANCH   6  13
BRANCH   5  18
ATOM     18  N   LIG d   1      -0.730  73.713 117.560  0.00  0.00     0.381 N 
ATOM     19  H   LIG d   1      -0.892  72.800 117.183  0.00  0.00    -0.090 HD
ATOM     20  H   LIG d   1      -1.323  73.832 118.363  0.00  0.00    -0.090 HD
ATOM     21  H   LIG d   1       0.225  73.806 117.826  0.00  0.00    -0.090 HD
ENDBRANCH   5  18
BRANCH   3  22
ATOM     22  C   LIG d   1      -4.279  75.685 115.019  0.00  0.00     0.382 C 
ATOM     23  O   LIG d   1      -5.068  76.653 114.905  0.00  0.00    -0.241 OA
ATOM     24  O   LIG d   1      -4.616  74.565 114.591  0.00  0.00    -0.241 OA
ENDBRANCH   3  22
TORSDOF 7
ENDMDL
MODEL 6
REMARK VINA RESULT:      -4.6      3.617      6.058
REMARK  7 active torsions:
REMARK  status: ('A' for Active; 'I' for Inactive)
REMARK    1  A    between atoms: C_2  and  C_3 
REMARK    2  A    between atoms: C_3  and  O_6 
REMARK    3  A    between atoms: C_3  and  C_4 
REMARK    4  A    between atoms: C_7  and  O_6 
REMARK    5  A    between atoms: C_9  and  C_10 
REMARK    6  A    between atoms: N_15  and  C_14 
REMARK    7  A    between atoms: N_20  and  C_19 
REMARK       I    between atoms: C_22  and  N_20 
ROOT
ATOM      1  C   LIG d   1      -2.648  78.097 115.425  0.00  0.00     0.161 C 
ATOM      2  C   LIG d   1      -3.645  77.109 115.487  0.00  0.00     0.016 C 
ATOM      3  C   LIG d   1      -3.365  75.725 115.565  0.00  0.00     0.038 C 
ATOM      4  C   LIG d   1      -2.059  75.242 115.739  0.00  0.00     0.028 C 
ATOM      5  C   LIG d   1      -0.989  76.170 115.174  0.00  0.00    -0.047 C 
ATOM      6  C   LIG d   1      -1.220  77.595 115.725  0.00  0.00     0.091 C 
ENDROOT
BRANCH   1   7
ATOM      7  O   LIG d   1      -2.989  79.191 116.299  0.00  0.00    -0.368 OA
BRANCH   7   8
ATOM      8  C   LIG d   1      -3.823  78.861 117.437  0.00  0.00     0.119 C 
BRANCH   8   9
ATOM      9  C   LIG d   1      -4.877  79.977 117.577  0.00  0.00     0.028 C 
ATOM     10  C   LIG d   1      -6.313  79.427 117.613  0.00  0.00     0.006 C 
ENDBRANCH   8   9
BRANCH   8  11
ATOM     11  C   LIG d   1      -3.023  78.892 118.742  0.00  0.00     0.028 C 
ATOM     12  C   LIG d   1      -2.567  77.496 119.195  0.00  0.00     0.006 C 
ENDBRANCH   8  11
ENDBRANCH   7   8
ENDBRANCH   1   7
BRANCH   6  13
ATOM     13  N   LIG d   1      -0.267  78.584 115.156  0.00  0.00    -0.311 N 
ATOM     14  C   LIG d   1       0.392  79.476 115.894  0.00  0.00     0.210 C 
ATOM     15  C   LIG d   1       1.310  80.415 115.106  0.00  0.00     0.109 C 
ATOM     16  O   LIG d   1       0.328  79.556 117.130  0.00  0.00    -0.276 OA
ATOM     17  H   LIG d   1      -0.132  78.569 114.164  0.00  0.00     0.149 HD
ENDBRANCH   6  13
BRANCH   5  18
ATOM     18  N   LIG d   1       0.325  75.612 115.545  0.00  0.00     0.381 N 
ATOM     19  H   LIG d   1       0.247  74.625 115.685  0.00  0.00    -0.090 HD
ATOM     20  H   LIG d   1       0.624  76.031 116.408  0.00  0.00    -0.090 HD
ATOM     21  H   LIG d   1       0.991  75.802 114.828  0.00  0.00    -0.090 HD
ENDBRANCH   5  18
BRANCH   3  22
ATOM     22  C   LIG d   1      -4.395  74.807 115.428  0.00  0.00     0.382 C 
ATOM     23  O   LIG d   1      -4.848  74.219 116.440  0.00  0.00    -0.241 OA
ATOM     24  O   LIG d   1      -4.846  74.526 114.302  0.00  0.00    -0.241 OA
ENDBRANCH   3  22
TORSDOF 7
ENDMDL
MODEL 7
REMARK VINA RESULT:      -4.5     10.217     12.667
REMARK  7 active torsions:
REMARK  status: ('A' for Active; 'I' for Inactive)
REMARK    1  A    between atoms: C_2  and  C_3 
REMARK    2  A    between atoms: C_3  and  O_6 
REMARK    3  A    between atoms: C_3  and  C_4 
REMARK    4  A    between atoms: C_7  and  O_6 
REMARK    5  A    between atoms: C_9  and  C_10 
REMARK    6  A    between atoms: N_15  and  C_14 
REMARK    7  A    between atoms: N_20  and  C_19 
REMARK       I    between atoms: C_22  and  N_20 
ROOT
ATOM      1  C   LIG d   1       0.052  89.434 117.194  0.00  0.00     0.161 C 
ATOM      2  C   LIG d   1      -1.343  89.516 117.048  0.00  0.00     0.016 C 
ATOM      3  C   LIG d   1      -2.099  90.653 117.416  0.00  0.00     0.038 C 
ATOM      4  C   LIG d   1      -1.489  91.850 117.819  0.00  0.00     0.028 C 
ATOM      5  C   LIG d   1      -0.120  91.647 118.460  0.00  0.00    -0.047 C 
ATOM      6  C   LIG d   1       0.747  90.771 117.527  0.00  0.00     0.091 C 
ENDROOT
BRANCH   1   7
ATOM      7  O   LIG d   1       0.633  88.848 116.013  0.00  0.00    -0.368 OA
BRANCH   7   8
ATOM      8  C   LIG d   1       1.106  87.485 116.144  0.00  0.00     0.119 C 
BRANCH   8   9
ATOM      9  C   LIG d   1       2.563  87.449 115.642  0.00  0.00     0.028 C 
ATOM     10  C   LIG d   1       2.869  88.585 114.651  0.00  0.00     0.006 C 
ENDBRANCH   8   9
BRANCH   8  11
ATOM     11  C   LIG d   1       0.336  86.536 115.221  0.00  0.00     0.028 C 
ATOM     12  C   LIG d   1      -0.939  85.976 115.872  0.00  0.00     0.006 C 
ENDBRANCH   8  11
ENDBRANCH   7   8
ENDBRANCH   1   7
BRANCH   6  13
ATOM     13  N   LIG d   1       2.073  90.454 118.118  0.00  0.00    -0.311 N 
ATOM     14  C   LIG d   1       3.227  90.839 117.577  0.00  0.00     0.210 C 
ATOM     15  C   LIG d   1       4.479  90.389 118.337  0.00  0.00     0.109 C 
ATOM     16  O   LIG d   1       3.333  91.539 116.558  0.00  0.00    -0.276 OA
ATOM     17  H   LIG d   1       2.079  89.917 118.963  0.00  0.00     0.149 HD
ENDBRANCH   6  13
BRANCH   5  18
ATOM     18  N   LIG d   1       0.460  92.981 118.705  0.00  0.00     0.381 N 
ATOM     19  H   LIG d   1       0.279  93.578 117.922  0.00  0.00    -0.090 HD
ATOM     20  H   LIG d   1       1.455  92.889 118.807  0.00  0.00    -0.090 HD
ATOM     21  H   LIG d   1       0.068  93.377 119.531  0.00  0.00    -0.090 HD
ENDBRANCH   5  18
BRANCH   3  22
ATOM     22  C   LIG d   1      -3.484  90.585 117.422  0.00  0.00     0.382 C 
ATOM     23  O   LIG d   1      -4.075  89.775 116.668  0.00  0.00    -0.241 OA
ATOM     24  O   LIG d   1      -4.151  91.353 118.140  0.00  0.00    -0.241 OA
ENDBRANCH   3  22
TORSDOF 7
ENDMDL
MODEL 8
REMARK VINA RESULT:      -4.4      4.258      5.645
REMARK  7 active torsions:
REMARK  status: ('A' for Active; 'I' for Inactive)
REMARK    1  A    between atoms: C_2  and  C_3 
REMARK    2  A    between atoms: C_3  and  O_6 
REMARK    3  A    between atoms: C_3  and  C_4 
REMARK    4  A    between atoms: C_7  and  O_6 
REMARK    5  A    between atoms: C_9  and  C_10 
REMARK    6  A    between atoms: N_15  and  C_14 
REMARK    7  A    between atoms: N_20  and  C_19 
REMARK       I    between atoms: C_22  and  N_20 
ROOT
ATOM      1  C   LIG d   1      -2.854  77.171 116.739  0.00  0.00     0.161 C 
ATOM      2  C   LIG d   1      -3.343  78.378 116.212  0.00  0.00     0.016 C 
ATOM      3  C   LIG d   1      -2.511  79.459 115.840  0.00  0.00     0.038 C 
ATOM      4  C   LIG d   1      -1.112  79.348 115.830  0.00  0.00     0.028 C 
ATOM      5  C   LIG d   1      -0.578  78.329 116.831  0.00  0.00    -0.047 C 
ATOM      6  C   LIG d   1      -1.325  76.991 116.631  0.00  0.00     0.091 C 
ENDROOT
BRANCH   1   7
ATOM      7  O   LIG d   1      -3.535  76.059 116.126  0.00  0.00    -0.368 OA
BRANCH   7   8
ATOM      8  C   LIG d   1      -4.789  75.664 116.735  0.00  0.00     0.119 C 
BRANCH   8   9
ATOM      9  C   LIG d   1      -4.498  74.464 117.657  0.00  0.00     0.028 C 
ATOM     10  C   LIG d   1      -5.254  73.196 117.226  0.00  0.00     0.006 C 
ENDBRANCH   8   9
BRANCH   8  11
ATOM     11  C   LIG d   1      -5.777  75.141 115.688  0.00  0.00     0.028 C 
ATOM     12  C   LIG d   1      -5.439  75.610 114.264  0.00  0.00     0.006 C 
ENDBRANCH   8  11
ENDBRANCH   7   8
ENDBRANCH   1   7
BRANCH   6  13
ATOM     13  N   LIG d   1      -0.923  75.963 117.626  0.00  0.00    -0.311 N 
ATOM     14  C   LIG d   1      -0.725  74.682 117.318  0.00  0.00     0.210 C 
ATOM     15  C   LIG d   1      -0.334  73.786 118.498  0.00  0.00     0.109 C 
ATOM     16  O   LIG d   1      -0.804  74.209 116.174  0.00  0.00    -0.276 OA
ATOM     17  H   LIG d   1      -0.805  76.266 118.573  0.00  0.00     0.149 HD
ENDBRANCH   6  13
BRANCH   5  18
ATOM     18  N   LIG d   1       0.877  78.215 116.617  0.00  0.00     0.381 N 
ATOM     19  H   LIG d   1       1.204  77.338 116.971  0.00  0.00    -0.090 HD
ATOM     20  H   LIG d   1       1.338  78.951 117.124  0.00  0.00    -0.090 HD
ATOM     21  H   LIG d   1       1.086  78.289 115.646  0.00  0.00    -0.090 HD
ENDBRANCH   5  18
BRANCH   3  22
ATOM     22  C   LIG d   1      -3.077  80.681 115.511  0.00  0.00     0.382 C 
ATOM     23  O   LIG d   1      -4.087  81.092 116.133  0.00  0.00    -0.241 OA
ATOM     24  O   LIG d   1      -2.618  81.358 114.572  0.00  0.00    -0.241 OA
ENDBRANCH   3  22
TORSDOF 7
ENDMDL
MODEL 9
REMARK VINA RESULT:      -4.4      1.741      2.267
REMARK  7 active torsions:
REMARK  status: ('A' for Active; 'I' for Inactive)
REMARK    1  A    between atoms: C_2  and  C_3 
REMARK    2  A    between atoms: C_3  and  O_6 
REMARK    3  A    between atoms: C_3  and  C_4 
REMARK    4  A    between atoms: C_7  and  O_6 
REMARK    5  A    between atoms: C_9  and  C_10 
REMARK    6  A    between atoms: N_15  and  C_14 
REMARK    7  A    between atoms: N_20  and  C_19 
REMARK       I    between atoms: C_22  and  N_20 
ROOT
ATOM      1  C   LIG d   1      -4.658  77.816 117.131  0.00  0.00     0.161 C 
ATOM      2  C   LIG d   1      -6.004  78.191 117.276  0.00  0.00     0.016 C 
ATOM      3  C   LIG d   1      -6.417  79.513 117.563  0.00  0.00     0.038 C 
ATOM      4  C   LIG d   1      -5.513  80.585 117.576  0.00  0.00     0.028 C 
ATOM      5  C   LIG d   1      -4.089  80.173 117.935  0.00  0.00    -0.047 C 
ATOM      6  C   LIG d   1      -3.666  78.993 117.032  0.00  0.00     0.091 C 
ENDROOT
BRANCH   1   7
ATOM      7  O   LIG d   1      -4.515  76.941 115.994  0.00  0.00    -0.368 OA
BRANCH   7   8
ATOM      8  C   LIG d   1      -4.863  75.552 116.210  0.00  0.00     0.119 C 
BRANCH   8   9
ATOM      9  C   LIG d   1      -3.582  74.816 116.647  0.00  0.00     0.028 C 
ATOM     10  C   LIG d   1      -2.356  75.226 115.813  0.00  0.00     0.006 C 
ENDBRANCH   8   9
BRANCH   8  11
ATOM     11  C   LIG d   1      -5.295  74.876 114.906  0.00  0.00     0.028 C 
ATOM     12  C   LIG d   1      -5.661  75.884 113.805  0.00  0.00     0.006 C 
ENDBRANCH   8  11
ENDBRANCH   7   8
ENDBRANCH   1   7
BRANCH   6  13
ATOM     13  N   LIG d   1      -2.316  78.473 117.374  0.00  0.00    -0.311 N 
ATOM     14  C   LIG d   1      -1.205  78.844 116.740  0.00  0.00     0.210 C 
ATOM     15  C   LIG d   1       0.079  78.172 117.238  0.00  0.00     0.109 C 
ATOM     16  O   LIG d   1      -1.156  79.690 115.834  0.00  0.00    -0.276 OA
ATOM     17  H   LIG d   1      -2.260  77.805 118.118  0.00  0.00     0.149 HD
ENDBRANCH   6  13
BRANCH   5  18
ATOM     18  N   LIG d   1      -3.228  81.361 117.776  0.00  0.00     0.381 N 
ATOM     19  H   LIG d   1      -2.802  81.352 116.871  0.00  0.00    -0.090 HD
ATOM     20  H   LIG d   1      -2.500  81.329 118.468  0.00  0.00    -0.090 HD
ATOM     21  H   LIG d   1      -3.768  82.191 117.889  0.00  0.00    -0.090 HD
ENDBRANCH   5  18
BRANCH   3  22
ATOM     22  C   LIG d   1      -7.743  79.765 117.881  0.00  0.00     0.382 C 
ATOM     23  O   LIG d   1      -8.307  80.796 117.443  0.00  0.00    -0.241 OA
ATOM     24  O   LIG d   1      -8.369  78.997 118.636  0.00  0.00    -0.241 OA
ENDBRANCH   3  22
TORSDOF 7
ENDMDL
