MODEL 1
REMARK VINA RESULT:      -5.1      0.000      0.000
REMARK  7 active torsions:
REMARK  status: ('A' for Active; 'I' for Inactive)
REMARK    1  A    between atoms: C_2  and  C_3 
REMARK    2  A    between atoms: C_3  and  O_6 
REMARK    3  A    between atoms: C_3  and  C_4 
REMARK    4  A    between atoms: C_7  and  O_6 
REMARK    5  A    between atoms: C_9  and  C_10 
REMARK    6  A    between atoms: N_15  and  C_14 
REMARK    7  A    between atoms: N_20  and  C_19 
REMARK       I    between atoms: C_22  and  N_20 
ROOT
ATOM      1  C   LIG d   1      -3.896  75.970 116.951  0.00  0.00     0.161 C 
ATOM      2  C   LIG d   1      -5.135  76.534 117.298  0.00  0.00     0.016 C 
ATOM      3  C   LIG d   1      -5.487  77.874 117.017  0.00  0.00     0.038 C 
ATOM      4  C   LIG d   1      -4.675  78.704 116.229  0.00  0.00     0.028 C 
ATOM      5  C   LIG d   1      -3.196  78.336 116.288  0.00  0.00    -0.047 C 
ATOM      6  C   LIG d   1      -3.042  76.826 115.993  0.00  0.00     0.091 C 
ENDROOT
BRANCH   1   7
ATOM      7  O   LIG d   1      -4.096  74.652 116.402  0.00  0.00    -0.368 OA
BRANCH   7   8
ATOM      8  C   LIG d   1      -5.381  74.410 115.777  0.00  0.00     0.119 C 
BRANCH   8   9
ATOM      9  C   LIG d   1      -5.712  72.917 115.963  0.00  0.00     0.028 C 
ATOM     10  C   LIG d   1      -6.651  72.667 117.155  0.00  0.00     0.006 C 
ENDBRANCH   8   9
BRANCH   8  11
ATOM     11  C   LIG d   1      -5.313  74.625 114.262  0.00  0.00     0.028 C 
ATOM     12  C   LIG d   1      -6.067  75.884 113.805  0.00  0.00     0.006 C 
ENDBRANCH   8  11
ENDBRANCH   7   8
ENDBRANCH   1   7
BRANCH   6  13
ATOM     13  N   LIG d   1      -1.634  76.366 116.114  0.00  0.00    -0.311 N 
ATOM     14  C   LIG d   1      -0.828  76.192 115.068  0.00  0.00     0.210 C 
ATOM     15  C   LIG d   1       0.579  75.692 115.412  0.00  0.00     0.109 C 
ATOM     16  O   LIG d   1      -1.134  76.434 113.891  0.00  0.00    -0.276 OA
ATOM     17  H   LIG d   1      -1.293  76.176 117.036  0.00  0.00     0.149 HD
ENDBRANCH   6  13
BRANCH   5  18
ATOM     18  N   LIG d   1      -2.485  79.190 115.317  0.00  0.00     0.381 N 
ATOM     19  H   LIG d   1      -1.642  78.739 115.023  0.00  0.00    -0.090 HD
ATOM     20  H   LIG d   1      -2.240  80.056 115.764  0.00  0.00    -0.090 HD
ATOM     21  H   LIG d   1      -3.068  79.368 114.529  0.00  0.00    -0.090 HD
ENDBRANCH   5  18
BRANCH   3  22
ATOM     22  C   LIG d   1      -6.644  78.410 117.560  0.00  0.00     0.382 C 
ATOM     23  O   LIG d   1      -7.300  77.756 118.407  0.00  0.00    -0.241 OA
ATOM     24  O   LIG d   1      -7.066  79.519 117.181  0.00  0.00    -0.241 OA
ENDBRANCH   3  22
TORSDOF 7
ENDMDL
MODEL 2
REMARK VINA RESULT:      -5.0      2.683      5.099
REMARK  7 active torsions:
REMARK  status: ('A' for Active; 'I' for Inactive)
REMARK    1  A    between atoms: C_2  and  C_3 
REMARK    2  A    between atoms: C_3  and  O_6 
REMARK    3  A    between atoms: C_3  and  C_4 
REMARK    4  A    between atoms: C_7  and  O_6 
REMARK    5  A    between atoms: C_9  and  C_10 
REMARK    6  A    between atoms: N_15  and  C_14 
REMARK    7  A    between atoms: N_20  and  C_19 
REMARK       I    between atoms: C_22  and  N_20 
ROOT
ATOM      1  C   LIG d   1      -3.341  75.175 115.776  0.00  0.00     0.161 C 
ATOM      2  C   LIG d   1      -2.794  76.454 115.585  0.00  0.00     0.016 C 
ATOM      3  C   LIG d   1      -3.573  77.632 115.519  0.00  0.00     0.038 C 
ATOM      4  C   LIG d   1      -4.948  77.628 115.794  0.00  0.00     0.028 C 
ATOM      5  C   LIG d   1      -5.621  76.293 115.494  0.00  0.00    -0.047 C 
ATOM      6  C   LIG d   1      -4.828  75.163 116.189  0.00  0.00     0.091 C 
ENDROOT
BRANCH   1   7
ATOM      7  O   LIG d   1      -2.550  74.443 116.733  0.00  0.00    -0.368 OA
BRANCH   7   8
ATOM      8  C   LIG d   1      -1.313  75.072 117.151  0.00  0.00     0.119 C 
BRANCH   8   9
ATOM      9  C   LIG d   1      -0.158  74.138 116.744  0.00  0.00     0.028 C 
ATOM     10  C   LIG d   1       0.445  73.391 117.946  0.00  0.00     0.006 C 
ENDBRANCH   8   9
BRANCH   8  11
ATOM     11  C   LIG d   1      -1.231  75.178 118.677  0.00  0.00     0.028 C 
ATOM     12  C   LIG d   1      -2.011  76.379 119.234  0.00  0.00     0.006 C 
ENDBRANCH   8  11
ENDBRANCH   7   8
ENDBRANCH   1   7
BRANCH   6  13
ATOM     13  N   LIG d   1      -5.370  73.815 115.877  0.00  0.00    -0.311 N 
ATOM     14  C   LIG d   1      -6.298  73.209 116.617  0.00  0.00     0.210 C 
ATOM     15  C   LIG d   1      -6.703  71.814 116.130  0.00  0.00     0.109 C 
ATOM     16  O   LIG d   1      -6.846  73.707 117.611  0.00  0.00    -0.276 OA
ATOM     17  H   LIG d   1      -5.003  73.351 115.069  0.00  0.00     0.149 HD
ENDBRANCH   6  13
BRANCH   5  18
ATOM     18  N   LIG d   1      -7.020  76.385 115.954  0.00  0.00     0.381 N 
ATOM     19  H   LIG d   1      -7.120  77.159 116.580  0.00  0.00    -0.090 HD
ATOM     20  H   LIG d   1      -7.254  75.545 116.453  0.00  0.00    -0.090 HD
ATOM     21  H   LIG d   1      -7.629  76.498 115.174  0.00  0.00    -0.090 HD
ENDBRANCH   5  18
BRANCH   3  22
ATOM     22  C   LIG d   1      -2.982  78.827 115.137  0.00  0.00     0.382 C 
ATOM     23  O   LIG d   1      -3.395  79.433 114.119  0.00  0.00    -0.241 OA
ATOM     24  O   LIG d   1      -2.012  79.283 115.771  0.00  0.00    -0.241 OA
ENDBRANCH   3  22
TORSDOF 7
ENDMDL
MODEL 3
REMARK VINA RESULT:      -4.8      2.349      3.328
REMARK  7 active torsions:
REMARK  status: ('A' for Active; 'I' for Inactive)
REMARK    1  A    between atoms: C_2  and  C_3 
REMARK    2  A    between atoms: C_3  and  O_6 
REMARK    3  A    between atoms: C_3  and  C_4 
REMARK    4  A    between atoms: C_7  and  O_6 
REMARK    5  A    between atoms: C_9  and  C_10 
REMARK    6  A    between atoms: N_15  and  C_14 
REMARK    7  A    between atoms: N_20  and  C_19 
REMARK       I    between atoms: C_22  and  N_20 
ROOT
ATOM      1  C   LIG d   1      -6.568  77.698 116.944  0.00  0.00     0.161 C 
ATOM      2  C   LIG d   1      -7.913  77.828 117.332  0.00  0.00     0.016 C 
ATOM      3  C   LIG d   1      -8.394  78.894 118.126  0.00  0.00     0.038 C 
ATOM      4  C   LIG d   1      -7.587  79.991 118.463  0.00  0.00     0.028 C 
ATOM      5  C   LIG d   1      -6.101  79.655 118.520  0.00  0.00    -0.047 C 
ATOM      6  C   LIG d   1      -5.696  78.943 117.209  0.00  0.00     0.091 C 
ENDROOT
BRANCH   1   7
ATOM      7  O   LIG d   1      -6.494  77.321 115.555  0.00  0.00    -0.368 OA
BRANCH   7   8
ATOM      8  C   LIG d   1      -6.521  75.899 115.279  0.00  0.00     0.119 C 
BRANCH   8   9
ATOM      9  C   LIG d   1      -5.802  75.188 116.442  0.00  0.00     0.028 C 
ATOM     10  C   LIG d   1      -6.410  73.810 116.753  0.00  0.00     0.006 C 
ENDBRANCH   8   9
BRANCH   8  11
ATOM     11  C   LIG d   1      -5.704  75.559 114.029  0.00  0.00     0.028 C 
ATOM     12  C   LIG d   1      -4.193  75.499 114.303  0.00  0.00     0.006 C 
ENDBRANCH   8  11
ENDBRANCH   7   8
ENDBRANCH   1   7
BRANCH   6  13
ATOM     13  N   LIG d   1      -4.276  78.504 117.217  0.00  0.00    -0.311 N 
ATOM     14  C   LIG d   1      -3.463  78.634 116.171  0.00  0.00     0.210 C 
ATOM     15  C   LIG d   1      -2.044  78.098 116.385  0.00  0.00     0.109 C 
ATOM     16  O   LIG d   1      -3.772  79.171 115.097  0.00  0.00    -0.276 OA
ATOM     17  H   LIG d   1      -3.933  78.086 118.060  0.00  0.00     0.149 HD
ENDBRANCH   6  13
BRANCH   5  18
ATOM     18  N   LIG d   1      -5.367  80.915 118.745  0.00  0.00     0.381 N 
ATOM     19  H   LIG d   1      -6.002  81.627 119.047  0.00  0.00    -0.090 HD
ATOM     20  H   LIG d   1      -4.952  81.208 117.878  0.00  0.00    -0.090 HD
ATOM     21  H   LIG d   1      -4.659  80.779 119.432  0.00  0.00    -0.090 HD
ENDBRANCH   5  18
BRANCH   3  22
ATOM     22  C   LIG d   1      -9.687  78.849 118.625  0.00  0.00     0.382 C 
ATOM     23  O   LIG d   1     -10.148  79.828 119.261  0.00  0.00    -0.241 OA
ATOM     24  O   LIG d   1     -10.383  77.826 118.486  0.00  0.00    -0.241 OA
ENDBRANCH   3  22
TORSDOF 7
ENDMDL
MODEL 4
REMARK VINA RESULT:      -4.7     13.561     16.031
REMARK  7 active torsions:
REMARK  status: ('A' for Active; 'I' for Inactive)
REMARK    1  A    between atoms: C_2  and  C_3 
REMARK    2  A    between atoms: C_3  and  O_6 
REMARK    3  A    between atoms: C_3  and  C_4 
REMARK    4  A    between atoms: C_7  and  O_6 
REMARK    5  A    between atoms: C_9  and  C_10 
REMARK    6  A    between atoms: N_15  and  C_14 
REMARK    7  A    between atoms: N_20  and  C_19 
REMARK       I    between atoms: C_22  and  N_20 
ROOT
ATOM      1  C   LIG d   1       0.076  90.909 117.341  0.00  0.00     0.161 C 
ATOM      2  C   LIG d   1       1.476  90.818 117.414  0.00  0.00     0.016 C 
ATOM      3  C   LIG d   1       2.269  91.661 118.226  0.00  0.00     0.038 C 
ATOM      4  C   LIG d   1       1.700  92.559 119.141  0.00  0.00     0.028 C 
ATOM      5  C   LIG d   1       0.310  93.037 118.735  0.00  0.00    -0.047 C 
ATOM      6  C   LIG d   1      -0.571  91.807 118.415  0.00  0.00     0.091 C 
ENDROOT
BRANCH   1   7
ATOM      7  O   LIG d   1      -0.501  89.589 117.377  0.00  0.00    -0.368 OA
BRANCH   7   8
ATOM      8  C   LIG d   1       0.028  88.689 118.382  0.00  0.00     0.119 C 
BRANCH   8   9
ATOM      9  C   LIG d   1       0.182  87.303 117.727  0.00  0.00     0.028 C 
ATOM     10  C   LIG d   1       1.503  87.163 116.951  0.00  0.00     0.006 C 
ENDBRANCH   8   9
BRANCH   8  11
ATOM     11  C   LIG d   1      -0.966  88.487 119.529  0.00  0.00     0.028 C 
ATOM     12  C   LIG d   1      -2.420  88.374 119.045  0.00  0.00     0.006 C 
ENDBRANCH   8  11
ENDBRANCH   7   8
ENDBRANCH   1   7
BRANCH   6  13
ATOM     13  N   LIG d   1      -1.922  92.189 117.928  0.00  0.00    -0.311 N 
ATOM     14  C   LIG d   1      -2.994  92.254 118.717  0.00  0.00     0.210 C 
ATOM     15  C   LIG d   1      -4.294  92.649 118.009  0.00  0.00     0.109 C 
ATOM     16  O   LIG d   1      -2.985  92.055 119.941  0.00  0.00    -0.276 OA
ATOM     17  H   LIG d   1      -2.013  92.398 116.954  0.00  0.00     0.149 HD
ENDBRANCH   6  13
BRANCH   5  18
ATOM     18  N   LIG d   1      -0.221  93.856 119.842  0.00  0.00     0.381 N 
ATOM     19  H   LIG d   1      -0.362  94.796 119.530  0.00  0.00    -0.090 HD
ATOM     20  H   LIG d   1       0.452  93.869 120.588  0.00  0.00    -0.090 HD
ATOM     21  H   LIG d   1      -1.081  93.473 120.167  0.00  0.00    -0.090 HD
ENDBRANCH   5  18
BRANCH   3  22
ATOM     22  C   LIG d   1       3.650  91.639 118.098  0.00  0.00     0.382 C 
ATOM     23  O   LIG d   1       4.356  91.140 119.007  0.00  0.00    -0.241 OA
ATOM     24  O   LIG d   1       4.201  92.151 117.105  0.00  0.00    -0.241 OA
ENDBRANCH   3  22
TORSDOF 7
ENDMDL
MODEL 5
REMARK VINA RESULT:      -4.7      2.394      5.131
REMARK  7 active torsions:
REMARK  status: ('A' for Active; 'I' for Inactive)
REMARK    1  A    between atoms: C_2  and  C_3 
REMARK    2  A    between atoms: C_3  and  O_6 
REMARK    3  A    between atoms: C_3  and  C_4 
REMARK    4  A    between atoms: C_7  and  O_6 
REMARK    5  A    between atoms: C_9  and  C_10 
REMARK    6  A    between atoms: N_15  and  C_14 
REMARK    7  A    between atoms: N_20  and  C_19 
REMARK       I    between atoms: C_22  and  N_20 
ROOT
ATOM      1  C   LIG d   1      -3.582  75.692 116.790  0.00  0.00     0.161 C 
ATOM      2  C   LIG d   1      -2.543  74.753 116.903  0.00  0.00     0.016 C 
ATOM      3  C   LIG d   1      -1.572  74.785 117.930  0.00  0.00     0.038 C 
ATOM      4  C   LIG d   1      -1.664  75.678 119.009  0.00  0.00     0.028 C 
ATOM      5  C   LIG d   1      -2.406  76.965 118.668  0.00  0.00    -0.047 C 
ATOM      6  C   LIG d   1      -3.763  76.606 118.020  0.00  0.00     0.091 C 
ENDROOT
BRANCH   1   7
ATOM      7  O   LIG d   1      -4.818  75.019 116.480  0.00  0.00    -0.368 OA
BRANCH   7   8
ATOM      8  C   LIG d   1      -4.779  74.099 115.361  0.00  0.00     0.119 C 
BRANCH   8   9
ATOM      9  C   LIG d   1      -5.344  74.838 114.133  0.00  0.00     0.028 C 
ATOM     10  C   LIG d   1      -6.307  75.972 114.523  0.00  0.00     0.006 C 
ENDBRANCH   8   9
BRANCH   8  11
ATOM     11  C   LIG d   1      -5.717  72.909 115.586  0.00  0.00     0.028 C 
ATOM     12  C   LIG d   1      -6.520  73.021 116.891  0.00  0.00     0.006 C 
ENDBRANCH   8  11
ENDBRANCH   7   8
ENDBRANCH   1   7
BRANCH   6  13
ATOM     13  N   LIG d   1      -4.517  77.809 117.580  0.00  0.00    -0.311 N 
ATOM     14  C   LIG d   1      -5.823  77.970 117.781  0.00  0.00     0.210 C 
ATOM     15  C   LIG d   1      -6.407  79.274 117.229  0.00  0.00     0.109 C 
ATOM     16  O   LIG d   1      -6.548  77.171 118.393  0.00  0.00    -0.276 OA
ATOM     17  H   LIG d   1      -4.000  78.522 117.103  0.00  0.00     0.149 HD
ENDBRANCH   6  13
BRANCH   5  18
ATOM     18  N   LIG d   1      -2.548  77.741 119.915  0.00  0.00     0.381 N 
ATOM     19  H   LIG d   1      -3.517  77.839 120.144  0.00  0.00    -0.090 HD
ATOM     20  H   LIG d   1      -2.163  78.658 119.773  0.00  0.00    -0.090 HD
ATOM     21  H   LIG d   1      -2.068  77.283 120.658  0.00  0.00    -0.090 HD
ENDBRANCH   5  18
BRANCH   3  22
ATOM     22  C   LIG d   1      -0.472  73.944 117.863  0.00  0.00     0.382 C 
ATOM     23  O   LIG d   1       0.208  73.718 118.893  0.00  0.00    -0.241 OA
ATOM     24  O   LIG d   1      -0.125  73.443 116.777  0.00  0.00    -0.241 OA
ENDBRANCH   3  22
TORSDOF 7
ENDMDL
MODEL 6
REMARK VINA RESULT:      -4.7      2.227      4.446
REMARK  7 active torsions:
REMARK  status: ('A' for Active; 'I' for Inactive)
REMARK    1  A    between atoms: C_2  and  C_3 
REMARK    2  A    between atoms: C_3  and  O_6 
REMARK    3  A    between atoms: C_3  and  C_4 
REMARK    4  A    between atoms: C_7  and  O_6 
REMARK    5  A    between atoms: C_9  and  C_10 
REMARK    6  A    between atoms: N_15  and  C_14 
REMARK    7  A    between atoms: N_20  and  C_19 
REMARK       I    between atoms: C_22  and  N_20 
ROOT
ATOM      1  C   LIG d   1      -3.640  75.141 116.058  0.00  0.00     0.161 C 
ATOM      2  C   LIG d   1      -4.494  74.028 115.986  0.00  0.00     0.016 C 
ATOM      3  C   LIG d   1      -5.888  74.101 116.211  0.00  0.00     0.038 C 
ATOM      4  C   LIG d   1      -6.549  75.327 116.376  0.00  0.00     0.028 C 
ATOM      5  C   LIG d   1      -5.660  76.421 116.958  0.00  0.00    -0.047 C 
ATOM      6  C   LIG d   1      -4.359  76.505 116.128  0.00  0.00     0.091 C 
ENDROOT
BRANCH   1   7
ATOM      7  O   LIG d   1      -2.714  75.119 114.954  0.00  0.00    -0.368 OA
BRANCH   7   8
ATOM      8  C   LIG d   1      -1.319  74.925 115.296  0.00  0.00     0.119 C 
BRANCH   8   9
ATOM      9  C   LIG d   1      -1.242  74.704 116.819  0.00  0.00     0.028 C 
ATOM     10  C   LIG d   1      -0.025  73.859 117.229  0.00  0.00     0.006 C 
ENDBRANCH   8   9
BRANCH   8  11
ATOM     11  C   LIG d   1      -0.498  76.189 115.027  0.00  0.00     0.028 C 
ATOM     12  C   LIG d   1      -1.077  77.045 113.889  0.00  0.00     0.006 C 
ENDBRANCH   8  11
ENDBRANCH   7   8
ENDBRANCH   1   7
BRANCH   6  13
ATOM     13  N   LIG d   1      -3.396  77.493 116.681  0.00  0.00    -0.311 N 
ATOM     14  C   LIG d   1      -3.284  78.740 116.227  0.00  0.00     0.210 C 
ATOM     15  C   LIG d   1      -2.215  79.588 116.924  0.00  0.00     0.109 C 
ATOM     16  O   LIG d   1      -3.990  79.235 115.335  0.00  0.00    -0.276 OA
ATOM     17  H   LIG d   1      -2.806  77.185 117.429  0.00  0.00     0.149 HD
ENDBRANCH   6  13
BRANCH   5  18
ATOM     18  N   LIG d   1      -6.434  77.677 116.949  0.00  0.00     0.381 N 
ATOM     19  H   LIG d   1      -6.445  78.075 117.866  0.00  0.00    -0.090 HD
ATOM     20  H   LIG d   1      -7.381  77.473 116.682  0.00  0.00    -0.090 HD
ATOM     21  H   LIG d   1      -6.031  78.321 116.304  0.00  0.00    -0.090 HD
ENDBRANCH   5  18
BRANCH   3  22
ATOM     22  C   LIG d   1      -6.630  72.934 116.311  0.00  0.00     0.382 C 
ATOM     23  O   LIG d   1      -6.197  71.871 115.805  0.00  0.00    -0.241 OA
ATOM     24  O   LIG d   1      -7.747  72.941 116.863  0.00  0.00    -0.241 OA
ENDBRANCH   3  22
TORSDOF 7
ENDMDL
MODEL 7
REMARK VINA RESULT:      -4.4      1.859      4.784
REMARK  7 active torsions:
REMARK  status: ('A' for Active; 'I' for Inactive)
REMARK    1  A    between atoms: C_2  and  C_3 
REMARK    2  A    between atoms: C_3  and  O_6 
REMARK    3  A    between atoms: C_3  and  C_4 
REMARK    4  A    between atoms: C_7  and  O_6 
REMARK    5  A    between atoms: C_9  and  C_10 
REMARK    6  A    between atoms: N_15  and  C_14 
REMARK    7  A    between atoms: N_20  and  C_19 
REMARK       I    between atoms: C_22  and  N_20 
ROOT
ATOM      1  C   LIG d   1      -3.588  75.939 116.281  0.00  0.00     0.161 C 
ATOM      2  C   LIG d   1      -2.444  75.386 115.681  0.00  0.00     0.016 C 
ATOM      3  C   LIG d   1      -1.136  75.873 115.906  0.00  0.00     0.038 C 
ATOM      4  C   LIG d   1      -0.866  76.856 116.869  0.00  0.00     0.028 C 
ATOM      5  C   LIG d   1      -2.044  77.789 117.130  0.00  0.00    -0.047 C 
ATOM      6  C   LIG d   1      -3.302  76.939 117.420  0.00  0.00     0.091 C 
ENDROOT
BRANCH   1   7
ATOM      7  O   LIG d   1      -4.454  74.884 116.746  0.00  0.00    -0.368 OA
BRANCH   7   8
ATOM      8  C   LIG d   1      -5.349  74.313 115.760  0.00  0.00     0.119 C 
BRANCH   8   9
ATOM      9  C   LIG d   1      -6.055  75.480 115.044  0.00  0.00     0.028 C 
ATOM     10  C   LIG d   1      -7.338  75.923 115.768  0.00  0.00     0.006 C 
ENDBRANCH   8   9
BRANCH   8  11
ATOM     11  C   LIG d   1      -6.469  73.507 116.425  0.00  0.00     0.028 C 
ATOM     12  C   LIG d   1      -6.382  72.003 116.123  0.00  0.00     0.006 C 
ENDBRANCH   8  11
ENDBRANCH   7   8
ENDBRANCH   1   7
BRANCH   6  13
ATOM     13  N   LIG d   1      -4.519  77.773 117.604  0.00  0.00    -0.311 N 
ATOM     14  C   LIG d   1      -4.949  78.651 116.699  0.00  0.00     0.210 C 
ATOM     15  C   LIG d   1      -6.212  79.421 117.096  0.00  0.00     0.109 C 
ATOM     16  O   LIG d   1      -4.422  78.842 115.593  0.00  0.00    -0.276 OA
ATOM     17  H   LIG d   1      -5.025  77.659 118.460  0.00  0.00     0.149 HD
ENDBRANCH   6  13
BRANCH   5  18
ATOM     18  N   LIG d   1      -1.672  78.673 118.250  0.00  0.00     0.381 N 
ATOM     19  H   LIG d   1      -1.216  78.142 118.965  0.00  0.00    -0.090 HD
ATOM     20  H   LIG d   1      -2.507  79.073 118.640  0.00  0.00    -0.090 HD
ATOM     21  H   LIG d   1      -1.068  79.397 117.927  0.00  0.00    -0.090 HD
ENDBRANCH   5  18
BRANCH   3  22
ATOM     22  C   LIG d   1      -0.086  75.402 115.132  0.00  0.00     0.382 C 
ATOM     23  O   LIG d   1       1.077  75.833 115.325  0.00  0.00    -0.241 OA
ATOM     24  O   LIG d   1      -0.293  74.586 114.215  0.00  0.00    -0.241 OA
ENDBRANCH   3  22
TORSDOF 7
ENDMDL
MODEL 8
REMARK VINA RESULT:      -4.3      3.536      5.712
REMARK  7 active torsions:
REMARK  status: ('A' for Active; 'I' for Inactive)
REMARK    1  A    between atoms: C_2  and  C_3 
REMARK    2  A    between atoms: C_3  and  O_6 
REMARK    3  A    between atoms: C_3  and  C_4 
REMARK    4  A    between atoms: C_7  and  O_6 
REMARK    5  A    between atoms: C_9  and  C_10 
REMARK    6  A    between atoms: N_15  and  C_14 
REMARK    7  A    between atoms: N_20  and  C_19 
REMARK       I    between atoms: C_22  and  N_20 
ROOT
ATOM      1  C   LIG d   1      -0.131  77.516 115.592  0.00  0.00     0.161 C 
ATOM      2  C   LIG d   1      -1.466  77.521 115.154  0.00  0.00     0.016 C 
ATOM      3  C   LIG d   1      -2.248  76.350 115.029  0.00  0.00     0.038 C 
ATOM      4  C   LIG d   1      -1.792  75.102 115.480  0.00  0.00     0.028 C 
ATOM      5  C   LIG d   1      -0.273  74.969 115.460  0.00  0.00    -0.047 C 
ATOM      6  C   LIG d   1       0.347  76.179 116.195  0.00  0.00     0.091 C 
ENDROOT
BRANCH   1   7
ATOM      7  O   LIG d   1       0.079  78.592 116.528  0.00  0.00    -0.368 OA
BRANCH   7   8
ATOM      8  C   LIG d   1      -1.012  78.865 117.441  0.00  0.00     0.119 C 
BRANCH   8   9
ATOM      9  C   LIG d   1      -0.975  80.370 117.770  0.00  0.00     0.028 C 
ATOM     10  C   LIG d   1      -2.144  80.802 118.671  0.00  0.00     0.006 C 
ENDBRANCH   8   9
BRANCH   8  11
ATOM     11  C   LIG d   1      -0.809  78.151 118.781  0.00  0.00     0.028 C 
ATOM     12  C   LIG d   1      -1.851  77.049 119.033  0.00  0.00     0.006 C 
ENDBRANCH   8  11
ENDBRANCH   7   8
ENDBRANCH   1   7
BRANCH   6  13
ATOM     13  N   LIG d   1       1.833  76.170 116.148  0.00  0.00    -0.311 N 
ATOM     14  C   LIG d   1       2.601  76.334 117.223  0.00  0.00     0.210 C 
ATOM     15  C   LIG d   1       4.108  76.312 116.950  0.00  0.00     0.109 C 
ATOM     16  O   LIG d   1       2.178  76.465 118.382  0.00  0.00    -0.276 OA
ATOM     17  H   LIG d   1       2.260  76.039 115.252  0.00  0.00     0.149 HD
ENDBRANCH   6  13
BRANCH   5  18
ATOM     18  N   LIG d   1       0.069  73.676 116.083  0.00  0.00     0.381 N 
ATOM     19  H   LIG d   1      -0.744  73.281 116.512  0.00  0.00    -0.090 HD
ATOM     20  H   LIG d   1       0.759  73.832 116.798  0.00  0.00    -0.090 HD
ATOM     21  H   LIG d   1       0.429  73.051 115.396  0.00  0.00    -0.090 HD
ENDBRANCH   5  18
BRANCH   3  22
ATOM     22  C   LIG d   1      -3.486  76.413 114.409  0.00  0.00     0.382 C 
ATOM     23  O   LIG d   1      -4.122  77.495 114.388  0.00  0.00    -0.241 OA
ATOM     24  O   LIG d   1      -3.996  75.392 113.909  0.00  0.00    -0.241 OA
ENDBRANCH   3  22
TORSDOF 7
ENDMDL
MODEL 9
REMARK VINA RESULT:      -4.2     13.064     15.161
REMARK  7 active torsions:
REMARK  status: ('A' for Active; 'I' for Inactive)
REMARK    1  A    between atoms: C_2  and  C_3 
REMARK    2  A    between atoms: C_3  and  O_6 
REMARK    3  A    between atoms: C_3  and  C_4 
REMARK    4  A    between atoms: C_7  and  O_6 
REMARK    5  A    between atoms: C_9  and  C_10 
REMARK    6  A    between atoms: N_15  and  C_14 
REMARK    7  A    between atoms: N_20  and  C_19 
REMARK       I    between atoms: C_22  and  N_20 
ROOT
ATOM      1  C   LIG d   1       0.952  89.915 117.986  0.00  0.00     0.161 C 
ATOM      2  C   LIG d   1      -0.414  89.649 117.790  0.00  0.00     0.016 C 
ATOM      3  C   LIG d   1      -1.432  90.604 118.014  0.00  0.00     0.038 C 
ATOM      4  C   LIG d   1      -1.141  91.944 118.307  0.00  0.00     0.028 C 
ATOM      5  C   LIG d   1       0.200  92.133 119.008  0.00  0.00    -0.047 C 
ATOM      6  C   LIG d   1       1.297  91.404 118.199  0.00  0.00     0.091 C 
ENDROOT
BRANCH   1   7
ATOM      7  O   LIG d   1       1.717  89.375 116.891  0.00  0.00    -0.368 OA
BRANCH   7   8
ATOM      8  C   LIG d   1       2.482  88.178 117.178  0.00  0.00     0.119 C 
BRANCH   8   9
ATOM      9  C   LIG d   1       3.871  88.351 116.534  0.00  0.00     0.028 C 
ATOM     10  C   LIG d   1       3.795  88.990 115.137  0.00  0.00     0.006 C 
ENDBRANCH   8   9
BRANCH   8  11
ATOM     11  C   LIG d   1       1.870  86.950 116.498  0.00  0.00     0.028 C 
ATOM     12  C   LIG d   1       0.923  86.167 117.422  0.00  0.00     0.006 C 
ENDBRANCH   8  11
ENDBRANCH   7   8
ENDBRANCH   1   7
BRANCH   6  13
ATOM     13  N   LIG d   1       2.626  91.468 118.860  0.00  0.00    -0.311 N 
ATOM     14  C   LIG d   1       3.757  91.735 118.209  0.00  0.00     0.210 C 
ATOM     15  C   LIG d   1       5.019  91.733 119.077  0.00  0.00     0.109 C 
ATOM     16  O   LIG d   1       3.830  92.007 117.001  0.00  0.00    -0.276 OA
ATOM     17  H   LIG d   1       2.654  91.291 119.845  0.00  0.00     0.149 HD
ENDBRANCH   6  13
BRANCH   5  18
ATOM     18  N   LIG d   1       0.439  93.584 119.129  0.00  0.00     0.381 N 
ATOM     19  H   LIG d   1      -0.255  93.993 119.722  0.00  0.00    -0.090 HD
ATOM     20  H   LIG d   1       0.364  94.003 118.219  0.00  0.00    -0.090 HD
ATOM     21  H   LIG d   1       1.347  93.750 119.506  0.00  0.00    -0.090 HD
ENDBRANCH   5  18
BRANCH   3  22
ATOM     22  C   LIG d   1      -2.762  90.210 117.984  0.00  0.00     0.382 C 
ATOM     23  O   LIG d   1      -3.665  91.065 117.820  0.00  0.00    -0.241 OA
ATOM     24  O   LIG d   1      -3.071  89.017 118.163  0.00  0.00    -0.241 OA
ENDBRANCH   3  22
TORSDOF 7
ENDMDL
