MODEL 1
REMARK VINA RESULT:      -5.1      0.000      0.000
REMARK  7 active torsions:
REMARK  status: ('A' for Active; 'I' for Inactive)
REMARK    1  A    between atoms: C_2  and  C_3 
REMARK    2  A    between atoms: C_3  and  O_6 
REMARK    3  A    between atoms: C_3  and  C_4 
REMARK    4  A    between atoms: C_7  and  O_6 
REMARK    5  A    between atoms: C_9  and  C_10 
REMARK    6  A    between atoms: N_15  and  C_14 
REMARK    7  A    between atoms: N_20  and  C_19 
REMARK       I    between atoms: C_22  and  N_20 
ROOT
ATOM      1  C   LIG d   1      -3.605  90.449 117.676  0.00  0.00     0.161 C 
ATOM      2  C   LIG d   1      -4.635  89.817 116.960  0.00  0.00     0.016 C 
ATOM      3  C   LIG d   1      -5.857  90.449 116.631  0.00  0.00     0.038 C 
ATOM      4  C   LIG d   1      -6.071  91.815 116.868  0.00  0.00     0.028 C 
ATOM      5  C   LIG d   1      -5.260  92.362 118.037  0.00  0.00    -0.047 C 
ATOM      6  C   LIG d   1      -3.776  91.973 117.845  0.00  0.00     0.091 C 
ENDROOT
BRANCH   1   7
ATOM      7  O   LIG d   1      -2.333  90.152 117.067  0.00  0.00    -0.368 OA
BRANCH   7   8
ATOM      8  C   LIG d   1      -1.396  89.405 117.881  0.00  0.00     0.119 C 
BRANCH   8   9
ATOM      9  C   LIG d   1      -0.011  89.518 117.214  0.00  0.00     0.028 C 
ATOM     10  C   LIG d   1       0.520  90.962 117.205  0.00  0.00     0.006 C 
ENDBRANCH   8   9
BRANCH   8  11
ATOM     11  C   LIG d   1      -1.725  87.910 117.881  0.00  0.00     0.028 C 
ATOM     12  C   LIG d   1      -2.265  87.418 119.233  0.00  0.00     0.006 C 
ENDBRANCH   8  11
ENDBRANCH   7   8
ENDBRANCH   1   7
BRANCH   6  13
ATOM     13  N   LIG d   1      -2.926  92.397 118.988  0.00  0.00    -0.311 N 
ATOM     14  C   LIG d   1      -1.908  93.247 118.869  0.00  0.00     0.210 C 
ATOM     15  C   LIG d   1      -1.150  93.534 120.168  0.00  0.00     0.109 C 
ATOM     16  O   LIG d   1      -1.582  93.816 117.816  0.00  0.00    -0.276 OA
ATOM     17  H   LIG d   1      -3.141  92.007 119.885  0.00  0.00     0.149 HD
ENDBRANCH   6  13
BRANCH   5  18
ATOM     18  N   LIG d   1      -5.473  93.821 118.084  0.00  0.00     0.381 N 
ATOM     19  H   LIG d   1      -6.454  94.020 118.093  0.00  0.00    -0.090 HD
ATOM     20  H   LIG d   1      -5.075  94.235 117.260  0.00  0.00    -0.090 HD
ATOM     21  H   LIG d   1      -5.042  94.203 118.897  0.00  0.00    -0.090 HD
ENDBRANCH   5  18
BRANCH   3  22
ATOM     22  C   LIG d   1      -6.895  89.703 116.095  0.00  0.00     0.382 C 
ATOM     23  O   LIG d   1      -6.967  89.529 114.855  0.00  0.00    -0.241 OA
ATOM     24  O   LIG d   1      -7.785  89.238 116.833  0.00  0.00    -0.241 OA
ENDBRANCH   3  22
TORSDOF 7
ENDMDL
MODEL 2
REMARK VINA RESULT:      -5.0     13.398     16.149
REMARK  7 active torsions:
REMARK  status: ('A' for Active; 'I' for Inactive)
REMARK    1  A    between atoms: C_2  and  C_3 
REMARK    2  A    between atoms: C_3  and  O_6 
REMARK    3  A    between atoms: C_3  and  C_4 
REMARK    4  A    between atoms: C_7  and  O_6 
REMARK    5  A    between atoms: C_9  and  C_10 
REMARK    6  A    between atoms: N_15  and  C_14 
REMARK    7  A    between atoms: N_20  and  C_19 
REMARK       I    between atoms: C_22  and  N_20 
ROOT
ATOM      1  C   LIG d   1      -2.204  75.417 118.422  0.00  0.00     0.161 C 
ATOM      2  C   LIG d   1      -0.945  75.407 119.046  0.00  0.00     0.016 C 
ATOM      3  C   LIG d   1       0.248  75.032 118.386  0.00  0.00     0.038 C 
ATOM      4  C   LIG d   1       0.285  74.786 117.005  0.00  0.00     0.028 C 
ATOM      5  C   LIG d   1      -1.044  74.295 116.441  0.00  0.00    -0.047 C 
ATOM      6  C   LIG d   1      -2.166  75.259 116.888  0.00  0.00     0.091 C 
ENDROOT
BRANCH   1   7
ATOM      7  O   LIG d   1      -2.919  76.615 118.785  0.00  0.00    -0.368 OA
BRANCH   7   8
ATOM      8  C   LIG d   1      -2.721  77.762 117.922  0.00  0.00     0.119 C 
BRANCH   8   9
ATOM      9  C   LIG d   1      -2.000  78.844 118.748  0.00  0.00     0.028 C 
ATOM     10  C   LIG d   1      -0.563  79.095 118.260  0.00  0.00     0.006 C 
ENDBRANCH   8   9
BRANCH   8  11
ATOM     11  C   LIG d   1      -4.058  78.388 117.512  0.00  0.00     0.028 C 
ATOM     12  C   LIG d   1      -5.270  77.599 118.033  0.00  0.00     0.006 C 
ENDBRANCH   8  11
ENDBRANCH   7   8
ENDBRANCH   1   7
BRANCH   6  13
ATOM     13  N   LIG d   1      -3.512  74.805 116.449  0.00  0.00    -0.311 N 
ATOM     14  C   LIG d   1      -4.098  75.224 115.329  0.00  0.00     0.210 C 
ATOM     15  C   LIG d   1      -5.494  74.647 115.075  0.00  0.00     0.109 C 
ATOM     16  O   LIG d   1      -3.581  75.994 114.505  0.00  0.00    -0.276 OA
ATOM     17  H   LIG d   1      -3.990  74.156 117.043  0.00  0.00     0.149 HD
ENDBRANCH   6  13
BRANCH   5  18
ATOM     18  N   LIG d   1      -0.903  74.211 114.975  0.00  0.00     0.381 N 
ATOM     19  H   LIG d   1      -0.655  73.278 114.712  0.00  0.00    -0.090 HD
ATOM     20  H   LIG d   1      -0.164  74.827 114.684  0.00  0.00    -0.090 HD
ATOM     21  H   LIG d   1      -1.757  74.473 114.535  0.00  0.00    -0.090 HD
ENDBRANCH   5  18
BRANCH   3  22
ATOM     22  C   LIG d   1       1.414  74.862 119.117  0.00  0.00     0.382 C 
ATOM     23  O   LIG d   1       2.525  75.117 118.593  0.00  0.00    -0.241 OA
ATOM     24  O   LIG d   1       1.371  74.414 120.278  0.00  0.00    -0.241 OA
ENDBRANCH   3  22
TORSDOF 7
ENDMDL
MODEL 3
REMARK VINA RESULT:      -4.8     12.971     14.726
REMARK  7 active torsions:
REMARK  status: ('A' for Active; 'I' for Inactive)
REMARK    1  A    between atoms: C_2  and  C_3 
REMARK    2  A    between atoms: C_3  and  O_6 
REMARK    3  A    between atoms: C_3  and  C_4 
REMARK    4  A    between atoms: C_7  and  O_6 
REMARK    5  A    between atoms: C_9  and  C_10 
REMARK    6  A    between atoms: N_15  and  C_14 
REMARK    7  A    between atoms: N_20  and  C_19 
REMARK       I    between atoms: C_22  and  N_20 
ROOT
ATOM      1  C   LIG d   1      -2.892  75.870 116.865  0.00  0.00     0.161 C 
ATOM      2  C   LIG d   1      -3.976  75.331 116.152  0.00  0.00     0.016 C 
ATOM      3  C   LIG d   1      -5.264  75.913 116.136  0.00  0.00     0.038 C 
ATOM      4  C   LIG d   1      -5.518  77.166 116.714  0.00  0.00     0.028 C 
ATOM      5  C   LIG d   1      -4.583  77.501 117.871  0.00  0.00    -0.047 C 
ATOM      6  C   LIG d   1      -3.122  77.295 117.410  0.00  0.00     0.091 C 
ENDROOT
BRANCH   1   7
ATOM      7  O   LIG d   1      -1.703  75.831 116.051  0.00  0.00    -0.368 OA
BRANCH   7   8
ATOM      8  C   LIG d   1      -0.885  74.641 116.174  0.00  0.00     0.119 C 
BRANCH   8   9
ATOM      9  C   LIG d   1       0.331  75.004 117.047  0.00  0.00     0.028 C 
ATOM     10  C   LIG d   1       0.200  74.477 118.486  0.00  0.00     0.006 C 
ENDBRANCH   8   9
BRANCH   8  11
ATOM     11  C   LIG d   1      -0.303  74.222 114.821  0.00  0.00     0.028 C 
ATOM     12  C   LIG d   1      -0.009  75.419 113.903  0.00  0.00     0.006 C 
ENDBRANCH   8  11
ENDBRANCH   7   8
ENDBRANCH   1   7
BRANCH   6  13
ATOM     13  N   LIG d   1      -2.145  77.520 118.507  0.00  0.00    -0.311 N 
ATOM     14  C   LIG d   1      -1.077  78.308 118.388  0.00  0.00     0.210 C 
ATOM     15  C   LIG d   1      -0.188  78.384 119.634  0.00  0.00     0.109 C 
ATOM     16  O   LIG d   1      -0.799  78.975 117.381  0.00  0.00    -0.276 OA
ATOM     17  H   LIG d   1      -2.311  77.041 119.371  0.00  0.00     0.149 HD
ENDBRANCH   6  13
BRANCH   5  18
ATOM     18  N   LIG d   1      -4.868  78.887 118.288  0.00  0.00     0.381 N 
ATOM     19  H   LIG d   1      -5.832  79.098 118.124  0.00  0.00    -0.090 HD
ATOM     20  H   LIG d   1      -4.310  79.514 117.736  0.00  0.00    -0.090 HD
ATOM     21  H   LIG d   1      -4.655  79.003 119.254  0.00  0.00    -0.090 HD
ENDBRANCH   5  18
BRANCH   3  22
ATOM     22  C   LIG d   1      -6.324  75.221 115.570  0.00  0.00     0.382 C 
ATOM     23  O   LIG d   1      -6.571  74.046 115.934  0.00  0.00    -0.241 OA
ATOM     24  O   LIG d   1      -7.009  75.742 114.669  0.00  0.00    -0.241 OA
ENDBRANCH   3  22
TORSDOF 7
ENDMDL
MODEL 4
REMARK VINA RESULT:      -4.7      3.191      4.653
REMARK  7 active torsions:
REMARK  status: ('A' for Active; 'I' for Inactive)
REMARK    1  A    between atoms: C_2  and  C_3 
REMARK    2  A    between atoms: C_3  and  O_6 
REMARK    3  A    between atoms: C_3  and  C_4 
REMARK    4  A    between atoms: C_7  and  O_6 
REMARK    5  A    between atoms: C_9  and  C_10 
REMARK    6  A    between atoms: N_15  and  C_14 
REMARK    7  A    between atoms: N_20  and  C_19 
REMARK       I    between atoms: C_22  and  N_20 
ROOT
ATOM      1  C   LIG d   1      -5.367  93.253 118.720  0.00  0.00     0.161 C 
ATOM      2  C   LIG d   1      -6.633  93.820 118.496  0.00  0.00     0.016 C 
ATOM      3  C   LIG d   1      -6.969  95.143 118.863  0.00  0.00     0.038 C 
ATOM      4  C   LIG d   1      -6.010  96.045 119.347  0.00  0.00     0.028 C 
ATOM      5  C   LIG d   1      -4.845  95.366 120.060  0.00  0.00    -0.047 C 
ATOM      6  C   LIG d   1      -4.275  94.257 119.145  0.00  0.00     0.091 C 
ENDROOT
BRANCH   1   7
ATOM      7  O   LIG d   1      -4.947  92.520 117.553  0.00  0.00    -0.368 OA
BRANCH   7   8
ATOM      8  C   LIG d   1      -5.621  91.260 117.314  0.00  0.00     0.119 C 
BRANCH   8   9
ATOM      9  C   LIG d   1      -4.759  90.148 117.942  0.00  0.00     0.028 C 
ATOM     10  C   LIG d   1      -3.295  90.204 117.473  0.00  0.00     0.006 C 
ENDBRANCH   8   9
BRANCH   8  11
ATOM     11  C   LIG d   1      -5.679  90.934 115.819  0.00  0.00     0.028 C 
ATOM     12  C   LIG d   1      -6.346  92.044 114.992  0.00  0.00     0.006 C 
ENDBRANCH   8  11
ENDBRANCH   7   8
ENDBRANCH   1   7
BRANCH   6  13
ATOM     13  N   LIG d   1      -3.186  93.486 119.800  0.00  0.00    -0.311 N 
ATOM     14  C   LIG d   1      -1.999  93.271 119.236  0.00  0.00     0.210 C 
ATOM     15  C   LIG d   1      -1.027  92.435 120.074  0.00  0.00     0.109 C 
ATOM     16  O   LIG d   1      -1.647  93.721 118.135  0.00  0.00    -0.276 OA
ATOM     17  H   LIG d   1      -3.376  93.112 120.709  0.00  0.00     0.149 HD
ENDBRANCH   6  13
BRANCH   5  18
ATOM     18  N   LIG d   1      -3.855  96.408 120.390  0.00  0.00     0.381 N 
ATOM     19  H   LIG d   1      -4.209  96.992 121.122  0.00  0.00    -0.090 HD
ATOM     20  H   LIG d   1      -3.702  96.980 119.578  0.00  0.00    -0.090 HD
ATOM     21  H   LIG d   1      -2.999  95.987 120.675  0.00  0.00    -0.090 HD
ENDBRANCH   5  18
BRANCH   3  22
ATOM     22  C   LIG d   1      -8.288  95.564 118.785  0.00  0.00     0.382 C 
ATOM     23  O   LIG d   1      -9.155  94.817 118.271  0.00  0.00    -0.241 OA
ATOM     24  O   LIG d   1      -8.614  96.699 119.183  0.00  0.00    -0.241 OA
ENDBRANCH   3  22
TORSDOF 7
ENDMDL
MODEL 5
REMARK VINA RESULT:      -4.7     11.939     13.538
REMARK  7 active torsions:
REMARK  status: ('A' for Active; 'I' for Inactive)
REMARK    1  A    between atoms: C_2  and  C_3 
REMARK    2  A    between atoms: C_3  and  O_6 
REMARK    3  A    between atoms: C_3  and  C_4 
REMARK    4  A    between atoms: C_7  and  O_6 
REMARK    5  A    between atoms: C_9  and  C_10 
REMARK    6  A    between atoms: N_15  and  C_14 
REMARK    7  A    between atoms: N_20  and  C_19 
REMARK       I    between atoms: C_22  and  N_20 
ROOT
ATOM      1  C   LIG d   1      -4.800  77.495 117.326  0.00  0.00     0.161 C 
ATOM      2  C   LIG d   1      -6.131  77.930 117.438  0.00  0.00     0.016 C 
ATOM      3  C   LIG d   1      -6.559  78.892 118.382  0.00  0.00     0.038 C 
ATOM      4  C   LIG d   1      -5.650  79.601 119.182  0.00  0.00     0.028 C 
ATOM      5  C   LIG d   1      -4.360  78.835 119.457  0.00  0.00    -0.047 C 
ATOM      6  C   LIG d   1      -3.776  78.337 118.115  0.00  0.00     0.091 C 
ENDROOT
BRANCH   1   7
ATOM      7  O   LIG d   1      -4.425  77.423 115.936  0.00  0.00    -0.368 OA
BRANCH   7   8
ATOM      8  C   LIG d   1      -4.173  76.096 115.413  0.00  0.00     0.119 C 
BRANCH   8   9
ATOM      9  C   LIG d   1      -2.711  76.060 114.926  0.00  0.00     0.028 C 
ATOM     10  C   LIG d   1      -1.923  74.881 115.522  0.00  0.00     0.006 C 
ENDBRANCH   8   9
BRANCH   8  11
ATOM     11  C   LIG d   1      -5.021  75.817 114.168  0.00  0.00     0.028 C 
ATOM     12  C   LIG d   1      -6.522  75.710 114.482  0.00  0.00     0.006 C 
ENDBRANCH   8  11
ENDBRANCH   7   8
ENDBRANCH   1   7
BRANCH   6  13
ATOM     13  N   LIG d   1      -2.558  77.507 118.300  0.00  0.00    -0.311 N 
ATOM     14  C   LIG d   1      -1.354  77.860 117.852  0.00  0.00     0.210 C 
ATOM     15  C   LIG d   1      -0.238  76.849 118.133  0.00  0.00     0.109 C 
ATOM     16  O   LIG d   1      -1.099  78.929 117.278  0.00  0.00    -0.276 OA
ATOM     17  H   LIG d   1      -2.668  76.637 118.784  0.00  0.00     0.149 HD
ENDBRANCH   6  13
BRANCH   5  18
ATOM     18  N   LIG d   1      -3.450  79.741 120.183  0.00  0.00     0.381 N 
ATOM     19  H   LIG d   1      -3.772  79.862 121.123  0.00  0.00    -0.090 HD
ATOM     20  H   LIG d   1      -3.454  80.638 119.730  0.00  0.00    -0.090 HD
ATOM     21  H   LIG d   1      -2.527  79.366 120.186  0.00  0.00    -0.090 HD
ENDBRANCH   5  18
BRANCH   3  22
ATOM     22  C   LIG d   1      -7.914  79.126 118.560  0.00  0.00     0.382 C 
ATOM     23  O   LIG d   1      -8.319  80.277 118.850  0.00  0.00    -0.241 OA
ATOM     24  O   LIG d   1      -8.732  78.190 118.479  0.00  0.00    -0.241 OA
ENDBRANCH   3  22
TORSDOF 7
ENDMDL
MODEL 6
REMARK VINA RESULT:      -4.6      2.260      4.469
REMARK  7 active torsions:
REMARK  status: ('A' for Active; 'I' for Inactive)
REMARK    1  A    between atoms: C_2  and  C_3 
REMARK    2  A    between atoms: C_3  and  O_6 
REMARK    3  A    between atoms: C_3  and  C_4 
REMARK    4  A    between atoms: C_7  and  O_6 
REMARK    5  A    between atoms: C_9  and  C_10 
REMARK    6  A    between atoms: N_15  and  C_14 
REMARK    7  A    between atoms: N_20  and  C_19 
REMARK       I    between atoms: C_22  and  N_20 
ROOT
ATOM      1  C   LIG d   1      -3.396  92.142 118.110  0.00  0.00     0.161 C 
ATOM      2  C   LIG d   1      -4.548  92.306 117.323  0.00  0.00     0.016 C 
ATOM      3  C   LIG d   1      -5.150  91.253 116.597  0.00  0.00     0.038 C 
ATOM      4  C   LIG d   1      -4.725  89.922 116.730  0.00  0.00     0.028 C 
ATOM      5  C   LIG d   1      -3.256  89.792 117.118  0.00  0.00    -0.047 C 
ATOM      6  C   LIG d   1      -2.984  90.676 118.356  0.00  0.00     0.091 C 
ENDROOT
BRANCH   1   7
ATOM      7  O   LIG d   1      -3.559  92.834 119.364  0.00  0.00    -0.368 OA
BRANCH   7   8
ATOM      8  C   LIG d   1      -2.654  93.939 119.605  0.00  0.00     0.119 C 
BRANCH   8   9
ATOM      9  C   LIG d   1      -3.503  95.222 119.698  0.00  0.00     0.028 C 
ATOM     10  C   LIG d   1      -4.979  94.927 120.014  0.00  0.00     0.006 C 
ENDBRANCH   8   9
BRANCH   8  11
ATOM     11  C   LIG d   1      -1.715  94.159 118.415  0.00  0.00     0.028 C 
ATOM     12  C   LIG d   1      -1.263  95.622 118.276  0.00  0.00     0.006 C 
ENDBRANCH   8  11
ENDBRANCH   7   8
ENDBRANCH   1   7
BRANCH   6  13
ATOM     13  N   LIG d   1      -1.551  90.672 118.751  0.00  0.00    -0.311 N 
ATOM     14  C   LIG d   1      -1.048  89.856 119.675  0.00  0.00     0.210 C 
ATOM     15  C   LIG d   1       0.450  90.030 119.945  0.00  0.00     0.109 C 
ATOM     16  O   LIG d   1      -1.693  88.982 120.274  0.00  0.00    -0.276 OA
ATOM     17  H   LIG d   1      -0.950  91.328 118.293  0.00  0.00     0.149 HD
ENDBRANCH   6  13
BRANCH   5  18
ATOM     18  N   LIG d   1      -2.984  88.362 117.357  0.00  0.00     0.381 N 
ATOM     19  H   LIG d   1      -2.220  88.265 117.996  0.00  0.00    -0.090 HD
ATOM     20  H   LIG d   1      -2.724  87.931 116.487  0.00  0.00    -0.090 HD
ATOM     21  H   LIG d   1      -3.795  87.918 117.727  0.00  0.00    -0.090 HD
ENDBRANCH   5  18
BRANCH   3  22
ATOM     22  C   LIG d   1      -6.165  91.533 115.694  0.00  0.00     0.382 C 
ATOM     23  O   LIG d   1      -6.116  92.576 114.999  0.00  0.00    -0.241 OA
ATOM     24  O   LIG d   1      -7.151  90.778 115.598  0.00  0.00    -0.241 OA
ENDBRANCH   3  22
TORSDOF 7
ENDMDL
MODEL 7
REMARK VINA RESULT:      -4.6      2.330      4.509
REMARK  7 active torsions:
REMARK  status: ('A' for Active; 'I' for Inactive)
REMARK    1  A    between atoms: C_2  and  C_3 
REMARK    2  A    between atoms: C_3  and  O_6 
REMARK    3  A    between atoms: C_3  and  C_4 
REMARK    4  A    between atoms: C_7  and  O_6 
REMARK    5  A    between atoms: C_9  and  C_10 
REMARK    6  A    between atoms: N_15  and  C_14 
REMARK    7  A    between atoms: N_20  and  C_19 
REMARK       I    between atoms: C_22  and  N_20 
ROOT
ATOM      1  C   LIG d   1      -4.914  91.806 118.426  0.00  0.00     0.161 C 
ATOM      2  C   LIG d   1      -5.720  91.947 117.284  0.00  0.00     0.016 C 
ATOM      3  C   LIG d   1      -5.691  91.046 116.195  0.00  0.00     0.038 C 
ATOM      4  C   LIG d   1      -4.958  89.850 116.241  0.00  0.00     0.028 C 
ATOM      5  C   LIG d   1      -3.743  89.920 117.161  0.00  0.00    -0.047 C 
ATOM      6  C   LIG d   1      -4.190  90.448 118.543  0.00  0.00     0.091 C 
ENDROOT
BRANCH   1   7
ATOM      7  O   LIG d   1      -5.696  92.061 119.610  0.00  0.00    -0.368 OA
BRANCH   7   8
ATOM      8  C   LIG d   1      -5.534  93.369 120.212  0.00  0.00     0.119 C 
BRANCH   8   9
ATOM      9  C   LIG d   1      -6.807  94.180 119.905  0.00  0.00     0.028 C 
ATOM     10  C   LIG d   1      -6.576  95.248 118.823  0.00  0.00     0.006 C 
ENDBRANCH   8   9
BRANCH   8  11
ATOM     11  C   LIG d   1      -4.389  94.146 119.555  0.00  0.00     0.028 C 
ATOM     12  C   LIG d   1      -3.298  94.558 120.555  0.00  0.00     0.006 C 
ENDBRANCH   8  11
ENDBRANCH   7   8
ENDBRANCH   1   7
BRANCH   6  13
ATOM     13  N   LIG d   1      -3.048  90.627 119.478  0.00  0.00    -0.311 N 
ATOM     14  C   LIG d   1      -1.981  91.373 119.197  0.00  0.00     0.210 C 
ATOM     15  C   LIG d   1      -0.909  91.405 120.292  0.00  0.00     0.109 C 
ATOM     16  O   LIG d   1      -1.835  92.036 118.160  0.00  0.00    -0.276 OA
ATOM     17  H   LIG d   1      -3.099  90.148 120.356  0.00  0.00     0.149 HD
ENDBRANCH   6  13
BRANCH   5  18
ATOM     18  N   LIG d   1      -3.153  88.569 117.222  0.00  0.00     0.381 N 
ATOM     19  H   LIG d   1      -3.585  87.980 116.539  0.00  0.00    -0.090 HD
ATOM     20  H   LIG d   1      -3.327  88.179 118.131  0.00  0.00    -0.090 HD
ATOM     21  H   LIG d   1      -2.172  88.618 117.056  0.00  0.00    -0.090 HD
ENDBRANCH   5  18
BRANCH   3  22
ATOM     22  C   LIG d   1      -6.370  91.357 115.027  0.00  0.00     0.382 C 
ATOM     23  O   LIG d   1      -6.271  92.505 114.531  0.00  0.00    -0.241 OA
ATOM     24  O   LIG d   1      -7.115  90.518 114.487  0.00  0.00    -0.241 OA
ENDBRANCH   3  22
TORSDOF 7
ENDMDL
MODEL 8
REMARK VINA RESULT:      -4.5      1.947      4.552
REMARK  7 active torsions:
REMARK  status: ('A' for Active; 'I' for Inactive)
REMARK    1  A    between atoms: C_2  and  C_3 
REMARK    2  A    between atoms: C_3  and  O_6 
REMARK    3  A    between atoms: C_3  and  C_4 
REMARK    4  A    between atoms: C_7  and  O_6 
REMARK    5  A    between atoms: C_9  and  C_10 
REMARK    6  A    between atoms: N_15  and  C_14 
REMARK    7  A    between atoms: N_20  and  C_19 
REMARK       I    between atoms: C_22  and  N_20 
ROOT
ATOM      1  C   LIG d   1      -3.925  91.599 117.580  0.00  0.00     0.161 C 
ATOM      2  C   LIG d   1      -3.112  92.544 118.227  0.00  0.00     0.016 C 
ATOM      3  C   LIG d   1      -3.621  93.568 119.060  0.00  0.00     0.038 C 
ATOM      4  C   LIG d   1      -4.974  93.622 119.425  0.00  0.00     0.028 C 
ATOM      5  C   LIG d   1      -5.905  92.993 118.394  0.00  0.00    -0.047 C 
ATOM      6  C   LIG d   1      -5.393  91.575 118.055  0.00  0.00     0.091 C 
ENDROOT
BRANCH   1   7
ATOM      7  O   LIG d   1      -3.339  90.287 117.699  0.00  0.00    -0.368 OA
BRANCH   7   8
ATOM      8  C   LIG d   1      -2.033  90.227 118.323  0.00  0.00     0.119 C 
BRANCH   8   9
ATOM      9  C   LIG d   1      -1.054  89.632 117.293  0.00  0.00     0.028 C 
ATOM     10  C   LIG d   1       0.060  90.619 116.904  0.00  0.00     0.006 C 
ENDBRANCH   8   9
BRANCH   8  11
ATOM     11  C   LIG d   1      -2.024  89.250 119.503  0.00  0.00     0.028 C 
ATOM     12  C   LIG d   1      -2.677  87.901 119.164  0.00  0.00     0.006 C 
ENDBRANCH   8  11
ENDBRANCH   7   8
ENDBRANCH   1   7
BRANCH   6  13
ATOM     13  N   LIG d   1      -6.199  90.920 116.992  0.00  0.00    -0.311 N 
ATOM     14  C   LIG d   1      -6.326  91.412 115.760  0.00  0.00     0.210 C 
ATOM     15  C   LIG d   1      -7.219  90.591 114.825  0.00  0.00     0.109 C 
ATOM     16  O   LIG d   1      -5.758  92.432 115.344  0.00  0.00    -0.276 OA
ATOM     17  H   LIG d   1      -6.670  90.070 117.234  0.00  0.00     0.149 HD
ENDBRANCH   6  13
BRANCH   5  18
ATOM     18  N   LIG d   1      -7.266  92.995 118.964  0.00  0.00     0.381 N 
ATOM     19  H   LIG d   1      -7.457  92.110 119.389  0.00  0.00    -0.090 HD
ATOM     20  H   LIG d   1      -7.929  93.138 118.222  0.00  0.00    -0.090 HD
ATOM     21  H   LIG d   1      -7.352  93.722 119.640  0.00  0.00    -0.090 HD
ENDBRANCH   5  18
BRANCH   3  22
ATOM     22  C   LIG d   1      -2.777  94.574 119.504  0.00  0.00     0.382 C 
ATOM     23  O   LIG d   1      -3.224  95.488 120.239  0.00  0.00    -0.241 OA
ATOM     24  O   LIG d   1      -1.585  94.605 119.143  0.00  0.00    -0.241 OA
ENDBRANCH   3  22
TORSDOF 7
ENDMDL
MODEL 9
REMARK VINA RESULT:      -4.5      2.513      4.006
REMARK  7 active torsions:
REMARK  status: ('A' for Active; 'I' for Inactive)
REMARK    1  A    between atoms: C_2  and  C_3 
REMARK    2  A    between atoms: C_3  and  O_6 
REMARK    3  A    between atoms: C_3  and  C_4 
REMARK    4  A    between atoms: C_7  and  O_6 
REMARK    5  A    between atoms: C_9  and  C_10 
REMARK    6  A    between atoms: N_15  and  C_14 
REMARK    7  A    between atoms: N_20  and  C_19 
REMARK       I    between atoms: C_22  and  N_20 
ROOT
ATOM      1  C   LIG d   1      -2.941  91.362 118.375  0.00  0.00     0.161 C 
ATOM      2  C   LIG d   1      -3.926  92.350 118.542  0.00  0.00     0.016 C 
ATOM      3  C   LIG d   1      -5.189  92.305 117.907  0.00  0.00     0.038 C 
ATOM      4  C   LIG d   1      -5.611  91.184 117.177  0.00  0.00     0.028 C 
ATOM      5  C   LIG d   1      -4.462  90.390 116.566  0.00  0.00    -0.047 C 
ATOM      6  C   LIG d   1      -3.426  90.078 117.671  0.00  0.00     0.091 C 
ENDROOT
BRANCH   1   7
ATOM      7  O   LIG d   1      -2.350  91.042 119.650  0.00  0.00    -0.368 OA
BRANCH   7   8
ATOM      8  C   LIG d   1      -0.992  91.503 119.857  0.00  0.00     0.119 C 
BRANCH   8   9
ATOM      9  C   LIG d   1      -0.543  92.215 118.566  0.00  0.00     0.028 C 
ATOM     10  C   LIG d   1      -0.193  93.694 118.802  0.00  0.00     0.006 C 
ENDBRANCH   8   9
BRANCH   8  11
ATOM     11  C   LIG d   1      -0.025  90.329 120.030  0.00  0.00     0.028 C 
ATOM     12  C   LIG d   1       1.074  90.298 118.955  0.00  0.00     0.006 C 
ENDBRANCH   8  11
ENDBRANCH   7   8
ENDBRANCH   1   7
BRANCH   6  13
ATOM     13  N   LIG d   1      -2.227  89.376 117.142  0.00  0.00    -0.311 N 
ATOM     14  C   LIG d   1      -1.800  88.203 117.606  0.00  0.00     0.210 C 
ATOM     15  C   LIG d   1      -0.534  87.663 116.934  0.00  0.00     0.109 C 
ATOM     16  O   LIG d   1      -2.369  87.543 118.489  0.00  0.00    -0.276 OA
ATOM     17  H   LIG d   1      -1.724  89.826 116.402  0.00  0.00     0.149 HD
ENDBRANCH   6  13
BRANCH   5  18
ATOM     18  N   LIG d   1      -5.034  89.178 115.952  0.00  0.00     0.381 N 
ATOM     19  H   LIG d   1      -5.511  88.638 116.647  0.00  0.00    -0.090 HD
ATOM     20  H   LIG d   1      -4.288  88.620 115.576  0.00  0.00    -0.090 HD
ATOM     21  H   LIG d   1      -5.668  89.430 115.225  0.00  0.00    -0.090 HD
ENDBRANCH   5  18
BRANCH   3  22
ATOM     22  C   LIG d   1      -6.028  93.407 117.968  0.00  0.00     0.382 C 
ATOM     23  O   LIG d   1      -6.894  93.584 117.078  0.00  0.00    -0.241 OA
ATOM     24  O   LIG d   1      -5.900  94.249 118.877  0.00  0.00    -0.241 OA
ENDBRANCH   3  22
TORSDOF 7
ENDMDL
