MODEL 1
REMARK VINA RESULT:      -4.9      0.000      0.000
REMARK  7 active torsions:
REMARK  status: ('A' for Active; 'I' for Inactive)
REMARK    1  A    between atoms: C_2  and  C_3 
REMARK    2  A    between atoms: C_3  and  O_6 
REMARK    3  A    between atoms: C_3  and  C_4 
REMARK    4  A    between atoms: C_7  and  O_6 
REMARK    5  A    between atoms: C_9  and  C_10 
REMARK    6  A    between atoms: N_15  and  C_14 
REMARK    7  A    between atoms: N_20  and  C_19 
REMARK       I    between atoms: C_22  and  N_20 
ROOT
ATOM      1  C   LIG d   1      -2.950  78.215 114.557  0.00  0.00     0.161 C 
ATOM      2  C   LIG d   1      -3.930  77.226 114.741  0.00  0.00     0.016 C 
ATOM      3  C   LIG d   1      -3.633  75.894 115.111  0.00  0.00     0.038 C 
ATOM      4  C   LIG d   1      -2.337  75.497 115.471  0.00  0.00     0.028 C 
ATOM      5  C   LIG d   1      -1.243  76.331 114.814  0.00  0.00    -0.047 C 
ATOM      6  C   LIG d   1      -1.541  77.829 115.054  0.00  0.00     0.091 C 
ENDROOT
BRANCH   1   7
ATOM      7  O   LIG d   1      -3.377  79.447 115.171  0.00  0.00    -0.368 OA
BRANCH   7   8
ATOM      8  C   LIG d   1      -3.704  79.377 116.580  0.00  0.00     0.119 C 
BRANCH   8   9
ATOM      9  C   LIG d   1      -5.103  79.997 116.762  0.00  0.00     0.028 C 
ATOM     10  C   LIG d   1      -6.186  78.936 117.020  0.00  0.00     0.006 C 
ENDBRANCH   8   9
BRANCH   8  11
ATOM     11  C   LIG d   1      -2.762  80.250 117.415  0.00  0.00     0.028 C 
ATOM     12  C   LIG d   1      -3.509  81.306 118.246  0.00  0.00     0.006 C 
ENDBRANCH   8  11
ENDBRANCH   7   8
ENDBRANCH   1   7
BRANCH   6  13
ATOM     13  N   LIG d   1      -0.564  78.717 114.371  0.00  0.00    -0.311 N 
ATOM     14  C   LIG d   1       0.305  79.489 115.023  0.00  0.00     0.210 C 
ATOM     15  C   LIG d   1       1.208  80.343 114.128  0.00  0.00     0.109 C 
ATOM     16  O   LIG d   1       0.434  79.523 116.256  0.00  0.00    -0.276 OA
ATOM     17  H   LIG d   1      -0.579  78.728 113.370  0.00  0.00     0.149 HD
ENDBRANCH   6  13
BRANCH   5  18
ATOM     18  N   LIG d   1       0.049  75.900 115.382  0.00  0.00     0.381 N 
ATOM     19  H   LIG d   1       0.036  76.012 116.376  0.00  0.00    -0.090 HD
ATOM     20  H   LIG d   1       0.778  76.481 115.008  0.00  0.00    -0.090 HD
ATOM     21  H   LIG d   1       0.222  74.947 115.150  0.00  0.00    -0.090 HD
ENDBRANCH   5  18
BRANCH   3  22
ATOM     22  C   LIG d   1      -4.633  74.934 115.085  0.00  0.00     0.382 C 
ATOM     23  O   LIG d   1      -5.413  74.814 116.060  0.00  0.00    -0.241 OA
ATOM     24  O   LIG d   1      -4.737  74.157 114.117  0.00  0.00    -0.241 OA
ENDBRANCH   3  22
TORSDOF 7
ENDMDL
MODEL 2
REMARK VINA RESULT:      -4.8     13.832     15.995
REMARK  7 active torsions:
REMARK  status: ('A' for Active; 'I' for Inactive)
REMARK    1  A    between atoms: C_2  and  C_3 
REMARK    2  A    between atoms: C_3  and  O_6 
REMARK    3  A    between atoms: C_3  and  C_4 
REMARK    4  A    between atoms: C_7  and  O_6 
REMARK    5  A    between atoms: C_9  and  C_10 
REMARK    6  A    between atoms: N_15  and  C_14 
REMARK    7  A    between atoms: N_20  and  C_19 
REMARK       I    between atoms: C_22  and  N_20 
ROOT
ATOM      1  C   LIG d   1      -5.964  93.373 118.734  0.00  0.00     0.161 C 
ATOM      2  C   LIG d   1      -6.945  92.757 117.938  0.00  0.00     0.016 C 
ATOM      3  C   LIG d   1      -6.654  91.761 116.978  0.00  0.00     0.038 C 
ATOM      4  C   LIG d   1      -5.374  91.201 116.854  0.00  0.00     0.028 C 
ATOM      5  C   LIG d   1      -4.256  92.146 117.283  0.00  0.00    -0.047 C 
ATOM      6  C   LIG d   1      -4.578  92.697 118.691  0.00  0.00     0.091 C 
ENDROOT
BRANCH   1   7
ATOM      7  O   LIG d   1      -6.431  93.474 120.094  0.00  0.00    -0.368 OA
BRANCH   7   8
ATOM      8  C   LIG d   1      -6.769  94.805 120.555  0.00  0.00     0.119 C 
BRANCH   8   9
ATOM      9  C   LIG d   1      -8.303  94.938 120.497  0.00  0.00     0.028 C 
ATOM     10  C   LIG d   1      -8.771  95.830 119.334  0.00  0.00     0.006 C 
ENDBRANCH   8   9
BRANCH   8  11
ATOM     11  C   LIG d   1      -6.233  95.878 119.603  0.00  0.00     0.028 C 
ATOM     12  C   LIG d   1      -5.156  96.764 120.249  0.00  0.00     0.006 C 
ENDBRANCH   8  11
ENDBRANCH   7   8
ENDBRANCH   1   7
BRANCH   6  13
ATOM     13  N   LIG d   1      -3.577  93.695 119.151  0.00  0.00    -0.311 N 
ATOM     14  C   LIG d   1      -2.526  93.383 119.908  0.00  0.00     0.210 C 
ATOM     15  C   LIG d   1      -1.629  94.565 120.287  0.00  0.00     0.109 C 
ATOM     16  O   LIG d   1      -2.234  92.235 120.274  0.00  0.00    -0.276 OA
ATOM     17  H   LIG d   1      -3.720  94.646 118.874  0.00  0.00     0.149 HD
ENDBRANCH   6  13
BRANCH   5  18
ATOM     18  N   LIG d   1      -2.990  91.390 117.234  0.00  0.00     0.381 N 
ATOM     19  H   LIG d   1      -3.069  90.560 117.787  0.00  0.00    -0.090 HD
ATOM     20  H   LIG d   1      -2.257  91.958 117.620  0.00  0.00    -0.090 HD
ATOM     21  H   LIG d   1      -2.773  91.150 116.291  0.00  0.00    -0.090 HD
ENDBRANCH   5  18
BRANCH   3  22
ATOM     22  C   LIG d   1      -7.644  91.342 116.102  0.00  0.00     0.382 C 
ATOM     23  O   LIG d   1      -8.541  92.141 115.741  0.00  0.00    -0.241 OA
ATOM     24  O   LIG d   1      -7.676  90.163 115.702  0.00  0.00    -0.241 OA
ENDBRANCH   3  22
TORSDOF 7
ENDMDL
MODEL 3
REMARK VINA RESULT:      -4.8     13.965     17.108
REMARK  7 active torsions:
REMARK  status: ('A' for Active; 'I' for Inactive)
REMARK    1  A    between atoms: C_2  and  C_3 
REMARK    2  A    between atoms: C_3  and  O_6 
REMARK    3  A    between atoms: C_3  and  C_4 
REMARK    4  A    between atoms: C_7  and  O_6 
REMARK    5  A    between atoms: C_9  and  C_10 
REMARK    6  A    between atoms: N_15  and  C_14 
REMARK    7  A    between atoms: N_20  and  C_19 
REMARK       I    between atoms: C_22  and  N_20 
ROOT
ATOM      1  C   LIG d   1      -5.958  93.262 119.802  0.00  0.00     0.161 C 
ATOM      2  C   LIG d   1      -4.849  92.502 119.394  0.00  0.00     0.016 C 
ATOM      3  C   LIG d   1      -4.766  91.858 118.138  0.00  0.00     0.038 C 
ATOM      4  C   LIG d   1      -5.730  92.056 117.138  0.00  0.00     0.028 C 
ATOM      5  C   LIG d   1      -7.109  92.405 117.687  0.00  0.00    -0.047 C 
ATOM      6  C   LIG d   1      -6.971  93.581 118.682  0.00  0.00     0.091 C 
ENDROOT
BRANCH   1   7
ATOM      7  O   LIG d   1      -5.512  94.477 120.435  0.00  0.00    -0.368 OA
BRANCH   7   8
ATOM      8  C   LIG d   1      -5.212  95.584 119.550  0.00  0.00     0.119 C 
BRANCH   8   9
ATOM      9  C   LIG d   1      -3.720  95.926 119.726  0.00  0.00     0.028 C 
ATOM     10  C   LIG d   1      -2.885  95.570 118.485  0.00  0.00     0.006 C 
ENDBRANCH   8   9
BRANCH   8  11
ATOM     11  C   LIG d   1      -5.970  96.849 119.962  0.00  0.00     0.028 C 
ATOM     12  C   LIG d   1      -6.472  97.662 118.759  0.00  0.00     0.006 C 
ENDBRANCH   8  11
ENDBRANCH   7   8
ENDBRANCH   1   7
BRANCH   6  13
ATOM     13  N   LIG d   1      -8.262  93.930 119.329  0.00  0.00    -0.311 N 
ATOM     14  C   LIG d   1      -9.122  94.812 118.821  0.00  0.00     0.210 C 
ATOM     15  C   LIG d   1     -10.384  95.041 119.658  0.00  0.00     0.109 C 
ATOM     16  O   LIG d   1      -8.974  95.402 117.740  0.00  0.00    -0.276 OA
ATOM     17  H   LIG d   1      -8.477  93.475 120.194  0.00  0.00     0.149 HD
ENDBRANCH   6  13
BRANCH   5  18
ATOM     18  N   LIG d   1      -7.980  92.720 116.538  0.00  0.00     0.381 N 
ATOM     19  H   LIG d   1      -8.245  93.684 116.568  0.00  0.00    -0.090 HD
ATOM     20  H   LIG d   1      -8.813  92.161 116.599  0.00  0.00    -0.090 HD
ATOM     21  H   LIG d   1      -7.502  92.526 115.686  0.00  0.00    -0.090 HD
ENDBRANCH   5  18
BRANCH   3  22
ATOM     22  C   LIG d   1      -3.729  90.973 117.887  0.00  0.00     0.382 C 
ATOM     23  O   LIG d   1      -3.865  89.755 118.157  0.00  0.00    -0.241 OA
ATOM     24  O   LIG d   1      -2.644  91.384 117.434  0.00  0.00    -0.241 OA
ENDBRANCH   3  22
TORSDOF 7
ENDMDL
MODEL 4
REMARK VINA RESULT:      -4.7      2.382      4.734
REMARK  7 active torsions:
REMARK  status: ('A' for Active; 'I' for Inactive)
REMARK    1  A    between atoms: C_2  and  C_3 
REMARK    2  A    between atoms: C_3  and  O_6 
REMARK    3  A    between atoms: C_3  and  C_4 
REMARK    4  A    between atoms: C_7  and  O_6 
REMARK    5  A    between atoms: C_9  and  C_10 
REMARK    6  A    between atoms: N_15  and  C_14 
REMARK    7  A    between atoms: N_20  and  C_19 
REMARK       I    between atoms: C_22  and  N_20 
ROOT
ATOM      1  C   LIG d   1      -4.244  78.320 116.188  0.00  0.00     0.161 C 
ATOM      2  C   LIG d   1      -5.566  78.731 116.430  0.00  0.00     0.016 C 
ATOM      3  C   LIG d   1      -5.898  79.886 117.175  0.00  0.00     0.038 C 
ATOM      4  C   LIG d   1      -4.922  80.798 117.603  0.00  0.00     0.028 C 
ATOM      5  C   LIG d   1      -3.552  80.163 117.817  0.00  0.00    -0.047 C 
ATOM      6  C   LIG d   1      -3.166  79.363 116.552  0.00  0.00     0.091 C 
ENDROOT
BRANCH   1   7
ATOM      7  O   LIG d   1      -4.103  77.913 114.813  0.00  0.00    -0.368 OA
BRANCH   7   8
ATOM      8  C   LIG d   1      -3.913  76.495 114.584  0.00  0.00     0.119 C 
BRANCH   8   9
ATOM      9  C   LIG d   1      -5.273  75.907 114.163  0.00  0.00     0.028 C 
ATOM     10  C   LIG d   1      -5.812  74.888 115.180  0.00  0.00     0.006 C 
ENDBRANCH   8   9
BRANCH   8  11
ATOM     11  C   LIG d   1      -3.540  75.767 115.879  0.00  0.00     0.028 C 
ATOM     12  C   LIG d   1      -2.161  75.091 115.806  0.00  0.00     0.006 C 
ENDBRANCH   8  11
ENDBRANCH   7   8
ENDBRANCH   1   7
BRANCH   6  13
ATOM     13  N   LIG d   1      -1.877  78.640 116.710  0.00  0.00    -0.311 N 
ATOM     14  C   LIG d   1      -0.862  78.756 115.855  0.00  0.00     0.210 C 
ATOM     15  C   LIG d   1       0.368  77.909 116.193  0.00  0.00     0.109 C 
ATOM     16  O   LIG d   1      -0.853  79.505 114.866  0.00  0.00    -0.276 OA
ATOM     17  H   LIG d   1      -1.787  78.035 117.502  0.00  0.00     0.149 HD
ENDBRANCH   6  13
BRANCH   5  18
ATOM     18  N   LIG d   1      -2.602  81.248 118.127  0.00  0.00     0.381 N 
ATOM     19  H   LIG d   1      -2.361  81.220 119.098  0.00  0.00    -0.090 HD
ATOM     20  H   LIG d   1      -3.042  82.131 117.937  0.00  0.00    -0.090 HD
ATOM     21  H   LIG d   1      -1.781  81.151 117.571  0.00  0.00    -0.090 HD
ENDBRANCH   5  18
BRANCH   3  22
ATOM     22  C   LIG d   1      -7.217  80.117 117.533  0.00  0.00     0.382 C 
ATOM     23  O   LIG d   1      -7.757  81.217 117.262  0.00  0.00    -0.241 OA
ATOM     24  O   LIG d   1      -7.861  79.256 118.162  0.00  0.00    -0.241 OA
ENDBRANCH   3  22
TORSDOF 7
ENDMDL
MODEL 5
REMARK VINA RESULT:      -4.7      3.201      5.769
REMARK  7 active torsions:
REMARK  status: ('A' for Active; 'I' for Inactive)
REMARK    1  A    between atoms: C_2  and  C_3 
REMARK    2  A    between atoms: C_3  and  O_6 
REMARK    3  A    between atoms: C_3  and  C_4 
REMARK    4  A    between atoms: C_7  and  O_6 
REMARK    5  A    between atoms: C_9  and  C_10 
REMARK    6  A    between atoms: N_15  and  C_14 
REMARK    7  A    between atoms: N_20  and  C_19 
REMARK       I    between atoms: C_22  and  N_20 
ROOT
ATOM      1  C   LIG d   1      -5.754  78.719 117.019  0.00  0.00     0.161 C 
ATOM      2  C   LIG d   1      -7.111  78.970 117.278  0.00  0.00     0.016 C 
ATOM      3  C   LIG d   1      -7.574  80.123 117.953  0.00  0.00     0.038 C 
ATOM      4  C   LIG d   1      -6.717  81.184 118.282  0.00  0.00     0.028 C 
ATOM      5  C   LIG d   1      -5.270  80.750 118.492  0.00  0.00    -0.047 C 
ATOM      6  C   LIG d   1      -4.814  79.916 117.273  0.00  0.00     0.091 C 
ENDROOT
BRANCH   1   7
ATOM      7  O   LIG d   1      -5.595  78.234 115.671  0.00  0.00    -0.368 OA
BRANCH   7   8
ATOM      8  C   LIG d   1      -5.049  76.899 115.534  0.00  0.00     0.119 C 
BRANCH   8   9
ATOM      9  C   LIG d   1      -3.897  76.973 114.514  0.00  0.00     0.028 C 
ATOM     10  C   LIG d   1      -2.633  76.246 115.004  0.00  0.00     0.006 C 
ENDBRANCH   8   9
BRANCH   8  11
ATOM     11  C   LIG d   1      -6.073  75.939 114.920  0.00  0.00     0.028 C 
ATOM     12  C   LIG d   1      -5.848  74.478 115.342  0.00  0.00     0.006 C 
ENDBRANCH   8  11
ENDBRANCH   7   8
ENDBRANCH   1   7
BRANCH   6  13
ATOM     13  N   LIG d   1      -3.437  79.381 117.435  0.00  0.00    -0.311 N 
ATOM     14  C   LIG d   1      -2.440  79.658 116.596  0.00  0.00     0.210 C 
ATOM     15  C   LIG d   1      -1.105  78.987 116.935  0.00  0.00     0.109 C 
ATOM     16  O   LIG d   1      -2.526  80.420 115.622  0.00  0.00    -0.276 OA
ATOM     17  H   LIG d   1      -3.271  78.778 118.217  0.00  0.00     0.149 HD
ENDBRANCH   6  13
BRANCH   5  18
ATOM     18  N   LIG d   1      -4.464  81.969 118.693  0.00  0.00     0.381 N 
ATOM     19  H   LIG d   1      -5.036  82.693 119.079  0.00  0.00    -0.090 HD
ATOM     20  H   LIG d   1      -4.118  82.280 117.802  0.00  0.00    -0.090 HD
ATOM     21  H   LIG d   1      -3.701  81.776 119.305  0.00  0.00    -0.090 HD
ENDBRANCH   5  18
BRANCH   3  22
ATOM     22  C   LIG d   1      -8.903  80.206 118.340  0.00  0.00     0.382 C 
ATOM     23  O   LIG d   1      -9.381  81.306 118.708  0.00  0.00    -0.241 OA
ATOM     24  O   LIG d   1      -9.618  79.187 118.367  0.00  0.00    -0.241 OA
ENDBRANCH   3  22
TORSDOF 7
ENDMDL
MODEL 6
REMARK VINA RESULT:      -4.7      2.976      4.645
REMARK  7 active torsions:
REMARK  status: ('A' for Active; 'I' for Inactive)
REMARK    1  A    between atoms: C_2  and  C_3 
REMARK    2  A    between atoms: C_3  and  O_6 
REMARK    3  A    between atoms: C_3  and  C_4 
REMARK    4  A    between atoms: C_7  and  O_6 
REMARK    5  A    between atoms: C_9  and  C_10 
REMARK    6  A    between atoms: N_15  and  C_14 
REMARK    7  A    between atoms: N_20  and  C_19 
REMARK       I    between atoms: C_22  and  N_20 
ROOT
ATOM      1  C   LIG d   1      -3.278  77.384 117.379  0.00  0.00     0.161 C 
ATOM      2  C   LIG d   1      -2.229  76.533 116.993  0.00  0.00     0.016 C 
ATOM      3  C   LIG d   1      -2.357  75.545 115.990  0.00  0.00     0.038 C 
ATOM      4  C   LIG d   1      -3.508  75.441 115.194  0.00  0.00     0.028 C 
ATOM      5  C   LIG d   1      -4.771  75.943 115.887  0.00  0.00    -0.047 C 
ATOM      6  C   LIG d   1      -4.507  77.359 116.446  0.00  0.00     0.091 C 
ENDROOT
BRANCH   1   7
ATOM      7  O   LIG d   1      -2.787  78.731 117.526  0.00  0.00    -0.368 OA
BRANCH   7   8
ATOM      8  C   LIG d   1      -1.721  79.121 116.626  0.00  0.00     0.119 C 
BRANCH   8   9
ATOM      9  C   LIG d   1      -0.672  79.887 117.456  0.00  0.00     0.028 C 
ATOM     10  C   LIG d   1      -0.967  81.394 117.529  0.00  0.00     0.006 C 
ENDBRANCH   8   9
BRANCH   8  11
ATOM     11  C   LIG d   1      -2.216  80.121 115.576  0.00  0.00     0.028 C 
ATOM     12  C   LIG d   1      -2.424  79.481 114.195  0.00  0.00     0.006 C 
ENDBRANCH   8  11
ENDBRANCH   7   8
ENDBRANCH   1   7
BRANCH   6  13
ATOM     13  N   LIG d   1      -5.664  77.891 117.212  0.00  0.00    -0.311 N 
ATOM     14  C   LIG d   1      -6.125  79.133 117.076  0.00  0.00     0.210 C 
ATOM     15  C   LIG d   1      -7.315  79.483 117.976  0.00  0.00     0.109 C 
ATOM     16  O   LIG d   1      -5.683  79.968 116.273  0.00  0.00    -0.276 OA
ATOM     17  H   LIG d   1      -6.103  77.271 117.864  0.00  0.00     0.149 HD
ENDBRANCH   6  13
BRANCH   5  18
ATOM     18  N   LIG d   1      -5.866  75.905 114.899  0.00  0.00     0.381 N 
ATOM     19  H   LIG d   1      -6.374  76.766 114.924  0.00  0.00    -0.090 HD
ATOM     20  H   LIG d   1      -6.495  75.160 115.140  0.00  0.00    -0.090 HD
ATOM     21  H   LIG d   1      -5.496  75.755 113.986  0.00  0.00    -0.090 HD
ENDBRANCH   5  18
BRANCH   3  22
ATOM     22  C   LIG d   1      -1.341  74.621 115.802  0.00  0.00     0.382 C 
ATOM     23  O   LIG d   1      -0.691  74.613 114.728  0.00  0.00    -0.241 OA
ATOM     24  O   LIG d   1      -1.094  73.766 116.674  0.00  0.00    -0.241 OA
ENDBRANCH   3  22
TORSDOF 7
ENDMDL
MODEL 7
REMARK VINA RESULT:      -4.5     11.440     14.354
REMARK  7 active torsions:
REMARK  status: ('A' for Active; 'I' for Inactive)
REMARK    1  A    between atoms: C_2  and  C_3 
REMARK    2  A    between atoms: C_3  and  O_6 
REMARK    3  A    between atoms: C_3  and  C_4 
REMARK    4  A    between atoms: C_7  and  O_6 
REMARK    5  A    between atoms: C_9  and  C_10 
REMARK    6  A    between atoms: N_15  and  C_14 
REMARK    7  A    between atoms: N_20  and  C_19 
REMARK       I    between atoms: C_22  and  N_20 
ROOT
ATOM      1  C   LIG d   1      -0.183  90.100 117.323  0.00  0.00     0.161 C 
ATOM      2  C   LIG d   1       1.220  90.159 117.320  0.00  0.00     0.016 C 
ATOM      3  C   LIG d   1       1.948  91.371 117.339  0.00  0.00     0.038 C 
ATOM      4  C   LIG d   1       1.317  92.612 117.516  0.00  0.00     0.028 C 
ATOM      5  C   LIG d   1      -0.123  92.636 117.016  0.00  0.00    -0.047 C 
ATOM      6  C   LIG d   1      -0.887  91.439 117.628  0.00  0.00     0.091 C 
ENDROOT
BRANCH   1   7
ATOM      7  O   LIG d   1      -0.627  89.081 118.241  0.00  0.00    -0.368 OA
BRANCH   7   8
ATOM      8  C   LIG d   1      -0.379  89.336 119.645  0.00  0.00     0.119 C 
BRANCH   8   9
ATOM      9  C   LIG d   1       0.496  88.184 120.177  0.00  0.00     0.028 C 
ATOM     10  C   LIG d   1       0.404  86.924 119.300  0.00  0.00     0.006 C 
ENDBRANCH   8   9
BRANCH   8  11
ATOM     11  C   LIG d   1      -1.674  89.271 120.460  0.00  0.00     0.028 C 
ATOM     12  C   LIG d   1      -2.869  88.759 119.641  0.00  0.00     0.006 C 
ENDBRANCH   8  11
ENDBRANCH   7   8
ENDBRANCH   1   7
BRANCH   6  13
ATOM     13  N   LIG d   1      -2.281  91.339 117.125  0.00  0.00    -0.311 N 
ATOM     14  C   LIG d   1      -3.332  91.843 117.771  0.00  0.00     0.210 C 
ATOM     15  C   LIG d   1      -4.683  91.612 117.088  0.00  0.00     0.109 C 
ATOM     16  O   LIG d   1      -3.269  92.487 118.829  0.00  0.00    -0.276 OA
ATOM     17  H   LIG d   1      -2.420  90.860 116.257  0.00  0.00     0.149 HD
ENDBRANCH   6  13
BRANCH   5  18
ATOM     18  N   LIG d   1      -0.702  93.941 117.387  0.00  0.00     0.381 N 
ATOM     19  H   LIG d   1      -1.365  93.820 118.126  0.00  0.00    -0.090 HD
ATOM     20  H   LIG d   1      -1.183  94.322 116.591  0.00  0.00    -0.090 HD
ATOM     21  H   LIG d   1       0.020  94.564 117.677  0.00  0.00    -0.090 HD
ENDBRANCH   5  18
BRANCH   3  22
ATOM     22  C   LIG d   1       3.320  91.352 117.140  0.00  0.00     0.382 C 
ATOM     23  O   LIG d   1       3.932  92.418 116.886  0.00  0.00    -0.241 OA
ATOM     24  O   LIG d   1       3.947  90.277 117.166  0.00  0.00    -0.241 OA
ENDBRANCH   3  22
TORSDOF 7
ENDMDL
MODEL 8
REMARK VINA RESULT:      -4.4     13.625     16.270
REMARK  7 active torsions:
REMARK  status: ('A' for Active; 'I' for Inactive)
REMARK    1  A    between atoms: C_2  and  C_3 
REMARK    2  A    between atoms: C_3  and  O_6 
REMARK    3  A    between atoms: C_3  and  C_4 
REMARK    4  A    between atoms: C_7  and  O_6 
REMARK    5  A    between atoms: C_9  and  C_10 
REMARK    6  A    between atoms: N_15  and  C_14 
REMARK    7  A    between atoms: N_20  and  C_19 
REMARK       I    between atoms: C_22  and  N_20 
ROOT
ATOM      1  C   LIG d   1      -0.954  93.541 117.974  0.00  0.00     0.161 C 
ATOM      2  C   LIG d   1       0.363  93.206 117.615  0.00  0.00     0.016 C 
ATOM      3  C   LIG d   1       0.759  91.903 117.236  0.00  0.00     0.038 C 
ATOM      4  C   LIG d   1      -0.173  90.872 117.043  0.00  0.00     0.028 C 
ATOM      5  C   LIG d   1      -1.438  91.033 117.879  0.00  0.00    -0.047 C 
ATOM      6  C   LIG d   1      -2.005  92.455 117.662  0.00  0.00     0.091 C 
ENDROOT
BRANCH   1   7
ATOM      7  O   LIG d   1      -1.325  94.789 117.357  0.00  0.00    -0.368 OA
BRANCH   7   8
ATOM      8  C   LIG d   1      -1.213  95.970 118.190  0.00  0.00     0.119 C 
BRANCH   8   9
ATOM      9  C   LIG d   1      -2.643  96.455 118.501  0.00  0.00     0.028 C 
ATOM     10  C   LIG d   1      -3.128  96.003 119.888  0.00  0.00     0.006 C 
ENDBRANCH   8   9
BRANCH   8  11
ATOM     11  C   LIG d   1      -0.548  97.124 117.435  0.00  0.00     0.028 C 
ATOM     12  C   LIG d   1      -0.989  98.504 117.947  0.00  0.00     0.006 C 
ENDBRANCH   8  11
ENDBRANCH   7   8
ENDBRANCH   1   7
BRANCH   6  13
ATOM     13  N   LIG d   1      -3.196  92.726 118.508  0.00  0.00    -0.311 N 
ATOM     14  C   LIG d   1      -4.448  92.558 118.087  0.00  0.00     0.210 C 
ATOM     15  C   LIG d   1      -5.529  92.914 119.112  0.00  0.00     0.109 C 
ATOM     16  O   LIG d   1      -4.766  92.117 116.972  0.00  0.00    -0.276 OA
ATOM     17  H   LIG d   1      -3.029  93.057 119.438  0.00  0.00     0.149 HD
ENDBRANCH   6  13
BRANCH   5  18
ATOM     18  N   LIG d   1      -2.376  89.969 117.478  0.00  0.00     0.381 N 
ATOM     19  H   LIG d   1      -2.882  90.252 116.663  0.00  0.00    -0.090 HD
ATOM     20  H   LIG d   1      -3.035  89.819 118.222  0.00  0.00    -0.090 HD
ATOM     21  H   LIG d   1      -1.877  89.127 117.292  0.00  0.00    -0.090 HD
ENDBRANCH   5  18
BRANCH   3  22
ATOM     22  C   LIG d   1       2.106  91.610 117.085  0.00  0.00     0.382 C 
ATOM     23  O   LIG d   1       2.970  92.476 117.364  0.00  0.00    -0.241 OA
ATOM     24  O   LIG d   1       2.466  90.508 116.631  0.00  0.00    -0.241 OA
ENDBRANCH   3  22
TORSDOF 7
ENDMDL
MODEL 9
REMARK VINA RESULT:      -4.4      1.700      2.373
REMARK  7 active torsions:
REMARK  status: ('A' for Active; 'I' for Inactive)
REMARK    1  A    between atoms: C_2  and  C_3 
REMARK    2  A    between atoms: C_3  and  O_6 
REMARK    3  A    between atoms: C_3  and  C_4 
REMARK    4  A    between atoms: C_7  and  O_6 
REMARK    5  A    between atoms: C_9  and  C_10 
REMARK    6  A    between atoms: N_15  and  C_14 
REMARK    7  A    between atoms: N_20  and  C_19 
REMARK       I    between atoms: C_22  and  N_20 
ROOT
ATOM      1  C   LIG d   1      -2.359  78.583 116.099  0.00  0.00     0.161 C 
ATOM      2  C   LIG d   1      -3.510  77.951 115.598  0.00  0.00     0.016 C 
ATOM      3  C   LIG d   1      -3.499  76.663 115.017  0.00  0.00     0.038 C 
ATOM      4  C   LIG d   1      -2.356  75.851 115.034  0.00  0.00     0.028 C 
ATOM      5  C   LIG d   1      -1.052  76.641 115.074  0.00  0.00    -0.047 C 
ATOM      6  C   LIG d   1      -1.123  77.668 116.227  0.00  0.00     0.091 C 
ENDROOT
BRANCH   1   7
ATOM      7  O   LIG d   1      -2.655  79.205 117.365  0.00  0.00    -0.368 OA
BRANCH   7   8
ATOM      8  C   LIG d   1      -2.948  80.624 117.325  0.00  0.00     0.119 C 
BRANCH   8   9
ATOM      9  C   LIG d   1      -1.784  81.356 118.022  0.00  0.00     0.028 C 
ATOM     10  C   LIG d   1      -2.272  82.477 118.955  0.00  0.00     0.006 C 
ENDBRANCH   8   9
BRANCH   8  11
ATOM     11  C   LIG d   1      -4.192  80.960 118.151  0.00  0.00     0.028 C 
ATOM     12  C   LIG d   1      -5.415  81.289 117.281  0.00  0.00     0.006 C 
ENDBRANCH   8  11
ENDBRANCH   7   8
ENDBRANCH   1   7
BRANCH   6  13
ATOM     13  N   LIG d   1       0.078  78.541 116.284  0.00  0.00    -0.311 N 
ATOM     14  C   LIG d   1       1.146  78.271 117.034  0.00  0.00     0.210 C 
ATOM     15  C   LIG d   1       2.267  79.312 116.962  0.00  0.00     0.109 C 
ATOM     16  O   LIG d   1       1.284  77.251 117.726  0.00  0.00    -0.276 OA
ATOM     17  H   LIG d   1       0.064  79.374 115.729  0.00  0.00     0.149 HD
ENDBRANCH   6  13
BRANCH   5  18
ATOM     18  N   LIG d   1       0.051  75.674 115.228  0.00  0.00     0.381 N 
ATOM     19  H   LIG d   1       0.452  75.760 116.141  0.00  0.00    -0.090 HD
ATOM     20  H   LIG d   1       0.763  75.883 114.551  0.00  0.00    -0.090 HD
ATOM     21  H   LIG d   1      -0.287  74.747 115.092  0.00  0.00    -0.090 HD
ENDBRANCH   5  18
BRANCH   3  22
ATOM     22  C   LIG d   1      -4.633  76.190 114.374  0.00  0.00     0.382 C 
ATOM     23  O   LIG d   1      -4.716  74.978 114.060  0.00  0.00    -0.241 OA
ATOM     24  O   LIG d   1      -5.555  76.968 114.064  0.00  0.00    -0.241 OA
ENDBRANCH   3  22
TORSDOF 7
ENDMDL
