MODEL 1
REMARK VINA RESULT:      -5.6      0.000      0.000
REMARK  7 active torsions:
REMARK  status: ('A' for Active; 'I' for Inactive)
REMARK    1  A    between atoms: C_2  and  C_3 
REMARK    2  A    between atoms: C_3  and  O_6 
REMARK    3  A    between atoms: C_3  and  C_4 
REMARK    4  A    between atoms: C_7  and  O_6 
REMARK    5  A    between atoms: C_9  and  C_10 
REMARK    6  A    between atoms: N_15  and  C_14 
REMARK    7  A    between atoms: N_20  and  C_19 
REMARK       I    between atoms: C_22  and  N_20 
ROOT
ATOM      1  C   LIG d   1      -6.280  77.499 116.988  0.00  0.00     0.161 C 
ATOM      2  C   LIG d   1      -7.584  77.464 117.509  0.00  0.00     0.016 C 
ATOM      3  C   LIG d   1      -8.230  78.591 118.068  0.00  0.00     0.038 C 
ATOM      4  C   LIG d   1      -7.667  79.874 118.005  0.00  0.00     0.028 C 
ATOM      5  C   LIG d   1      -6.143  79.865 117.943  0.00  0.00    -0.047 C 
ATOM      6  C   LIG d   1      -5.693  78.915 116.810  0.00  0.00     0.091 C 
ENDROOT
BRANCH   1   7
ATOM      7  O   LIG d   1      -6.232  76.777 115.742  0.00  0.00    -0.368 OA
BRANCH   7   8
ATOM      8  C   LIG d   1      -5.517  75.517 115.762  0.00  0.00     0.119 C 
BRANCH   8   9
ATOM      9  C   LIG d   1      -4.308  75.656 114.816  0.00  0.00     0.028 C 
ATOM     10  C   LIG d   1      -2.966  75.515 115.554  0.00  0.00     0.006 C 
ENDBRANCH   8   9
BRANCH   8  11
ATOM     11  C   LIG d   1      -6.365  74.385 115.174  0.00  0.00     0.028 C 
ATOM     12  C   LIG d   1      -5.926  72.996 115.664  0.00  0.00     0.006 C 
ENDBRANCH   8  11
ENDBRANCH   7   8
ENDBRANCH   1   7
BRANCH   6  13
ATOM     13  N   LIG d   1      -4.214  78.783 116.736  0.00  0.00    -0.311 N 
ATOM     14  C   LIG d   1      -3.459  79.476 115.885  0.00  0.00     0.210 C 
ATOM     15  C   LIG d   1      -1.959  79.173 115.959  0.00  0.00     0.109 C 
ATOM     16  O   LIG d   1      -3.884  80.335 115.099  0.00  0.00    -0.276 OA
ATOM     17  H   LIG d   1      -3.783  78.130 117.360  0.00  0.00     0.149 HD
ENDBRANCH   6  13
BRANCH   5  18
ATOM     18  N   LIG d   1      -5.697  81.257 117.742  0.00  0.00     0.381 N 
ATOM     19  H   LIG d   1      -6.477  81.878 117.825  0.00  0.00    -0.090 HD
ATOM     20  H   LIG d   1      -5.320  81.347 116.815  0.00  0.00    -0.090 HD
ATOM     21  H   LIG d   1      -5.002  81.493 118.416  0.00  0.00    -0.090 HD
ENDBRANCH   5  18
BRANCH   3  22
ATOM     22  C   LIG d   1      -9.436  78.432 118.734  0.00  0.00     0.382 C 
ATOM     23  O   LIG d   1      -9.469  77.834 119.836  0.00  0.00    -0.241 OA
ATOM     24  O   LIG d   1     -10.497  78.841 118.225  0.00  0.00    -0.241 OA
ENDBRANCH   3  22
TORSDOF 7
ENDMDL
MODEL 2
REMARK VINA RESULT:      -5.4     13.214     15.677
REMARK  7 active torsions:
REMARK  status: ('A' for Active; 'I' for Inactive)
REMARK    1  A    between atoms: C_2  and  C_3 
REMARK    2  A    between atoms: C_3  and  O_6 
REMARK    3  A    between atoms: C_3  and  C_4 
REMARK    4  A    between atoms: C_7  and  O_6 
REMARK    5  A    between atoms: C_9  and  C_10 
REMARK    6  A    between atoms: N_15  and  C_14 
REMARK    7  A    between atoms: N_20  and  C_19 
REMARK       I    between atoms: C_22  and  N_20 
ROOT
ATOM      1  C   LIG d   1      -5.347  92.466 118.029  0.00  0.00     0.161 C 
ATOM      2  C   LIG d   1      -5.517  91.388 117.145  0.00  0.00     0.016 C 
ATOM      3  C   LIG d   1      -6.661  91.222 116.331  0.00  0.00     0.038 C 
ATOM      4  C   LIG d   1      -7.651  92.211 116.233  0.00  0.00     0.028 C 
ATOM      5  C   LIG d   1      -7.767  93.077 117.482  0.00  0.00    -0.047 C 
ATOM      6  C   LIG d   1      -6.365  93.612 117.854  0.00  0.00     0.091 C 
ENDROOT
BRANCH   1   7
ATOM      7  O   LIG d   1      -4.001  92.973 117.928  0.00  0.00    -0.368 OA
BRANCH   7   8
ATOM      8  C   LIG d   1      -3.139  92.721 119.065  0.00  0.00     0.119 C 
BRANCH   8   9
ATOM      9  C   LIG d   1      -2.527  94.070 119.490  0.00  0.00     0.028 C 
ATOM     10  C   LIG d   1      -2.302  95.014 118.297  0.00  0.00     0.006 C 
ENDBRANCH   8   9
BRANCH   8  11
ATOM     11  C   LIG d   1      -1.947  91.840 118.676  0.00  0.00     0.028 C 
ATOM     12  C   LIG d   1      -2.279  90.340 118.709  0.00  0.00     0.006 C 
ENDBRANCH   8  11
ENDBRANCH   7   8
ENDBRANCH   1   7
BRANCH   6  13
ATOM     13  N   LIG d   1      -6.375  94.401 119.113  0.00  0.00    -0.311 N 
ATOM     14  C   LIG d   1      -6.612  95.711 119.156  0.00  0.00     0.210 C 
ATOM     15  C   LIG d   1      -6.555  96.333 120.555  0.00  0.00     0.109 C 
ATOM     16  O   LIG d   1      -6.896  96.411 118.172  0.00  0.00    -0.276 OA
ATOM     17  H   LIG d   1      -6.185  93.906 119.963  0.00  0.00     0.149 HD
ENDBRANCH   6  13
BRANCH   5  18
ATOM     18  N   LIG d   1      -8.737  94.150 117.192  0.00  0.00     0.381 N 
ATOM     19  H   LIG d   1      -8.307  94.850 116.622  0.00  0.00    -0.090 HD
ATOM     20  H   LIG d   1      -9.018  94.576 118.058  0.00  0.00    -0.090 HD
ATOM     21  H   LIG d   1      -9.532  93.773 116.725  0.00  0.00    -0.090 HD
ENDBRANCH   5  18
BRANCH   3  22
ATOM     22  C   LIG d   1      -6.841  90.038 115.632  0.00  0.00     0.382 C 
ATOM     23  O   LIG d   1      -7.934  89.425 115.709  0.00  0.00    -0.241 OA
ATOM     24  O   LIG d   1      -5.911  89.551 114.963  0.00  0.00    -0.241 OA
ENDBRANCH   3  22
TORSDOF 7
ENDMDL
MODEL 3
REMARK VINA RESULT:      -5.1     18.644     21.889
REMARK  7 active torsions:
REMARK  status: ('A' for Active; 'I' for Inactive)
REMARK    1  A    between atoms: C_2  and  C_3 
REMARK    2  A    between atoms: C_3  and  O_6 
REMARK    3  A    between atoms: C_3  and  C_4 
REMARK    4  A    between atoms: C_7  and  O_6 
REMARK    5  A    between atoms: C_9  and  C_10 
REMARK    6  A    between atoms: N_15  and  C_14 
REMARK    7  A    between atoms: N_20  and  C_19 
REMARK       I    between atoms: C_22  and  N_20 
ROOT
ATOM      1  C   LIG d   1       0.981  57.835 118.538  0.00  0.00     0.161 C 
ATOM      2  C   LIG d   1       1.619  56.766 117.887  0.00  0.00     0.016 C 
ATOM      3  C   LIG d   1       0.923  55.762 117.175  0.00  0.00     0.038 C 
ATOM      4  C   LIG d   1      -0.457  55.843 116.937  0.00  0.00     0.028 C 
ATOM      5  C   LIG d   1      -1.210  56.634 118.002  0.00  0.00    -0.047 C 
ATOM      6  C   LIG d   1      -0.515  58.001 118.196  0.00  0.00     0.091 C 
ENDROOT
BRANCH   1   7
ATOM      7  O   LIG d   1       1.693  59.060 118.278  0.00  0.00    -0.368 OA
BRANCH   7   8
ATOM      8  C   LIG d   1       3.121  59.032 118.524  0.00  0.00     0.119 C 
BRANCH   8   9
ATOM      9  C   LIG d   1       3.357  59.582 119.944  0.00  0.00     0.028 C 
ATOM     10  C   LIG d   1       2.088  60.203 120.551  0.00  0.00     0.006 C 
ENDBRANCH   8   9
BRANCH   8  11
ATOM     11  C   LIG d   1       3.866  59.989 117.590  0.00  0.00     0.028 C 
ATOM     12  C   LIG d   1       5.191  60.493 118.186  0.00  0.00     0.006 C 
ENDBRANCH   8  11
ENDBRANCH   7   8
ENDBRANCH   1   7
BRANCH   6  13
ATOM     13  N   LIG d   1      -1.137  58.804 119.280  0.00  0.00    -0.311 N 
ATOM     14  C   LIG d   1      -2.086  59.715 119.065  0.00  0.00     0.210 C 
ATOM     15  C   LIG d   1      -2.577  60.445 120.319  0.00  0.00     0.109 C 
ATOM     16  O   LIG d   1      -2.589  59.964 117.960  0.00  0.00    -0.276 OA
ATOM     17  H   LIG d   1      -0.810  58.644 120.213  0.00  0.00     0.149 HD
ENDBRANCH   6  13
BRANCH   5  18
ATOM     18  N   LIG d   1      -2.612  56.756 117.558  0.00  0.00     0.381 N 
ATOM     19  H   LIG d   1      -2.646  57.204 116.665  0.00  0.00    -0.090 HD
ATOM     20  H   LIG d   1      -3.112  57.327 118.217  0.00  0.00    -0.090 HD
ATOM     21  H   LIG d   1      -3.031  55.854 117.502  0.00  0.00    -0.090 HD
ENDBRANCH   5  18
BRANCH   3  22
ATOM     22  C   LIG d   1       1.604  54.640 116.727  0.00  0.00     0.382 C 
ATOM     23  O   LIG d   1       1.481  54.267 115.535  0.00  0.00    -0.241 OA
ATOM     24  O   LIG d   1       2.304  53.971 117.510  0.00  0.00    -0.241 OA
ENDBRANCH   3  22
TORSDOF 7
ENDMDL
MODEL 4
REMARK VINA RESULT:      -5.1      2.552      5.419
REMARK  7 active torsions:
REMARK  status: ('A' for Active; 'I' for Inactive)
REMARK    1  A    between atoms: C_2  and  C_3 
REMARK    2  A    between atoms: C_3  and  O_6 
REMARK    3  A    between atoms: C_3  and  C_4 
REMARK    4  A    between atoms: C_7  and  O_6 
REMARK    5  A    between atoms: C_9  and  C_10 
REMARK    6  A    between atoms: N_15  and  C_14 
REMARK    7  A    between atoms: N_20  and  C_19 
REMARK       I    between atoms: C_22  and  N_20 
ROOT
ATOM      1  C   LIG d   1      -3.827  77.194 115.263  0.00  0.00     0.161 C 
ATOM      2  C   LIG d   1      -3.057  76.030 115.101  0.00  0.00     0.016 C 
ATOM      3  C   LIG d   1      -2.058  75.624 116.015  0.00  0.00     0.038 C 
ATOM      4  C   LIG d   1      -1.865  76.279 117.241  0.00  0.00     0.028 C 
ATOM      5  C   LIG d   1      -2.272  77.748 117.213  0.00  0.00    -0.047 C 
ATOM      6  C   LIG d   1      -3.707  77.861 116.649  0.00  0.00     0.091 C 
ENDROOT
BRANCH   1   7
ATOM      7  O   LIG d   1      -5.208  76.912 114.960  0.00  0.00    -0.368 OA
BRANCH   7   8
ATOM      8  C   LIG d   1      -5.796  75.786 115.656  0.00  0.00     0.119 C 
BRANCH   8   9
ATOM      9  C   LIG d   1      -5.985  74.654 114.628  0.00  0.00     0.028 C 
ATOM     10  C   LIG d   1      -6.233  73.290 115.296  0.00  0.00     0.006 C 
ENDBRANCH   8   9
BRANCH   8  11
ATOM     11  C   LIG d   1      -7.204  76.115 116.160  0.00  0.00     0.028 C 
ATOM     12  C   LIG d   1      -7.210  77.208 117.241  0.00  0.00     0.006 C 
ENDBRANCH   8  11
ENDBRANCH   7   8
ENDBRANCH   1   7
BRANCH   6  13
ATOM     13  N   LIG d   1      -4.152  79.272 116.509  0.00  0.00    -0.311 N 
ATOM     14  C   LIG d   1      -4.756  79.950 117.483  0.00  0.00     0.210 C 
ATOM     15  C   LIG d   1      -5.150  81.386 117.124  0.00  0.00     0.109 C 
ATOM     16  O   LIG d   1      -4.974  79.510 118.622  0.00  0.00    -0.276 OA
ATOM     17  H   LIG d   1      -3.987  79.717 115.628  0.00  0.00     0.149 HD
ENDBRANCH   6  13
BRANCH   5  18
ATOM     18  N   LIG d   1      -2.148  78.271 118.587  0.00  0.00     0.381 N 
ATOM     19  H   LIG d   1      -1.388  78.920 118.635  0.00  0.00    -0.090 HD
ATOM     20  H   LIG d   1      -1.952  77.507 119.209  0.00  0.00    -0.090 HD
ATOM     21  H   LIG d   1      -2.995  78.720 118.858  0.00  0.00    -0.090 HD
ENDBRANCH   5  18
BRANCH   3  22
ATOM     22  C   LIG d   1      -1.213  74.575 115.689  0.00  0.00     0.382 C 
ATOM     23  O   LIG d   1      -1.036  73.636 116.503  0.00  0.00    -0.241 OA
ATOM     24  O   LIG d   1      -0.592  74.576 114.609  0.00  0.00    -0.241 OA
ENDBRANCH   3  22
TORSDOF 7
ENDMDL
MODEL 5
REMARK VINA RESULT:      -4.8      1.794      2.157
REMARK  7 active torsions:
REMARK  status: ('A' for Active; 'I' for Inactive)
REMARK    1  A    between atoms: C_2  and  C_3 
REMARK    2  A    between atoms: C_3  and  O_6 
REMARK    3  A    between atoms: C_3  and  C_4 
REMARK    4  A    between atoms: C_7  and  O_6 
REMARK    5  A    between atoms: C_9  and  C_10 
REMARK    6  A    between atoms: N_15  and  C_14 
REMARK    7  A    between atoms: N_20  and  C_19 
REMARK       I    between atoms: C_22  and  N_20 
ROOT
ATOM      1  C   LIG d   1      -6.652  78.910 117.578  0.00  0.00     0.161 C 
ATOM      2  C   LIG d   1      -7.931  78.463 117.951  0.00  0.00     0.016 C 
ATOM      3  C   LIG d   1      -8.984  79.334 118.311  0.00  0.00     0.038 C 
ATOM      4  C   LIG d   1      -8.875  80.726 118.176  0.00  0.00     0.028 C 
ATOM      5  C   LIG d   1      -7.442  81.235 118.285  0.00  0.00    -0.047 C 
ATOM      6  C   LIG d   1      -6.547  80.427 117.317  0.00  0.00     0.091 C 
ENDROOT
BRANCH   1   7
ATOM      7  O   LIG d   1      -6.193  78.171 116.429  0.00  0.00    -0.368 OA
BRANCH   7   8
ATOM      8  C   LIG d   1      -5.970  76.753 116.630  0.00  0.00     0.119 C 
BRANCH   8   9
ATOM      9  C   LIG d   1      -4.511  76.453 116.232  0.00  0.00     0.028 C 
ATOM     10  C   LIG d   1      -3.787  77.693 115.680  0.00  0.00     0.006 C 
ENDBRANCH   8   9
BRANCH   8  11
ATOM     11  C   LIG d   1      -6.830  75.914 115.681  0.00  0.00     0.028 C 
ATOM     12  C   LIG d   1      -6.305  74.479 115.513  0.00  0.00     0.006 C 
ENDBRANCH   8  11
ENDBRANCH   7   8
ENDBRANCH   1   7
BRANCH   6  13
ATOM     13  N   LIG d   1      -5.113  80.803 117.422  0.00  0.00    -0.311 N 
ATOM     14  C   LIG d   1      -4.423  80.751 118.560  0.00  0.00     0.210 C 
ATOM     15  C   LIG d   1      -2.963  81.202 118.452  0.00  0.00     0.109 C 
ATOM     16  O   LIG d   1      -4.873  80.343 119.642  0.00  0.00    -0.276 OA
ATOM     17  H   LIG d   1      -4.662  81.116 116.585  0.00  0.00     0.149 HD
ENDBRANCH   6  13
BRANCH   5  18
ATOM     18  N   LIG d   1      -7.457  82.679 117.988  0.00  0.00     0.381 N 
ATOM     19  H   LIG d   1      -7.574  83.198 118.836  0.00  0.00    -0.090 HD
ATOM     20  H   LIG d   1      -8.237  82.879 117.386  0.00  0.00    -0.090 HD
ATOM     21  H   LIG d   1      -6.607  82.945 117.542  0.00  0.00    -0.090 HD
ENDBRANCH   5  18
BRANCH   3  22
ATOM     22  C   LIG d   1     -10.151  78.815 118.851  0.00  0.00     0.382 C 
ATOM     23  O   LIG d   1     -10.713  77.835 118.305  0.00  0.00    -0.241 OA
ATOM     24  O   LIG d   1     -10.673  79.341 119.852  0.00  0.00    -0.241 OA
ENDBRANCH   3  22
TORSDOF 7
ENDMDL
MODEL 6
REMARK VINA RESULT:      -4.8      0.938      1.958
REMARK  7 active torsions:
REMARK  status: ('A' for Active; 'I' for Inactive)
REMARK    1  A    between atoms: C_2  and  C_3 
REMARK    2  A    between atoms: C_3  and  O_6 
REMARK    3  A    between atoms: C_3  and  C_4 
REMARK    4  A    between atoms: C_7  and  O_6 
REMARK    5  A    between atoms: C_9  and  C_10 
REMARK    6  A    between atoms: N_15  and  C_14 
REMARK    7  A    between atoms: N_20  and  C_19 
REMARK       I    between atoms: C_22  and  N_20 
ROOT
ATOM      1  C   LIG d   1      -5.508  77.805 116.695  0.00  0.00     0.161 C 
ATOM      2  C   LIG d   1      -6.767  77.435 117.196  0.00  0.00     0.016 C 
ATOM      3  C   LIG d   1      -7.621  78.323 117.890  0.00  0.00     0.038 C 
ATOM      4  C   LIG d   1      -7.335  79.692 117.998  0.00  0.00     0.028 C 
ATOM      5  C   LIG d   1      -5.844  80.006 117.949  0.00  0.00    -0.047 C 
ATOM      6  C   LIG d   1      -5.228  79.322 116.706  0.00  0.00     0.091 C 
ENDROOT
BRANCH   1   7
ATOM      7  O   LIG d   1      -5.335  77.274 115.366  0.00  0.00    -0.368 OA
BRANCH   7   8
ATOM      8  C   LIG d   1      -4.340  76.231 115.221  0.00  0.00     0.119 C 
BRANCH   8   9
ATOM      9  C   LIG d   1      -5.069  74.878 115.325  0.00  0.00     0.028 C 
ATOM     10  C   LIG d   1      -6.287  74.793 114.390  0.00  0.00     0.006 C 
ENDBRANCH   8   9
BRANCH   8  11
ATOM     11  C   LIG d   1      -3.344  76.246 116.384  0.00  0.00     0.028 C 
ATOM     12  C   LIG d   1      -1.885  76.370 115.917  0.00  0.00     0.006 C 
ENDBRANCH   8  11
ENDBRANCH   7   8
ENDBRANCH   1   7
BRANCH   6  13
ATOM     13  N   LIG d   1      -3.756  79.509 116.628  0.00  0.00    -0.311 N 
ATOM     14  C   LIG d   1      -3.141  80.061 115.584  0.00  0.00     0.210 C 
ATOM     15  C   LIG d   1      -1.616  80.140 115.698  0.00  0.00     0.109 C 
ATOM     16  O   LIG d   1      -3.717  80.523 114.587  0.00  0.00    -0.276 OA
ATOM     17  H   LIG d   1      -3.214  79.191 117.408  0.00  0.00     0.149 HD
ENDBRANCH   6  13
BRANCH   5  18
ATOM     18  N   LIG d   1      -5.697  81.474 117.933  0.00  0.00     0.381 N 
ATOM     19  H   LIG d   1      -5.600  81.794 116.991  0.00  0.00    -0.090 HD
ATOM     20  H   LIG d   1      -4.866  81.723 118.439  0.00  0.00    -0.090 HD
ATOM     21  H   LIG d   1      -6.492  81.900 118.356  0.00  0.00    -0.090 HD
ENDBRANCH   5  18
BRANCH   3  22
ATOM     22  C   LIG d   1      -8.756  77.835 118.519  0.00  0.00     0.382 C 
ATOM     23  O   LIG d   1      -9.788  77.590 117.848  0.00  0.00    -0.241 OA
ATOM     24  O   LIG d   1      -8.775  77.678 119.754  0.00  0.00    -0.241 OA
ENDBRANCH   3  22
TORSDOF 7
ENDMDL
MODEL 7
REMARK VINA RESULT:      -4.7     15.507     17.628
REMARK  7 active torsions:
REMARK  status: ('A' for Active; 'I' for Inactive)
REMARK    1  A    between atoms: C_2  and  C_3 
REMARK    2  A    between atoms: C_3  and  O_6 
REMARK    3  A    between atoms: C_3  and  C_4 
REMARK    4  A    between atoms: C_7  and  O_6 
REMARK    5  A    between atoms: C_9  and  C_10 
REMARK    6  A    between atoms: N_15  and  C_14 
REMARK    7  A    between atoms: N_20  and  C_19 
REMARK       I    between atoms: C_22  and  N_20 
ROOT
ATOM      1  C   LIG d   1      -5.628  94.766 119.835  0.00  0.00     0.161 C 
ATOM      2  C   LIG d   1      -6.808  94.130 119.413  0.00  0.00     0.016 C 
ATOM      3  C   LIG d   1      -7.779  94.754 118.597  0.00  0.00     0.038 C 
ATOM      4  C   LIG d   1      -7.564  96.014 118.020  0.00  0.00     0.028 C 
ATOM      5  C   LIG d   1      -6.616  96.896 118.826  0.00  0.00    -0.047 C 
ATOM      6  C   LIG d   1      -5.324  96.102 119.125  0.00  0.00     0.091 C 
ENDROOT
BRANCH   1   7
ATOM      7  O   LIG d   1      -4.512  93.864 119.705  0.00  0.00    -0.368 OA
BRANCH   7   8
ATOM      8  C   LIG d   1      -4.104  93.547 118.351  0.00  0.00     0.119 C 
BRANCH   8   9
ATOM      9  C   LIG d   1      -4.618  92.130 118.032  0.00  0.00     0.028 C 
ATOM     10  C   LIG d   1      -5.606  92.115 116.854  0.00  0.00     0.006 C 
ENDBRANCH   8   9
BRANCH   8  11
ATOM     11  C   LIG d   1      -2.579  93.460 118.236  0.00  0.00     0.028 C 
ATOM     12  C   LIG d   1      -1.910  94.840 118.130  0.00  0.00     0.006 C 
ENDBRANCH   8  11
ENDBRANCH   7   8
ENDBRANCH   1   7
BRANCH   6  13
ATOM     13  N   LIG d   1      -4.377  96.862 119.981  0.00  0.00    -0.311 N 
ATOM     14  C   LIG d   1      -3.482  97.722 119.500  0.00  0.00     0.210 C 
ATOM     15  C   LIG d   1      -2.589  98.384 120.555  0.00  0.00     0.109 C 
ATOM     16  O   LIG d   1      -3.363  98.024 118.303  0.00  0.00    -0.276 OA
ATOM     17  H   LIG d   1      -4.425  96.701 120.969  0.00  0.00     0.149 HD
ENDBRANCH   6  13
BRANCH   5  18
ATOM     18  N   LIG d   1      -6.374  98.122 118.043  0.00  0.00     0.381 N 
ATOM     19  H   LIG d   1      -5.752  97.922 117.285  0.00  0.00    -0.090 HD
ATOM     20  H   LIG d   1      -5.938  98.806 118.636  0.00  0.00    -0.090 HD
ATOM     21  H   LIG d   1      -7.235  98.477 117.690  0.00  0.00    -0.090 HD
ENDBRANCH   5  18
BRANCH   3  22
ATOM     22  C   LIG d   1      -9.000  94.131 118.384  0.00  0.00     0.382 C 
ATOM     23  O   LIG d   1      -9.963  94.359 119.155  0.00  0.00    -0.241 OA
ATOM     24  O   LIG d   1      -9.137  93.310 117.457  0.00  0.00    -0.241 OA
ENDBRANCH   3  22
TORSDOF 7
ENDMDL
MODEL 8
REMARK VINA RESULT:      -4.6     14.593     17.334
REMARK  7 active torsions:
REMARK  status: ('A' for Active; 'I' for Inactive)
REMARK    1  A    between atoms: C_2  and  C_3 
REMARK    2  A    between atoms: C_3  and  O_6 
REMARK    3  A    between atoms: C_3  and  C_4 
REMARK    4  A    between atoms: C_7  and  O_6 
REMARK    5  A    between atoms: C_9  and  C_10 
REMARK    6  A    between atoms: N_15  and  C_14 
REMARK    7  A    between atoms: N_20  and  C_19 
REMARK       I    between atoms: C_22  and  N_20 
ROOT
ATOM      1  C   LIG d   1     -15.720  65.172 117.592  0.00  0.00     0.161 C 
ATOM      2  C   LIG d   1     -14.725  64.301 118.067  0.00  0.00     0.016 C 
ATOM      3  C   LIG d   1     -14.989  62.983 118.505  0.00  0.00     0.038 C 
ATOM      4  C   LIG d   1     -16.252  62.390 118.355  0.00  0.00     0.028 C 
ATOM      5  C   LIG d   1     -17.397  63.398 118.349  0.00  0.00    -0.047 C 
ATOM      6  C   LIG d   1     -17.085  64.506 117.317  0.00  0.00     0.091 C 
ENDROOT
BRANCH   1   7
ATOM      7  O   LIG d   1     -15.250  65.855 116.413  0.00  0.00    -0.368 OA
BRANCH   7   8
ATOM      8  C   LIG d   1     -14.554  67.106 116.637  0.00  0.00     0.119 C 
BRANCH   8   9
ATOM      9  C   LIG d   1     -15.378  67.919 117.654  0.00  0.00     0.028 C 
ATOM     10  C   LIG d   1     -16.488  68.745 116.983  0.00  0.00     0.006 C 
ENDBRANCH   8   9
BRANCH   8  11
ATOM     11  C   LIG d   1     -14.521  67.960 115.367  0.00  0.00     0.028 C 
ATOM     12  C   LIG d   1     -14.777  67.142 114.091  0.00  0.00     0.006 C 
ENDBRANCH   8  11
ENDBRANCH   7   8
ENDBRANCH   1   7
BRANCH   6  13
ATOM     13  N   LIG d   1     -18.114  65.577 117.307  0.00  0.00    -0.311 N 
ATOM     14  C   LIG d   1     -19.161  65.581 116.483  0.00  0.00     0.210 C 
ATOM     15  C   LIG d   1     -20.091  66.790 116.625  0.00  0.00     0.109 C 
ATOM     16  O   LIG d   1     -19.425  64.682 115.671  0.00  0.00    -0.276 OA
ATOM     17  H   LIG d   1     -17.995  66.331 117.956  0.00  0.00     0.149 HD
ENDBRANCH   6  13
BRANCH   5  18
ATOM     18  N   LIG d   1     -18.638  62.660 118.048  0.00  0.00     0.381 N 
ATOM     19  H   LIG d   1     -18.960  62.189 118.870  0.00  0.00    -0.090 HD
ATOM     20  H   LIG d   1     -18.443  61.970 117.344  0.00  0.00    -0.090 HD
ATOM     21  H   LIG d   1     -19.338  63.290 117.721  0.00  0.00    -0.090 HD
ENDBRANCH   5  18
BRANCH   3  22
ATOM     22  C   LIG d   1     -13.992  62.256 119.137  0.00  0.00     0.382 C 
ATOM     23  O   LIG d   1     -14.296  61.360 119.961  0.00  0.00    -0.241 OA
ATOM     24  O   LIG d   1     -12.792  62.515 118.928  0.00  0.00    -0.241 OA
ENDBRANCH   3  22
TORSDOF 7
ENDMDL
MODEL 9
REMARK VINA RESULT:      -4.6     14.333     16.959
REMARK  7 active torsions:
REMARK  status: ('A' for Active; 'I' for Inactive)
REMARK    1  A    between atoms: C_2  and  C_3 
REMARK    2  A    between atoms: C_3  and  O_6 
REMARK    3  A    between atoms: C_3  and  C_4 
REMARK    4  A    between atoms: C_7  and  O_6 
REMARK    5  A    between atoms: C_9  and  C_10 
REMARK    6  A    between atoms: N_15  and  C_14 
REMARK    7  A    between atoms: N_20  and  C_19 
REMARK       I    between atoms: C_22  and  N_20 
ROOT
ATOM      1  C   LIG d   1     -16.232  64.868 117.016  0.00  0.00     0.161 C 
ATOM      2  C   LIG d   1     -16.259  66.088 116.319  0.00  0.00     0.016 C 
ATOM      3  C   LIG d   1     -15.372  67.157 116.586  0.00  0.00     0.038 C 
ATOM      4  C   LIG d   1     -14.293  67.021 117.472  0.00  0.00     0.028 C 
ATOM      5  C   LIG d   1     -14.533  65.984 118.564  0.00  0.00    -0.047 C 
ATOM      6  C   LIG d   1     -14.990  64.661 117.908  0.00  0.00     0.091 C 
ENDROOT
BRANCH   1   7
ATOM      7  O   LIG d   1     -16.371  63.773 116.089  0.00  0.00    -0.368 OA
BRANCH   7   8
ATOM      8  C   LIG d   1     -17.638  63.072 116.117  0.00  0.00     0.119 C 
BRANCH   8   9
ATOM      9  C   LIG d   1     -17.331  61.562 116.140  0.00  0.00     0.028 C 
ATOM     10  C   LIG d   1     -17.398  60.970 117.558  0.00  0.00     0.006 C 
ENDBRANCH   8   9
BRANCH   8  11
ATOM     11  C   LIG d   1     -18.433  63.304 114.828  0.00  0.00     0.028 C 
ATOM     12  C   LIG d   1     -19.345  62.121 114.469  0.00  0.00     0.006 C 
ENDBRANCH   8  11
ENDBRANCH   7   8
ENDBRANCH   1   7
BRANCH   6  13
ATOM     13  N   LIG d   1     -15.328  63.618 118.912  0.00  0.00    -0.311 N 
ATOM     14  C   LIG d   1     -14.491  62.644 119.267  0.00  0.00     0.210 C 
ATOM     15  C   LIG d   1     -15.044  61.661 120.303  0.00  0.00     0.109 C 
ATOM     16  O   LIG d   1     -13.331  62.520 118.846  0.00  0.00    -0.276 OA
ATOM     17  H   LIG d   1     -16.238  63.661 119.327  0.00  0.00     0.149 HD
ENDBRANCH   6  13
BRANCH   5  18
ATOM     18  N   LIG d   1     -13.280  65.846 119.331  0.00  0.00     0.381 N 
ATOM     19  H   LIG d   1     -13.484  65.549 120.264  0.00  0.00    -0.090 HD
ATOM     20  H   LIG d   1     -12.827  66.741 119.377  0.00  0.00    -0.090 HD
ATOM     21  H   LIG d   1     -12.680  65.184 118.888  0.00  0.00    -0.090 HD
ENDBRANCH   5  18
BRANCH   3  22
ATOM     22  C   LIG d   1     -15.586  68.391 115.993  0.00  0.00     0.382 C 
ATOM     23  O   LIG d   1     -16.376  69.212 116.519  0.00  0.00    -0.241 OA
ATOM     24  O   LIG d   1     -15.032  68.678 114.915  0.00  0.00    -0.241 OA
ENDBRANCH   3  22
TORSDOF 7
ENDMDL
