MODEL 1
REMARK VINA RESULT:      -4.9      0.000      0.000
REMARK  7 active torsions:
REMARK  status: ('A' for Active; 'I' for Inactive)
REMARK    1  A    between atoms: C_2  and  C_3 
REMARK    2  A    between atoms: C_3  and  O_6 
REMARK    3  A    between atoms: C_3  and  C_4 
REMARK    4  A    between atoms: C_7  and  O_6 
REMARK    5  A    between atoms: C_9  and  C_10 
REMARK    6  A    between atoms: N_15  and  C_14 
REMARK    7  A    between atoms: N_20  and  C_19 
REMARK       I    between atoms: C_22  and  N_20 
ROOT
ATOM      1  C   LIG d   1      -4.474  74.657 117.900  0.00  0.00     0.161 C 
ATOM      2  C   LIG d   1      -4.939  73.335 117.797  0.00  0.00     0.016 C 
ATOM      3  C   LIG d   1      -5.884  72.915 116.833  0.00  0.00     0.038 C 
ATOM      4  C   LIG d   1      -6.318  73.762 115.803  0.00  0.00     0.028 C 
ATOM      5  C   LIG d   1      -6.261  75.241 116.170  0.00  0.00    -0.047 C 
ATOM      6  C   LIG d   1      -4.852  75.569 116.714  0.00  0.00     0.091 C 
ENDROOT
BRANCH   1   7
ATOM      7  O   LIG d   1      -3.046  74.659 118.098  0.00  0.00    -0.368 OA
BRANCH   7   8
ATOM      8  C   LIG d   1      -2.324  73.535 117.538  0.00  0.00     0.119 C 
BRANCH   8   9
ATOM      9  C   LIG d   1      -1.244  73.124 118.557  0.00  0.00     0.028 C 
ATOM     10  C   LIG d   1      -1.234  74.031 119.799  0.00  0.00     0.006 C 
ENDBRANCH   8   9
BRANCH   8  11
ATOM     11  C   LIG d   1      -1.556  73.940 116.275  0.00  0.00     0.028 C 
ATOM     12  C   LIG d   1      -1.142  75.420 116.279  0.00  0.00     0.006 C 
ENDBRANCH   8  11
ENDBRANCH   7   8
ENDBRANCH   1   7
BRANCH   6  13
ATOM     13  N   LIG d   1      -4.737  76.977 117.175  0.00  0.00    -0.311 N 
ATOM     14  C   LIG d   1      -4.345  77.977 116.387  0.00  0.00     0.210 C 
ATOM     15  C   LIG d   1      -4.275  79.348 117.068  0.00  0.00     0.109 C 
ATOM     16  O   LIG d   1      -4.080  77.864 115.181  0.00  0.00    -0.276 OA
ATOM     17  H   LIG d   1      -4.962  77.164 118.133  0.00  0.00     0.149 HD
ENDBRANCH   6  13
BRANCH   5  18
ATOM     18  N   LIG d   1      -6.608  76.013 114.962  0.00  0.00     0.381 N 
ATOM     19  H   LIG d   1      -6.212  75.576 114.154  0.00  0.00    -0.090 HD
ATOM     20  H   LIG d   1      -6.220  76.936 115.043  0.00  0.00    -0.090 HD
ATOM     21  H   LIG d   1      -7.598  76.069 114.866  0.00  0.00    -0.090 HD
ENDBRANCH   5  18
BRANCH   3  22
ATOM     22  C   LIG d   1      -6.435  71.646 116.919  0.00  0.00     0.382 C 
ATOM     23  O   LIG d   1      -6.595  71.106 118.040  0.00  0.00    -0.241 OA
ATOM     24  O   LIG d   1      -6.734  71.016 115.887  0.00  0.00    -0.241 OA
ENDBRANCH   3  22
TORSDOF 7
ENDMDL
MODEL 2
REMARK VINA RESULT:      -4.8      4.478      6.634
REMARK  7 active torsions:
REMARK  status: ('A' for Active; 'I' for Inactive)
REMARK    1  A    between atoms: C_2  and  C_3 
REMARK    2  A    between atoms: C_3  and  O_6 
REMARK    3  A    between atoms: C_3  and  C_4 
REMARK    4  A    between atoms: C_7  and  O_6 
REMARK    5  A    between atoms: C_9  and  C_10 
REMARK    6  A    between atoms: N_15  and  C_14 
REMARK    7  A    between atoms: N_20  and  C_19 
REMARK       I    between atoms: C_22  and  N_20 
ROOT
ATOM      1  C   LIG d   1      -6.672  79.357 117.945  0.00  0.00     0.161 C 
ATOM      2  C   LIG d   1      -7.967  78.913 118.259  0.00  0.00     0.016 C 
ATOM      3  C   LIG d   1      -8.999  79.774 118.697  0.00  0.00     0.038 C 
ATOM      4  C   LIG d   1      -8.848  81.169 118.707  0.00  0.00     0.028 C 
ATOM      5  C   LIG d   1      -7.401  81.620 118.882  0.00  0.00    -0.047 C 
ATOM      6  C   LIG d   1      -6.519  80.889 117.843  0.00  0.00     0.091 C 
ENDROOT
BRANCH   1   7
ATOM      7  O   LIG d   1      -6.220  78.727 116.730  0.00  0.00    -0.368 OA
BRANCH   7   8
ATOM      8  C   LIG d   1      -5.993  77.297 116.800  0.00  0.00     0.119 C 
BRANCH   8   9
ATOM      9  C   LIG d   1      -4.514  77.046 116.447  0.00  0.00     0.028 C 
ATOM     10  C   LIG d   1      -4.347  76.318 115.103  0.00  0.00     0.006 C 
ENDBRANCH   8   9
BRANCH   8  11
ATOM     11  C   LIG d   1      -6.797  76.553 115.730  0.00  0.00     0.028 C 
ATOM     12  C   LIG d   1      -7.936  75.707 116.322  0.00  0.00     0.006 C 
ENDBRANCH   8  11
ENDBRANCH   7   8
ENDBRANCH   1   7
BRANCH   6  13
ATOM     13  N   LIG d   1      -5.077  81.209 118.000  0.00  0.00    -0.311 N 
ATOM     14  C   LIG d   1      -4.459  82.165 117.309  0.00  0.00     0.210 C 
ATOM     15  C   LIG d   1      -2.964  82.317 117.609  0.00  0.00     0.109 C 
ATOM     16  O   LIG d   1      -5.013  82.924 116.499  0.00  0.00    -0.276 OA
ATOM     17  H   LIG d   1      -4.557  80.663 118.659  0.00  0.00     0.149 HD
ENDBRANCH   6  13
BRANCH   5  18
ATOM     18  N   LIG d   1      -7.371  83.087 118.735  0.00  0.00     0.381 N 
ATOM     19  H   LIG d   1      -8.299  83.454 118.807  0.00  0.00    -0.090 HD
ATOM     20  H   LIG d   1      -7.011  83.316 117.826  0.00  0.00    -0.090 HD
ATOM     21  H   LIG d   1      -6.793  83.488 119.440  0.00  0.00    -0.090 HD
ENDBRANCH   5  18
BRANCH   3  22
ATOM     22  C   LIG d   1     -10.187  79.238 119.170  0.00  0.00     0.382 C 
ATOM     23  O   LIG d   1     -10.622  78.161 118.694  0.00  0.00    -0.241 OA
ATOM     24  O   LIG d   1     -10.852  79.839 120.035  0.00  0.00    -0.241 OA
ENDBRANCH   3  22
TORSDOF 7
ENDMDL
MODEL 3
REMARK VINA RESULT:      -4.7      1.773      4.788
REMARK  7 active torsions:
REMARK  status: ('A' for Active; 'I' for Inactive)
REMARK    1  A    between atoms: C_2  and  C_3 
REMARK    2  A    between atoms: C_3  and  O_6 
REMARK    3  A    between atoms: C_3  and  C_4 
REMARK    4  A    between atoms: C_7  and  O_6 
REMARK    5  A    between atoms: C_9  and  C_10 
REMARK    6  A    between atoms: N_15  and  C_14 
REMARK    7  A    between atoms: N_20  and  C_19 
REMARK       I    between atoms: C_22  and  N_20 
ROOT
ATOM      1  C   LIG d   1      -3.756  74.248 116.055  0.00  0.00     0.161 C 
ATOM      2  C   LIG d   1      -3.059  75.417 115.709  0.00  0.00     0.016 C 
ATOM      3  C   LIG d   1      -3.696  76.603 115.275  0.00  0.00     0.038 C 
ATOM      4  C   LIG d   1      -5.091  76.748 115.302  0.00  0.00     0.028 C 
ATOM      5  C   LIG d   1      -5.840  75.427 115.163  0.00  0.00    -0.047 C 
ATOM      6  C   LIG d   1      -5.283  74.422 116.197  0.00  0.00     0.091 C 
ENDROOT
BRANCH   1   7
ATOM      7  O   LIG d   1      -3.202  73.688 117.262  0.00  0.00    -0.368 OA
BRANCH   7   8
ATOM      8  C   LIG d   1      -2.070  74.392 117.830  0.00  0.00     0.119 C 
BRANCH   8   9
ATOM      9  C   LIG d   1      -0.904  73.390 117.930  0.00  0.00     0.028 C 
ATOM     10  C   LIG d   1      -0.830  72.711 119.308  0.00  0.00     0.006 C 
ENDBRANCH   8   9
BRANCH   8  11
ATOM     11  C   LIG d   1      -2.353  74.830 119.270  0.00  0.00     0.028 C 
ATOM     12  C   LIG d   1      -3.831  75.182 119.507  0.00  0.00     0.006 C 
ENDBRANCH   8  11
ENDBRANCH   7   8
ENDBRANCH   1   7
BRANCH   6  13
ATOM     13  N   LIG d   1      -5.903  73.078 116.073  0.00  0.00    -0.311 N 
ATOM     14  C   LIG d   1      -6.219  72.316 117.119  0.00  0.00     0.210 C 
ATOM     15  C   LIG d   1      -6.830  70.956 116.768  0.00  0.00     0.109 C 
ATOM     16  O   LIG d   1      -6.080  72.651 118.305  0.00  0.00    -0.276 OA
ATOM     17  H   LIG d   1      -6.079  72.740 115.147  0.00  0.00     0.149 HD
ENDBRANCH   6  13
BRANCH   5  18
ATOM     18  N   LIG d   1      -7.277  75.707 115.345  0.00  0.00     0.381 N 
ATOM     19  H   LIG d   1      -7.403  76.344 116.107  0.00  0.00    -0.090 HD
ATOM     20  H   LIG d   1      -7.750  74.850 115.570  0.00  0.00    -0.090 HD
ATOM     21  H   LIG d   1      -7.657  76.096 114.511  0.00  0.00    -0.090 HD
ENDBRANCH   5  18
BRANCH   3  22
ATOM     22  C   LIG d   1      -2.935  77.646 114.769  0.00  0.00     0.382 C 
ATOM     23  O   LIG d   1      -3.443  78.786 114.638  0.00  0.00    -0.241 OA
ATOM     24  O   LIG d   1      -1.762  77.451 114.400  0.00  0.00    -0.241 OA
ENDBRANCH   3  22
TORSDOF 7
ENDMDL
MODEL 4
REMARK VINA RESULT:      -4.6      2.564      6.117
REMARK  7 active torsions:
REMARK  status: ('A' for Active; 'I' for Inactive)
REMARK    1  A    between atoms: C_2  and  C_3 
REMARK    2  A    between atoms: C_3  and  O_6 
REMARK    3  A    between atoms: C_3  and  C_4 
REMARK    4  A    between atoms: C_7  and  O_6 
REMARK    5  A    between atoms: C_9  and  C_10 
REMARK    6  A    between atoms: N_15  and  C_14 
REMARK    7  A    between atoms: N_20  and  C_19 
REMARK       I    between atoms: C_22  and  N_20 
ROOT
ATOM      1  C   LIG d   1      -3.530  76.495 116.876  0.00  0.00     0.161 C 
ATOM      2  C   LIG d   1      -3.711  77.710 116.196  0.00  0.00     0.016 C 
ATOM      3  C   LIG d   1      -2.671  78.380 115.511  0.00  0.00     0.038 C 
ATOM      4  C   LIG d   1      -1.407  77.800 115.332  0.00  0.00     0.028 C 
ATOM      5  C   LIG d   1      -1.034  76.809 116.430  0.00  0.00    -0.047 C 
ATOM      6  C   LIG d   1      -2.185  75.791 116.599  0.00  0.00     0.091 C 
ENDROOT
BRANCH   1   7
ATOM      7  O   LIG d   1      -4.629  75.606 116.590  0.00  0.00    -0.368 OA
BRANCH   7   8
ATOM      8  C   LIG d   1      -5.683  75.556 117.582  0.00  0.00     0.119 C 
BRANCH   8   9
ATOM      9  C   LIG d   1      -5.427  74.322 118.468  0.00  0.00     0.028 C 
ATOM     10  C   LIG d   1      -5.977  73.028 117.844  0.00  0.00     0.006 C 
ENDBRANCH   8   9
BRANCH   8  11
ATOM     11  C   LIG d   1      -7.049  75.313 116.932  0.00  0.00     0.028 C 
ATOM     12  C   LIG d   1      -7.112  75.805 115.478  0.00  0.00     0.006 C 
ENDBRANCH   8  11
ENDBRANCH   7   8
ENDBRANCH   1   7
BRANCH   6  13
ATOM     13  N   LIG d   1      -1.939  74.836 117.711  0.00  0.00    -0.311 N 
ATOM     14  C   LIG d   1      -1.375  73.642 117.540  0.00  0.00     0.210 C 
ATOM     15  C   LIG d   1      -1.232  72.806 118.815  0.00  0.00     0.109 C 
ATOM     16  O   LIG d   1      -0.951  73.208 116.458  0.00  0.00    -0.276 OA
ATOM     17  H   LIG d   1      -2.224  75.121 118.627  0.00  0.00     0.149 HD
ENDBRANCH   6  13
BRANCH   5  18
ATOM     18  N   LIG d   1       0.243  76.179 116.047  0.00  0.00     0.381 N 
ATOM     19  H   LIG d   1       0.989  76.570 116.587  0.00  0.00    -0.090 HD
ATOM     20  H   LIG d   1       0.423  76.371 115.077  0.00  0.00    -0.090 HD
ATOM     21  H   LIG d   1       0.196  75.195 116.195  0.00  0.00    -0.090 HD
ENDBRANCH   5  18
BRANCH   3  22
ATOM     22  C   LIG d   1      -2.881  79.664 115.030  0.00  0.00     0.382 C 
ATOM     23  O   LIG d   1      -2.552  80.655 115.726  0.00  0.00    -0.241 OA
ATOM     24  O   LIG d   1      -3.435  79.844 113.930  0.00  0.00    -0.241 OA
ENDBRANCH   3  22
TORSDOF 7
ENDMDL
MODEL 5
REMARK VINA RESULT:      -4.4      2.426      5.896
REMARK  7 active torsions:
REMARK  status: ('A' for Active; 'I' for Inactive)
REMARK    1  A    between atoms: C_2  and  C_3 
REMARK    2  A    between atoms: C_3  and  O_6 
REMARK    3  A    between atoms: C_3  and  C_4 
REMARK    4  A    between atoms: C_7  and  O_6 
REMARK    5  A    between atoms: C_9  and  C_10 
REMARK    6  A    between atoms: N_15  and  C_14 
REMARK    7  A    between atoms: N_20  and  C_19 
REMARK       I    between atoms: C_22  and  N_20 
ROOT
ATOM      1  C   LIG d   1      -5.005  76.741 117.751  0.00  0.00     0.161 C 
ATOM      2  C   LIG d   1      -5.707  77.958 117.729  0.00  0.00     0.016 C 
ATOM      3  C   LIG d   1      -5.154  79.167 117.245  0.00  0.00     0.038 C 
ATOM      4  C   LIG d   1      -3.905  79.207 116.607  0.00  0.00     0.028 C 
ATOM      5  C   LIG d   1      -2.956  78.103 117.061  0.00  0.00    -0.047 C 
ATOM      6  C   LIG d   1      -3.682  76.743 116.957  0.00  0.00     0.091 C 
ENDROOT
BRANCH   1   7
ATOM      7  O   LIG d   1      -5.862  75.676 117.295  0.00  0.00    -0.368 OA
BRANCH   7   8
ATOM      8  C   LIG d   1      -5.831  75.396 115.874  0.00  0.00     0.119 C 
BRANCH   8   9
ATOM      9  C   LIG d   1      -7.203  75.792 115.295  0.00  0.00     0.028 C 
ATOM     10  C   LIG d   1      -8.335  75.664 116.327  0.00  0.00     0.006 C 
ENDBRANCH   8   9
BRANCH   8  11
ATOM     11  C   LIG d   1      -5.695  73.895 115.604  0.00  0.00     0.028 C 
ATOM     12  C   LIG d   1      -5.601  73.064 116.894  0.00  0.00     0.006 C 
ENDBRANCH   8  11
ENDBRANCH   7   8
ENDBRANCH   1   7
BRANCH   6  13
ATOM     13  N   LIG d   1      -2.853  75.618 117.462  0.00  0.00    -0.311 N 
ATOM     14  C   LIG d   1      -2.152  74.810 116.668  0.00  0.00     0.210 C 
ATOM     15  C   LIG d   1      -1.382  73.701 117.392  0.00  0.00     0.109 C 
ATOM     16  O   LIG d   1      -2.068  74.927 115.436  0.00  0.00    -0.276 OA
ATOM     17  H   LIG d   1      -2.839  75.470 118.452  0.00  0.00     0.149 HD
ENDBRANCH   6  13
BRANCH   5  18
ATOM     18  N   LIG d   1      -1.747  78.180 116.219  0.00  0.00     0.381 N 
ATOM     19  H   LIG d   1      -0.968  77.788 116.709  0.00  0.00    -0.090 HD
ATOM     20  H   LIG d   1      -1.546  79.146 116.027  0.00  0.00    -0.090 HD
ATOM     21  H   LIG d   1      -1.894  77.687 115.366  0.00  0.00    -0.090 HD
ENDBRANCH   5  18
BRANCH   3  22
ATOM     22  C   LIG d   1      -5.836  80.359 117.434  0.00  0.00     0.382 C 
ATOM     23  O   LIG d   1      -5.223  81.451 117.360  0.00  0.00    -0.241 OA
ATOM     24  O   LIG d   1      -7.048  80.354 117.723  0.00  0.00    -0.241 OA
ENDBRANCH   3  22
TORSDOF 7
ENDMDL
MODEL 6
REMARK VINA RESULT:      -4.3      3.782      5.935
REMARK  7 active torsions:
REMARK  status: ('A' for Active; 'I' for Inactive)
REMARK    1  A    between atoms: C_2  and  C_3 
REMARK    2  A    between atoms: C_3  and  O_6 
REMARK    3  A    between atoms: C_3  and  C_4 
REMARK    4  A    between atoms: C_7  and  O_6 
REMARK    5  A    between atoms: C_9  and  C_10 
REMARK    6  A    between atoms: N_15  and  C_14 
REMARK    7  A    between atoms: N_20  and  C_19 
REMARK       I    between atoms: C_22  and  N_20 
ROOT
ATOM      1  C   LIG d   1      -6.481  78.418 117.585  0.00  0.00     0.161 C 
ATOM      2  C   LIG d   1      -7.850  78.376 117.900  0.00  0.00     0.016 C 
ATOM      3  C   LIG d   1      -8.565  79.481 118.415  0.00  0.00     0.038 C 
ATOM      4  C   LIG d   1      -7.990  80.757 118.509  0.00  0.00     0.028 C 
ATOM      5  C   LIG d   1      -6.475  80.728 118.677  0.00  0.00    -0.047 C 
ATOM      6  C   LIG d   1      -5.864  79.833 117.575  0.00  0.00     0.091 C 
ENDROOT
BRANCH   1   7
ATOM      7  O   LIG d   1      -6.250  77.763 116.322  0.00  0.00    -0.368 OA
BRANCH   7   8
ATOM      8  C   LIG d   1      -5.431  76.568 116.365  0.00  0.00     0.119 C 
BRANCH   8   9
ATOM      9  C   LIG d   1      -6.248  75.423 115.736  0.00  0.00     0.028 C 
ATOM     10  C   LIG d   1      -7.266  74.820 116.719  0.00  0.00     0.006 C 
ENDBRANCH   8   9
BRANCH   8  11
ATOM     11  C   LIG d   1      -5.161  76.129 117.808  0.00  0.00     0.028 C 
ATOM     12  C   LIG d   1      -3.662  76.004 118.122  0.00  0.00     0.006 C 
ENDBRANCH   8  11
ENDBRANCH   7   8
ENDBRANCH   1   7
BRANCH   6  13
ATOM     13  N   LIG d   1      -4.392  79.682 117.718  0.00  0.00    -0.311 N 
ATOM     14  C   LIG d   1      -3.533  79.898 116.724  0.00  0.00     0.210 C 
ATOM     15  C   LIG d   1      -2.061  79.666 117.079  0.00  0.00     0.109 C 
ATOM     16  O   LIG d   1      -3.848  80.291 115.590  0.00  0.00    -0.276 OA
ATOM     17  H   LIG d   1      -4.048  79.396 118.614  0.00  0.00     0.149 HD
ENDBRANCH   6  13
BRANCH   5  18
ATOM     18  N   LIG d   1      -5.993  82.122 118.623  0.00  0.00     0.381 N 
ATOM     19  H   LIG d   1      -5.490  82.339 119.460  0.00  0.00    -0.090 HD
ATOM     20  H   LIG d   1      -6.785  82.737 118.562  0.00  0.00    -0.090 HD
ATOM     21  H   LIG d   1      -5.404  82.248 117.830  0.00  0.00    -0.090 HD
ENDBRANCH   5  18
BRANCH   3  22
ATOM     22  C   LIG d   1      -9.859  79.306 118.881  0.00  0.00     0.382 C 
ATOM     23  O   LIG d   1     -10.428  78.195 118.749  0.00  0.00    -0.241 OA
ATOM     24  O   LIG d   1     -10.481  80.257 119.390  0.00  0.00    -0.241 OA
ENDBRANCH   3  22
TORSDOF 7
ENDMDL
MODEL 7
REMARK VINA RESULT:      -4.2      1.526      4.914
REMARK  7 active torsions:
REMARK  status: ('A' for Active; 'I' for Inactive)
REMARK    1  A    between atoms: C_2  and  C_3 
REMARK    2  A    between atoms: C_3  and  O_6 
REMARK    3  A    between atoms: C_3  and  C_4 
REMARK    4  A    between atoms: C_7  and  O_6 
REMARK    5  A    between atoms: C_9  and  C_10 
REMARK    6  A    between atoms: N_15  and  C_14 
REMARK    7  A    between atoms: N_20  and  C_19 
REMARK       I    between atoms: C_22  and  N_20 
ROOT
ATOM      1  C   LIG d   1      -4.450  75.197 116.607  0.00  0.00     0.161 C 
ATOM      2  C   LIG d   1      -4.100  76.554 116.694  0.00  0.00     0.016 C 
ATOM      3  C   LIG d   1      -5.048  77.603 116.720  0.00  0.00     0.038 C 
ATOM      4  C   LIG d   1      -6.426  77.354 116.813  0.00  0.00     0.028 C 
ATOM      5  C   LIG d   1      -6.841  76.012 116.220  0.00  0.00    -0.047 C 
ATOM      6  C   LIG d   1      -5.950  74.901 116.820  0.00  0.00     0.091 C 
ENDROOT
BRANCH   1   7
ATOM      7  O   LIG d   1      -3.652  74.426 117.527  0.00  0.00    -0.368 OA
BRANCH   7   8
ATOM      8  C   LIG d   1      -2.267  74.829 117.661  0.00  0.00     0.119 C 
BRANCH   8   9
ATOM      9  C   LIG d   1      -1.471  74.125 116.545  0.00  0.00     0.028 C 
ATOM     10  C   LIG d   1      -0.826  75.122 115.567  0.00  0.00     0.006 C 
ENDBRANCH   8   9
BRANCH   8  11
ATOM     11  C   LIG d   1      -1.663  74.319 118.973  0.00  0.00     0.028 C 
ATOM     12  C   LIG d   1      -1.178  72.863 118.880  0.00  0.00     0.006 C 
ENDBRANCH   8  11
ENDBRANCH   7   8
ENDBRANCH   1   7
BRANCH   6  13
ATOM     13  N   LIG d   1      -6.233  73.567 116.230  0.00  0.00    -0.311 N 
ATOM     14  C   LIG d   1      -6.332  72.452 116.952  0.00  0.00     0.210 C 
ATOM     15  C   LIG d   1      -6.609  71.180 116.144  0.00  0.00     0.109 C 
ATOM     16  O   LIG d   1      -6.248  72.400 118.189  0.00  0.00    -0.276 OA
ATOM     17  H   LIG d   1      -6.347  73.522 115.236  0.00  0.00     0.149 HD
ENDBRANCH   6  13
BRANCH   5  18
ATOM     18  N   LIG d   1      -8.275  75.822 116.507  0.00  0.00     0.381 N 
ATOM     19  H   LIG d   1      -8.716  76.711 116.635  0.00  0.00    -0.090 HD
ATOM     20  H   LIG d   1      -8.369  75.298 117.360  0.00  0.00    -0.090 HD
ATOM     21  H   LIG d   1      -8.711  75.332 115.758  0.00  0.00    -0.090 HD
ENDBRANCH   5  18
BRANCH   3  22
ATOM     22  C   LIG d   1      -4.622  78.918 116.612  0.00  0.00     0.382 C 
ATOM     23  O   LIG d   1      -5.022  79.776 117.434  0.00  0.00    -0.241 OA
ATOM     24  O   LIG d   1      -3.877  79.265 115.676  0.00  0.00    -0.241 OA
ENDBRANCH   3  22
TORSDOF 7
ENDMDL
MODEL 8
REMARK VINA RESULT:      -4.2      2.082      4.203
REMARK  7 active torsions:
REMARK  status: ('A' for Active; 'I' for Inactive)
REMARK    1  A    between atoms: C_2  and  C_3 
REMARK    2  A    between atoms: C_3  and  O_6 
REMARK    3  A    between atoms: C_3  and  C_4 
REMARK    4  A    between atoms: C_7  and  O_6 
REMARK    5  A    between atoms: C_9  and  C_10 
REMARK    6  A    between atoms: N_15  and  C_14 
REMARK    7  A    between atoms: N_20  and  C_19 
REMARK       I    between atoms: C_22  and  N_20 
ROOT
ATOM      1  C   LIG d   1      -5.519  75.657 115.570  0.00  0.00     0.161 C 
ATOM      2  C   LIG d   1      -6.809  75.174 115.844  0.00  0.00     0.016 C 
ATOM      3  C   LIG d   1      -7.068  74.108 116.736  0.00  0.00     0.038 C 
ATOM      4  C   LIG d   1      -6.059  73.549 117.535  0.00  0.00     0.028 C 
ATOM      5  C   LIG d   1      -4.667  73.663 116.922  0.00  0.00    -0.047 C 
ATOM      6  C   LIG d   1      -4.418  75.134 116.515  0.00  0.00     0.091 C 
ENDROOT
BRANCH   1   7
ATOM      7  O   LIG d   1      -5.529  77.098 115.562  0.00  0.00    -0.368 OA
BRANCH   7   8
ATOM      8  C   LIG d   1      -5.205  77.745 116.817  0.00  0.00     0.119 C 
BRANCH   8   9
ATOM      9  C   LIG d   1      -6.479  78.456 117.314  0.00  0.00     0.028 C 
ATOM     10  C   LIG d   1      -7.124  77.734 118.509  0.00  0.00     0.006 C 
ENDBRANCH   8   9
BRANCH   8  11
ATOM     11  C   LIG d   1      -4.171  78.858 116.620  0.00  0.00     0.028 C 
ATOM     12  C   LIG d   1      -3.408  79.198 117.910  0.00  0.00     0.006 C 
ENDBRANCH   8  11
ENDBRANCH   7   8
ENDBRANCH   1   7
BRANCH   6  13
ATOM     13  N   LIG d   1      -3.112  75.319 115.831  0.00  0.00    -0.311 N 
ATOM     14  C   LIG d   1      -2.003  75.704 116.459  0.00  0.00     0.210 C 
ATOM     15  C   LIG d   1      -0.770  75.852 115.562  0.00  0.00     0.109 C 
ATOM     16  O   LIG d   1      -1.915  75.905 117.680  0.00  0.00    -0.276 OA
ATOM     17  H   LIG d   1      -3.085  75.147 114.845  0.00  0.00     0.149 HD
ENDBRANCH   6  13
BRANCH   5  18
ATOM     18  N   LIG d   1      -3.699  73.167 117.918  0.00  0.00     0.381 N 
ATOM     19  H   LIG d   1      -4.161  72.559 118.565  0.00  0.00    -0.090 HD
ATOM     20  H   LIG d   1      -3.328  73.948 118.429  0.00  0.00    -0.090 HD
ATOM     21  H   LIG d   1      -2.961  72.678 117.461  0.00  0.00    -0.090 HD
ENDBRANCH   5  18
BRANCH   3  22
ATOM     22  C   LIG d   1      -8.341  73.563 116.806  0.00  0.00     0.382 C 
ATOM     23  O   LIG d   1      -9.346  74.314 116.784  0.00  0.00    -0.241 OA
ATOM     24  O   LIG d   1      -8.496  72.334 116.937  0.00  0.00    -0.241 OA
ENDBRANCH   3  22
TORSDOF 7
ENDMDL
MODEL 9
REMARK VINA RESULT:      -4.2     13.705     15.476
REMARK  7 active torsions:
REMARK  status: ('A' for Active; 'I' for Inactive)
REMARK    1  A    between atoms: C_2  and  C_3 
REMARK    2  A    between atoms: C_3  and  O_6 
REMARK    3  A    between atoms: C_3  and  C_4 
REMARK    4  A    between atoms: C_7  and  O_6 
REMARK    5  A    between atoms: C_9  and  C_10 
REMARK    6  A    between atoms: N_15  and  C_14 
REMARK    7  A    between atoms: N_20  and  C_19 
REMARK       I    between atoms: C_22  and  N_20 
ROOT
ATOM      1  C   LIG d   1     -15.411  65.732 118.435  0.00  0.00     0.161 C 
ATOM      2  C   LIG d   1     -15.301  66.631 117.362  0.00  0.00     0.016 C 
ATOM      3  C   LIG d   1     -15.467  66.253 116.010  0.00  0.00     0.038 C 
ATOM      4  C   LIG d   1     -15.907  64.971 115.647  0.00  0.00     0.028 C 
ATOM      5  C   LIG d   1     -15.541  63.895 116.664  0.00  0.00    -0.047 C 
ATOM      6  C   LIG d   1     -16.000  64.354 118.067  0.00  0.00     0.091 C 
ENDROOT
BRANCH   1   7
ATOM      7  O   LIG d   1     -16.173  66.334 119.500  0.00  0.00    -0.368 OA
BRANCH   7   8
ATOM      8  C   LIG d   1     -16.822  67.591 119.188  0.00  0.00     0.119 C 
BRANCH   8   9
ATOM      9  C   LIG d   1     -16.466  68.586 120.309  0.00  0.00     0.028 C 
ATOM     10  C   LIG d   1     -16.320  70.027 119.790  0.00  0.00     0.006 C 
ENDBRANCH   8   9
BRANCH   8  11
ATOM     11  C   LIG d   1     -18.347  67.457 119.234  0.00  0.00     0.028 C 
ATOM     12  C   LIG d   1     -18.928  66.823 117.960  0.00  0.00     0.006 C 
ENDBRANCH   8  11
ENDBRANCH   7   8
ENDBRANCH   1   7
BRANCH   6  13
ATOM     13  N   LIG d   1     -15.605  63.397 119.133  0.00  0.00    -0.311 N 
ATOM     14  C   LIG d   1     -14.460  62.716 119.121  0.00  0.00     0.210 C 
ATOM     15  C   LIG d   1     -14.259  61.767 120.307  0.00  0.00     0.109 C 
ATOM     16  O   LIG d   1     -13.578  62.833 118.258  0.00  0.00    -0.276 OA
ATOM     17  H   LIG d   1     -16.249  63.265 119.889  0.00  0.00     0.149 HD
ENDBRANCH   6  13
BRANCH   5  18
ATOM     18  N   LIG d   1     -16.178  62.637 116.230  0.00  0.00     0.381 N 
ATOM     19  H   LIG d   1     -15.528  61.882 116.314  0.00  0.00    -0.090 HD
ATOM     20  H   LIG d   1     -16.441  62.722 115.264  0.00  0.00    -0.090 HD
ATOM     21  H   LIG d   1     -16.984  62.454 116.786  0.00  0.00    -0.090 HD
ENDBRANCH   5  18
BRANCH   3  22
ATOM     22  C   LIG d   1     -15.153  67.151 115.001  0.00  0.00     0.382 C 
ATOM     23  O   LIG d   1     -14.811  66.729 113.870  0.00  0.00    -0.241 OA
ATOM     24  O   LIG d   1     -15.166  68.377 115.221  0.00  0.00    -0.241 OA
ENDBRANCH   3  22
TORSDOF 7
ENDMDL
