MODEL 1
REMARK VINA RESULT:      -6.2      0.000      0.000
REMARK  7 active torsions:
REMARK  status: ('A' for Active; 'I' for Inactive)
REMARK    1  A    between atoms: C_2  and  C_3 
REMARK    2  A    between atoms: C_3  and  O_6 
REMARK    3  A    between atoms: C_3  and  C_4 
REMARK    4  A    between atoms: C_7  and  O_6 
REMARK    5  A    between atoms: C_9  and  C_10 
REMARK    6  A    between atoms: N_15  and  C_14 
REMARK    7  A    between atoms: N_20  and  C_19 
REMARK       I    between atoms: C_22  and  N_20 
ROOT
ATOM      1  C   LIG d   1      -7.453  77.483 117.215  0.00  0.00     0.161 C 
ATOM      2  C   LIG d   1      -8.647  78.183 117.457  0.00  0.00     0.016 C 
ATOM      3  C   LIG d   1      -8.694  79.570 117.731  0.00  0.00     0.038 C 
ATOM      4  C   LIG d   1      -7.556  80.384 117.632  0.00  0.00     0.028 C 
ATOM      5  C   LIG d   1      -6.252  79.637 117.886  0.00  0.00    -0.047 C 
ATOM      6  C   LIG d   1      -6.214  78.375 116.993  0.00  0.00     0.091 C 
ENDROOT
BRANCH   1   7
ATOM      7  O   LIG d   1      -7.631  76.585 116.102  0.00  0.00    -0.368 OA
BRANCH   7   8
ATOM      8  C   LIG d   1      -7.759  75.180 116.431  0.00  0.00     0.119 C 
BRANCH   8   9
ATOM      9  C   LIG d   1      -6.677  74.419 115.641  0.00  0.00     0.028 C 
ATOM     10  C   LIG d   1      -6.058  75.272 114.521  0.00  0.00     0.006 C 
ENDBRANCH   8   9
BRANCH   8  11
ATOM     11  C   LIG d   1      -9.094  74.613 115.938  0.00  0.00     0.028 C 
ATOM     12  C   LIG d   1      -9.110  73.077 115.898  0.00  0.00     0.006 C 
ENDBRANCH   8  11
ENDBRANCH   7   8
ENDBRANCH   1   7
BRANCH   6  13
ATOM     13  N   LIG d   1      -5.009  77.541 117.240  0.00  0.00    -0.311 N 
ATOM     14  C   LIG d   1      -3.911  77.599 116.489  0.00  0.00     0.210 C 
ATOM     15  C   LIG d   1      -2.792  76.639 116.906  0.00  0.00     0.109 C 
ATOM     16  O   LIG d   1      -3.745  78.376 115.537  0.00  0.00    -0.276 OA
ATOM     17  H   LIG d   1      -5.046  76.905 118.012  0.00  0.00     0.149 HD
ENDBRANCH   6  13
BRANCH   5  18
ATOM     18  N   LIG d   1      -5.143  80.570 117.615  0.00  0.00     0.381 N 
ATOM     19  H   LIG d   1      -4.611  80.716 118.450  0.00  0.00    -0.090 HD
ATOM     20  H   LIG d   1      -5.525  81.454 117.326  0.00  0.00    -0.090 HD
ATOM     21  H   LIG d   1      -4.555  80.204 116.898  0.00  0.00    -0.090 HD
ENDBRANCH   5  18
BRANCH   3  22
ATOM     22  C   LIG d   1      -9.883  80.148 118.149  0.00  0.00     0.382 C 
ATOM     23  O   LIG d   1     -10.475  80.969 117.408  0.00  0.00    -0.241 OA
ATOM     24  O   LIG d   1     -10.349  79.892 119.275  0.00  0.00    -0.241 OA
ENDBRANCH   3  22
TORSDOF 7
ENDMDL
MODEL 2
REMARK VINA RESULT:      -6.0      2.500      5.474
REMARK  7 active torsions:
REMARK  status: ('A' for Active; 'I' for Inactive)
REMARK    1  A    between atoms: C_2  and  C_3 
REMARK    2  A    between atoms: C_3  and  O_6 
REMARK    3  A    between atoms: C_3  and  C_4 
REMARK    4  A    between atoms: C_7  and  O_6 
REMARK    5  A    between atoms: C_9  and  C_10 
REMARK    6  A    between atoms: N_15  and  C_14 
REMARK    7  A    between atoms: N_20  and  C_19 
REMARK       I    between atoms: C_22  and  N_20 
ROOT
ATOM      1  C   LIG d   1      -6.489  75.964 115.026  0.00  0.00     0.161 C 
ATOM      2  C   LIG d   1      -7.465  75.005 115.344  0.00  0.00     0.016 C 
ATOM      3  C   LIG d   1      -7.159  73.720 115.847  0.00  0.00     0.038 C 
ATOM      4  C   LIG d   1      -5.854  73.358 116.212  0.00  0.00     0.028 C 
ATOM      5  C   LIG d   1      -4.778  74.112 115.437  0.00  0.00    -0.047 C 
ATOM      6  C   LIG d   1      -5.067  75.628 115.522  0.00  0.00     0.091 C 
ENDROOT
BRANCH   1   7
ATOM      7  O   LIG d   1      -6.897  77.257 115.514  0.00  0.00    -0.368 OA
BRANCH   7   8
ATOM      8  C   LIG d   1      -6.830  77.447 116.949  0.00  0.00     0.119 C 
BRANCH   8   9
ATOM      9  C   LIG d   1      -8.225  77.899 117.422  0.00  0.00     0.028 C 
ATOM     10  C   LIG d   1      -8.305  79.418 117.645  0.00  0.00     0.006 C 
ENDBRANCH   8   9
BRANCH   8  11
ATOM     11  C   LIG d   1      -5.885  78.596 117.316  0.00  0.00     0.028 C 
ATOM     12  C   LIG d   1      -4.867  78.208 118.399  0.00  0.00     0.006 C 
ENDBRANCH   8  11
ENDBRANCH   7   8
ENDBRANCH   1   7
BRANCH   6  13
ATOM     13  N   LIG d   1      -4.109  76.433 114.720  0.00  0.00    -0.311 N 
ATOM     14  C   LIG d   1      -2.964  76.909 115.207  0.00  0.00     0.210 C 
ATOM     15  C   LIG d   1      -2.133  77.731 114.217  0.00  0.00     0.109 C 
ATOM     16  O   LIG d   1      -2.543  76.700 116.355  0.00  0.00    -0.276 OA
ATOM     17  H   LIG d   1      -4.357  76.623 113.769  0.00  0.00     0.149 HD
ENDBRANCH   6  13
BRANCH   5  18
ATOM     18  N   LIG d   1      -3.471  73.739 116.012  0.00  0.00     0.381 N 
ATOM     19  H   LIG d   1      -3.375  72.743 116.017  0.00  0.00    -0.090 HD
ATOM     20  H   LIG d   1      -3.429  74.065 116.962  0.00  0.00    -0.090 HD
ATOM     21  H   LIG d   1      -2.735  74.149 115.480  0.00  0.00    -0.090 HD
ENDBRANCH   5  18
BRANCH   3  22
ATOM     22  C   LIG d   1      -8.161  72.767 115.953  0.00  0.00     0.382 C 
ATOM     23  O   LIG d   1      -7.862  71.553 116.058  0.00  0.00    -0.241 OA
ATOM     24  O   LIG d   1      -9.359  73.101 115.899  0.00  0.00    -0.241 OA
ENDBRANCH   3  22
TORSDOF 7
ENDMDL
MODEL 3
REMARK VINA RESULT:      -5.7      2.328      5.732
REMARK  7 active torsions:
REMARK  status: ('A' for Active; 'I' for Inactive)
REMARK    1  A    between atoms: C_2  and  C_3 
REMARK    2  A    between atoms: C_3  and  O_6 
REMARK    3  A    between atoms: C_3  and  C_4 
REMARK    4  A    between atoms: C_7  and  O_6 
REMARK    5  A    between atoms: C_9  and  C_10 
REMARK    6  A    between atoms: N_15  and  C_14 
REMARK    7  A    between atoms: N_20  and  C_19 
REMARK       I    between atoms: C_22  and  N_20 
ROOT
ATOM      1  C   LIG d   1      -5.194  75.650 116.112  0.00  0.00     0.161 C 
ATOM      2  C   LIG d   1      -4.100  74.823 115.808  0.00  0.00     0.016 C 
ATOM      3  C   LIG d   1      -2.762  75.152 116.127  0.00  0.00     0.038 C 
ATOM      4  C   LIG d   1      -2.442  76.269 116.913  0.00  0.00     0.028 C 
ATOM      5  C   LIG d   1      -3.464  77.396 116.810  0.00  0.00    -0.047 C 
ATOM      6  C   LIG d   1      -4.875  76.819 117.067  0.00  0.00     0.091 C 
ENDROOT
BRANCH   1   7
ATOM      7  O   LIG d   1      -6.276  74.856 116.636  0.00  0.00    -0.368 OA
BRANCH   7   8
ATOM      8  C   LIG d   1      -7.262  74.408 115.674  0.00  0.00     0.119 C 
BRANCH   8   9
ATOM      9  C   LIG d   1      -8.433  75.410 115.710  0.00  0.00     0.028 C 
ATOM     10  C   LIG d   1      -9.767  74.741 116.082  0.00  0.00     0.006 C 
ENDBRANCH   8   9
BRANCH   8  11
ATOM     11  C   LIG d   1      -7.868  73.062 116.082  0.00  0.00     0.028 C 
ATOM     12  C   LIG d   1      -6.935  71.876 115.790  0.00  0.00     0.006 C 
ENDBRANCH   8  11
ENDBRANCH   7   8
ENDBRANCH   1   7
BRANCH   6  13
ATOM     13  N   LIG d   1      -5.943  77.839 116.902  0.00  0.00    -0.311 N 
ATOM     14  C   LIG d   1      -6.775  78.194 117.879  0.00  0.00     0.210 C 
ATOM     15  C   LIG d   1      -7.815  79.250 117.491  0.00  0.00     0.109 C 
ATOM     16  O   LIG d   1      -6.730  77.759 119.039  0.00  0.00    -0.276 OA
ATOM     17  H   LIG d   1      -6.030  78.267 116.000  0.00  0.00     0.149 HD
ENDBRANCH   6  13
BRANCH   5  18
ATOM     18  N   LIG d   1      -3.079  78.437 117.782  0.00  0.00     0.381 N 
ATOM     19  H   LIG d   1      -2.094  78.603 117.728  0.00  0.00    -0.090 HD
ATOM     20  H   LIG d   1      -3.294  78.113 118.708  0.00  0.00    -0.090 HD
ATOM     21  H   LIG d   1      -3.576  79.280 117.593  0.00  0.00    -0.090 HD
ENDBRANCH   5  18
BRANCH   3  22
ATOM     22  C   LIG d   1      -1.726  74.381 115.625  0.00  0.00     0.382 C 
ATOM     23  O   LIG d   1      -1.510  73.237 116.096  0.00  0.00    -0.241 OA
ATOM     24  O   LIG d   1      -0.975  74.830 114.739  0.00  0.00    -0.241 OA
ENDBRANCH   3  22
TORSDOF 7
ENDMDL
MODEL 4
REMARK VINA RESULT:      -5.5     12.017     13.979
REMARK  7 active torsions:
REMARK  status: ('A' for Active; 'I' for Inactive)
REMARK    1  A    between atoms: C_2  and  C_3 
REMARK    2  A    between atoms: C_3  and  O_6 
REMARK    3  A    between atoms: C_3  and  C_4 
REMARK    4  A    between atoms: C_7  and  O_6 
REMARK    5  A    between atoms: C_9  and  C_10 
REMARK    6  A    between atoms: N_15  and  C_14 
REMARK    7  A    between atoms: N_20  and  C_19 
REMARK       I    between atoms: C_22  and  N_20 
ROOT
ATOM      1  C   LIG d   1      -4.334  90.396 117.336  0.00  0.00     0.161 C 
ATOM      2  C   LIG d   1      -5.242  89.834 116.422  0.00  0.00     0.016 C 
ATOM      3  C   LIG d   1      -6.452  90.458 116.044  0.00  0.00     0.038 C 
ATOM      4  C   LIG d   1      -6.768  91.766 116.441  0.00  0.00     0.028 C 
ATOM      5  C   LIG d   1      -6.124  92.169 117.763  0.00  0.00    -0.047 C 
ATOM      6  C   LIG d   1      -4.608  91.871 117.694  0.00  0.00     0.091 C 
ENDROOT
BRANCH   1   7
ATOM      7  O   LIG d   1      -2.988  90.241 116.845  0.00  0.00    -0.368 OA
BRANCH   7   8
ATOM      8  C   LIG d   1      -2.068  89.542 117.719  0.00  0.00     0.119 C 
BRANCH   8   9
ATOM      9  C   LIG d   1      -0.639  89.857 117.234  0.00  0.00     0.028 C 
ATOM     10  C   LIG d   1       0.103  90.818 118.178  0.00  0.00     0.006 C 
ENDBRANCH   8   9
BRANCH   8  11
ATOM     11  C   LIG d   1      -2.216  88.024 117.584  0.00  0.00     0.028 C 
ATOM     12  C   LIG d   1      -0.904  87.329 117.188  0.00  0.00     0.006 C 
ENDBRANCH   8  11
ENDBRANCH   7   8
ENDBRANCH   1   7
BRANCH   6  13
ATOM     13  N   LIG d   1      -3.915  92.159 118.977  0.00  0.00    -0.311 N 
ATOM     14  C   LIG d   1      -2.841  92.940 119.071  0.00  0.00     0.210 C 
ATOM     15  C   LIG d   1      -2.270  93.087 120.485  0.00  0.00     0.109 C 
ATOM     16  O   LIG d   1      -2.325  93.550 118.122  0.00  0.00    -0.276 OA
ATOM     17  H   LIG d   1      -4.286  91.729 119.802  0.00  0.00     0.149 HD
ENDBRANCH   6  13
BRANCH   5  18
ATOM     18  N   LIG d   1      -6.423  93.596 117.987  0.00  0.00     0.381 N 
ATOM     19  H   LIG d   1      -5.903  94.157 117.342  0.00  0.00    -0.090 HD
ATOM     20  H   LIG d   1      -6.141  93.845 118.919  0.00  0.00    -0.090 HD
ATOM     21  H   LIG d   1      -7.398  93.763 117.872  0.00  0.00    -0.090 HD
ENDBRANCH   5  18
BRANCH   3  22
ATOM     22  C   LIG d   1      -7.381  89.756 115.290  0.00  0.00     0.382 C 
ATOM     23  O   LIG d   1      -7.473  89.964 114.056  0.00  0.00    -0.241 OA
ATOM     24  O   LIG d   1      -8.159  88.951 115.837  0.00  0.00    -0.241 OA
ENDBRANCH   3  22
TORSDOF 7
ENDMDL
MODEL 5
REMARK VINA RESULT:      -4.7     11.598     13.542
REMARK  7 active torsions:
REMARK  status: ('A' for Active; 'I' for Inactive)
REMARK    1  A    between atoms: C_2  and  C_3 
REMARK    2  A    between atoms: C_3  and  O_6 
REMARK    3  A    between atoms: C_3  and  C_4 
REMARK    4  A    between atoms: C_7  and  O_6 
REMARK    5  A    between atoms: C_9  and  C_10 
REMARK    6  A    between atoms: N_15  and  C_14 
REMARK    7  A    between atoms: N_20  and  C_19 
REMARK       I    between atoms: C_22  and  N_20 
ROOT
ATOM      1  C   LIG d   1      -2.468  89.661 117.858  0.00  0.00     0.161 C 
ATOM      2  C   LIG d   1      -3.680  89.412 117.193  0.00  0.00     0.016 C 
ATOM      3  C   LIG d   1      -4.627  90.419 116.896  0.00  0.00     0.038 C 
ATOM      4  C   LIG d   1      -4.356  91.778 117.112  0.00  0.00     0.028 C 
ATOM      5  C   LIG d   1      -3.360  92.025 118.240  0.00  0.00    -0.047 C 
ATOM      6  C   LIG d   1      -2.105  91.154 118.002  0.00  0.00     0.091 C 
ENDROOT
BRANCH   1   7
ATOM      7  O   LIG d   1      -1.399  88.946 117.208  0.00  0.00    -0.368 OA
BRANCH   7   8
ATOM      8  C   LIG d   1      -1.047  87.664 117.785  0.00  0.00     0.119 C 
BRANCH   8   9
ATOM      9  C   LIG d   1       0.239  87.864 118.610  0.00  0.00     0.028 C 
ATOM     10  C   LIG d   1      -0.039  87.945 120.120  0.00  0.00     0.006 C 
ENDBRANCH   8   9
BRANCH   8  11
ATOM     11  C   LIG d   1      -0.679  86.647 116.700  0.00  0.00     0.028 C 
ATOM     12  C   LIG d   1       0.298  85.571 117.199  0.00  0.00     0.006 C 
ENDBRANCH   8  11
ENDBRANCH   7   8
ENDBRANCH   1   7
BRANCH   6  13
ATOM     13  N   LIG d   1      -1.115  91.272 119.104  0.00  0.00    -0.311 N 
ATOM     14  C   LIG d   1       0.145  91.661 118.919  0.00  0.00     0.210 C 
ATOM     15  C   LIG d   1       1.004  91.695 120.187  0.00  0.00     0.109 C 
ATOM     16  O   LIG d   1       0.624  92.013 117.831  0.00  0.00    -0.276 OA
ATOM     17  H   LIG d   1      -1.428  91.035 120.025  0.00  0.00     0.149 HD
ENDBRANCH   6  13
BRANCH   5  18
ATOM     18  N   LIG d   1      -3.064  93.470 118.265  0.00  0.00     0.381 N 
ATOM     19  H   LIG d   1      -3.896  93.982 118.481  0.00  0.00    -0.090 HD
ATOM     20  H   LIG d   1      -2.747  93.753 117.355  0.00  0.00    -0.090 HD
ATOM     21  H   LIG d   1      -2.361  93.662 118.945  0.00  0.00    -0.090 HD
ENDBRANCH   5  18
BRANCH   3  22
ATOM     22  C   LIG d   1      -5.878  90.066 116.414  0.00  0.00     0.382 C 
ATOM     23  O   LIG d   1      -6.828  90.883 116.478  0.00  0.00    -0.241 OA
ATOM     24  O   LIG d   1      -6.080  88.925 115.956  0.00  0.00    -0.241 OA
ENDBRANCH   3  22
TORSDOF 7
ENDMDL
MODEL 6
REMARK VINA RESULT:      -4.7      1.971      5.177
REMARK  7 active torsions:
REMARK  status: ('A' for Active; 'I' for Inactive)
REMARK    1  A    between atoms: C_2  and  C_3 
REMARK    2  A    between atoms: C_3  and  O_6 
REMARK    3  A    between atoms: C_3  and  C_4 
REMARK    4  A    between atoms: C_7  and  O_6 
REMARK    5  A    between atoms: C_9  and  C_10 
REMARK    6  A    between atoms: N_15  and  C_14 
REMARK    7  A    between atoms: N_20  and  C_19 
REMARK       I    between atoms: C_22  and  N_20 
ROOT
ATOM      1  C   LIG d   1      -5.243  77.193 116.901  0.00  0.00     0.161 C 
ATOM      2  C   LIG d   1      -3.896  76.801 116.973  0.00  0.00     0.016 C 
ATOM      3  C   LIG d   1      -2.966  77.372 117.872  0.00  0.00     0.038 C 
ATOM      4  C   LIG d   1      -3.360  78.275 118.871  0.00  0.00     0.028 C 
ATOM      5  C   LIG d   1      -4.606  79.075 118.508  0.00  0.00    -0.047 C 
ATOM      6  C   LIG d   1      -5.716  78.098 118.058  0.00  0.00     0.091 C 
ENDROOT
BRANCH   1   7
ATOM      7  O   LIG d   1      -6.086  76.029 116.798  0.00  0.00    -0.368 OA
BRANCH   7   8
ATOM      8  C   LIG d   1      -6.306  75.517 115.460  0.00  0.00     0.119 C 
BRANCH   8   9
ATOM      9  C   LIG d   1      -7.829  75.402 115.253  0.00  0.00     0.028 C 
ATOM     10  C   LIG d   1      -8.624  75.808 116.505  0.00  0.00     0.006 C 
ENDBRANCH   8   9
BRANCH   8  11
ATOM     11  C   LIG d   1      -5.768  74.091 115.314  0.00  0.00     0.028 C 
ATOM     12  C   LIG d   1      -6.256  73.152 116.429  0.00  0.00     0.006 C 
ENDBRANCH   8  11
ENDBRANCH   7   8
ENDBRANCH   1   7
BRANCH   6  13
ATOM     13  N   LIG d   1      -6.943  78.803 117.604  0.00  0.00    -0.311 N 
ATOM     14  C   LIG d   1      -7.951  79.117 118.416  0.00  0.00     0.210 C 
ATOM     15  C   LIG d   1      -9.129  79.825 117.741  0.00  0.00     0.109 C 
ATOM     16  O   LIG d   1      -7.967  78.904 119.638  0.00  0.00    -0.276 OA
ATOM     17  H   LIG d   1      -7.000  79.042 116.633  0.00  0.00     0.149 HD
ENDBRANCH   6  13
BRANCH   5  18
ATOM     18  N   LIG d   1      -4.983  79.873 119.689  0.00  0.00     0.381 N 
ATOM     19  H   LIG d   1      -4.480  80.738 119.688  0.00  0.00    -0.090 HD
ATOM     20  H   LIG d   1      -4.734  79.364 120.519  0.00  0.00    -0.090 HD
ATOM     21  H   LIG d   1      -5.964  80.051 119.682  0.00  0.00    -0.090 HD
ENDBRANCH   5  18
BRANCH   3  22
ATOM     22  C   LIG d   1      -1.619  77.070 117.751  0.00  0.00     0.382 C 
ATOM     23  O   LIG d   1      -1.175  76.604 116.674  0.00  0.00    -0.241 OA
ATOM     24  O   LIG d   1      -0.849  77.217 118.720  0.00  0.00    -0.241 OA
ENDBRANCH   3  22
TORSDOF 7
ENDMDL
MODEL 7
REMARK VINA RESULT:      -4.6      2.485      6.308
REMARK  7 active torsions:
REMARK  status: ('A' for Active; 'I' for Inactive)
REMARK    1  A    between atoms: C_2  and  C_3 
REMARK    2  A    between atoms: C_3  and  O_6 
REMARK    3  A    between atoms: C_3  and  C_4 
REMARK    4  A    between atoms: C_7  and  O_6 
REMARK    5  A    between atoms: C_9  and  C_10 
REMARK    6  A    between atoms: N_15  and  C_14 
REMARK    7  A    between atoms: N_20  and  C_19 
REMARK       I    between atoms: C_22  and  N_20 
ROOT
ATOM      1  C   LIG d   1      -4.948  77.024 117.325  0.00  0.00     0.161 C 
ATOM      2  C   LIG d   1      -3.638  77.459 117.587  0.00  0.00     0.016 C 
ATOM      3  C   LIG d   1      -2.489  76.831 117.053  0.00  0.00     0.038 C 
ATOM      4  C   LIG d   1      -2.579  75.811 116.094  0.00  0.00     0.028 C 
ATOM      5  C   LIG d   1      -3.871  75.007 116.185  0.00  0.00    -0.047 C 
ATOM      6  C   LIG d   1      -5.070  75.983 116.193  0.00  0.00     0.091 C 
ENDROOT
BRANCH   1   7
ATOM      7  O   LIG d   1      -5.794  78.159 117.056  0.00  0.00    -0.368 OA
BRANCH   7   8
ATOM      8  C   LIG d   1      -6.733  78.516 118.100  0.00  0.00     0.119 C 
BRANCH   8   9
ATOM      9  C   LIG d   1      -8.152  78.347 117.523  0.00  0.00     0.028 C 
ATOM     10  C   LIG d   1      -9.106  79.467 117.973  0.00  0.00     0.006 C 
ENDBRANCH   8   9
BRANCH   8  11
ATOM     11  C   LIG d   1      -6.619  79.999 118.468  0.00  0.00     0.028 C 
ATOM     12  C   LIG d   1      -5.555  80.738 117.642  0.00  0.00     0.006 C 
ENDBRANCH   8  11
ENDBRANCH   7   8
ENDBRANCH   1   7
BRANCH   6  13
ATOM     13  N   LIG d   1      -6.370  75.283 116.365  0.00  0.00    -0.311 N 
ATOM     14  C   LIG d   1      -7.331  75.286 115.443  0.00  0.00     0.210 C 
ATOM     15  C   LIG d   1      -8.600  74.518 115.829  0.00  0.00     0.109 C 
ATOM     16  O   LIG d   1      -7.241  75.824 114.329  0.00  0.00    -0.276 OA
ATOM     17  H   LIG d   1      -6.515  74.794 117.227  0.00  0.00     0.149 HD
ENDBRANCH   6  13
BRANCH   5  18
ATOM     18  N   LIG d   1      -3.895  74.072 115.044  0.00  0.00     0.381 N 
ATOM     19  H   LIG d   1      -3.154  74.293 114.409  0.00  0.00    -0.090 HD
ATOM     20  H   LIG d   1      -4.769  74.174 114.558  0.00  0.00    -0.090 HD
ATOM     21  H   LIG d   1      -3.795  73.135 115.369  0.00  0.00    -0.090 HD
ENDBRANCH   5  18
BRANCH   3  22
ATOM     22  C   LIG d   1      -1.231  77.196 117.510  0.00  0.00     0.382 C 
ATOM     23  O   LIG d   1      -1.091  78.239 118.194  0.00  0.00    -0.241 OA
ATOM     24  O   LIG d   1      -0.229  76.521 117.209  0.00  0.00    -0.241 OA
ENDBRANCH   3  22
TORSDOF 7
ENDMDL
MODEL 8
REMARK VINA RESULT:      -4.6      2.919      5.502
REMARK  7 active torsions:
REMARK  status: ('A' for Active; 'I' for Inactive)
REMARK    1  A    between atoms: C_2  and  C_3 
REMARK    2  A    between atoms: C_3  and  O_6 
REMARK    3  A    between atoms: C_3  and  C_4 
REMARK    4  A    between atoms: C_7  and  O_6 
REMARK    5  A    between atoms: C_9  and  C_10 
REMARK    6  A    between atoms: N_15  and  C_14 
REMARK    7  A    between atoms: N_20  and  C_19 
REMARK       I    between atoms: C_22  and  N_20 
ROOT
ATOM      1  C   LIG d   1      -4.706  77.466 116.581  0.00  0.00     0.161 C 
ATOM      2  C   LIG d   1      -6.059  77.089 116.569  0.00  0.00     0.016 C 
ATOM      3  C   LIG d   1      -6.493  75.755 116.389  0.00  0.00     0.038 C 
ATOM      4  C   LIG d   1      -5.592  74.680 116.359  0.00  0.00     0.028 C 
ATOM      5  C   LIG d   1      -4.203  75.067 115.862  0.00  0.00    -0.047 C 
ATOM      6  C   LIG d   1      -3.707  76.293 116.662  0.00  0.00     0.091 C 
ENDROOT
BRANCH   1   7
ATOM      7  O   LIG d   1      -4.469  78.400 117.653  0.00  0.00    -0.368 OA
BRANCH   7   8
ATOM      8  C   LIG d   1      -4.665  79.800 117.335  0.00  0.00     0.119 C 
BRANCH   8   9
ATOM      9  C   LIG d   1      -3.586  80.197 116.309  0.00  0.00     0.028 C 
ATOM     10  C   LIG d   1      -3.264  81.700 116.348  0.00  0.00     0.006 C 
ENDBRANCH   8   9
BRANCH   8  11
ATOM     11  C   LIG d   1      -4.411  80.690 118.555  0.00  0.00     0.028 C 
ATOM     12  C   LIG d   1      -4.842  80.029 119.874  0.00  0.00     0.006 C 
ENDBRANCH   8  11
ENDBRANCH   7   8
ENDBRANCH   1   7
BRANCH   6  13
ATOM     13  N   LIG d   1      -2.391  76.788 116.181  0.00  0.00    -0.311 N 
ATOM     14  C   LIG d   1      -1.229  76.423 116.720  0.00  0.00     0.210 C 
ATOM     15  C   LIG d   1       0.008  77.067 116.086  0.00  0.00     0.109 C 
ATOM     16  O   LIG d   1      -1.104  75.602 117.641  0.00  0.00    -0.276 OA
ATOM     17  H   LIG d   1      -2.398  77.434 115.416  0.00  0.00     0.149 HD
ENDBRANCH   6  13
BRANCH   5  18
ATOM     18  N   LIG d   1      -3.332  73.886 116.013  0.00  0.00     0.381 N 
ATOM     19  H   LIG d   1      -3.289  73.617 116.975  0.00  0.00    -0.090 HD
ATOM     20  H   LIG d   1      -2.404  74.127 115.711  0.00  0.00    -0.090 HD
ATOM     21  H   LIG d   1      -3.681  73.132 115.464  0.00  0.00    -0.090 HD
ENDBRANCH   5  18
BRANCH   3  22
ATOM     22  C   LIG d   1      -7.840  75.491 116.196  0.00  0.00     0.382 C 
ATOM     23  O   LIG d   1      -8.704  76.285 116.641  0.00  0.00    -0.241 OA
ATOM     24  O   LIG d   1      -8.204  74.447 115.622  0.00  0.00    -0.241 OA
ENDBRANCH   3  22
TORSDOF 7
ENDMDL
MODEL 9
REMARK VINA RESULT:      -4.5     12.794     15.273
REMARK  7 active torsions:
REMARK  status: ('A' for Active; 'I' for Inactive)
REMARK    1  A    between atoms: C_2  and  C_3 
REMARK    2  A    between atoms: C_3  and  O_6 
REMARK    3  A    between atoms: C_3  and  C_4 
REMARK    4  A    between atoms: C_7  and  O_6 
REMARK    5  A    between atoms: C_9  and  C_10 
REMARK    6  A    between atoms: N_15  and  C_14 
REMARK    7  A    between atoms: N_20  and  C_19 
REMARK       I    between atoms: C_22  and  N_20 
ROOT
ATOM      1  C   LIG d   1      -4.773  92.079 118.616  0.00  0.00     0.161 C 
ATOM      2  C   LIG d   1      -5.929  91.921 117.833  0.00  0.00     0.016 C 
ATOM      3  C   LIG d   1      -6.040  90.971 116.792  0.00  0.00     0.038 C 
ATOM      4  C   LIG d   1      -5.048  90.005 116.561  0.00  0.00     0.028 C 
ATOM      5  C   LIG d   1      -3.656  90.451 116.994  0.00  0.00    -0.047 C 
ATOM      6  C   LIG d   1      -3.723  90.961 118.452  0.00  0.00     0.091 C 
ENDROOT
BRANCH   1   7
ATOM      7  O   LIG d   1      -5.138  92.225 120.003  0.00  0.00    -0.368 OA
BRANCH   7   8
ATOM      8  C   LIG d   1      -5.026  93.560 120.555  0.00  0.00     0.119 C 
BRANCH   8   9
ATOM      9  C   LIG d   1      -6.409  94.229 120.429  0.00  0.00     0.028 C 
ATOM     10  C   LIG d   1      -6.393  95.433 119.472  0.00  0.00     0.006 C 
ENDBRANCH   8   9
BRANCH   8  11
ATOM     11  C   LIG d   1      -4.078  94.429 119.724  0.00  0.00     0.028 C 
ATOM     12  C   LIG d   1      -2.769  94.754 120.461  0.00  0.00     0.006 C 
ENDBRANCH   8  11
ENDBRANCH   7   8
ENDBRANCH   1   7
BRANCH   6  13
ATOM     13  N   LIG d   1      -2.419  91.495 118.926  0.00  0.00    -0.311 N 
ATOM     14  C   LIG d   1      -1.730  90.960 119.932  0.00  0.00     0.210 C 
ATOM     15  C   LIG d   1      -0.421  91.678 120.273  0.00  0.00     0.109 C 
ATOM     16  O   LIG d   1      -2.064  89.940 120.555  0.00  0.00    -0.276 OA
ATOM     17  H   LIG d   1      -2.059  92.303 118.456  0.00  0.00     0.149 HD
ENDBRANCH   6  13
BRANCH   5  18
ATOM     18  N   LIG d   1      -2.747  89.302 116.825  0.00  0.00     0.381 N 
ATOM     19  H   LIG d   1      -1.811  89.627 116.690  0.00  0.00    -0.090 HD
ATOM     20  H   LIG d   1      -3.023  88.787 116.007  0.00  0.00    -0.090 HD
ATOM     21  H   LIG d   1      -2.790  88.712 117.627  0.00  0.00    -0.090 HD
ENDBRANCH   5  18
BRANCH   3  22
ATOM     22  C   LIG d   1      -7.135  91.006 115.943  0.00  0.00     0.382 C 
ATOM     23  O   LIG d   1      -7.916  90.026 115.886  0.00  0.00    -0.241 OA
ATOM     24  O   LIG d   1      -7.328  91.988 115.201  0.00  0.00    -0.241 OA
ENDBRANCH   3  22
TORSDOF 7
ENDMDL
