MODEL 1
REMARK VINA RESULT:      -5.5      0.000      0.000
REMARK  7 active torsions:
REMARK  status: ('A' for Active; 'I' for Inactive)
REMARK    1  A    between atoms: C_2  and  C_3 
REMARK    2  A    between atoms: C_3  and  O_6 
REMARK    3  A    between atoms: C_3  and  C_4 
REMARK    4  A    between atoms: C_7  and  O_6 
REMARK    5  A    between atoms: C_9  and  C_10 
REMARK    6  A    between atoms: N_15  and  C_14 
REMARK    7  A    between atoms: N_20  and  C_19 
REMARK       I    between atoms: C_22  and  N_20 
ROOT
ATOM      1  C   LIG d   1      -5.043  93.053 118.161  0.00  0.00     0.161 C 
ATOM      2  C   LIG d   1      -6.223  93.814 118.141  0.00  0.00     0.016 C 
ATOM      3  C   LIG d   1      -6.346  95.076 118.767  0.00  0.00     0.038 C 
ATOM      4  C   LIG d   1      -5.243  95.735 119.331  0.00  0.00     0.028 C 
ATOM      5  C   LIG d   1      -4.154  94.785 119.817  0.00  0.00    -0.047 C 
ATOM      6  C   LIG d   1      -3.797  93.805 118.676  0.00  0.00     0.091 C 
ENDROOT
BRANCH   1   7
ATOM      7  O   LIG d   1      -4.792  92.506 116.852  0.00  0.00    -0.368 OA
BRANCH   7   8
ATOM      8  C   LIG d   1      -5.047  91.088 116.694  0.00  0.00     0.119 C 
BRANCH   8   9
ATOM      9  C   LIG d   1      -3.701  90.408 116.376  0.00  0.00     0.028 C 
ATOM     10  C   LIG d   1      -3.836  88.884 116.217  0.00  0.00     0.006 C 
ENDBRANCH   8   9
BRANCH   8  11
ATOM     11  C   LIG d   1      -5.936  90.814 115.478  0.00  0.00     0.028 C 
ATOM     12  C   LIG d   1      -6.185  92.069 114.626  0.00  0.00     0.006 C 
ENDBRANCH   8  11
ENDBRANCH   7   8
ENDBRANCH   1   7
BRANCH   6  13
ATOM     13  N   LIG d   1      -2.799  92.786 119.095  0.00  0.00    -0.311 N 
ATOM     14  C   LIG d   1      -1.639  92.595 118.468  0.00  0.00     0.210 C 
ATOM     15  C   LIG d   1      -0.765  91.481 119.052  0.00  0.00     0.109 C 
ATOM     16  O   LIG d   1      -1.238  93.265 117.505  0.00  0.00    -0.276 OA
ATOM     17  H   LIG d   1      -3.030  92.220 119.888  0.00  0.00     0.149 HD
ENDBRANCH   6  13
BRANCH   5  18
ATOM     18  N   LIG d   1      -3.009  95.606 120.254  0.00  0.00     0.381 N 
ATOM     19  H   LIG d   1      -3.133  96.550 119.947  0.00  0.00    -0.090 HD
ATOM     20  H   LIG d   1      -2.171  95.245 119.832  0.00  0.00    -0.090 HD
ATOM     21  H   LIG d   1      -2.929  95.578 121.246  0.00  0.00    -0.090 HD
ENDBRANCH   5  18
BRANCH   3  22
ATOM     22  C   LIG d   1      -7.593  95.675 118.867  0.00  0.00     0.382 C 
ATOM     23  O   LIG d   1      -7.705  96.803 119.404  0.00  0.00    -0.241 OA
ATOM     24  O   LIG d   1      -8.613  95.081 118.468  0.00  0.00    -0.241 OA
ENDBRANCH   3  22
TORSDOF 7
ENDMDL
MODEL 2
REMARK VINA RESULT:      -5.4      2.290      5.113
REMARK  7 active torsions:
REMARK  status: ('A' for Active; 'I' for Inactive)
REMARK    1  A    between atoms: C_2  and  C_3 
REMARK    2  A    between atoms: C_3  and  O_6 
REMARK    3  A    between atoms: C_3  and  C_4 
REMARK    4  A    between atoms: C_7  and  O_6 
REMARK    5  A    between atoms: C_9  and  C_10 
REMARK    6  A    between atoms: N_15  and  C_14 
REMARK    7  A    between atoms: N_20  and  C_19 
REMARK       I    between atoms: C_22  and  N_20 
ROOT
ATOM      1  C   LIG d   1      -4.153  92.444 116.946  0.00  0.00     0.161 C 
ATOM      2  C   LIG d   1      -5.342  91.794 116.580  0.00  0.00     0.016 C 
ATOM      3  C   LIG d   1      -5.414  90.414 116.280  0.00  0.00     0.038 C 
ATOM      4  C   LIG d   1      -4.322  89.555 116.474  0.00  0.00     0.028 C 
ATOM      5  C   LIG d   1      -2.972  90.256 116.358  0.00  0.00    -0.047 C 
ATOM      6  C   LIG d   1      -2.974  91.503 117.271  0.00  0.00     0.091 C 
ENDROOT
BRANCH   1   7
ATOM      7  O   LIG d   1      -4.403  93.334 118.052  0.00  0.00    -0.368 OA
BRANCH   7   8
ATOM      8  C   LIG d   1      -5.750  93.326 118.584  0.00  0.00     0.119 C 
BRANCH   8   9
ATOM      9  C   LIG d   1      -6.327  94.744 118.404  0.00  0.00     0.028 C 
ATOM     10  C   LIG d   1      -5.872  95.708 119.512  0.00  0.00     0.006 C 
ENDBRANCH   8   9
BRANCH   8  11
ATOM     11  C   LIG d   1      -5.752  93.077 120.095  0.00  0.00     0.028 C 
ATOM     12  C   LIG d   1      -4.818  91.929 120.511  0.00  0.00     0.006 C 
ENDBRANCH   8  11
ENDBRANCH   7   8
ENDBRANCH   1   7
BRANCH   6  13
ATOM     13  N   LIG d   1      -1.721  92.294 117.153  0.00  0.00    -0.311 N 
ATOM     14  C   LIG d   1      -0.673  92.131 117.959  0.00  0.00     0.210 C 
ATOM     15  C   LIG d   1       0.510  93.062 117.677  0.00  0.00     0.109 C 
ATOM     16  O   LIG d   1      -0.598  91.281 118.859  0.00  0.00    -0.276 OA
ATOM     17  H   LIG d   1      -1.684  92.984 116.429  0.00  0.00     0.149 HD
ENDBRANCH   6  13
BRANCH   5  18
ATOM     18  N   LIG d   1      -1.929  89.277 116.718  0.00  0.00     0.381 N 
ATOM     19  H   LIG d   1      -2.355  88.428 117.031  0.00  0.00    -0.090 HD
ATOM     20  H   LIG d   1      -1.379  89.650 117.472  0.00  0.00    -0.090 HD
ATOM     21  H   LIG d   1      -1.347  89.094 115.931  0.00  0.00    -0.090 HD
ENDBRANCH   5  18
BRANCH   3  22
ATOM     22  C   LIG d   1      -6.578  89.887 115.742  0.00  0.00     0.382 C 
ATOM     23  O   LIG d   1      -6.687  88.648 115.575  0.00  0.00    -0.241 OA
ATOM     24  O   LIG d   1      -7.503  90.639 115.380  0.00  0.00    -0.241 OA
ENDBRANCH   3  22
TORSDOF 7
ENDMDL
MODEL 3
REMARK VINA RESULT:      -5.3      2.588      6.072
REMARK  7 active torsions:
REMARK  status: ('A' for Active; 'I' for Inactive)
REMARK    1  A    between atoms: C_2  and  C_3 
REMARK    2  A    between atoms: C_3  and  O_6 
REMARK    3  A    between atoms: C_3  and  C_4 
REMARK    4  A    between atoms: C_7  and  O_6 
REMARK    5  A    between atoms: C_9  and  C_10 
REMARK    6  A    between atoms: N_15  and  C_14 
REMARK    7  A    between atoms: N_20  and  C_19 
REMARK       I    between atoms: C_22  and  N_20 
ROOT
ATOM      1  C   LIG d   1      -3.554  91.035 117.017  0.00  0.00     0.161 C 
ATOM      2  C   LIG d   1      -3.530  89.778 116.390  0.00  0.00     0.016 C 
ATOM      3  C   LIG d   1      -4.506  89.355 115.458  0.00  0.00     0.038 C 
ATOM      4  C   LIG d   1      -5.494  90.225 114.973  0.00  0.00     0.028 C 
ATOM      5  C   LIG d   1      -5.857  91.335 115.953  0.00  0.00    -0.047 C 
ATOM      6  C   LIG d   1      -4.561  92.038 116.418  0.00  0.00     0.091 C 
ENDROOT
BRANCH   1   7
ATOM      7  O   LIG d   1      -2.228  91.602 117.026  0.00  0.00    -0.368 OA
BRANCH   7   8
ATOM      8  C   LIG d   1      -1.478  91.448 118.256  0.00  0.00     0.119 C 
BRANCH   8   9
ATOM      9  C   LIG d   1      -1.349  92.843 118.898  0.00  0.00     0.028 C 
ATOM     10  C   LIG d   1      -1.248  93.964 117.850  0.00  0.00     0.006 C 
ENDBRANCH   8   9
BRANCH   8  11
ATOM     11  C   LIG d   1      -0.041  90.995 117.979  0.00  0.00     0.028 C 
ATOM     12  C   LIG d   1       0.150  90.460 116.551  0.00  0.00     0.006 C 
ENDBRANCH   8  11
ENDBRANCH   7   8
ENDBRANCH   1   7
BRANCH   6  13
ATOM     13  N   LIG d   1      -4.819  93.083 117.442  0.00  0.00    -0.311 N 
ATOM     14  C   LIG d   1      -4.974  92.817 118.738  0.00  0.00     0.210 C 
ATOM     15  C   LIG d   1      -5.252  94.038 119.621  0.00  0.00     0.109 C 
ATOM     16  O   LIG d   1      -4.876  91.689 119.245  0.00  0.00    -0.276 OA
ATOM     17  H   LIG d   1      -4.883  94.030 117.123  0.00  0.00     0.149 HD
ENDBRANCH   6  13
BRANCH   5  18
ATOM     18  N   LIG d   1      -6.795  92.245 115.268  0.00  0.00     0.381 N 
ATOM     19  H   LIG d   1      -6.284  92.929 114.747  0.00  0.00    -0.090 HD
ATOM     20  H   LIG d   1      -7.347  92.723 115.958  0.00  0.00    -0.090 HD
ATOM     21  H   LIG d   1      -7.388  91.727 114.658  0.00  0.00    -0.090 HD
ENDBRANCH   5  18
BRANCH   3  22
ATOM     22  C   LIG d   1      -4.522  88.036 115.031  0.00  0.00     0.382 C 
ATOM     23  O   LIG d   1      -4.044  87.135 115.762  0.00  0.00    -0.241 OA
ATOM     24  O   LIG d   1      -4.968  87.742 113.906  0.00  0.00    -0.241 OA
ENDBRANCH   3  22
TORSDOF 7
ENDMDL
MODEL 4
REMARK VINA RESULT:      -5.3      3.400      5.651
REMARK  7 active torsions:
REMARK  status: ('A' for Active; 'I' for Inactive)
REMARK    1  A    between atoms: C_2  and  C_3 
REMARK    2  A    between atoms: C_3  and  O_6 
REMARK    3  A    between atoms: C_3  and  C_4 
REMARK    4  A    between atoms: C_7  and  O_6 
REMARK    5  A    between atoms: C_9  and  C_10 
REMARK    6  A    between atoms: N_15  and  C_14 
REMARK    7  A    between atoms: N_20  and  C_19 
REMARK       I    between atoms: C_22  and  N_20 
ROOT
ATOM      1  C   LIG d   1      -2.858  90.834 117.091  0.00  0.00     0.161 C 
ATOM      2  C   LIG d   1      -3.904  91.729 116.813  0.00  0.00     0.016 C 
ATOM      3  C   LIG d   1      -5.048  91.379 116.058  0.00  0.00     0.038 C 
ATOM      4  C   LIG d   1      -5.295  90.058 115.657  0.00  0.00     0.028 C 
ATOM      5  C   LIG d   1      -4.026  89.231 115.480  0.00  0.00    -0.047 C 
ATOM      6  C   LIG d   1      -3.162  89.359 116.756  0.00  0.00     0.091 C 
ENDROOT
BRANCH   1   7
ATOM      7  O   LIG d   1      -2.459  90.962 118.470  0.00  0.00    -0.368 OA
BRANCH   7   8
ATOM      8  C   LIG d   1      -1.186  91.611 118.708  0.00  0.00     0.119 C 
BRANCH   8   9
ATOM      9  C   LIG d   1      -1.479  93.050 119.173  0.00  0.00     0.028 C 
ATOM     10  C   LIG d   1      -1.276  94.083 118.052  0.00  0.00     0.006 C 
ENDBRANCH   8   9
BRANCH   8  11
ATOM     11  C   LIG d   1      -0.385  91.760 117.410  0.00  0.00     0.028 C 
ATOM     12  C   LIG d   1       0.901  90.919 117.403  0.00  0.00     0.006 C 
ENDBRANCH   8  11
ENDBRANCH   7   8
ENDBRANCH   1   7
BRANCH   6  13
ATOM     13  N   LIG d   1      -1.863  88.648 116.634  0.00  0.00    -0.311 N 
ATOM     14  C   LIG d   1      -1.666  87.401 117.059  0.00  0.00     0.210 C 
ATOM     15  C   LIG d   1      -0.246  86.865 116.855  0.00  0.00     0.109 C 
ATOM     16  O   LIG d   1      -2.542  86.678 117.556  0.00  0.00    -0.276 OA
ATOM     17  H   LIG d   1      -1.106  89.151 116.214  0.00  0.00     0.149 HD
ENDBRANCH   6  13
BRANCH   5  18
ATOM     18  N   LIG d   1      -4.435  87.843 115.195  0.00  0.00     0.381 N 
ATOM     19  H   LIG d   1      -4.681  87.753 114.230  0.00  0.00    -0.090 HD
ATOM     20  H   LIG d   1      -5.244  87.622 115.749  0.00  0.00    -0.090 HD
ATOM     21  H   LIG d   1      -3.692  87.216 115.416  0.00  0.00    -0.090 HD
ENDBRANCH   5  18
BRANCH   3  22
ATOM     22  C   LIG d   1      -5.940  92.365 115.665  0.00  0.00     0.382 C 
ATOM     23  O   LIG d   1      -6.100  92.615 114.445  0.00  0.00    -0.241 OA
ATOM     24  O   LIG d   1      -6.553  93.039 116.514  0.00  0.00    -0.241 OA
ENDBRANCH   3  22
TORSDOF 7
ENDMDL
MODEL 5
REMARK VINA RESULT:      -5.2      2.803      6.051
REMARK  7 active torsions:
REMARK  status: ('A' for Active; 'I' for Inactive)
REMARK    1  A    between atoms: C_2  and  C_3 
REMARK    2  A    between atoms: C_3  and  O_6 
REMARK    3  A    between atoms: C_3  and  C_4 
REMARK    4  A    between atoms: C_7  and  O_6 
REMARK    5  A    between atoms: C_9  and  C_10 
REMARK    6  A    between atoms: N_15  and  C_14 
REMARK    7  A    between atoms: N_20  and  C_19 
REMARK       I    between atoms: C_22  and  N_20 
ROOT
ATOM      1  C   LIG d   1      -3.493  90.402 116.370  0.00  0.00     0.161 C 
ATOM      2  C   LIG d   1      -3.710  89.051 116.055  0.00  0.00     0.016 C 
ATOM      3  C   LIG d   1      -2.827  88.013 116.433  0.00  0.00     0.038 C 
ATOM      4  C   LIG d   1      -1.738  88.240 117.287  0.00  0.00     0.028 C 
ATOM      5  C   LIG d   1      -1.197  89.664 117.213  0.00  0.00    -0.047 C 
ATOM      6  C   LIG d   1      -2.369  90.656 117.395  0.00  0.00     0.091 C 
ENDROOT
BRANCH   1   7
ATOM      7  O   LIG d   1      -4.725  91.003 116.817  0.00  0.00    -0.368 OA
BRANCH   7   8
ATOM      8  C   LIG d   1      -5.128  92.215 116.134  0.00  0.00     0.119 C 
BRANCH   8   9
ATOM      9  C   LIG d   1      -5.997  93.031 117.111  0.00  0.00     0.028 C 
ATOM     10  C   LIG d   1      -5.327  93.206 118.485  0.00  0.00     0.006 C 
ENDBRANCH   8   9
BRANCH   8  11
ATOM     11  C   LIG d   1      -6.040  91.905 114.943  0.00  0.00     0.028 C 
ATOM     12  C   LIG d   1      -6.985  90.722 115.207  0.00  0.00     0.006 C 
ENDBRANCH   8  11
ENDBRANCH   7   8
ENDBRANCH   1   7
BRANCH   6  13
ATOM     13  N   LIG d   1      -1.941  92.072 117.253  0.00  0.00    -0.311 N 
ATOM     14  C   LIG d   1      -1.607  92.844 118.285  0.00  0.00     0.210 C 
ATOM     15  C   LIG d   1      -1.214  94.279 117.919  0.00  0.00     0.109 C 
ATOM     16  O   LIG d   1      -1.567  92.468 119.466  0.00  0.00    -0.276 OA
ATOM     17  H   LIG d   1      -1.914  92.449 116.326  0.00  0.00     0.149 HD
ENDBRANCH   6  13
BRANCH   5  18
ATOM     18  N   LIG d   1      -0.157  89.801 118.250  0.00  0.00     0.381 N 
ATOM     19  H   LIG d   1      -0.584  89.835 119.155  0.00  0.00    -0.090 HD
ATOM     20  H   LIG d   1       0.338  90.662 118.103  0.00  0.00    -0.090 HD
ATOM     21  H   LIG d   1       0.475  89.033 118.202  0.00  0.00    -0.090 HD
ENDBRANCH   5  18
BRANCH   3  22
ATOM     22  C   LIG d   1      -3.008  86.737 115.922  0.00  0.00     0.382 C 
ATOM     23  O   LIG d   1      -3.995  86.489 115.188  0.00  0.00    -0.241 OA
ATOM     24  O   LIG d   1      -2.221  85.819 116.221  0.00  0.00    -0.241 OA
ENDBRANCH   3  22
TORSDOF 7
ENDMDL
MODEL 6
REMARK VINA RESULT:      -5.1      3.007      6.122
REMARK  7 active torsions:
REMARK  status: ('A' for Active; 'I' for Inactive)
REMARK    1  A    between atoms: C_2  and  C_3 
REMARK    2  A    between atoms: C_3  and  O_6 
REMARK    3  A    between atoms: C_3  and  C_4 
REMARK    4  A    between atoms: C_7  and  O_6 
REMARK    5  A    between atoms: C_9  and  C_10 
REMARK    6  A    between atoms: N_15  and  C_14 
REMARK    7  A    between atoms: N_20  and  C_19 
REMARK       I    between atoms: C_22  and  N_20 
ROOT
ATOM      1  C   LIG d   1      -3.176  90.097 117.487  0.00  0.00     0.161 C 
ATOM      2  C   LIG d   1      -3.296  88.964 116.665  0.00  0.00     0.016 C 
ATOM      3  C   LIG d   1      -4.150  88.905 115.540  0.00  0.00     0.038 C 
ATOM      4  C   LIG d   1      -4.834  90.036 115.068  0.00  0.00     0.028 C 
ATOM      5  C   LIG d   1      -5.135  91.059 116.157  0.00  0.00    -0.047 C 
ATOM      6  C   LIG d   1      -3.830  91.376 116.923  0.00  0.00     0.091 C 
ENDROOT
BRANCH   1   7
ATOM      7  O   LIG d   1      -1.788  90.336 117.790  0.00  0.00    -0.368 OA
BRANCH   7   8
ATOM      8  C   LIG d   1      -0.830  89.505 117.089  0.00  0.00     0.119 C 
BRANCH   8   9
ATOM      9  C   LIG d   1      -0.078  88.673 118.146  0.00  0.00     0.028 C 
ATOM     10  C   LIG d   1      -0.095  89.335 119.534  0.00  0.00     0.006 C 
ENDBRANCH   8   9
BRANCH   8  11
ATOM     11  C   LIG d   1       0.244  90.352 116.400  0.00  0.00     0.028 C 
ATOM     12  C   LIG d   1       1.369  89.504 115.786  0.00  0.00     0.006 C 
ENDBRANCH   8  11
ENDBRANCH   7   8
ENDBRANCH   1   7
BRANCH   6  13
ATOM     13  N   LIG d   1      -4.052  92.306 118.061  0.00  0.00    -0.311 N 
ATOM     14  C   LIG d   1      -3.205  93.282 118.386  0.00  0.00     0.210 C 
ATOM     15  C   LIG d   1      -3.615  94.113 119.606  0.00  0.00     0.109 C 
ATOM     16  O   LIG d   1      -2.171  93.558 117.760  0.00  0.00    -0.276 OA
ATOM     17  H   LIG d   1      -4.883  92.174 118.603  0.00  0.00     0.149 HD
ENDBRANCH   6  13
BRANCH   5  18
ATOM     18  N   LIG d   1      -5.724  92.244 115.505  0.00  0.00     0.381 N 
ATOM     19  H   LIG d   1      -5.224  92.451 114.664  0.00  0.00    -0.090 HD
ATOM     20  H   LIG d   1      -5.641  93.031 116.124  0.00  0.00    -0.090 HD
ATOM     21  H   LIG d   1      -6.684  92.076 115.297  0.00  0.00    -0.090 HD
ENDBRANCH   5  18
BRANCH   3  22
ATOM     22  C   LIG d   1      -4.358  87.694 114.897  0.00  0.00     0.382 C 
ATOM     23  O   LIG d   1      -3.895  86.636 115.388  0.00  0.00    -0.241 OA
ATOM     24  O   LIG d   1      -4.963  87.652 113.810  0.00  0.00    -0.241 OA
ENDBRANCH   3  22
TORSDOF 7
ENDMDL
MODEL 7
REMARK VINA RESULT:      -4.9      2.986      5.237
REMARK  7 active torsions:
REMARK  status: ('A' for Active; 'I' for Inactive)
REMARK    1  A    between atoms: C_2  and  C_3 
REMARK    2  A    between atoms: C_3  and  O_6 
REMARK    3  A    between atoms: C_3  and  C_4 
REMARK    4  A    between atoms: C_7  and  O_6 
REMARK    5  A    between atoms: C_9  and  C_10 
REMARK    6  A    between atoms: N_15  and  C_14 
REMARK    7  A    between atoms: N_20  and  C_19 
REMARK       I    between atoms: C_22  and  N_20 
ROOT
ATOM      1  C   LIG d   1      -2.797  90.839 117.057  0.00  0.00     0.161 C 
ATOM      2  C   LIG d   1      -2.557  91.910 117.933  0.00  0.00     0.016 C 
ATOM      3  C   LIG d   1      -3.521  92.899 118.237  0.00  0.00     0.038 C 
ATOM      4  C   LIG d   1      -4.849  92.798 117.798  0.00  0.00     0.028 C 
ATOM      5  C   LIG d   1      -5.002  92.007 116.503  0.00  0.00    -0.047 C 
ATOM      6  C   LIG d   1      -4.275  90.651 116.656  0.00  0.00     0.091 C 
ENDROOT
BRANCH   1   7
ATOM      7  O   LIG d   1      -2.272  89.620 117.619  0.00  0.00    -0.368 OA
BRANCH   7   8
ATOM      8  C   LIG d   1      -0.892  89.314 117.300  0.00  0.00     0.119 C 
BRANCH   8   9
ATOM      9  C   LIG d   1      -0.839  87.843 116.841  0.00  0.00     0.028 C 
ATOM     10  C   LIG d   1      -2.239  87.236 116.653  0.00  0.00     0.006 C 
ENDBRANCH   8   9
BRANCH   8  11
ATOM     11  C   LIG d   1      -0.003  89.383 118.545  0.00  0.00     0.028 C 
ATOM     12  C   LIG d   1      -0.753  89.012 119.834  0.00  0.00     0.006 C 
ENDBRANCH   8  11
ENDBRANCH   7   8
ENDBRANCH   1   7
BRANCH   6  13
ATOM     13  N   LIG d   1      -4.303  89.849 115.405  0.00  0.00    -0.311 N 
ATOM     14  C   LIG d   1      -5.232  88.931 115.143  0.00  0.00     0.210 C 
ATOM     15  C   LIG d   1      -5.064  88.204 113.805  0.00  0.00     0.109 C 
ATOM     16  O   LIG d   1      -6.198  88.672 115.878  0.00  0.00    -0.276 OA
ATOM     17  H   LIG d   1      -3.575  90.016 114.739  0.00  0.00     0.149 HD
ENDBRANCH   6  13
BRANCH   5  18
ATOM     18  N   LIG d   1      -6.445  91.863 116.236  0.00  0.00     0.381 N 
ATOM     19  H   LIG d   1      -6.585  91.270 115.442  0.00  0.00    -0.090 HD
ATOM     20  H   LIG d   1      -6.828  92.767 116.026  0.00  0.00    -0.090 HD
ATOM     21  H   LIG d   1      -6.903  91.477 117.032  0.00  0.00    -0.090 HD
ENDBRANCH   5  18
BRANCH   3  22
ATOM     22  C   LIG d   1      -3.148  94.025 118.955  0.00  0.00     0.382 C 
ATOM     23  O   LIG d   1      -1.949  94.188 119.287  0.00  0.00    -0.241 OA
ATOM     24  O   LIG d   1      -4.002  94.857 119.313  0.00  0.00    -0.241 OA
ENDBRANCH   3  22
TORSDOF 7
ENDMDL
MODEL 8
REMARK VINA RESULT:      -4.8     27.443     29.980
REMARK  7 active torsions:
REMARK  status: ('A' for Active; 'I' for Inactive)
REMARK    1  A    between atoms: C_2  and  C_3 
REMARK    2  A    between atoms: C_3  and  O_6 
REMARK    3  A    between atoms: C_3  and  C_4 
REMARK    4  A    between atoms: C_7  and  O_6 
REMARK    5  A    between atoms: C_9  and  C_10 
REMARK    6  A    between atoms: N_15  and  C_14 
REMARK    7  A    between atoms: N_20  and  C_19 
REMARK       I    between atoms: C_22  and  N_20 
ROOT
ATOM      1  C   LIG d   1     -16.312  65.156 118.108  0.00  0.00     0.161 C 
ATOM      2  C   LIG d   1     -16.716  66.451 117.743  0.00  0.00     0.016 C 
ATOM      3  C   LIG d   1     -16.123  67.626 118.258  0.00  0.00     0.038 C 
ATOM      4  C   LIG d   1     -14.975  67.584 119.065  0.00  0.00     0.028 C 
ATOM      5  C   LIG d   1     -14.842  66.291 119.862  0.00  0.00    -0.047 C 
ATOM      6  C   LIG d   1     -14.990  65.091 118.900  0.00  0.00     0.091 C 
ENDROOT
BRANCH   1   7
ATOM      7  O   LIG d   1     -16.236  64.319 116.936  0.00  0.00    -0.368 OA
BRANCH   7   8
ATOM      8  C   LIG d   1     -16.992  64.766 115.784  0.00  0.00     0.119 C 
BRANCH   8   9
ATOM      9  C   LIG d   1     -18.063  63.698 115.491  0.00  0.00     0.028 C 
ATOM     10  C   LIG d   1     -17.580  62.644 114.481  0.00  0.00     0.006 C 
ENDBRANCH   8   9
BRANCH   8  11
ATOM     11  C   LIG d   1     -16.116  64.817 114.529  0.00  0.00     0.028 C 
ATOM     12  C   LIG d   1     -15.643  66.240 114.190  0.00  0.00     0.006 C 
ENDBRANCH   8  11
ENDBRANCH   7   8
ENDBRANCH   1   7
BRANCH   6  13
ATOM     13  N   LIG d   1     -14.956  63.786 119.612  0.00  0.00    -0.311 N 
ATOM     14  C   LIG d   1     -14.013  62.867 119.414  0.00  0.00     0.210 C 
ATOM     15  C   LIG d   1     -14.177  61.585 120.236  0.00  0.00     0.109 C 
ATOM     16  O   LIG d   1     -13.038  63.005 118.659  0.00  0.00    -0.276 OA
ATOM     17  H   LIG d   1     -15.692  63.605 120.266  0.00  0.00     0.149 HD
ENDBRANCH   6  13
BRANCH   5  18
ATOM     18  N   LIG d   1     -13.537  66.324 120.550  0.00  0.00     0.381 N 
ATOM     19  H   LIG d   1     -13.319  67.264 120.816  0.00  0.00    -0.090 HD
ATOM     20  H   LIG d   1     -12.827  66.003 119.916  0.00  0.00    -0.090 HD
ATOM     21  H   LIG d   1     -13.562  65.740 121.356  0.00  0.00    -0.090 HD
ENDBRANCH   5  18
BRANCH   3  22
ATOM     22  C   LIG d   1     -16.702  68.859 118.000  0.00  0.00     0.382 C 
ATOM     23  O   LIG d   1     -17.462  69.384 118.848  0.00  0.00    -0.241 OA
ATOM     24  O   LIG d   1     -16.508  69.432 116.911  0.00  0.00    -0.241 OA
ENDBRANCH   3  22
TORSDOF 7
ENDMDL
MODEL 9
REMARK VINA RESULT:      -4.8     28.119     30.488
REMARK  7 active torsions:
REMARK  status: ('A' for Active; 'I' for Inactive)
REMARK    1  A    between atoms: C_2  and  C_3 
REMARK    2  A    between atoms: C_3  and  O_6 
REMARK    3  A    between atoms: C_3  and  C_4 
REMARK    4  A    between atoms: C_7  and  O_6 
REMARK    5  A    between atoms: C_9  and  C_10 
REMARK    6  A    between atoms: N_15  and  C_14 
REMARK    7  A    between atoms: N_20  and  C_19 
REMARK       I    between atoms: C_22  and  N_20 
ROOT
ATOM      1  C   LIG d   1     -15.926  65.054 116.527  0.00  0.00     0.161 C 
ATOM      2  C   LIG d   1     -17.072  65.448 115.817  0.00  0.00     0.016 C 
ATOM      3  C   LIG d   1     -18.385  65.079 116.191  0.00  0.00     0.038 C 
ATOM      4  C   LIG d   1     -18.653  64.412 117.395  0.00  0.00     0.028 C 
ATOM      5  C   LIG d   1     -17.489  63.557 117.886  0.00  0.00    -0.047 C 
ATOM      6  C   LIG d   1     -16.207  64.419 117.905  0.00  0.00     0.091 C 
ENDROOT
BRANCH   1   7
ATOM      7  O   LIG d   1     -15.028  66.172 116.664  0.00  0.00    -0.368 OA
BRANCH   7   8
ATOM      8  C   LIG d   1     -15.612  67.485 116.480  0.00  0.00     0.119 C 
BRANCH   8   9
ATOM      9  C   LIG d   1     -14.700  68.266 115.513  0.00  0.00     0.028 C 
ATOM     10  C   LIG d   1     -15.071  68.031 114.039  0.00  0.00     0.006 C 
ENDBRANCH   8   9
BRANCH   8  11
ATOM     11  C   LIG d   1     -15.601  68.288 117.785  0.00  0.00     0.028 C 
ATOM     12  C   LIG d   1     -16.994  68.802 118.180  0.00  0.00     0.006 C 
ENDBRANCH   8  11
ENDBRANCH   7   8
ENDBRANCH   1   7
BRANCH   6  13
ATOM     13  N   LIG d   1     -15.004  63.637 118.293  0.00  0.00    -0.311 N 
ATOM     14  C   LIG d   1     -14.206  63.972 119.306  0.00  0.00     0.210 C 
ATOM     15  C   LIG d   1     -13.010  63.040 119.522  0.00  0.00     0.109 C 
ATOM     16  O   LIG d   1     -14.394  64.934 120.065  0.00  0.00    -0.276 OA
ATOM     17  H   LIG d   1     -14.795  62.822 117.749  0.00  0.00     0.149 HD
ENDBRANCH   6  13
BRANCH   5  18
ATOM     18  N   LIG d   1     -17.853  63.030 119.215  0.00  0.00     0.381 N 
ATOM     19  H   LIG d   1     -17.441  63.598 119.928  0.00  0.00    -0.090 HD
ATOM     20  H   LIG d   1     -17.489  62.097 119.305  0.00  0.00    -0.090 HD
ATOM     21  H   LIG d   1     -18.843  63.019 119.318  0.00  0.00    -0.090 HD
ENDBRANCH   5  18
BRANCH   3  22
ATOM     22  C   LIG d   1     -19.443  65.344 115.335  0.00  0.00     0.382 C 
ATOM     23  O   LIG d   1     -19.334  65.100 114.109  0.00  0.00    -0.241 OA
ATOM     24  O   LIG d   1     -20.490  65.864 115.766  0.00  0.00    -0.241 OA
ENDBRANCH   3  22
TORSDOF 7
ENDMDL
