MODEL 1
REMARK VINA RESULT:      -5.5      0.000      0.000
REMARK  7 active torsions:
REMARK  status: ('A' for Active; 'I' for Inactive)
REMARK    1  A    between atoms: C_2  and  C_3 
REMARK    2  A    between atoms: C_3  and  O_6 
REMARK    3  A    between atoms: C_3  and  C_4 
REMARK    4  A    between atoms: C_7  and  O_6 
REMARK    5  A    between atoms: C_9  and  C_10 
REMARK    6  A    between atoms: N_15  and  C_14 
REMARK    7  A    between atoms: N_20  and  C_19 
REMARK       I    between atoms: C_22  and  N_20 
ROOT
ATOM      1  C   LIG d   1      -6.067  78.101 117.484  0.00  0.00     0.161 C 
ATOM      2  C   LIG d   1      -5.096  77.628 116.586  0.00  0.00     0.016 C 
ATOM      3  C   LIG d   1      -5.362  76.663 115.588  0.00  0.00     0.038 C 
ATOM      4  C   LIG d   1      -6.664  76.214 115.321  0.00  0.00     0.028 C 
ATOM      5  C   LIG d   1      -7.590  76.285 116.530  0.00  0.00    -0.047 C 
ATOM      6  C   LIG d   1      -7.517  77.705 117.135  0.00  0.00     0.091 C 
ENDROOT
BRANCH   1   7
ATOM      7  O   LIG d   1      -5.956  79.532 117.614  0.00  0.00    -0.368 OA
BRANCH   7   8
ATOM      8  C   LIG d   1      -5.641  80.029 118.938  0.00  0.00     0.119 C 
BRANCH   8   9
ATOM      9  C   LIG d   1      -6.361  81.381 119.109  0.00  0.00     0.028 C 
ATOM     10  C   LIG d   1      -7.251  81.728 117.904  0.00  0.00     0.006 C 
ENDBRANCH   8   9
BRANCH   8  11
ATOM     11  C   LIG d   1      -4.149  80.345 119.075  0.00  0.00     0.028 C 
ATOM     12  C   LIG d   1      -3.877  81.563 119.971  0.00  0.00     0.006 C 
ENDBRANCH   8  11
ENDBRANCH   7   8
ENDBRANCH   1   7
BRANCH   6  13
ATOM     13  N   LIG d   1      -8.329  77.837 118.373  0.00  0.00    -0.311 N 
ATOM     14  C   LIG d   1      -9.364  78.667 118.486  0.00  0.00     0.210 C 
ATOM     15  C   LIG d   1     -10.052  78.662 119.855  0.00  0.00     0.109 C 
ATOM     16  O   LIG d   1      -9.798  79.385 117.572  0.00  0.00    -0.276 OA
ATOM     17  H   LIG d   1      -8.066  77.268 119.154  0.00  0.00     0.149 HD
ENDBRANCH   6  13
BRANCH   5  18
ATOM     18  N   LIG d   1      -8.945  75.919 116.076  0.00  0.00     0.381 N 
ATOM     19  H   LIG d   1      -9.154  74.981 116.355  0.00  0.00    -0.090 HD
ATOM     20  H   LIG d   1      -8.975  75.964 115.073  0.00  0.00    -0.090 HD
ATOM     21  H   LIG d   1      -9.616  76.545 116.464  0.00  0.00    -0.090 HD
ENDBRANCH   5  18
BRANCH   3  22
ATOM     22  C   LIG d   1      -4.314  76.107 114.872  0.00  0.00     0.382 C 
ATOM     23  O   LIG d   1      -3.929  76.643 113.805  0.00  0.00    -0.241 OA
ATOM     24  O   LIG d   1      -3.776  75.051 115.256  0.00  0.00    -0.241 OA
ENDBRANCH   3  22
TORSDOF 7
ENDMDL
MODEL 2
REMARK VINA RESULT:      -5.4      2.470      6.309
REMARK  7 active torsions:
REMARK  status: ('A' for Active; 'I' for Inactive)
REMARK    1  A    between atoms: C_2  and  C_3 
REMARK    2  A    between atoms: C_3  and  O_6 
REMARK    3  A    between atoms: C_3  and  C_4 
REMARK    4  A    between atoms: C_7  and  O_6 
REMARK    5  A    between atoms: C_9  and  C_10 
REMARK    6  A    between atoms: N_15  and  C_14 
REMARK    7  A    between atoms: N_20  and  C_19 
REMARK       I    between atoms: C_22  and  N_20 
ROOT
ATOM      1  C   LIG d   1      -6.579  78.833 117.593  0.00  0.00     0.161 C 
ATOM      2  C   LIG d   1      -7.736  79.603 117.394  0.00  0.00     0.016 C 
ATOM      3  C   LIG d   1      -7.910  80.900 117.931  0.00  0.00     0.038 C 
ATOM      4  C   LIG d   1      -6.868  81.578 118.581  0.00  0.00     0.028 C 
ATOM      5  C   LIG d   1      -5.858  80.647 119.242  0.00  0.00    -0.047 C 
ATOM      6  C   LIG d   1      -5.389  79.600 118.206  0.00  0.00     0.091 C 
ENDROOT
BRANCH   1   7
ATOM      7  O   LIG d   1      -6.188  78.209 116.353  0.00  0.00    -0.368 OA
BRANCH   7   8
ATOM      8  C   LIG d   1      -6.170  76.760 116.347  0.00  0.00     0.119 C 
BRANCH   8   9
ATOM      9  C   LIG d   1      -4.920  76.317 115.561  0.00  0.00     0.028 C 
ATOM     10  C   LIG d   1      -5.226  75.192 114.559  0.00  0.00     0.006 C 
ENDBRANCH   8   9
BRANCH   8  11
ATOM     11  C   LIG d   1      -7.360  76.191 115.569  0.00  0.00     0.028 C 
ATOM     12  C   LIG d   1      -8.579  75.914 116.464  0.00  0.00     0.006 C 
ENDBRANCH   8  11
ENDBRANCH   7   8
ENDBRANCH   1   7
BRANCH   6  13
ATOM     13  N   LIG d   1      -4.462  78.597 118.793  0.00  0.00    -0.311 N 
ATOM     14  C   LIG d   1      -3.296  78.265 118.241  0.00  0.00     0.210 C 
ATOM     15  C   LIG d   1      -2.503  77.195 118.998  0.00  0.00     0.109 C 
ATOM     16  O   LIG d   1      -2.828  78.778 117.213  0.00  0.00    -0.276 OA
ATOM     17  H   LIG d   1      -4.748  78.155 119.644  0.00  0.00     0.149 HD
ENDBRANCH   6  13
BRANCH   5  18
ATOM     18  N   LIG d   1      -4.757  81.480 119.761  0.00  0.00     0.381 N 
ATOM     19  H   LIG d   1      -4.355  81.045 120.568  0.00  0.00    -0.090 HD
ATOM     20  H   LIG d   1      -5.127  82.373 120.036  0.00  0.00    -0.090 HD
ATOM     21  H   LIG d   1      -4.061  81.602 119.059  0.00  0.00    -0.090 HD
ENDBRANCH   5  18
BRANCH   3  22
ATOM     22  C   LIG d   1      -9.150  81.515 117.854  0.00  0.00     0.382 C 
ATOM     23  O   LIG d   1      -9.307  82.670 118.319  0.00  0.00    -0.241 OA
ATOM     24  O   LIG d   1     -10.125  80.913 117.365  0.00  0.00    -0.241 OA
ENDBRANCH   3  22
TORSDOF 7
ENDMDL
MODEL 3
REMARK VINA RESULT:      -5.2     11.538     13.317
REMARK  7 active torsions:
REMARK  status: ('A' for Active; 'I' for Inactive)
REMARK    1  A    between atoms: C_2  and  C_3 
REMARK    2  A    between atoms: C_3  and  O_6 
REMARK    3  A    between atoms: C_3  and  C_4 
REMARK    4  A    between atoms: C_7  and  O_6 
REMARK    5  A    between atoms: C_9  and  C_10 
REMARK    6  A    between atoms: N_15  and  C_14 
REMARK    7  A    between atoms: N_20  and  C_19 
REMARK       I    between atoms: C_22  and  N_20 
ROOT
ATOM      1  C   LIG d   1      -4.486  91.078 118.025  0.00  0.00     0.161 C 
ATOM      2  C   LIG d   1      -5.399  91.424 117.014  0.00  0.00     0.016 C 
ATOM      3  C   LIG d   1      -5.482  90.748 115.776  0.00  0.00     0.038 C 
ATOM      4  C   LIG d   1      -4.755  89.575 115.521  0.00  0.00     0.028 C 
ATOM      5  C   LIG d   1      -3.456  89.483 116.314  0.00  0.00    -0.047 C 
ATOM      6  C   LIG d   1      -3.762  89.732 117.809  0.00  0.00     0.091 C 
ENDROOT
BRANCH   1   7
ATOM      7  O   LIG d   1      -5.146  91.091 119.306  0.00  0.00    -0.368 OA
BRANCH   7   8
ATOM      8  C   LIG d   1      -4.822  92.202 120.178  0.00  0.00     0.119 C 
BRANCH   8   9
ATOM      9  C   LIG d   1      -6.005  93.188 120.132  0.00  0.00     0.028 C 
ATOM     10  C   LIG d   1      -5.712  94.415 119.252  0.00  0.00     0.006 C 
ENDBRANCH   8   9
BRANCH   8  11
ATOM     11  C   LIG d   1      -3.617  92.989 119.654  0.00  0.00     0.028 C 
ATOM     12  C   LIG d   1      -2.379  92.851 120.554  0.00  0.00     0.006 C 
ENDBRANCH   8  11
ENDBRANCH   7   8
ENDBRANCH   1   7
BRANCH   6  13
ATOM     13  N   LIG d   1      -2.533  89.744 118.645  0.00  0.00    -0.311 N 
ATOM     14  C   LIG d   1      -2.080  88.674 119.296  0.00  0.00     0.210 C 
ATOM     15  C   LIG d   1      -0.807  88.908 120.116  0.00  0.00     0.109 C 
ATOM     16  O   LIG d   1      -2.592  87.546 119.246  0.00  0.00    -0.276 OA
ATOM     17  H   LIG d   1      -2.037  90.611 118.715  0.00  0.00     0.149 HD
ENDBRANCH   6  13
BRANCH   5  18
ATOM     18  N   LIG d   1      -2.870  88.154 116.058  0.00  0.00     0.381 N 
ATOM     19  H   LIG d   1      -3.599  87.490 115.886  0.00  0.00    -0.090 HD
ATOM     20  H   LIG d   1      -2.362  87.860 116.873  0.00  0.00    -0.090 HD
ATOM     21  H   LIG d   1      -2.258  88.197 115.273  0.00  0.00    -0.090 HD
ENDBRANCH   5  18
BRANCH   3  22
ATOM     22  C   LIG d   1      -6.270  91.267 114.760  0.00  0.00     0.382 C 
ATOM     23  O   LIG d   1      -6.197  92.486 114.471  0.00  0.00    -0.241 OA
ATOM     24  O   LIG d   1      -7.086  90.542 114.160  0.00  0.00    -0.241 OA
ENDBRANCH   3  22
TORSDOF 7
ENDMDL
MODEL 4
REMARK VINA RESULT:      -5.2     12.192     14.292
REMARK  7 active torsions:
REMARK  status: ('A' for Active; 'I' for Inactive)
REMARK    1  A    between atoms: C_2  and  C_3 
REMARK    2  A    between atoms: C_3  and  O_6 
REMARK    3  A    between atoms: C_3  and  C_4 
REMARK    4  A    between atoms: C_7  and  O_6 
REMARK    5  A    between atoms: C_9  and  C_10 
REMARK    6  A    between atoms: N_15  and  C_14 
REMARK    7  A    between atoms: N_20  and  C_19 
REMARK       I    between atoms: C_22  and  N_20 
ROOT
ATOM      1  C   LIG d   1      -3.917  92.093 117.591  0.00  0.00     0.161 C 
ATOM      2  C   LIG d   1      -4.987  92.183 116.685  0.00  0.00     0.016 C 
ATOM      3  C   LIG d   1      -5.342  91.144 115.795  0.00  0.00     0.038 C 
ATOM      4  C   LIG d   1      -4.742  89.878 115.855  0.00  0.00     0.028 C 
ATOM      5  C   LIG d   1      -3.321  89.907 116.409  0.00  0.00    -0.047 C 
ATOM      6  C   LIG d   1      -3.320  90.678 117.748  0.00  0.00     0.091 C 
ENDROOT
BRANCH   1   7
ATOM      7  O   LIG d   1      -4.317  92.614 118.874  0.00  0.00    -0.368 OA
BRANCH   7   8
ATOM      8  C   LIG d   1      -4.081  94.027 119.090  0.00  0.00     0.119 C 
BRANCH   8   9
ATOM      9  C   LIG d   1      -2.987  94.154 120.168  0.00  0.00     0.028 C 
ATOM     10  C   LIG d   1      -1.576  94.250 119.564  0.00  0.00     0.006 C 
ENDBRANCH   8   9
BRANCH   8  11
ATOM     11  C   LIG d   1      -5.316  94.713 119.682  0.00  0.00     0.028 C 
ATOM     12  C   LIG d   1      -6.344  95.114 118.613  0.00  0.00     0.006 C 
ENDBRANCH   8  11
ENDBRANCH   7   8
ENDBRANCH   1   7
BRANCH   6  13
ATOM     13  N   LIG d   1      -1.955  90.826 118.317  0.00  0.00    -0.311 N 
ATOM     14  C   LIG d   1      -1.450  90.005 119.235  0.00  0.00     0.210 C 
ATOM     15  C   LIG d   1      -0.032  90.348 119.700  0.00  0.00     0.109 C 
ATOM     16  O   LIG d   1      -2.031  89.006 119.686  0.00  0.00    -0.276 OA
ATOM     17  H   LIG d   1      -1.403  91.593 117.984  0.00  0.00     0.149 HD
ENDBRANCH   6  13
BRANCH   5  18
ATOM     18  N   LIG d   1      -2.867  88.510 116.545  0.00  0.00     0.381 N 
ATOM     19  H   LIG d   1      -3.222  88.121 117.396  0.00  0.00    -0.090 HD
ATOM     20  H   LIG d   1      -1.864  88.497 116.587  0.00  0.00    -0.090 HD
ATOM     21  H   LIG d   1      -3.182  87.972 115.769  0.00  0.00    -0.090 HD
ENDBRANCH   5  18
BRANCH   3  22
ATOM     22  C   LIG d   1      -6.282  91.381 114.803  0.00  0.00     0.382 C 
ATOM     23  O   LIG d   1      -6.986  90.437 114.368  0.00  0.00    -0.241 OA
ATOM     24  O   LIG d   1      -6.405  92.517 114.307  0.00  0.00    -0.241 OA
ENDBRANCH   3  22
TORSDOF 7
ENDMDL
MODEL 5
REMARK VINA RESULT:      -5.1      2.390      4.775
REMARK  7 active torsions:
REMARK  status: ('A' for Active; 'I' for Inactive)
REMARK    1  A    between atoms: C_2  and  C_3 
REMARK    2  A    between atoms: C_3  and  O_6 
REMARK    3  A    between atoms: C_3  and  C_4 
REMARK    4  A    between atoms: C_7  and  O_6 
REMARK    5  A    between atoms: C_9  and  C_10 
REMARK    6  A    between atoms: N_15  and  C_14 
REMARK    7  A    between atoms: N_20  and  C_19 
REMARK       I    between atoms: C_22  and  N_20 
ROOT
ATOM      1  C   LIG d   1      -6.347  79.117 117.172  0.00  0.00     0.161 C 
ATOM      2  C   LIG d   1      -5.254  78.411 117.702  0.00  0.00     0.016 C 
ATOM      3  C   LIG d   1      -4.777  78.592 119.021  0.00  0.00     0.038 C 
ATOM      4  C   LIG d   1      -5.460  79.386 119.954  0.00  0.00     0.028 C 
ATOM      5  C   LIG d   1      -6.275  80.505 119.316  0.00  0.00    -0.047 C 
ATOM      6  C   LIG d   1      -7.173  79.905 118.211  0.00  0.00     0.091 C 
ENDROOT
BRANCH   1   7
ATOM      7  O   LIG d   1      -7.198  78.217 116.434  0.00  0.00    -0.368 OA
BRANCH   7   8
ATOM      8  C   LIG d   1      -7.590  77.003 117.121  0.00  0.00     0.119 C 
BRANCH   8   9
ATOM      9  C   LIG d   1      -7.527  75.852 116.099  0.00  0.00     0.028 C 
ATOM     10  C   LIG d   1      -6.398  76.040 115.072  0.00  0.00     0.006 C 
ENDBRANCH   8   9
BRANCH   8  11
ATOM     11  C   LIG d   1      -9.052  77.065 117.572  0.00  0.00     0.028 C 
ATOM     12  C   LIG d   1      -9.207  77.026 119.101  0.00  0.00     0.006 C 
ENDBRANCH   8  11
ENDBRANCH   7   8
ENDBRANCH   1   7
BRANCH   6  13
ATOM     13  N   LIG d   1      -7.942  80.944 117.478  0.00  0.00    -0.311 N 
ATOM     14  C   LIG d   1      -9.273  81.009 117.480  0.00  0.00     0.210 C 
ATOM     15  C   LIG d   1      -9.865  82.147 116.643  0.00  0.00     0.109 C 
ATOM     16  O   LIG d   1     -10.017  80.252 118.120  0.00  0.00    -0.276 OA
ATOM     17  H   LIG d   1      -7.416  81.618 116.957  0.00  0.00     0.149 HD
ENDBRANCH   6  13
BRANCH   5  18
ATOM     18  N   LIG d   1      -7.042  81.165 120.389  0.00  0.00     0.381 N 
ATOM     19  H   LIG d   1      -7.989  80.843 120.376  0.00  0.00    -0.090 HD
ATOM     20  H   LIG d   1      -7.044  82.157 120.225  0.00  0.00    -0.090 HD
ATOM     21  H   LIG d   1      -6.629  80.969 121.274  0.00  0.00    -0.090 HD
ENDBRANCH   5  18
BRANCH   3  22
ATOM     22  C   LIG d   1      -3.581  78.005 119.405  0.00  0.00     0.382 C 
ATOM     23  O   LIG d   1      -3.122  78.211 120.555  0.00  0.00    -0.241 OA
ATOM     24  O   LIG d   1      -2.933  77.307 118.602  0.00  0.00    -0.241 OA
ENDBRANCH   3  22
TORSDOF 7
ENDMDL
MODEL 6
REMARK VINA RESULT:      -5.0      4.286      6.252
REMARK  7 active torsions:
REMARK  status: ('A' for Active; 'I' for Inactive)
REMARK    1  A    between atoms: C_2  and  C_3 
REMARK    2  A    between atoms: C_3  and  O_6 
REMARK    3  A    between atoms: C_3  and  C_4 
REMARK    4  A    between atoms: C_7  and  O_6 
REMARK    5  A    between atoms: C_9  and  C_10 
REMARK    6  A    between atoms: N_15  and  C_14 
REMARK    7  A    between atoms: N_20  and  C_19 
REMARK       I    between atoms: C_22  and  N_20 
ROOT
ATOM      1  C   LIG d   1      -2.086  77.556 117.103  0.00  0.00     0.161 C 
ATOM      2  C   LIG d   1      -3.332  77.346 116.490  0.00  0.00     0.016 C 
ATOM      3  C   LIG d   1      -3.662  76.168 115.781  0.00  0.00     0.038 C 
ATOM      4  C   LIG d   1      -2.815  75.050 115.766  0.00  0.00     0.028 C 
ATOM      5  C   LIG d   1      -1.343  75.403 115.944  0.00  0.00    -0.047 C 
ATOM      6  C   LIG d   1      -1.189  76.303 117.191  0.00  0.00     0.091 C 
ENDROOT
BRANCH   1   7
ATOM      7  O   LIG d   1      -2.275  78.130 118.411  0.00  0.00    -0.368 OA
BRANCH   7   8
ATOM      8  C   LIG d   1      -2.774  79.490 118.444  0.00  0.00     0.119 C 
BRANCH   8   9
ATOM      9  C   LIG d   1      -1.585  80.411 118.781  0.00  0.00     0.028 C 
ATOM     10  C   LIG d   1      -2.023  81.692 119.511  0.00  0.00     0.006 C 
ENDBRANCH   8   9
BRANCH   8  11
ATOM     11  C   LIG d   1      -3.776  79.688 119.586  0.00  0.00     0.028 C 
ATOM     12  C   LIG d   1      -3.972  78.421 120.433  0.00  0.00     0.006 C 
ENDBRANCH   8  11
ENDBRANCH   7   8
ENDBRANCH   1   7
BRANCH   6  13
ATOM     13  N   LIG d   1       0.210  76.764 117.390  0.00  0.00    -0.311 N 
ATOM     14  C   LIG d   1       1.101  76.104 118.127  0.00  0.00     0.210 C 
ATOM     15  C   LIG d   1       2.481  76.763 118.217  0.00  0.00     0.109 C 
ATOM     16  O   LIG d   1       0.889  75.019 118.690  0.00  0.00    -0.276 OA
ATOM     17  H   LIG d   1       0.476  77.619 116.943  0.00  0.00     0.149 HD
ENDBRANCH   6  13
BRANCH   5  18
ATOM     18  N   LIG d   1      -0.590  74.139 116.047  0.00  0.00     0.381 N 
ATOM     19  H   LIG d   1       0.389  74.332 116.114  0.00  0.00    -0.090 HD
ATOM     20  H   LIG d   1      -0.749  73.598 115.215  0.00  0.00    -0.090 HD
ATOM     21  H   LIG d   1      -0.891  73.627 116.847  0.00  0.00    -0.090 HD
ENDBRANCH   5  18
BRANCH   3  22
ATOM     22  C   LIG d   1      -4.836  76.116 115.044  0.00  0.00     0.382 C 
ATOM     23  O   LIG d   1      -5.789  76.880 115.328  0.00  0.00    -0.241 OA
ATOM     24  O   LIG d   1      -4.969  75.284 114.126  0.00  0.00    -0.241 OA
ENDBRANCH   3  22
TORSDOF 7
ENDMDL
MODEL 7
REMARK VINA RESULT:      -5.0     12.270     14.615
REMARK  7 active torsions:
REMARK  status: ('A' for Active; 'I' for Inactive)
REMARK    1  A    between atoms: C_2  and  C_3 
REMARK    2  A    between atoms: C_3  and  O_6 
REMARK    3  A    between atoms: C_3  and  C_4 
REMARK    4  A    between atoms: C_7  and  O_6 
REMARK    5  A    between atoms: C_9  and  C_10 
REMARK    6  A    between atoms: N_15  and  C_14 
REMARK    7  A    between atoms: N_20  and  C_19 
REMARK       I    between atoms: C_22  and  N_20 
ROOT
ATOM      1  C   LIG d   1      -2.507  91.224 117.912  0.00  0.00     0.161 C 
ATOM      2  C   LIG d   1      -3.255  90.349 117.107  0.00  0.00     0.016 C 
ATOM      3  C   LIG d   1      -4.540  90.659 116.607  0.00  0.00     0.038 C 
ATOM      4  C   LIG d   1      -5.105  91.935 116.754  0.00  0.00     0.028 C 
ATOM      5  C   LIG d   1      -4.605  92.680 117.986  0.00  0.00    -0.047 C 
ATOM      6  C   LIG d   1      -3.060  92.663 117.991  0.00  0.00     0.091 C 
ENDROOT
BRANCH   1   7
ATOM      7  O   LIG d   1      -1.134  91.239 117.474  0.00  0.00    -0.368 OA
BRANCH   7   8
ATOM      8  C   LIG d   1      -0.215  90.409 118.227  0.00  0.00     0.119 C 
BRANCH   8   9
ATOM      9  C   LIG d   1       0.818  91.343 118.886  0.00  0.00     0.028 C 
ATOM     10  C   LIG d   1       1.393  92.372 117.898  0.00  0.00     0.006 C 
ENDBRANCH   8   9
BRANCH   8  11
ATOM     11  C   LIG d   1       0.595  89.494 117.304  0.00  0.00     0.028 C 
ATOM     12  C   LIG d   1      -0.142  88.190 116.961  0.00  0.00     0.006 C 
ENDBRANCH   8  11
ENDBRANCH   7   8
ENDBRANCH   1   7
BRANCH   6  13
ATOM     13  N   LIG d   1      -2.489  93.298 119.207  0.00  0.00    -0.311 N 
ATOM     14  C   LIG d   1      -1.603  94.292 119.168  0.00  0.00     0.210 C 
ATOM     15  C   LIG d   1      -1.128  94.789 120.537  0.00  0.00     0.109 C 
ATOM     16  O   LIG d   1      -1.191  94.832 118.130  0.00  0.00    -0.276 OA
ATOM     17  H   LIG d   1      -2.793  92.943 120.092  0.00  0.00     0.149 HD
ENDBRANCH   6  13
BRANCH   5  18
ATOM     18  N   LIG d   1      -5.168  94.043 117.942  0.00  0.00     0.381 N 
ATOM     19  H   LIG d   1      -5.870  94.143 118.648  0.00  0.00    -0.090 HD
ATOM     20  H   LIG d   1      -5.600  94.187 117.046  0.00  0.00    -0.090 HD
ATOM     21  H   LIG d   1      -4.446  94.715 118.083  0.00  0.00    -0.090 HD
ENDBRANCH   5  18
BRANCH   3  22
ATOM     22  C   LIG d   1      -5.291  89.674 115.984  0.00  0.00     0.382 C 
ATOM     23  O   LIG d   1      -4.893  89.168 114.907  0.00  0.00    -0.241 OA
ATOM     24  O   LIG d   1      -6.384  89.315 116.463  0.00  0.00    -0.241 OA
ENDBRANCH   3  22
TORSDOF 7
ENDMDL
MODEL 8
REMARK VINA RESULT:      -4.9      4.196      5.685
REMARK  7 active torsions:
REMARK  status: ('A' for Active; 'I' for Inactive)
REMARK    1  A    between atoms: C_2  and  C_3 
REMARK    2  A    between atoms: C_3  and  O_6 
REMARK    3  A    between atoms: C_3  and  C_4 
REMARK    4  A    between atoms: C_7  and  O_6 
REMARK    5  A    between atoms: C_9  and  C_10 
REMARK    6  A    between atoms: N_15  and  C_14 
REMARK    7  A    between atoms: N_20  and  C_19 
REMARK       I    between atoms: C_22  and  N_20 
ROOT
ATOM      1  C   LIG d   1      -2.628  76.958 117.792  0.00  0.00     0.161 C 
ATOM      2  C   LIG d   1      -1.530  77.212 118.630  0.00  0.00     0.016 C 
ATOM      3  C   LIG d   1      -0.266  76.601 118.464  0.00  0.00     0.038 C 
ATOM      4  C   LIG d   1       0.031  75.804 117.348  0.00  0.00     0.028 C 
ATOM      5  C   LIG d   1      -1.193  75.117 116.752  0.00  0.00    -0.047 C 
ATOM      6  C   LIG d   1      -2.291  76.176 116.505  0.00  0.00     0.091 C 
ENDROOT
BRANCH   1   7
ATOM      7  O   LIG d   1      -3.292  78.195 117.467  0.00  0.00    -0.368 OA
BRANCH   7   8
ATOM      8  C   LIG d   1      -4.522  78.466 118.184  0.00  0.00     0.119 C 
BRANCH   8   9
ATOM      9  C   LIG d   1      -5.682  78.335 117.179  0.00  0.00     0.028 C 
ATOM     10  C   LIG d   1      -6.817  79.335 117.459  0.00  0.00     0.006 C 
ENDBRANCH   8   9
BRANCH   8  11
ATOM     11  C   LIG d   1      -4.572  79.915 118.676  0.00  0.00     0.028 C 
ATOM     12  C   LIG d   1      -3.227  80.401 119.239  0.00  0.00     0.006 C 
ENDBRANCH   8  11
ENDBRANCH   7   8
ENDBRANCH   1   7
BRANCH   6  13
ATOM     13  N   LIG d   1      -3.554  75.576 116.000  0.00  0.00    -0.311 N 
ATOM     14  C   LIG d   1      -4.141  75.950 114.864  0.00  0.00     0.210 C 
ATOM     15  C   LIG d   1      -5.446  75.217 114.539  0.00  0.00     0.109 C 
ATOM     16  O   LIG d   1      -3.687  76.796 114.079  0.00  0.00    -0.276 OA
ATOM     17  H   LIG d   1      -3.974  74.860 116.559  0.00  0.00     0.149 HD
ENDBRANCH   6  13
BRANCH   5  18
ATOM     18  N   LIG d   1      -0.762  74.432 115.518  0.00  0.00     0.381 N 
ATOM     19  H   LIG d   1       0.235  74.461 115.445  0.00  0.00    -0.090 HD
ATOM     20  H   LIG d   1      -1.151  74.914 114.726  0.00  0.00    -0.090 HD
ATOM     21  H   LIG d   1      -1.075  73.486 115.527  0.00  0.00    -0.090 HD
ENDBRANCH   5  18
BRANCH   3  22
ATOM     22  C   LIG d   1       0.706  76.754 119.441  0.00  0.00     0.382 C 
ATOM     23  O   LIG d   1       1.255  77.869 119.609  0.00  0.00    -0.241 OA
ATOM     24  O   LIG d   1       1.071  75.781 120.127  0.00  0.00    -0.241 OA
ENDBRANCH   3  22
TORSDOF 7
ENDMDL
MODEL 9
REMARK VINA RESULT:      -4.9      2.555      5.213
REMARK  7 active torsions:
REMARK  status: ('A' for Active; 'I' for Inactive)
REMARK    1  A    between atoms: C_2  and  C_3 
REMARK    2  A    between atoms: C_3  and  O_6 
REMARK    3  A    between atoms: C_3  and  C_4 
REMARK    4  A    between atoms: C_7  and  O_6 
REMARK    5  A    between atoms: C_9  and  C_10 
REMARK    6  A    between atoms: N_15  and  C_14 
REMARK    7  A    between atoms: N_20  and  C_19 
REMARK       I    between atoms: C_22  and  N_20 
ROOT
ATOM      1  C   LIG d   1      -6.123  79.533 117.993  0.00  0.00     0.161 C 
ATOM      2  C   LIG d   1      -4.802  79.410 118.454  0.00  0.00     0.016 C 
ATOM      3  C   LIG d   1      -4.185  80.352 119.309  0.00  0.00     0.038 C 
ATOM      4  C   LIG d   1      -4.902  81.411 119.886  0.00  0.00     0.028 C 
ATOM      5  C   LIG d   1      -6.097  81.859 119.051  0.00  0.00    -0.047 C 
ATOM      6  C   LIG d   1      -6.956  80.622 118.701  0.00  0.00     0.091 C 
ENDROOT
BRANCH   1   7
ATOM      7  O   LIG d   1      -6.790  78.258 118.077  0.00  0.00    -0.368 OA
BRANCH   7   8
ATOM      8  C   LIG d   1      -7.330  77.739 116.837  0.00  0.00     0.119 C 
BRANCH   8   9
ATOM      9  C   LIG d   1      -8.556  76.875 117.192  0.00  0.00     0.028 C 
ATOM     10  C   LIG d   1      -9.341  77.434 118.391  0.00  0.00     0.006 C 
ENDBRANCH   8   9
BRANCH   8  11
ATOM     11  C   LIG d   1      -6.345  76.785 116.156  0.00  0.00     0.028 C 
ATOM     12  C   LIG d   1      -7.045  75.651 115.391  0.00  0.00     0.006 C 
ENDBRANCH   8  11
ENDBRANCH   7   8
ENDBRANCH   1   7
BRANCH   6  13
ATOM     13  N   LIG d   1      -8.100  80.960 117.814  0.00  0.00    -0.311 N 
ATOM     14  C   LIG d   1      -9.312  81.274 118.269  0.00  0.00     0.210 C 
ATOM     15  C   LIG d   1     -10.353  81.569 117.185  0.00  0.00     0.109 C 
ATOM     16  O   LIG d   1      -9.615  81.368 119.468  0.00  0.00    -0.276 OA
ATOM     17  H   LIG d   1      -7.934  80.939 116.827  0.00  0.00     0.149 HD
ENDBRANCH   6  13
BRANCH   5  18
ATOM     18  N   LIG d   1      -6.833  82.871 119.833  0.00  0.00     0.381 N 
ATOM     19  H   LIG d   1      -6.280  83.164 120.614  0.00  0.00    -0.090 HD
ATOM     20  H   LIG d   1      -7.679  82.459 120.183  0.00  0.00    -0.090 HD
ATOM     21  H   LIG d   1      -7.049  83.655 119.258  0.00  0.00    -0.090 HD
ENDBRANCH   5  18
BRANCH   3  22
ATOM     22  C   LIG d   1      -2.825  80.263 119.563  0.00  0.00     0.382 C 
ATOM     23  O   LIG d   1      -2.036  81.097 119.056  0.00  0.00    -0.241 OA
ATOM     24  O   LIG d   1      -2.371  79.333 120.257  0.00  0.00    -0.241 OA
ENDBRANCH   3  22
TORSDOF 7
ENDMDL
