MODEL 1
REMARK VINA RESULT:      -5.9      0.000      0.000
REMARK  7 active torsions:
REMARK  status: ('A' for Active; 'I' for Inactive)
REMARK    1  A    between atoms: C_2  and  C_3 
REMARK    2  A    between atoms: C_3  and  O_6 
REMARK    3  A    between atoms: C_3  and  C_4 
REMARK    4  A    between atoms: C_7  and  O_6 
REMARK    5  A    between atoms: C_9  and  C_10 
REMARK    6  A    between atoms: N_15  and  C_14 
REMARK    7  A    between atoms: N_20  and  C_19 
REMARK       I    between atoms: C_22  and  N_20 
ROOT
ATOM      1  C   LIG d   1      -7.758  75.649 117.877  0.00  0.00     0.161 C 
ATOM      2  C   LIG d   1      -8.964  76.334 118.101  0.00  0.00     0.016 C 
ATOM      3  C   LIG d   1      -9.047  77.740 118.230  0.00  0.00     0.038 C 
ATOM      4  C   LIG d   1      -7.945  78.573 117.991  0.00  0.00     0.028 C 
ATOM      5  C   LIG d   1      -6.605  77.897 118.259  0.00  0.00    -0.047 C 
ATOM      6  C   LIG d   1      -6.562  76.549 117.503  0.00  0.00     0.091 C 
ENDROOT
BRANCH   1   7
ATOM      7  O   LIG d   1      -7.953  74.632 116.874  0.00  0.00    -0.368 OA
BRANCH   7   8
ATOM      8  C   LIG d   1      -7.937  73.262 117.344  0.00  0.00     0.119 C 
BRANCH   8   9
ATOM      9  C   LIG d   1      -6.990  72.468 116.423  0.00  0.00     0.028 C 
ATOM     10  C   LIG d   1      -6.410  73.334 115.291  0.00  0.00     0.006 C 
ENDBRANCH   8   9
BRANCH   8  11
ATOM     11  C   LIG d   1      -9.309  72.601 117.182  0.00  0.00     0.028 C 
ATOM     12  C   LIG d   1      -9.215  71.084 116.948  0.00  0.00     0.006 C 
ENDBRANCH   8  11
ENDBRANCH   7   8
ENDBRANCH   1   7
BRANCH   6  13
ATOM     13  N   LIG d   1      -5.319  75.783 117.779  0.00  0.00    -0.311 N 
ATOM     14  C   LIG d   1      -4.247  75.817 116.989  0.00  0.00     0.210 C 
ATOM     15  C   LIG d   1      -3.079  74.937 117.447  0.00  0.00     0.109 C 
ATOM     16  O   LIG d   1      -4.140  76.517 115.971  0.00  0.00    -0.276 OA
ATOM     17  H   LIG d   1      -5.308  75.213 118.602  0.00  0.00     0.149 HD
ENDBRANCH   6  13
BRANCH   5  18
ATOM     18  N   LIG d   1      -5.542  78.829 117.839  0.00  0.00     0.381 N 
ATOM     19  H   LIG d   1      -5.187  79.319 118.635  0.00  0.00    -0.090 HD
ATOM     20  H   LIG d   1      -5.933  79.503 117.203  0.00  0.00    -0.090 HD
ATOM     21  H   LIG d   1      -4.806  78.329 117.392  0.00  0.00    -0.090 HD
ENDBRANCH   5  18
BRANCH   3  22
ATOM     22  C   LIG d   1     -10.237  78.323 118.641  0.00  0.00     0.382 C 
ATOM     23  O   LIG d   1     -11.182  77.602 119.041  0.00  0.00    -0.241 OA
ATOM     24  O   LIG d   1     -10.391  79.557 118.574  0.00  0.00    -0.241 OA
ENDBRANCH   3  22
TORSDOF 7
ENDMDL
MODEL 2
REMARK VINA RESULT:      -5.5      1.412      2.415
REMARK  7 active torsions:
REMARK  status: ('A' for Active; 'I' for Inactive)
REMARK    1  A    between atoms: C_2  and  C_3 
REMARK    2  A    between atoms: C_3  and  O_6 
REMARK    3  A    between atoms: C_3  and  C_4 
REMARK    4  A    between atoms: C_7  and  O_6 
REMARK    5  A    between atoms: C_9  and  C_10 
REMARK    6  A    between atoms: N_15  and  C_14 
REMARK    7  A    between atoms: N_20  and  C_19 
REMARK       I    between atoms: C_22  and  N_20 
ROOT
ATOM      1  C   LIG d   1      -6.130  75.030 117.951  0.00  0.00     0.161 C 
ATOM      2  C   LIG d   1      -7.507  75.302 117.888  0.00  0.00     0.016 C 
ATOM      3  C   LIG d   1      -8.038  76.609 117.792  0.00  0.00     0.038 C 
ATOM      4  C   LIG d   1      -7.217  77.731 117.599  0.00  0.00     0.028 C 
ATOM      5  C   LIG d   1      -5.811  77.556 118.163  0.00  0.00    -0.047 C 
ATOM      6  C   LIG d   1      -5.217  76.232 117.630  0.00  0.00     0.091 C 
ENDROOT
BRANCH   1   7
ATOM      7  O   LIG d   1      -5.812  73.917 117.093  0.00  0.00    -0.368 OA
BRANCH   7   8
ATOM      8  C   LIG d   1      -6.681  73.725 115.950  0.00  0.00     0.119 C 
BRANCH   8   9
ATOM      9  C   LIG d   1      -6.949  72.213 115.821  0.00  0.00     0.028 C 
ATOM     10  C   LIG d   1      -8.259  71.788 116.506  0.00  0.00     0.006 C 
ENDBRANCH   8   9
BRANCH   8  11
ATOM     11  C   LIG d   1      -5.985  74.126 114.646  0.00  0.00     0.028 C 
ATOM     12  C   LIG d   1      -6.255  75.586 114.250  0.00  0.00     0.006 C 
ENDBRANCH   8  11
ENDBRANCH   7   8
ENDBRANCH   1   7
BRANCH   6  13
ATOM     13  N   LIG d   1      -3.876  75.943 118.200  0.00  0.00    -0.311 N 
ATOM     14  C   LIG d   1      -2.838  75.543 117.467  0.00  0.00     0.210 C 
ATOM     15  C   LIG d   1      -1.552  75.281 118.256  0.00  0.00     0.109 C 
ATOM     16  O   LIG d   1      -2.853  75.411 116.234  0.00  0.00    -0.276 OA
ATOM     17  H   LIG d   1      -3.766  76.054 119.189  0.00  0.00     0.149 HD
ENDBRANCH   6  13
BRANCH   5  18
ATOM     18  N   LIG d   1      -5.024  78.741 117.772  0.00  0.00     0.381 N 
ATOM     19  H   LIG d   1      -4.586  79.138 118.579  0.00  0.00    -0.090 HD
ATOM     20  H   LIG d   1      -5.644  79.429 117.381  0.00  0.00    -0.090 HD
ATOM     21  H   LIG d   1      -4.334  78.486 117.101  0.00  0.00    -0.090 HD
ENDBRANCH   5  18
BRANCH   3  22
ATOM     22  C   LIG d   1      -9.403  76.808 117.928  0.00  0.00     0.382 C 
ATOM     23  O   LIG d   1      -9.840  77.918 118.316  0.00  0.00    -0.241 OA
ATOM     24  O   LIG d   1     -10.202  75.876 117.712  0.00  0.00    -0.241 OA
ENDBRANCH   3  22
TORSDOF 7
ENDMDL
MODEL 3
REMARK VINA RESULT:      -5.3      1.702      5.059
REMARK  7 active torsions:
REMARK  status: ('A' for Active; 'I' for Inactive)
REMARK    1  A    between atoms: C_2  and  C_3 
REMARK    2  A    between atoms: C_3  and  O_6 
REMARK    3  A    between atoms: C_3  and  C_4 
REMARK    4  A    between atoms: C_7  and  O_6 
REMARK    5  A    between atoms: C_9  and  C_10 
REMARK    6  A    between atoms: N_15  and  C_14 
REMARK    7  A    between atoms: N_20  and  C_19 
REMARK       I    between atoms: C_22  and  N_20 
ROOT
ATOM      1  C   LIG d   1      -6.537  75.000 117.445  0.00  0.00     0.161 C 
ATOM      2  C   LIG d   1      -5.199  74.652 117.197  0.00  0.00     0.016 C 
ATOM      3  C   LIG d   1      -4.099  75.400 117.676  0.00  0.00     0.038 C 
ATOM      4  C   LIG d   1      -4.262  76.469 118.570  0.00  0.00     0.028 C 
ATOM      5  C   LIG d   1      -5.614  77.163 118.443  0.00  0.00    -0.047 C 
ATOM      6  C   LIG d   1      -6.733  76.099 118.511  0.00  0.00     0.091 C 
ENDROOT
BRANCH   1   7
ATOM      7  O   LIG d   1      -7.291  73.822 117.796  0.00  0.00    -0.368 OA
BRANCH   7   8
ATOM      8  C   LIG d   1      -7.946  73.135 116.702  0.00  0.00     0.119 C 
BRANCH   8   9
ATOM      9  C   LIG d   1      -9.278  72.576 117.237  0.00  0.00     0.028 C 
ATOM     10  C   LIG d   1      -9.348  71.042 117.153  0.00  0.00     0.006 C 
ENDBRANCH   8   9
BRANCH   8  11
ATOM     11  C   LIG d   1      -7.144  71.910 116.253  0.00  0.00     0.028 C 
ATOM     12  C   LIG d   1      -6.408  72.134 114.922  0.00  0.00     0.006 C 
ENDBRANCH   8  11
ENDBRANCH   7   8
ENDBRANCH   1   7
BRANCH   6  13
ATOM     13  N   LIG d   1      -8.084  76.684 118.310  0.00  0.00    -0.311 N 
ATOM     14  C   LIG d   1      -8.886  77.038 119.313  0.00  0.00     0.210 C 
ATOM     15  C   LIG d   1     -10.245  77.602 118.886  0.00  0.00     0.109 C 
ATOM     16  O   LIG d   1      -8.588  76.968 120.515  0.00  0.00    -0.276 OA
ATOM     17  H   LIG d   1      -8.394  76.804 117.366  0.00  0.00     0.149 HD
ENDBRANCH   6  13
BRANCH   5  18
ATOM     18  N   LIG d   1      -5.703  78.165 119.522  0.00  0.00     0.381 N 
ATOM     19  H   LIG d   1      -6.619  78.568 119.535  0.00  0.00    -0.090 HD
ATOM     20  H   LIG d   1      -5.039  78.897 119.342  0.00  0.00    -0.090 HD
ATOM     21  H   LIG d   1      -5.508  77.738 120.401  0.00  0.00    -0.090 HD
ENDBRANCH   5  18
BRANCH   3  22
ATOM     22  C   LIG d   1      -2.820  75.104 117.229  0.00  0.00     0.382 C 
ATOM     23  O   LIG d   1      -2.330  75.741 116.266  0.00  0.00    -0.241 OA
ATOM     24  O   LIG d   1      -2.167  74.180 117.749  0.00  0.00    -0.241 OA
ENDBRANCH   3  22
TORSDOF 7
ENDMDL
MODEL 4
REMARK VINA RESULT:      -5.0      1.883      3.125
REMARK  7 active torsions:
REMARK  status: ('A' for Active; 'I' for Inactive)
REMARK    1  A    between atoms: C_2  and  C_3 
REMARK    2  A    between atoms: C_3  and  O_6 
REMARK    3  A    between atoms: C_3  and  C_4 
REMARK    4  A    between atoms: C_7  and  O_6 
REMARK    5  A    between atoms: C_9  and  C_10 
REMARK    6  A    between atoms: N_15  and  C_14 
REMARK    7  A    between atoms: N_20  and  C_19 
REMARK       I    between atoms: C_22  and  N_20 
ROOT
ATOM      1  C   LIG d   1      -6.489  76.941 117.090  0.00  0.00     0.161 C 
ATOM      2  C   LIG d   1      -7.839  76.584 117.236  0.00  0.00     0.016 C 
ATOM      3  C   LIG d   1      -8.784  77.378 117.926  0.00  0.00     0.038 C 
ATOM      4  C   LIG d   1      -8.473  78.665 118.391  0.00  0.00     0.028 C 
ATOM      5  C   LIG d   1      -6.993  78.853 118.709  0.00  0.00    -0.047 C 
ATOM      6  C   LIG d   1      -6.156  78.393 117.493  0.00  0.00     0.091 C 
ENDROOT
BRANCH   1   7
ATOM      7  O   LIG d   1      -6.060  76.686 115.737  0.00  0.00    -0.368 OA
BRANCH   7   8
ATOM      8  C   LIG d   1      -5.209  75.529 115.546  0.00  0.00     0.119 C 
BRANCH   8   9
ATOM      9  C   LIG d   1      -6.046  74.453 114.828  0.00  0.00     0.028 C 
ATOM     10  C   LIG d   1      -6.558  73.368 115.791  0.00  0.00     0.006 C 
ENDBRANCH   8   9
BRANCH   8  11
ATOM     11  C   LIG d   1      -4.809  74.904 116.886  0.00  0.00     0.028 C 
ATOM     12  C   LIG d   1      -3.321  75.105 117.216  0.00  0.00     0.006 C 
ENDBRANCH   8  11
ENDBRANCH   7   8
ENDBRANCH   1   7
BRANCH   6  13
ATOM     13  N   LIG d   1      -4.695  78.465 117.751  0.00  0.00    -0.311 N 
ATOM     14  C   LIG d   1      -3.925  79.468 117.334  0.00  0.00     0.210 C 
ATOM     15  C   LIG d   1      -2.441  79.336 117.690  0.00  0.00     0.109 C 
ATOM     16  O   LIG d   1      -4.335  80.471 116.731  0.00  0.00    -0.276 OA
ATOM     17  H   LIG d   1      -4.284  77.707 118.262  0.00  0.00     0.149 HD
ENDBRANCH   6  13
BRANCH   5  18
ATOM     18  N   LIG d   1      -6.788  80.273 119.048  0.00  0.00     0.381 N 
ATOM     19  H   LIG d   1      -5.818  80.441 119.230  0.00  0.00    -0.090 HD
ATOM     20  H   LIG d   1      -7.306  80.486 119.882  0.00  0.00    -0.090 HD
ATOM     21  H   LIG d   1      -7.098  80.851 118.299  0.00  0.00    -0.090 HD
ENDBRANCH   5  18
BRANCH   3  22
ATOM     22  C   LIG d   1     -10.046  76.868 118.194  0.00  0.00     0.382 C 
ATOM     23  O   LIG d   1     -10.334  75.697 117.851  0.00  0.00    -0.241 OA
ATOM     24  O   LIG d   1     -10.913  77.581 118.734  0.00  0.00    -0.241 OA
ENDBRANCH   3  22
TORSDOF 7
ENDMDL
MODEL 5
REMARK VINA RESULT:      -4.8      2.376      3.558
REMARK  7 active torsions:
REMARK  status: ('A' for Active; 'I' for Inactive)
REMARK    1  A    between atoms: C_2  and  C_3 
REMARK    2  A    between atoms: C_3  and  O_6 
REMARK    3  A    between atoms: C_3  and  C_4 
REMARK    4  A    between atoms: C_7  and  O_6 
REMARK    5  A    between atoms: C_9  and  C_10 
REMARK    6  A    between atoms: N_15  and  C_14 
REMARK    7  A    between atoms: N_20  and  C_19 
REMARK       I    between atoms: C_22  and  N_20 
ROOT
ATOM      1  C   LIG d   1      -6.624  78.530 117.903  0.00  0.00     0.161 C 
ATOM      2  C   LIG d   1      -8.017  78.555 118.086  0.00  0.00     0.016 C 
ATOM      3  C   LIG d   1      -8.736  79.726 118.419  0.00  0.00     0.038 C 
ATOM      4  C   LIG d   1      -8.127  80.989 118.443  0.00  0.00     0.028 C 
ATOM      5  C   LIG d   1      -6.636  80.936 118.760  0.00  0.00    -0.047 C 
ATOM      6  C   LIG d   1      -5.957  79.918 117.816  0.00  0.00     0.091 C 
ENDROOT
BRANCH   1   7
ATOM      7  O   LIG d   1      -6.299  77.744 116.739  0.00  0.00    -0.368 OA
BRANCH   7   8
ATOM      8  C   LIG d   1      -5.983  76.350 116.978  0.00  0.00     0.119 C 
BRANCH   8   9
ATOM      9  C   LIG d   1      -4.519  76.127 116.552  0.00  0.00     0.028 C 
ATOM     10  C   LIG d   1      -3.560  76.074 117.753  0.00  0.00     0.006 C 
ENDBRANCH   8   9
BRANCH   8  11
ATOM     11  C   LIG d   1      -6.812  75.429 116.079  0.00  0.00     0.028 C 
ATOM     12  C   LIG d   1      -5.945  74.478 115.239  0.00  0.00     0.006 C 
ENDBRANCH   8  11
ENDBRANCH   7   8
ENDBRANCH   1   7
BRANCH   6  13
ATOM     13  N   LIG d   1      -4.512  79.743 118.115  0.00  0.00    -0.311 N 
ATOM     14  C   LIG d   1      -3.547  79.971 117.226  0.00  0.00     0.210 C 
ATOM     15  C   LIG d   1      -2.125  79.709 117.734  0.00  0.00     0.109 C 
ATOM     16  O   LIG d   1      -3.730  80.395 116.075  0.00  0.00    -0.276 OA
ATOM     17  H   LIG d   1      -4.272  79.431 119.035  0.00  0.00     0.149 HD
ENDBRANCH   6  13
BRANCH   5  18
ATOM     18  N   LIG d   1      -6.101  82.304 118.617  0.00  0.00     0.381 N 
ATOM     19  H   LIG d   1      -6.664  82.822 117.972  0.00  0.00    -0.090 HD
ATOM     20  H   LIG d   1      -5.168  82.251 118.249  0.00  0.00    -0.090 HD
ATOM     21  H   LIG d   1      -6.092  82.761 119.502  0.00  0.00    -0.090 HD
ENDBRANCH   5  18
BRANCH   3  22
ATOM     22  C   LIG d   1     -10.074  79.633 118.771  0.00  0.00     0.382 C 
ATOM     23  O   LIG d   1     -10.673  80.637 119.228  0.00  0.00    -0.241 OA
ATOM     24  O   LIG d   1     -10.677  78.548 118.681  0.00  0.00    -0.241 OA
ENDBRANCH   3  22
TORSDOF 7
ENDMDL
MODEL 6
REMARK VINA RESULT:      -4.7      2.069      4.183
REMARK  7 active torsions:
REMARK  status: ('A' for Active; 'I' for Inactive)
REMARK    1  A    between atoms: C_2  and  C_3 
REMARK    2  A    between atoms: C_3  and  O_6 
REMARK    3  A    between atoms: C_3  and  C_4 
REMARK    4  A    between atoms: C_7  and  O_6 
REMARK    5  A    between atoms: C_9  and  C_10 
REMARK    6  A    between atoms: N_15  and  C_14 
REMARK    7  A    between atoms: N_20  and  C_19 
REMARK       I    between atoms: C_22  and  N_20 
ROOT
ATOM      1  C   LIG d   1      -6.053  76.544 116.961  0.00  0.00     0.161 C 
ATOM      2  C   LIG d   1      -6.208  77.860 117.429  0.00  0.00     0.016 C 
ATOM      3  C   LIG d   1      -7.427  78.365 117.938  0.00  0.00     0.038 C 
ATOM      4  C   LIG d   1      -8.539  77.539 118.155  0.00  0.00     0.028 C 
ATOM      5  C   LIG d   1      -8.585  76.328 117.230  0.00  0.00    -0.047 C 
ATOM      6  C   LIG d   1      -7.224  75.597 117.293  0.00  0.00     0.091 C 
ENDROOT
BRANCH   1   7
ATOM      7  O   LIG d   1      -4.812  75.996 117.448  0.00  0.00    -0.368 OA
BRANCH   7   8
ATOM      8  C   LIG d   1      -3.958  75.372 116.457  0.00  0.00     0.119 C 
BRANCH   8   9
ATOM      9  C   LIG d   1      -2.499  75.570 116.913  0.00  0.00     0.028 C 
ATOM     10  C   LIG d   1      -2.060  74.519 117.946  0.00  0.00     0.006 C 
ENDBRANCH   8   9
BRANCH   8  11
ATOM     11  C   LIG d   1      -4.061  76.084 115.105  0.00  0.00     0.028 C 
ATOM     12  C   LIG d   1      -4.454  75.137 113.961  0.00  0.00     0.006 C 
ENDBRANCH   8  11
ENDBRANCH   7   8
ENDBRANCH   1   7
BRANCH   6  13
ATOM     13  N   LIG d   1      -7.154  74.448 116.353  0.00  0.00    -0.311 N 
ATOM     14  C   LIG d   1      -6.981  73.187 116.748  0.00  0.00     0.210 C 
ATOM     15  C   LIG d   1      -6.917  72.158 115.615  0.00  0.00     0.109 C 
ATOM     16  O   LIG d   1      -6.907  72.820 117.930  0.00  0.00    -0.276 OA
ATOM     17  H   LIG d   1      -7.236  74.652 115.377  0.00  0.00     0.149 HD
ENDBRANCH   6  13
BRANCH   5  18
ATOM     18  N   LIG d   1      -9.716  75.483 117.656  0.00  0.00     0.381 N 
ATOM     19  H   LIG d   1     -10.375  75.397 116.908  0.00  0.00    -0.090 HD
ATOM     20  H   LIG d   1     -10.176  75.924 118.433  0.00  0.00    -0.090 HD
ATOM     21  H   LIG d   1      -9.387  74.582 117.924  0.00  0.00    -0.090 HD
ENDBRANCH   5  18
BRANCH   3  22
ATOM     22  C   LIG d   1      -7.552  79.721 118.198  0.00  0.00     0.382 C 
ATOM     23  O   LIG d   1      -8.326  80.117 119.103  0.00  0.00    -0.241 OA
ATOM     24  O   LIG d   1      -6.935  80.557 117.510  0.00  0.00    -0.241 OA
ENDBRANCH   3  22
TORSDOF 7
ENDMDL
MODEL 7
REMARK VINA RESULT:      -4.6     14.759     16.955
REMARK  7 active torsions:
REMARK  status: ('A' for Active; 'I' for Inactive)
REMARK    1  A    between atoms: C_2  and  C_3 
REMARK    2  A    between atoms: C_3  and  O_6 
REMARK    3  A    between atoms: C_3  and  C_4 
REMARK    4  A    between atoms: C_7  and  O_6 
REMARK    5  A    between atoms: C_9  and  C_10 
REMARK    6  A    between atoms: N_15  and  C_14 
REMARK    7  A    between atoms: N_20  and  C_19 
REMARK       I    between atoms: C_22  and  N_20 
ROOT
ATOM      1  C   LIG d   1       0.652  89.990 117.787  0.00  0.00     0.161 C 
ATOM      2  C   LIG d   1      -0.639  89.445 117.691  0.00  0.00     0.016 C 
ATOM      3  C   LIG d   1      -1.783  90.049 118.261  0.00  0.00     0.038 C 
ATOM      4  C   LIG d   1      -1.736  91.326 118.842  0.00  0.00     0.028 C 
ATOM      5  C   LIG d   1      -0.366  91.684 119.407  0.00  0.00    -0.047 C 
ATOM      6  C   LIG d   1       0.705  91.438 118.320  0.00  0.00     0.091 C 
ENDROOT
BRANCH   1   7
ATOM      7  O   LIG d   1       1.316  89.902 116.511  0.00  0.00    -0.368 OA
BRANCH   7   8
ATOM      8  C   LIG d   1       2.303  88.850 116.377  0.00  0.00     0.119 C 
BRANCH   8   9
ATOM      9  C   LIG d   1       2.727  88.430 117.798  0.00  0.00     0.028 C 
ATOM     10  C   LIG d   1       2.512  86.929 118.055  0.00  0.00     0.006 C 
ENDBRANCH   8   9
BRANCH   8  11
ATOM     11  C   LIG d   1       3.580  89.365 115.708  0.00  0.00     0.028 C 
ATOM     12  C   LIG d   1       4.792  89.359 116.653  0.00  0.00     0.006 C 
ENDBRANCH   8  11
ENDBRANCH   7   8
ENDBRANCH   1   7
BRANCH   6  13
ATOM     13  N   LIG d   1       2.084  91.683 118.817  0.00  0.00    -0.311 N 
ATOM     14  C   LIG d   1       3.033  92.269 118.088  0.00  0.00     0.210 C 
ATOM     15  C   LIG d   1       4.390  92.408 118.784  0.00  0.00     0.109 C 
ATOM     16  O   LIG d   1       2.870  92.716 116.943  0.00  0.00    -0.276 OA
ATOM     17  H   LIG d   1       2.294  91.381 119.748  0.00  0.00     0.149 HD
ENDBRANCH   6  13
BRANCH   5  18
ATOM     18  N   LIG d   1      -0.422  93.088 119.855  0.00  0.00     0.381 N 
ATOM     19  H   LIG d   1       0.278  93.250 120.551  0.00  0.00    -0.090 HD
ATOM     20  H   LIG d   1      -1.322  93.263 120.266  0.00  0.00    -0.090 HD
ATOM     21  H   LIG d   1      -0.278  93.699 119.081  0.00  0.00    -0.090 HD
ENDBRANCH   5  18
BRANCH   3  22
ATOM     22  C   LIG d   1      -2.984  89.356 118.290  0.00  0.00     0.382 C 
ATOM     23  O   LIG d   1      -3.823  89.518 117.372  0.00  0.00    -0.241 OA
ATOM     24  O   LIG d   1      -3.257  88.605 119.246  0.00  0.00    -0.241 OA
ENDBRANCH   3  22
TORSDOF 7
ENDMDL
MODEL 8
REMARK VINA RESULT:      -4.5     11.328     14.242
REMARK  7 active torsions:
REMARK  status: ('A' for Active; 'I' for Inactive)
REMARK    1  A    between atoms: C_2  and  C_3 
REMARK    2  A    between atoms: C_3  and  O_6 
REMARK    3  A    between atoms: C_3  and  C_4 
REMARK    4  A    between atoms: C_7  and  O_6 
REMARK    5  A    between atoms: C_9  and  C_10 
REMARK    6  A    between atoms: N_15  and  C_14 
REMARK    7  A    between atoms: N_20  and  C_19 
REMARK       I    between atoms: C_22  and  N_20 
ROOT
ATOM      1  C   LIG d   1     -15.949  64.950 115.912  0.00  0.00     0.161 C 
ATOM      2  C   LIG d   1     -15.823  66.264 115.433  0.00  0.00     0.016 C 
ATOM      3  C   LIG d   1     -15.106  67.275 116.114  0.00  0.00     0.038 C 
ATOM      4  C   LIG d   1     -14.336  66.998 117.253  0.00  0.00     0.028 C 
ATOM      5  C   LIG d   1     -14.843  65.802 118.052  0.00  0.00    -0.047 C 
ATOM      6  C   LIG d   1     -15.023  64.601 117.096  0.00  0.00     0.091 C 
ENDROOT
BRANCH   1   7
ATOM      7  O   LIG d   1     -15.755  64.015 114.832  0.00  0.00    -0.368 OA
BRANCH   7   8
ATOM      8  C   LIG d   1     -16.934  63.297 114.391  0.00  0.00     0.119 C 
BRANCH   8   9
ATOM      9  C   LIG d   1     -18.158  63.976 115.036  0.00  0.00     0.028 C 
ATOM     10  C   LIG d   1     -19.058  64.669 114.000  0.00  0.00     0.006 C 
ENDBRANCH   8   9
BRANCH   8  11
ATOM     11  C   LIG d   1     -16.941  61.860 114.920  0.00  0.00     0.028 C 
ATOM     12  C   LIG d   1     -18.076  61.600 115.924  0.00  0.00     0.006 C 
ENDBRANCH   8  11
ENDBRANCH   7   8
ENDBRANCH   1   7
BRANCH   6  13
ATOM     13  N   LIG d   1     -15.597  63.413 117.781  0.00  0.00    -0.311 N 
ATOM     14  C   LIG d   1     -14.854  62.436 118.299  0.00  0.00     0.210 C 
ATOM     15  C   LIG d   1     -15.646  61.294 118.943  0.00  0.00     0.109 C 
ATOM     16  O   LIG d   1     -13.614  62.423 118.316  0.00  0.00    -0.276 OA
ATOM     17  H   LIG d   1     -16.595  63.358 117.840  0.00  0.00     0.149 HD
ENDBRANCH   6  13
BRANCH   5  18
ATOM     18  N   LIG d   1     -13.871  65.542 119.131  0.00  0.00     0.381 N 
ATOM     19  H   LIG d   1     -12.987  65.290 118.736  0.00  0.00    -0.090 HD
ATOM     20  H   LIG d   1     -14.200  64.772 119.686  0.00  0.00    -0.090 HD
ATOM     21  H   LIG d   1     -13.770  66.353 119.701  0.00  0.00    -0.090 HD
ENDBRANCH   5  18
BRANCH   3  22
ATOM     22  C   LIG d   1     -15.189  68.589 115.678  0.00  0.00     0.382 C 
ATOM     23  O   LIG d   1     -14.864  68.880 114.502  0.00  0.00    -0.241 OA
ATOM     24  O   LIG d   1     -15.543  69.492 116.459  0.00  0.00    -0.241 OA
ENDBRANCH   3  22
TORSDOF 7
ENDMDL
MODEL 9
REMARK VINA RESULT:      -4.4      2.070      2.816
REMARK  7 active torsions:
REMARK  status: ('A' for Active; 'I' for Inactive)
REMARK    1  A    between atoms: C_2  and  C_3 
REMARK    2  A    between atoms: C_3  and  O_6 
REMARK    3  A    between atoms: C_3  and  C_4 
REMARK    4  A    between atoms: C_7  and  O_6 
REMARK    5  A    between atoms: C_9  and  C_10 
REMARK    6  A    between atoms: N_15  and  C_14 
REMARK    7  A    between atoms: N_20  and  C_19 
REMARK       I    between atoms: C_22  and  N_20 
ROOT
ATOM      1  C   LIG d   1      -6.054  76.598 118.995  0.00  0.00     0.161 C 
ATOM      2  C   LIG d   1      -6.994  77.641 119.039  0.00  0.00     0.016 C 
ATOM      3  C   LIG d   1      -6.779  78.908 118.448  0.00  0.00     0.038 C 
ATOM      4  C   LIG d   1      -5.664  79.168 117.639  0.00  0.00     0.028 C 
ATOM      5  C   LIG d   1      -4.451  78.311 117.984  0.00  0.00    -0.047 C 
ATOM      6  C   LIG d   1      -4.879  76.827 118.022  0.00  0.00     0.091 C 
ENDROOT
BRANCH   1   7
ATOM      7  O   LIG d   1      -6.718  75.354 118.696  0.00  0.00    -0.368 OA
BRANCH   7   8
ATOM      8  C   LIG d   1      -7.207  75.203 117.341  0.00  0.00     0.119 C 
BRANCH   8   9
ATOM      9  C   LIG d   1      -8.664  74.709 117.426  0.00  0.00     0.028 C 
ATOM     10  C   LIG d   1      -9.663  75.860 117.636  0.00  0.00     0.006 C 
ENDBRANCH   8   9
BRANCH   8  11
ATOM     11  C   LIG d   1      -6.449  74.101 116.595  0.00  0.00     0.028 C 
ATOM     12  C   LIG d   1      -6.213  74.438 115.114  0.00  0.00     0.006 C 
ENDBRANCH   8  11
ENDBRANCH   7   8
ENDBRANCH   1   7
BRANCH   6  13
ATOM     13  N   LIG d   1      -3.771  75.927 118.436  0.00  0.00    -0.311 N 
ATOM     14  C   LIG d   1      -2.966  75.311 117.572  0.00  0.00     0.210 C 
ATOM     15  C   LIG d   1      -1.901  74.412 118.209  0.00  0.00     0.109 C 
ATOM     16  O   LIG d   1      -3.012  75.448 116.340  0.00  0.00    -0.276 OA
ATOM     17  H   LIG d   1      -3.642  75.784 119.418  0.00  0.00     0.149 HD
ENDBRANCH   6  13
BRANCH   5  18
ATOM     18  N   LIG d   1      -3.408  78.587 116.978  0.00  0.00     0.381 N 
ATOM     19  H   LIG d   1      -2.516  78.300 117.326  0.00  0.00    -0.090 HD
ATOM     20  H   LIG d   1      -3.376  79.577 116.806  0.00  0.00    -0.090 HD
ATOM     21  H   LIG d   1      -3.614  78.103 116.132  0.00  0.00    -0.090 HD
ENDBRANCH   5  18
BRANCH   3  22
ATOM     22  C   LIG d   1      -7.667  79.942 118.699  0.00  0.00     0.382 C 
ATOM     23  O   LIG d   1      -8.331  80.441 117.758  0.00  0.00    -0.241 OA
ATOM     24  O   LIG d   1      -7.780  80.414 119.846  0.00  0.00    -0.241 OA
ENDBRANCH   3  22
TORSDOF 7
ENDMDL
