MODEL 1
REMARK VINA RESULT:      -5.6      0.000      0.000
REMARK  7 active torsions:
REMARK  status: ('A' for Active; 'I' for Inactive)
REMARK    1  A    between atoms: C_2  and  C_3 
REMARK    2  A    between atoms: C_3  and  O_6 
REMARK    3  A    between atoms: C_3  and  C_4 
REMARK    4  A    between atoms: C_7  and  O_6 
REMARK    5  A    between atoms: C_9  and  C_10 
REMARK    6  A    between atoms: N_15  and  C_14 
REMARK    7  A    between atoms: N_20  and  C_19 
REMARK       I    between atoms: C_22  and  N_20 
ROOT
ATOM      1  C   LIG d   1      -6.859  75.827 118.492  0.00  0.00     0.161 C 
ATOM      2  C   LIG d   1      -7.968  76.689 118.478  0.00  0.00     0.016 C 
ATOM      3  C   LIG d   1      -7.995  77.910 117.765  0.00  0.00     0.038 C 
ATOM      4  C   LIG d   1      -6.963  78.281 116.891  0.00  0.00     0.028 C 
ATOM      5  C   LIG d   1      -5.609  77.687 117.266  0.00  0.00    -0.047 C 
ATOM      6  C   LIG d   1      -5.766  76.161 117.456  0.00  0.00     0.091 C 
ENDROOT
BRANCH   1   7
ATOM      7  O   LIG d   1      -7.298  74.463 118.335  0.00  0.00    -0.368 OA
BRANCH   7   8
ATOM      8  C   LIG d   1      -7.835  74.112 117.036  0.00  0.00     0.119 C 
BRANCH   8   9
ATOM      9  C   LIG d   1      -9.153  73.349 117.271  0.00  0.00     0.028 C 
ATOM     10  C   LIG d   1     -10.388  74.173 116.869  0.00  0.00     0.006 C 
ENDBRANCH   8   9
BRANCH   8  11
ATOM     11  C   LIG d   1      -6.921  73.127 116.302  0.00  0.00     0.028 C 
ATOM     12  C   LIG d   1      -7.498  71.703 116.250  0.00  0.00     0.006 C 
ENDBRANCH   8  11
ENDBRANCH   7   8
ENDBRANCH   1   7
BRANCH   6  13
ATOM     13  N   LIG d   1      -4.506  75.514 117.906  0.00  0.00    -0.311 N 
ATOM     14  C   LIG d   1      -3.581  75.049 117.068  0.00  0.00     0.210 C 
ATOM     15  C   LIG d   1      -2.367  74.400 117.740  0.00  0.00     0.109 C 
ATOM     16  O   LIG d   1      -3.636  75.141 115.832  0.00  0.00    -0.276 OA
ATOM     17  H   LIG d   1      -4.366  75.426 118.893  0.00  0.00     0.149 HD
ENDBRANCH   6  13
BRANCH   5  18
ATOM     18  N   LIG d   1      -4.656  78.042 116.197  0.00  0.00     0.381 N 
ATOM     19  H   LIG d   1      -4.199  78.903 116.423  0.00  0.00    -0.090 HD
ATOM     20  H   LIG d   1      -5.163  78.169 115.339  0.00  0.00    -0.090 HD
ATOM     21  H   LIG d   1      -3.981  77.318 116.088  0.00  0.00    -0.090 HD
ENDBRANCH   5  18
BRANCH   3  22
ATOM     22  C   LIG d   1      -9.047  78.793 117.955  0.00  0.00     0.382 C 
ATOM     23  O   LIG d   1     -10.200  78.354 118.187  0.00  0.00    -0.241 OA
ATOM     24  O   LIG d   1      -8.867  80.021 117.854  0.00  0.00    -0.241 OA
ENDBRANCH   3  22
TORSDOF 7
ENDMDL
MODEL 2
REMARK VINA RESULT:      -5.6      1.234      1.956
REMARK  7 active torsions:
REMARK  status: ('A' for Active; 'I' for Inactive)
REMARK    1  A    between atoms: C_2  and  C_3 
REMARK    2  A    between atoms: C_3  and  O_6 
REMARK    3  A    between atoms: C_3  and  C_4 
REMARK    4  A    between atoms: C_7  and  O_6 
REMARK    5  A    between atoms: C_9  and  C_10 
REMARK    6  A    between atoms: N_15  and  C_14 
REMARK    7  A    between atoms: N_20  and  C_19 
REMARK       I    between atoms: C_22  and  N_20 
ROOT
ATOM      1  C   LIG d   1      -7.619  76.400 117.542  0.00  0.00     0.161 C 
ATOM      2  C   LIG d   1      -8.706  77.197 117.937  0.00  0.00     0.016 C 
ATOM      3  C   LIG d   1      -8.685  78.610 117.913  0.00  0.00     0.038 C 
ATOM      4  C   LIG d   1      -7.620  79.326 117.345  0.00  0.00     0.028 C 
ATOM      5  C   LIG d   1      -6.292  78.578 117.397  0.00  0.00    -0.047 C 
ATOM      6  C   LIG d   1      -6.490  77.160 116.815  0.00  0.00     0.091 C 
ENDROOT
BRANCH   1   7
ATOM      7  O   LIG d   1      -8.086  75.302 116.732  0.00  0.00    -0.368 OA
BRANCH   7   8
ATOM      8  C   LIG d   1      -7.961  73.982 117.315  0.00  0.00     0.119 C 
BRANCH   8   9
ATOM      9  C   LIG d   1      -6.924  73.205 116.482  0.00  0.00     0.028 C 
ATOM     10  C   LIG d   1      -7.385  71.774 116.157  0.00  0.00     0.006 C 
ENDBRANCH   8   9
BRANCH   8  11
ATOM     11  C   LIG d   1      -9.265  73.189 117.182  0.00  0.00     0.028 C 
ATOM     12  C   LIG d   1     -10.473  74.079 116.853  0.00  0.00     0.006 C 
ENDBRANCH   8  11
ENDBRANCH   7   8
ENDBRANCH   1   7
BRANCH   6  13
ATOM     13  N   LIG d   1      -5.259  76.333 116.906  0.00  0.00    -0.311 N 
ATOM     14  C   LIG d   1      -4.367  76.235 115.922  0.00  0.00     0.210 C 
ATOM     15  C   LIG d   1      -3.180  75.312 116.215  0.00  0.00     0.109 C 
ATOM     16  O   LIG d   1      -4.430  76.849 114.847  0.00  0.00    -0.276 OA
ATOM     17  H   LIG d   1      -5.113  75.825 117.757  0.00  0.00     0.149 HD
ENDBRANCH   6  13
BRANCH   5  18
ATOM     18  N   LIG d   1      -5.301  79.377 116.650  0.00  0.00     0.381 N 
ATOM     19  H   LIG d   1      -4.716  79.876 117.290  0.00  0.00    -0.090 HD
ATOM     20  H   LIG d   1      -5.787  80.046 116.080  0.00  0.00    -0.090 HD
ATOM     21  H   LIG d   1      -4.746  78.781 116.077  0.00  0.00    -0.090 HD
ENDBRANCH   5  18
BRANCH   3  22
ATOM     22  C   LIG d   1      -9.720  79.324 118.497  0.00  0.00     0.382 C 
ATOM     23  O   LIG d   1     -10.173  78.971 119.613  0.00  0.00    -0.241 OA
ATOM     24  O   LIG d   1     -10.237  80.289 117.903  0.00  0.00    -0.241 OA
ENDBRANCH   3  22
TORSDOF 7
ENDMDL
MODEL 3
REMARK VINA RESULT:      -5.5      2.250      3.080
REMARK  7 active torsions:
REMARK  status: ('A' for Active; 'I' for Inactive)
REMARK    1  A    between atoms: C_2  and  C_3 
REMARK    2  A    between atoms: C_3  and  O_6 
REMARK    3  A    between atoms: C_3  and  C_4 
REMARK    4  A    between atoms: C_7  and  O_6 
REMARK    5  A    between atoms: C_9  and  C_10 
REMARK    6  A    between atoms: N_15  and  C_14 
REMARK    7  A    between atoms: N_20  and  C_19 
REMARK       I    between atoms: C_22  and  N_20 
ROOT
ATOM      1  C   LIG d   1      -6.828  77.706 117.157  0.00  0.00     0.161 C 
ATOM      2  C   LIG d   1      -8.123  78.068 117.564  0.00  0.00     0.016 C 
ATOM      3  C   LIG d   1      -8.520  79.405 117.798  0.00  0.00     0.038 C 
ATOM      4  C   LIG d   1      -7.685  80.491 117.494  0.00  0.00     0.028 C 
ATOM      5  C   LIG d   1      -6.200  80.150 117.560  0.00  0.00    -0.047 C 
ATOM      6  C   LIG d   1      -5.937  78.885 116.712  0.00  0.00     0.091 C 
ENDROOT
BRANCH   1   7
ATOM      7  O   LIG d   1      -6.903  76.714 116.114  0.00  0.00    -0.368 OA
BRANCH   7   8
ATOM      8  C   LIG d   1      -6.242  75.454 116.385  0.00  0.00     0.119 C 
BRANCH   8   9
ATOM      9  C   LIG d   1      -5.712  74.911 115.044  0.00  0.00     0.028 C 
ATOM     10  C   LIG d   1      -5.530  76.019 113.994  0.00  0.00     0.006 C 
ENDBRANCH   8   9
BRANCH   8  11
ATOM     11  C   LIG d   1      -7.235  74.400 116.885  0.00  0.00     0.028 C 
ATOM     12  C   LIG d   1      -7.002  73.017 116.257  0.00  0.00     0.006 C 
ENDBRANCH   8  11
ENDBRANCH   7   8
ENDBRANCH   1   7
BRANCH   6  13
ATOM     13  N   LIG d   1      -4.523  78.434 116.791  0.00  0.00    -0.311 N 
ATOM     14  C   LIG d   1      -3.599  78.758 115.888  0.00  0.00     0.210 C 
ATOM     15  C   LIG d   1      -2.208  78.171 116.148  0.00  0.00     0.109 C 
ATOM     16  O   LIG d   1      -3.791  79.501 114.914  0.00  0.00    -0.276 OA
ATOM     17  H   LIG d   1      -4.272  77.853 117.566  0.00  0.00     0.149 HD
ENDBRANCH   6  13
BRANCH   5  18
ATOM     18  N   LIG d   1      -5.451  81.330 117.087  0.00  0.00     0.381 N 
ATOM     19  H   LIG d   1      -4.699  81.038 116.495  0.00  0.00    -0.090 HD
ATOM     20  H   LIG d   1      -5.060  81.806 117.881  0.00  0.00    -0.090 HD
ATOM     21  H   LIG d   1      -6.058  81.942 116.589  0.00  0.00    -0.090 HD
ENDBRANCH   5  18
BRANCH   3  22
ATOM     22  C   LIG d   1      -9.751  79.664 118.381  0.00  0.00     0.382 C 
ATOM     23  O   LIG d   1     -10.458  80.610 117.958  0.00  0.00    -0.241 OA
ATOM     24  O   LIG d   1     -10.143  78.992 119.354  0.00  0.00    -0.241 OA
ENDBRANCH   3  22
TORSDOF 7
ENDMDL
MODEL 4
REMARK VINA RESULT:      -5.1      2.135      4.811
REMARK  7 active torsions:
REMARK  status: ('A' for Active; 'I' for Inactive)
REMARK    1  A    between atoms: C_2  and  C_3 
REMARK    2  A    between atoms: C_3  and  O_6 
REMARK    3  A    between atoms: C_3  and  C_4 
REMARK    4  A    between atoms: C_7  and  O_6 
REMARK    5  A    between atoms: C_9  and  C_10 
REMARK    6  A    between atoms: N_15  and  C_14 
REMARK    7  A    between atoms: N_20  and  C_19 
REMARK       I    between atoms: C_22  and  N_20 
ROOT
ATOM      1  C   LIG d   1      -5.232  75.731 116.437  0.00  0.00     0.161 C 
ATOM      2  C   LIG d   1      -5.051  77.120 116.537  0.00  0.00     0.016 C 
ATOM      3  C   LIG d   1      -6.099  78.022 116.835  0.00  0.00     0.038 C 
ATOM      4  C   LIG d   1      -7.377  77.577 117.206  0.00  0.00     0.028 C 
ATOM      5  C   LIG d   1      -7.734  76.212 116.628  0.00  0.00    -0.047 C 
ATOM      6  C   LIG d   1      -6.595  75.218 116.947  0.00  0.00     0.091 C 
ENDROOT
BRANCH   1   7
ATOM      7  O   LIG d   1      -4.156  75.049 117.111  0.00  0.00    -0.368 OA
BRANCH   7   8
ATOM      8  C   LIG d   1      -2.841  75.642 116.975  0.00  0.00     0.119 C 
BRANCH   8   9
ATOM      9  C   LIG d   1      -2.225  75.109 115.667  0.00  0.00     0.028 C 
ATOM     10  C   LIG d   1      -1.897  76.234 114.671  0.00  0.00     0.006 C 
ENDBRANCH   8   9
BRANCH   8  11
ATOM     11  C   LIG d   1      -1.900  75.172 118.088  0.00  0.00     0.028 C 
ATOM     12  C   LIG d   1      -0.892  74.115 117.609  0.00  0.00     0.006 C 
ENDBRANCH   8  11
ENDBRANCH   7   8
ENDBRANCH   1   7
BRANCH   6  13
ATOM     13  N   LIG d   1      -6.826  73.879 116.345  0.00  0.00    -0.311 N 
ATOM     14  C   LIG d   1      -7.391  72.867 117.001  0.00  0.00     0.210 C 
ATOM     15  C   LIG d   1      -7.517  71.567 116.201  0.00  0.00     0.109 C 
ATOM     16  O   LIG d   1      -7.830  72.933 118.159  0.00  0.00    -0.276 OA
ATOM     17  H   LIG d   1      -6.528  73.747 115.398  0.00  0.00     0.149 HD
ENDBRANCH   6  13
BRANCH   5  18
ATOM     18  N   LIG d   1      -9.031  75.810 117.204  0.00  0.00     0.381 N 
ATOM     19  H   LIG d   1      -9.351  76.512 117.841  0.00  0.00    -0.090 HD
ATOM     20  H   LIG d   1      -8.909  74.953 117.714  0.00  0.00    -0.090 HD
ATOM     21  H   LIG d   1      -9.701  75.680 116.478  0.00  0.00    -0.090 HD
ENDBRANCH   5  18
BRANCH   3  22
ATOM     22  C   LIG d   1      -5.883  79.387 116.726  0.00  0.00     0.382 C 
ATOM     23  O   LIG d   1      -4.762  79.817 116.360  0.00  0.00    -0.241 OA
ATOM     24  O   LIG d   1      -6.780  80.195 117.031  0.00  0.00    -0.241 OA
ENDBRANCH   3  22
TORSDOF 7
ENDMDL
MODEL 5
REMARK VINA RESULT:      -5.0      2.060      5.046
REMARK  7 active torsions:
REMARK  status: ('A' for Active; 'I' for Inactive)
REMARK    1  A    between atoms: C_2  and  C_3 
REMARK    2  A    between atoms: C_3  and  O_6 
REMARK    3  A    between atoms: C_3  and  C_4 
REMARK    4  A    between atoms: C_7  and  O_6 
REMARK    5  A    between atoms: C_9  and  C_10 
REMARK    6  A    between atoms: N_15  and  C_14 
REMARK    7  A    between atoms: N_20  and  C_19 
REMARK       I    between atoms: C_22  and  N_20 
ROOT
ATOM      1  C   LIG d   1      -7.866  76.734 117.368  0.00  0.00     0.161 C 
ATOM      2  C   LIG d   1      -8.929  75.818 117.302  0.00  0.00     0.016 C 
ATOM      3  C   LIG d   1      -8.746  74.417 117.244  0.00  0.00     0.038 C 
ATOM      4  C   LIG d   1      -7.484  73.827 117.402  0.00  0.00     0.028 C 
ATOM      5  C   LIG d   1      -6.334  74.729 116.965  0.00  0.00    -0.047 C 
ATOM      6  C   LIG d   1      -6.486  76.105 117.653  0.00  0.00     0.091 C 
ENDROOT
BRANCH   1   7
ATOM      7  O   LIG d   1      -8.161  77.756 118.340  0.00  0.00    -0.368 OA
BRANCH   7   8
ATOM      8  C   LIG d   1      -8.432  79.078 117.814  0.00  0.00     0.119 C 
BRANCH   8   9
ATOM      9  C   LIG d   1      -7.369  80.033 118.392  0.00  0.00     0.028 C 
ATOM     10  C   LIG d   1      -6.417  80.574 117.312  0.00  0.00     0.006 C 
ENDBRANCH   8   9
BRANCH   8  11
ATOM     11  C   LIG d   1      -9.775  79.614 118.317  0.00  0.00     0.028 C 
ATOM     12  C   LIG d   1     -10.029  81.071 117.899  0.00  0.00     0.006 C 
ENDBRANCH   8  11
ENDBRANCH   7   8
ENDBRANCH   1   7
BRANCH   6  13
ATOM     13  N   LIG d   1      -5.450  77.075 117.215  0.00  0.00    -0.311 N 
ATOM     14  C   LIG d   1      -4.307  77.274 117.870  0.00  0.00     0.210 C 
ATOM     15  C   LIG d   1      -3.387  78.334 117.258  0.00  0.00     0.109 C 
ATOM     16  O   LIG d   1      -3.955  76.649 118.881  0.00  0.00    -0.276 OA
ATOM     17  H   LIG d   1      -5.641  77.603 116.385  0.00  0.00     0.149 HD
ENDBRANCH   6  13
BRANCH   5  18
ATOM     18  N   LIG d   1      -5.074  74.045 117.312  0.00  0.00     0.381 N 
ATOM     19  H   LIG d   1      -4.614  74.537 118.051  0.00  0.00    -0.090 HD
ATOM     20  H   LIG d   1      -4.471  74.048 116.508  0.00  0.00    -0.090 HD
ATOM     21  H   LIG d   1      -5.261  73.108 117.592  0.00  0.00    -0.090 HD
ENDBRANCH   5  18
BRANCH   3  22
ATOM     22  C   LIG d   1      -9.831  73.593 116.987  0.00  0.00     0.382 C 
ATOM     23  O   LIG d   1     -10.973  74.089 116.830  0.00  0.00    -0.241 OA
ATOM     24  O   LIG d   1      -9.690  72.355 116.953  0.00  0.00    -0.241 OA
ENDBRANCH   3  22
TORSDOF 7
ENDMDL
MODEL 6
REMARK VINA RESULT:      -4.8     12.675     14.884
REMARK  7 active torsions:
REMARK  status: ('A' for Active; 'I' for Inactive)
REMARK    1  A    between atoms: C_2  and  C_3 
REMARK    2  A    between atoms: C_3  and  O_6 
REMARK    3  A    between atoms: C_3  and  C_4 
REMARK    4  A    between atoms: C_7  and  O_6 
REMARK    5  A    between atoms: C_9  and  C_10 
REMARK    6  A    between atoms: N_15  and  C_14 
REMARK    7  A    between atoms: N_20  and  C_19 
REMARK       I    between atoms: C_22  and  N_20 
ROOT
ATOM      1  C   LIG d   1     -15.959  64.192 117.680  0.00  0.00     0.161 C 
ATOM      2  C   LIG d   1     -16.338  65.520 117.424  0.00  0.00     0.016 C 
ATOM      3  C   LIG d   1     -15.804  66.630 118.118  0.00  0.00     0.038 C 
ATOM      4  C   LIG d   1     -14.737  66.497 119.019  0.00  0.00     0.028 C 
ATOM      5  C   LIG d   1     -14.668  65.124 119.678  0.00  0.00    -0.047 C 
ATOM      6  C   LIG d   1     -14.715  64.037 118.581  0.00  0.00     0.091 C 
ENDROOT
BRANCH   1   7
ATOM      7  O   LIG d   1     -15.767  63.490 116.436  0.00  0.00    -0.368 OA
BRANCH   7   8
ATOM      8  C   LIG d   1     -16.886  62.693 115.975  0.00  0.00     0.119 C 
BRANCH   8   9
ATOM      9  C   LIG d   1     -16.538  61.214 116.233  0.00  0.00     0.028 C 
ATOM     10  C   LIG d   1     -17.030  60.290 115.106  0.00  0.00     0.006 C 
ENDBRANCH   8   9
BRANCH   8  11
ATOM     11  C   LIG d   1     -17.064  62.808 114.458  0.00  0.00     0.028 C 
ATOM     12  C   LIG d   1     -16.303  64.001 113.858  0.00  0.00     0.006 C 
ENDBRANCH   8  11
ENDBRANCH   7   8
ENDBRANCH   1   7
BRANCH   6  13
ATOM     13  N   LIG d   1     -14.737  62.662 119.145  0.00  0.00    -0.311 N 
ATOM     14  C   LIG d   1     -13.938  61.684 118.722  0.00  0.00     0.210 C 
ATOM     15  C   LIG d   1     -14.138  60.337 119.425  0.00  0.00     0.109 C 
ATOM     16  O   LIG d   1     -13.061  61.811 117.855  0.00  0.00    -0.276 OA
ATOM     17  H   LIG d   1     -15.397  62.479 119.875  0.00  0.00     0.149 HD
ENDBRANCH   6  13
BRANCH   5  18
ATOM     18  N   LIG d   1     -13.433  65.078 120.484  0.00  0.00     0.381 N 
ATOM     19  H   LIG d   1     -12.840  64.344 120.154  0.00  0.00    -0.090 HD
ATOM     20  H   LIG d   1     -13.675  64.882 121.440  0.00  0.00    -0.090 HD
ATOM     21  H   LIG d   1     -12.956  65.951 120.427  0.00  0.00    -0.090 HD
ENDBRANCH   5  18
BRANCH   3  22
ATOM     22  C   LIG d   1     -16.367  67.885 117.944  0.00  0.00     0.382 C 
ATOM     23  O   LIG d   1     -16.204  68.500 116.863  0.00  0.00    -0.241 OA
ATOM     24  O   LIG d   1     -16.998  68.428 118.870  0.00  0.00    -0.241 OA
ENDBRANCH   3  22
TORSDOF 7
ENDMDL
MODEL 7
REMARK VINA RESULT:      -4.8     15.083     17.390
REMARK  7 active torsions:
REMARK  status: ('A' for Active; 'I' for Inactive)
REMARK    1  A    between atoms: C_2  and  C_3 
REMARK    2  A    between atoms: C_3  and  O_6 
REMARK    3  A    between atoms: C_3  and  C_4 
REMARK    4  A    between atoms: C_7  and  O_6 
REMARK    5  A    between atoms: C_9  and  C_10 
REMARK    6  A    between atoms: N_15  and  C_14 
REMARK    7  A    between atoms: N_20  and  C_19 
REMARK       I    between atoms: C_22  and  N_20 
ROOT
ATOM      1  C   LIG d   1       3.596  89.403 116.107  0.00  0.00     0.161 C 
ATOM      2  C   LIG d   1       4.103  90.559 116.725  0.00  0.00     0.016 C 
ATOM      3  C   LIG d   1       3.291  91.503 117.393  0.00  0.00     0.038 C 
ATOM      4  C   LIG d   1       1.925  91.278 117.620  0.00  0.00     0.028 C 
ATOM      5  C   LIG d   1       1.279  90.372 116.578  0.00  0.00    -0.047 C 
ATOM      6  C   LIG d   1       2.124  89.085 116.440  0.00  0.00     0.091 C 
ENDROOT
BRANCH   1   7
ATOM      7  O   LIG d   1       4.436  88.274 116.418  0.00  0.00    -0.368 OA
BRANCH   7   8
ATOM      8  C   LIG d   1       5.093  87.639 115.294  0.00  0.00     0.119 C 
BRANCH   8   9
ATOM      9  C   LIG d   1       5.425  86.193 115.708  0.00  0.00     0.028 C 
ATOM     10  C   LIG d   1       6.892  86.028 116.139  0.00  0.00     0.006 C 
ENDBRANCH   8   9
BRANCH   8  11
ATOM     11  C   LIG d   1       6.444  88.296 114.995  0.00  0.00     0.028 C 
ATOM     12  C   LIG d   1       6.384  89.268 113.806  0.00  0.00     0.006 C 
ENDBRANCH   8  11
ENDBRANCH   7   8
ENDBRANCH   1   7
BRANCH   6  13
ATOM     13  N   LIG d   1       1.609  88.180 115.379  0.00  0.00    -0.311 N 
ATOM     14  C   LIG d   1       1.486  86.863 115.535  0.00  0.00     0.210 C 
ATOM     15  C   LIG d   1       0.954  86.113 114.310  0.00  0.00     0.109 C 
ATOM     16  O   LIG d   1       1.738  86.248 116.583  0.00  0.00    -0.276 OA
ATOM     17  H   LIG d   1       1.351  88.599 114.507  0.00  0.00     0.149 HD
ENDBRANCH   6  13
BRANCH   5  18
ATOM     18  N   LIG d   1      -0.107  90.111 117.011  0.00  0.00     0.381 N 
ATOM     19  H   LIG d   1      -0.303  89.132 116.946  0.00  0.00    -0.090 HD
ATOM     20  H   LIG d   1      -0.736  90.600 116.400  0.00  0.00    -0.090 HD
ATOM     21  H   LIG d   1      -0.235  90.421 117.949  0.00  0.00    -0.090 HD
ENDBRANCH   5  18
BRANCH   3  22
ATOM     22  C   LIG d   1       3.837  92.708 117.808  0.00  0.00     0.382 C 
ATOM     23  O   LIG d   1       4.015  93.634 116.980  0.00  0.00    -0.241 OA
ATOM     24  O   LIG d   1       4.196  92.866 118.990  0.00  0.00    -0.241 OA
ENDBRANCH   3  22
TORSDOF 7
ENDMDL
MODEL 8
REMARK VINA RESULT:      -4.7      3.343      6.926
REMARK  7 active torsions:
REMARK  status: ('A' for Active; 'I' for Inactive)
REMARK    1  A    between atoms: C_2  and  C_3 
REMARK    2  A    between atoms: C_3  and  O_6 
REMARK    3  A    between atoms: C_3  and  C_4 
REMARK    4  A    between atoms: C_7  and  O_6 
REMARK    5  A    between atoms: C_9  and  C_10 
REMARK    6  A    between atoms: N_15  and  C_14 
REMARK    7  A    between atoms: N_20  and  C_19 
REMARK       I    between atoms: C_22  and  N_20 
ROOT
ATOM      1  C   LIG d   1      -4.711  78.600 116.184  0.00  0.00     0.161 C 
ATOM      2  C   LIG d   1      -4.570  77.408 115.455  0.00  0.00     0.016 C 
ATOM      3  C   LIG d   1      -5.582  76.425 115.367  0.00  0.00     0.038 C 
ATOM      4  C   LIG d   1      -6.869  76.638 115.883  0.00  0.00     0.028 C 
ATOM      5  C   LIG d   1      -6.898  77.609 117.059  0.00  0.00    -0.047 C 
ATOM      6  C   LIG d   1      -6.148  78.900 116.661  0.00  0.00     0.091 C 
ENDROOT
BRANCH   1   7
ATOM      7  O   LIG d   1      -4.197  79.707 115.416  0.00  0.00    -0.368 OA
BRANCH   7   8
ATOM      8  C   LIG d   1      -2.989  80.327 115.922  0.00  0.00     0.119 C 
BRANCH   8   9
ATOM      9  C   LIG d   1      -2.659  79.663 117.273  0.00  0.00     0.028 C 
ATOM     10  C   LIG d   1      -2.557  80.683 118.419  0.00  0.00     0.006 C 
ENDBRANCH   8   9
BRANCH   8  11
ATOM     11  C   LIG d   1      -3.215  81.807 116.242  0.00  0.00     0.028 C 
ATOM     12  C   LIG d   1      -2.717  82.740 115.127  0.00  0.00     0.006 C 
ENDBRANCH   8  11
ENDBRANCH   7   8
ENDBRANCH   1   7
BRANCH   6  13
ATOM     13  N   LIG d   1      -6.055  79.871 117.783  0.00  0.00    -0.311 N 
ATOM     14  C   LIG d   1      -6.576  81.096 117.738  0.00  0.00     0.210 C 
ATOM     15  C   LIG d   1      -6.350  81.941 118.995  0.00  0.00     0.109 C 
ATOM     16  O   LIG d   1      -7.230  81.551 116.788  0.00  0.00    -0.276 OA
ATOM     17  H   LIG d   1      -5.568  79.572 118.605  0.00  0.00     0.149 HD
ENDBRANCH   6  13
BRANCH   5  18
ATOM     18  N   LIG d   1      -8.311  77.845 117.408  0.00  0.00     0.381 N 
ATOM     19  H   LIG d   1      -8.852  77.028 117.203  0.00  0.00    -0.090 HD
ATOM     20  H   LIG d   1      -8.661  78.603 116.850  0.00  0.00    -0.090 HD
ATOM     21  H   LIG d   1      -8.390  78.070 118.375  0.00  0.00    -0.090 HD
ENDBRANCH   5  18
BRANCH   3  22
ATOM     22  C   LIG d   1      -5.298  75.196 114.792  0.00  0.00     0.382 C 
ATOM     23  O   LIG d   1      -4.413  75.107 113.908  0.00  0.00    -0.241 OA
ATOM     24  O   LIG d   1      -5.947  74.182 115.115  0.00  0.00    -0.241 OA
ENDBRANCH   3  22
TORSDOF 7
ENDMDL
MODEL 9
REMARK VINA RESULT:      -4.7      2.239      5.407
REMARK  7 active torsions:
REMARK  status: ('A' for Active; 'I' for Inactive)
REMARK    1  A    between atoms: C_2  and  C_3 
REMARK    2  A    between atoms: C_3  and  O_6 
REMARK    3  A    between atoms: C_3  and  C_4 
REMARK    4  A    between atoms: C_7  and  O_6 
REMARK    5  A    between atoms: C_9  and  C_10 
REMARK    6  A    between atoms: N_15  and  C_14 
REMARK    7  A    between atoms: N_20  and  C_19 
REMARK       I    between atoms: C_22  and  N_20 
ROOT
ATOM      1  C   LIG d   1      -5.233  75.742 117.266  0.00  0.00     0.161 C 
ATOM      2  C   LIG d   1      -5.756  74.451 117.082  0.00  0.00     0.016 C 
ATOM      3  C   LIG d   1      -7.139  74.158 117.134  0.00  0.00     0.038 C 
ATOM      4  C   LIG d   1      -8.108  75.168 117.224  0.00  0.00     0.028 C 
ATOM      5  C   LIG d   1      -7.606  76.430 117.917  0.00  0.00    -0.047 C 
ATOM      6  C   LIG d   1      -6.282  76.873 117.254  0.00  0.00     0.091 C 
ENDROOT
BRANCH   1   7
ATOM      7  O   LIG d   1      -4.209  75.998 116.284  0.00  0.00    -0.368 OA
BRANCH   7   8
ATOM      8  C   LIG d   1      -2.846  76.016 116.775  0.00  0.00     0.119 C 
BRANCH   8   9
ATOM      9  C   LIG d   1      -2.274  77.421 116.502  0.00  0.00     0.028 C 
ATOM     10  C   LIG d   1      -1.719  78.086 117.772  0.00  0.00     0.006 C 
ENDBRANCH   8   9
BRANCH   8  11
ATOM     11  C   LIG d   1      -1.955  75.055 115.982  0.00  0.00     0.028 C 
ATOM     12  C   LIG d   1      -1.021  74.230 116.881  0.00  0.00     0.006 C 
ENDBRANCH   8  11
ENDBRANCH   7   8
ENDBRANCH   1   7
BRANCH   6  13
ATOM     13  N   LIG d   1      -5.678  78.053 117.927  0.00  0.00    -0.311 N 
ATOM     14  C   LIG d   1      -5.427  79.203 117.304  0.00  0.00     0.210 C 
ATOM     15  C   LIG d   1      -4.783  80.285 118.178  0.00  0.00     0.109 C 
ATOM     16  O   LIG d   1      -5.705  79.441 116.119  0.00  0.00    -0.276 OA
ATOM     17  H   LIG d   1      -5.449  77.957 118.897  0.00  0.00     0.149 HD
ENDBRANCH   6  13
BRANCH   5  18
ATOM     18  N   LIG d   1      -8.670  77.446 117.819  0.00  0.00     0.381 N 
ATOM     19  H   LIG d   1      -8.285  78.309 117.490  0.00  0.00    -0.090 HD
ATOM     20  H   LIG d   1      -9.057  77.601 118.733  0.00  0.00    -0.090 HD
ATOM     21  H   LIG d   1      -9.383  77.134 117.197  0.00  0.00    -0.090 HD
ENDBRANCH   5  18
BRANCH   3  22
ATOM     22  C   LIG d   1      -7.561  72.837 117.136  0.00  0.00     0.382 C 
ATOM     23  O   LIG d   1      -8.000  72.321 118.192  0.00  0.00    -0.241 OA
ATOM     24  O   LIG d   1      -7.468  72.143 116.107  0.00  0.00    -0.241 OA
ENDBRANCH   3  22
TORSDOF 7
ENDMDL
