MODEL 1
REMARK VINA RESULT:      -5.5      0.000      0.000
REMARK  7 active torsions:
REMARK  status: ('A' for Active; 'I' for Inactive)
REMARK    1  A    between atoms: C_2  and  C_3 
REMARK    2  A    between atoms: C_3  and  O_6 
REMARK    3  A    between atoms: C_3  and  C_4 
REMARK    4  A    between atoms: C_7  and  O_6 
REMARK    5  A    between atoms: C_9  and  C_10 
REMARK    6  A    between atoms: N_15  and  C_14 
REMARK    7  A    between atoms: N_20  and  C_19 
REMARK       I    between atoms: C_22  and  N_20 
ROOT
ATOM      1  C   LIG d   1      -6.707  74.723 117.549  0.00  0.00     0.161 C 
ATOM      2  C   LIG d   1      -6.680  73.330 117.729  0.00  0.00     0.016 C 
ATOM      3  C   LIG d   1      -7.813  72.502 117.559  0.00  0.00     0.038 C 
ATOM      4  C   LIG d   1      -9.023  72.995 117.047  0.00  0.00     0.028 C 
ATOM      5  C   LIG d   1      -9.241  74.477 117.333  0.00  0.00    -0.047 C 
ATOM      6  C   LIG d   1      -7.989  75.265 116.884  0.00  0.00     0.091 C 
ENDROOT
BRANCH   1   7
ATOM      7  O   LIG d   1      -5.543  75.143 116.810  0.00  0.00    -0.368 OA
BRANCH   7   8
ATOM      8  C   LIG d   1      -4.814  74.098 116.121  0.00  0.00     0.119 C 
BRANCH   8   9
ATOM      9  C   LIG d   1      -3.311  74.364 116.333  0.00  0.00     0.028 C 
ATOM     10  C   LIG d   1      -2.751  73.620 117.557  0.00  0.00     0.006 C 
ENDBRANCH   8   9
BRANCH   8  11
ATOM     11  C   LIG d   1      -5.030  74.174 114.607  0.00  0.00     0.028 C 
ATOM     12  C   LIG d   1      -5.545  75.546 114.146  0.00  0.00     0.006 C 
ENDBRANCH   8  11
ENDBRANCH   7   8
ENDBRANCH   1   7
BRANCH   6  13
ATOM     13  N   LIG d   1      -8.085  76.713 117.204  0.00  0.00    -0.311 N 
ATOM     14  C   LIG d   1      -8.265  77.180 118.439  0.00  0.00     0.210 C 
ATOM     15  C   LIG d   1      -8.356  78.706 118.546  0.00  0.00     0.109 C 
ATOM     16  O   LIG d   1      -8.325  76.478 119.459  0.00  0.00    -0.276 OA
ATOM     17  H   LIG d   1      -8.016  77.355 116.439  0.00  0.00     0.149 HD
ENDBRANCH   6  13
BRANCH   5  18
ATOM     18  N   LIG d   1     -10.469  74.891 116.627  0.00  0.00     0.381 N 
ATOM     19  H   LIG d   1     -10.292  74.946 115.644  0.00  0.00    -0.090 HD
ATOM     20  H   LIG d   1     -10.738  75.803 116.951  0.00  0.00    -0.090 HD
ATOM     21  H   LIG d   1     -11.200  74.238 116.804  0.00  0.00    -0.090 HD
ENDBRANCH   5  18
BRANCH   3  22
ATOM     22  C   LIG d   1      -7.754  71.170 117.940  0.00  0.00     0.382 C 
ATOM     23  O   LIG d   1      -8.332  70.294 117.252  0.00  0.00    -0.241 OA
ATOM     24  O   LIG d   1      -7.168  70.838 118.988  0.00  0.00    -0.241 OA
ENDBRANCH   3  22
TORSDOF 7
ENDMDL
MODEL 2
REMARK VINA RESULT:      -5.4      2.127      4.608
REMARK  7 active torsions:
REMARK  status: ('A' for Active; 'I' for Inactive)
REMARK    1  A    between atoms: C_2  and  C_3 
REMARK    2  A    between atoms: C_3  and  O_6 
REMARK    3  A    between atoms: C_3  and  C_4 
REMARK    4  A    between atoms: C_7  and  O_6 
REMARK    5  A    between atoms: C_9  and  C_10 
REMARK    6  A    between atoms: N_15  and  C_14 
REMARK    7  A    between atoms: N_20  and  C_19 
REMARK       I    between atoms: C_22  and  N_20 
ROOT
ATOM      1  C   LIG d   1      -8.089  75.015 117.348  0.00  0.00     0.161 C 
ATOM      2  C   LIG d   1      -8.145  73.624 117.156  0.00  0.00     0.016 C 
ATOM      3  C   LIG d   1      -6.996  72.809 117.034  0.00  0.00     0.038 C 
ATOM      4  C   LIG d   1      -5.704  73.312 117.247  0.00  0.00     0.028 C 
ATOM      5  C   LIG d   1      -5.575  74.801 116.943  0.00  0.00    -0.047 C 
ATOM      6  C   LIG d   1      -6.690  75.565 117.694  0.00  0.00     0.091 C 
ENDROOT
BRANCH   1   7
ATOM      7  O   LIG d   1      -9.045  75.409 118.353  0.00  0.00    -0.368 OA
BRANCH   7   8
ATOM      8  C   LIG d   1     -10.352  75.805 117.869  0.00  0.00     0.119 C 
BRANCH   8   9
ATOM      9  C   LIG d   1     -10.824  76.992 118.730  0.00  0.00     0.028 C 
ATOM     10  C   LIG d   1      -9.706  78.019 118.978  0.00  0.00     0.006 C 
ENDBRANCH   8   9
BRANCH   8  11
ATOM     11  C   LIG d   1     -11.388  74.701 118.097  0.00  0.00     0.028 C 
ATOM     12  C   LIG d   1     -12.431  75.074 119.162  0.00  0.00     0.006 C 
ENDBRANCH   8  11
ENDBRANCH   7   8
ENDBRANCH   1   7
BRANCH   6  13
ATOM     13  N   LIG d   1      -6.688  77.018 117.384  0.00  0.00    -0.311 N 
ATOM     14  C   LIG d   1      -6.047  77.924 118.120  0.00  0.00     0.210 C 
ATOM     15  C   LIG d   1      -6.191  79.370 117.637  0.00  0.00     0.109 C 
ATOM     16  O   LIG d   1      -5.346  77.663 119.110  0.00  0.00    -0.276 OA
ATOM     17  H   LIG d   1      -7.206  77.314 116.580  0.00  0.00     0.149 HD
ENDBRANCH   6  13
BRANCH   5  18
ATOM     18  N   LIG d   1      -4.218  75.221 117.338  0.00  0.00     0.381 N 
ATOM     19  H   LIG d   1      -3.539  74.629 116.902  0.00  0.00    -0.090 HD
ATOM     20  H   LIG d   1      -4.126  75.125 118.334  0.00  0.00    -0.090 HD
ATOM     21  H   LIG d   1      -4.063  76.169 117.073  0.00  0.00    -0.090 HD
ENDBRANCH   5  18
BRANCH   3  22
ATOM     22  C   LIG d   1      -7.133  71.482 116.655  0.00  0.00     0.382 C 
ATOM     23  O   LIG d   1      -6.465  71.033 115.693  0.00  0.00    -0.241 OA
ATOM     24  O   LIG d   1      -7.948  70.740 117.236  0.00  0.00    -0.241 OA
ENDBRANCH   3  22
TORSDOF 7
ENDMDL
MODEL 3
REMARK VINA RESULT:      -5.3      2.052      4.403
REMARK  7 active torsions:
REMARK  status: ('A' for Active; 'I' for Inactive)
REMARK    1  A    between atoms: C_2  and  C_3 
REMARK    2  A    between atoms: C_3  and  O_6 
REMARK    3  A    between atoms: C_3  and  C_4 
REMARK    4  A    between atoms: C_7  and  O_6 
REMARK    5  A    between atoms: C_9  and  C_10 
REMARK    6  A    between atoms: N_15  and  C_14 
REMARK    7  A    between atoms: N_20  and  C_19 
REMARK       I    between atoms: C_22  and  N_20 
ROOT
ATOM      1  C   LIG d   1      -5.795  74.762 116.773  0.00  0.00     0.161 C 
ATOM      2  C   LIG d   1      -4.596  74.038 116.667  0.00  0.00     0.016 C 
ATOM      3  C   LIG d   1      -3.508  74.200 117.554  0.00  0.00     0.038 C 
ATOM      4  C   LIG d   1      -3.602  74.994 118.706  0.00  0.00     0.028 C 
ATOM      5  C   LIG d   1      -4.611  76.130 118.578  0.00  0.00    -0.047 C 
ATOM      6  C   LIG d   1      -5.959  75.552 118.089  0.00  0.00     0.091 C 
ENDROOT
BRANCH   1   7
ATOM      7  O   LIG d   1      -6.918  73.881 116.575  0.00  0.00    -0.368 OA
BRANCH   7   8
ATOM      8  C   LIG d   1      -7.507  73.319 117.774  0.00  0.00     0.119 C 
BRANCH   8   9
ATOM      9  C   LIG d   1      -6.982  71.877 117.915  0.00  0.00     0.028 C 
ATOM     10  C   LIG d   1      -6.947  71.131 116.570  0.00  0.00     0.006 C 
ENDBRANCH   8   9
BRANCH   8  11
ATOM     11  C   LIG d   1      -9.026  73.186 117.640  0.00  0.00     0.028 C 
ATOM     12  C   LIG d   1      -9.665  74.373 116.900  0.00  0.00     0.006 C 
ENDBRANCH   8  11
ENDBRANCH   7   8
ENDBRANCH   1   7
BRANCH   6  13
ATOM     13  N   LIG d   1      -6.978  76.608 117.856  0.00  0.00    -0.311 N 
ATOM     14  C   LIG d   1      -7.854  76.999 118.780  0.00  0.00     0.210 C 
ATOM     15  C   LIG d   1      -8.830  78.088 118.326  0.00  0.00     0.109 C 
ATOM     16  O   LIG d   1      -7.894  76.569 119.943  0.00  0.00    -0.276 OA
ATOM     17  H   LIG d   1      -6.996  77.033 116.949  0.00  0.00     0.149 HD
ENDBRANCH   6  13
BRANCH   5  18
ATOM     18  N   LIG d   1      -4.708  76.791 119.893  0.00  0.00     0.381 N 
ATOM     19  H   LIG d   1      -3.886  77.335 120.060  0.00  0.00    -0.090 HD
ATOM     20  H   LIG d   1      -4.771  76.087 120.607  0.00  0.00    -0.090 HD
ATOM     21  H   LIG d   1      -5.514  77.376 119.922  0.00  0.00    -0.090 HD
ENDBRANCH   5  18
BRANCH   3  22
ATOM     22  C   LIG d   1      -2.293  73.593 117.270  0.00  0.00     0.382 C 
ATOM     23  O   LIG d   1      -1.637  73.947 116.261  0.00  0.00    -0.241 OA
ATOM     24  O   LIG d   1      -1.868  72.666 117.985  0.00  0.00    -0.241 OA
ENDBRANCH   3  22
TORSDOF 7
ENDMDL
MODEL 4
REMARK VINA RESULT:      -5.3     15.636     17.610
REMARK  7 active torsions:
REMARK  status: ('A' for Active; 'I' for Inactive)
REMARK    1  A    between atoms: C_2  and  C_3 
REMARK    2  A    between atoms: C_3  and  O_6 
REMARK    3  A    between atoms: C_3  and  C_4 
REMARK    4  A    between atoms: C_7  and  O_6 
REMARK    5  A    between atoms: C_9  and  C_10 
REMARK    6  A    between atoms: N_15  and  C_14 
REMARK    7  A    between atoms: N_20  and  C_19 
REMARK       I    between atoms: C_22  and  N_20 
ROOT
ATOM      1  C   LIG d   1       1.041  88.834 116.797  0.00  0.00     0.161 C 
ATOM      2  C   LIG d   1      -0.354  88.673 116.850  0.00  0.00     0.016 C 
ATOM      3  C   LIG d   1      -1.230  89.644 117.387  0.00  0.00     0.038 C 
ATOM      4  C   LIG d   1      -0.780  90.916 117.771  0.00  0.00     0.028 C 
ATOM      5  C   LIG d   1       0.682  90.937 118.204  0.00  0.00    -0.047 C 
ATOM      6  C   LIG d   1       1.539  90.260 117.110  0.00  0.00     0.091 C 
ENDROOT
BRANCH   1   7
ATOM      7  O   LIG d   1       1.534  88.400 115.514  0.00  0.00    -0.368 OA
BRANCH   7   8
ATOM      8  C   LIG d   1       2.464  87.290 115.531  0.00  0.00     0.119 C 
BRANCH   8   9
ATOM      9  C   LIG d   1       3.734  87.738 114.782  0.00  0.00     0.028 C 
ATOM     10  C   LIG d   1       3.547  89.084 114.063  0.00  0.00     0.006 C 
ENDBRANCH   8   9
BRANCH   8  11
ATOM     11  C   LIG d   1       1.923  86.098 114.735  0.00  0.00     0.028 C 
ATOM     12  C   LIG d   1       3.025  85.333 113.985  0.00  0.00     0.006 C 
ENDBRANCH   8  11
ENDBRANCH   7   8
ENDBRANCH   1   7
BRANCH   6  13
ATOM     13  N   LIG d   1       2.972  90.162 117.492  0.00  0.00    -0.311 N 
ATOM     14  C   LIG d   1       3.868  91.112 117.228  0.00  0.00     0.210 C 
ATOM     15  C   LIG d   1       5.295  90.802 117.691  0.00  0.00     0.109 C 
ATOM     16  O   LIG d   1       3.609  92.197 116.684  0.00  0.00    -0.276 OA
ATOM     17  H   LIG d   1       3.262  89.329 117.965  0.00  0.00     0.149 HD
ENDBRANCH   6  13
BRANCH   5  18
ATOM     18  N   LIG d   1       1.057  92.343 118.445  0.00  0.00     0.381 N 
ATOM     19  H   LIG d   1       0.652  92.926 117.740  0.00  0.00    -0.090 HD
ATOM     20  H   LIG d   1       2.056  92.427 118.388  0.00  0.00    -0.090 HD
ATOM     21  H   LIG d   1       0.742  92.630 119.345  0.00  0.00    -0.090 HD
ENDBRANCH   5  18
BRANCH   3  22
ATOM     22  C   LIG d   1      -2.567  89.333 117.580  0.00  0.00     0.382 C 
ATOM     23  O   LIG d   1      -2.936  88.792 118.650  0.00  0.00    -0.241 OA
ATOM     24  O   LIG d   1      -3.401  89.544 116.680  0.00  0.00    -0.241 OA
ENDBRANCH   3  22
TORSDOF 7
ENDMDL
MODEL 5
REMARK VINA RESULT:      -5.2      1.903      2.425
REMARK  7 active torsions:
REMARK  status: ('A' for Active; 'I' for Inactive)
REMARK    1  A    between atoms: C_2  and  C_3 
REMARK    2  A    between atoms: C_3  and  O_6 
REMARK    3  A    between atoms: C_3  and  C_4 
REMARK    4  A    between atoms: C_7  and  O_6 
REMARK    5  A    between atoms: C_9  and  C_10 
REMARK    6  A    between atoms: N_15  and  C_14 
REMARK    7  A    between atoms: N_20  and  C_19 
REMARK       I    between atoms: C_22  and  N_20 
ROOT
ATOM      1  C   LIG d   1      -5.847  74.025 117.435  0.00  0.00     0.161 C 
ATOM      2  C   LIG d   1      -6.243  72.680 117.510  0.00  0.00     0.016 C 
ATOM      3  C   LIG d   1      -7.588  72.257 117.402  0.00  0.00     0.038 C 
ATOM      4  C   LIG d   1      -8.619  73.145 117.058  0.00  0.00     0.028 C 
ATOM      5  C   LIG d   1      -8.340  74.586 117.470  0.00  0.00    -0.047 C 
ATOM      6  C   LIG d   1      -6.943  74.996 116.949  0.00  0.00     0.091 C 
ENDROOT
BRANCH   1   7
ATOM      7  O   LIG d   1      -4.671  74.143 116.609  0.00  0.00    -0.368 OA
BRANCH   7   8
ATOM      8  C   LIG d   1      -3.399  74.053 117.296  0.00  0.00     0.119 C 
BRANCH   8   9
ATOM      9  C   LIG d   1      -3.476  74.964 118.536  0.00  0.00     0.028 C 
ATOM     10  C   LIG d   1      -2.813  76.332 118.302  0.00  0.00     0.006 C 
ENDBRANCH   8   9
BRANCH   8  11
ATOM     11  C   LIG d   1      -2.264  74.626 116.442  0.00  0.00     0.028 C 
ATOM     12  C   LIG d   1      -1.045  73.692 116.367  0.00  0.00     0.006 C 
ENDBRANCH   8  11
ENDBRANCH   7   8
ENDBRANCH   1   7
BRANCH   6  13
ATOM     13  N   LIG d   1      -6.556  76.365 117.380  0.00  0.00    -0.311 N 
ATOM     14  C   LIG d   1      -5.987  77.255 116.570  0.00  0.00     0.210 C 
ATOM     15  C   LIG d   1      -5.650  78.600 117.222  0.00  0.00     0.109 C 
ATOM     16  O   LIG d   1      -5.759  77.071 115.365  0.00  0.00    -0.276 OA
ATOM     17  H   LIG d   1      -6.734  76.609 118.335  0.00  0.00     0.149 HD
ENDBRANCH   6  13
BRANCH   5  18
ATOM     18  N   LIG d   1      -9.427  75.423 116.929  0.00  0.00     0.381 N 
ATOM     19  H   LIG d   1      -9.470  75.322 115.935  0.00  0.00    -0.090 HD
ATOM     20  H   LIG d   1      -9.232  76.386 117.141  0.00  0.00    -0.090 HD
ATOM     21  H   LIG d   1     -10.297  75.156 117.335  0.00  0.00    -0.090 HD
ENDBRANCH   5  18
BRANCH   3  22
ATOM     22  C   LIG d   1      -7.919  70.940 117.679  0.00  0.00     0.382 C 
ATOM     23  O   LIG d   1      -7.627  70.441 118.793  0.00  0.00    -0.241 OA
ATOM     24  O   LIG d   1      -8.466  70.230 116.814  0.00  0.00    -0.241 OA
ENDBRANCH   3  22
TORSDOF 7
ENDMDL
MODEL 6
REMARK VINA RESULT:      -5.2      2.856      6.249
REMARK  7 active torsions:
REMARK  status: ('A' for Active; 'I' for Inactive)
REMARK    1  A    between atoms: C_2  and  C_3 
REMARK    2  A    between atoms: C_3  and  O_6 
REMARK    3  A    between atoms: C_3  and  C_4 
REMARK    4  A    between atoms: C_7  and  O_6 
REMARK    5  A    between atoms: C_9  and  C_10 
REMARK    6  A    between atoms: N_15  and  C_14 
REMARK    7  A    between atoms: N_20  and  C_19 
REMARK       I    between atoms: C_22  and  N_20 
ROOT
ATOM      1  C   LIG d   1      -7.703  77.157 117.900  0.00  0.00     0.161 C 
ATOM      2  C   LIG d   1      -8.808  77.942 118.267  0.00  0.00     0.016 C 
ATOM      3  C   LIG d   1      -8.760  79.350 118.379  0.00  0.00     0.038 C 
ATOM      4  C   LIG d   1      -7.634  80.087 117.982  0.00  0.00     0.028 C 
ATOM      5  C   LIG d   1      -6.330  79.304 118.086  0.00  0.00    -0.047 C 
ATOM      6  C   LIG d   1      -6.497  77.952 117.356  0.00  0.00     0.091 C 
ENDROOT
BRANCH   1   7
ATOM      7  O   LIG d   1      -8.110  76.152 116.950  0.00  0.00    -0.368 OA
BRANCH   7   8
ATOM      8  C   LIG d   1      -8.683  74.944 117.507  0.00  0.00     0.119 C 
BRANCH   8   9
ATOM      9  C   LIG d   1      -7.800  73.763 117.058  0.00  0.00     0.028 C 
ATOM     10  C   LIG d   1      -8.524  72.411 117.175  0.00  0.00     0.006 C 
ENDBRANCH   8   9
BRANCH   8  11
ATOM     11  C   LIG d   1     -10.069  74.661 116.919  0.00  0.00     0.028 C 
ATOM     12  C   LIG d   1     -11.202  74.873 117.935  0.00  0.00     0.006 C 
ENDBRANCH   8  11
ENDBRANCH   7   8
ENDBRANCH   1   7
BRANCH   6  13
ATOM     13  N   LIG d   1      -5.295  77.087 117.481  0.00  0.00    -0.311 N 
ATOM     14  C   LIG d   1      -4.557  76.703 116.440  0.00  0.00     0.210 C 
ATOM     15  C   LIG d   1      -3.372  75.797 116.788  0.00  0.00     0.109 C 
ATOM     16  O   LIG d   1      -4.752  77.053 115.267  0.00  0.00    -0.276 OA
ATOM     17  H   LIG d   1      -5.046  76.783 118.401  0.00  0.00     0.149 HD
ENDBRANCH   6  13
BRANCH   5  18
ATOM     18  N   LIG d   1      -5.260  80.142 117.512  0.00  0.00     0.381 N 
ATOM     19  H   LIG d   1      -4.372  79.847 117.866  0.00  0.00    -0.090 HD
ATOM     20  H   LIG d   1      -5.409  81.096 117.791  0.00  0.00    -0.090 HD
ATOM     21  H   LIG d   1      -5.269  80.074 116.518  0.00  0.00    -0.090 HD
ENDBRANCH   5  18
BRANCH   3  22
ATOM     22  C   LIG d   1      -9.833  80.033 118.931  0.00  0.00     0.382 C 
ATOM     23  O   LIG d   1     -10.348  79.631 120.002  0.00  0.00    -0.241 OA
ATOM     24  O   LIG d   1     -10.321  81.021 118.349  0.00  0.00    -0.241 OA
ENDBRANCH   3  22
TORSDOF 7
ENDMDL
MODEL 7
REMARK VINA RESULT:      -5.1      1.988      4.548
REMARK  7 active torsions:
REMARK  status: ('A' for Active; 'I' for Inactive)
REMARK    1  A    between atoms: C_2  and  C_3 
REMARK    2  A    between atoms: C_3  and  O_6 
REMARK    3  A    between atoms: C_3  and  C_4 
REMARK    4  A    between atoms: C_7  and  O_6 
REMARK    5  A    between atoms: C_9  and  C_10 
REMARK    6  A    between atoms: N_15  and  C_14 
REMARK    7  A    between atoms: N_20  and  C_19 
REMARK       I    between atoms: C_22  and  N_20 
ROOT
ATOM      1  C   LIG d   1      -7.411  75.060 117.123  0.00  0.00     0.161 C 
ATOM      2  C   LIG d   1      -6.375  74.474 116.376  0.00  0.00     0.016 C 
ATOM      3  C   LIG d   1      -5.222  75.177 115.960  0.00  0.00     0.038 C 
ATOM      4  C   LIG d   1      -4.953  76.484 116.394  0.00  0.00     0.028 C 
ATOM      5  C   LIG d   1      -6.209  77.280 116.731  0.00  0.00    -0.047 C 
ATOM      6  C   LIG d   1      -7.083  76.453 117.701  0.00  0.00     0.091 C 
ENDROOT
BRANCH   1   7
ATOM      7  O   LIG d   1      -7.821  74.165 118.176  0.00  0.00    -0.368 OA
BRANCH   7   8
ATOM      8  C   LIG d   1      -9.030  73.404 117.931  0.00  0.00     0.119 C 
BRANCH   8   9
ATOM      9  C   LIG d   1      -8.640  72.173 117.090  0.00  0.00     0.028 C 
ATOM     10  C   LIG d   1      -8.247  70.968 117.960  0.00  0.00     0.006 C 
ENDBRANCH   8   9
BRANCH   8  11
ATOM     11  C   LIG d   1     -10.017  74.191 117.065  0.00  0.00     0.028 C 
ATOM     12  C   LIG d   1     -11.165  74.808 117.880  0.00  0.00     0.006 C 
ENDBRANCH   8  11
ENDBRANCH   7   8
ENDBRANCH   1   7
BRANCH   6  13
ATOM     13  N   LIG d   1      -8.372  77.123 118.016  0.00  0.00    -0.311 N 
ATOM     14  C   LIG d   1      -8.564  77.868 119.103  0.00  0.00     0.210 C 
ATOM     15  C   LIG d   1      -9.973  78.452 119.246  0.00  0.00     0.109 C 
ATOM     16  O   LIG d   1      -7.692  78.126 119.947  0.00  0.00    -0.276 OA
ATOM     17  H   LIG d   1      -9.124  76.992 117.368  0.00  0.00     0.149 HD
ENDBRANCH   6  13
BRANCH   5  18
ATOM     18  N   LIG d   1      -5.778  78.571 117.300  0.00  0.00     0.381 N 
ATOM     19  H   LIG d   1      -5.026  78.946 116.758  0.00  0.00    -0.090 HD
ATOM     20  H   LIG d   1      -5.447  78.420 118.236  0.00  0.00    -0.090 HD
ATOM     21  H   LIG d   1      -6.542  79.212 117.309  0.00  0.00    -0.090 HD
ENDBRANCH   5  18
BRANCH   3  22
ATOM     22  C   LIG d   1      -4.342  74.586 115.066  0.00  0.00     0.382 C 
ATOM     23  O   LIG d   1      -3.143  74.955 115.030  0.00  0.00    -0.241 OA
ATOM     24  O   LIG d   1      -4.741  73.719 114.266  0.00  0.00    -0.241 OA
ENDBRANCH   3  22
TORSDOF 7
ENDMDL
MODEL 8
REMARK VINA RESULT:      -5.1      1.815      4.949
REMARK  7 active torsions:
REMARK  status: ('A' for Active; 'I' for Inactive)
REMARK    1  A    between atoms: C_2  and  C_3 
REMARK    2  A    between atoms: C_3  and  O_6 
REMARK    3  A    between atoms: C_3  and  C_4 
REMARK    4  A    between atoms: C_7  and  O_6 
REMARK    5  A    between atoms: C_9  and  C_10 
REMARK    6  A    between atoms: N_15  and  C_14 
REMARK    7  A    between atoms: N_20  and  C_19 
REMARK       I    between atoms: C_22  and  N_20 
ROOT
ATOM      1  C   LIG d   1      -7.517  75.905 117.547  0.00  0.00     0.161 C 
ATOM      2  C   LIG d   1      -7.687  77.262 117.871  0.00  0.00     0.016 C 
ATOM      3  C   LIG d   1      -8.938  77.831 118.205  0.00  0.00     0.038 C 
ATOM      4  C   LIG d   1     -10.085  77.045 118.386  0.00  0.00     0.028 C 
ATOM      5  C   LIG d   1     -10.067  75.752 117.578  0.00  0.00    -0.047 C 
ATOM      6  C   LIG d   1      -8.738  75.011 117.847  0.00  0.00     0.091 C 
ENDROOT
BRANCH   1   7
ATOM      7  O   LIG d   1      -6.343  75.389 118.206  0.00  0.00    -0.368 OA
BRANCH   7   8
ATOM      8  C   LIG d   1      -5.118  75.410 117.434  0.00  0.00     0.119 C 
BRANCH   8   9
ATOM      9  C   LIG d   1      -4.872  73.980 116.916  0.00  0.00     0.028 C 
ATOM     10  C   LIG d   1      -5.116  73.853 115.403  0.00  0.00     0.006 C 
ENDBRANCH   8   9
BRANCH   8  11
ATOM     11  C   LIG d   1      -3.909  75.735 118.316  0.00  0.00     0.028 C 
ATOM     12  C   LIG d   1      -2.885  74.590 118.369  0.00  0.00     0.006 C 
ENDBRANCH   8  11
ENDBRANCH   7   8
ENDBRANCH   1   7
BRANCH   6  13
ATOM     13  N   LIG d   1      -8.602  73.776 117.031  0.00  0.00    -0.311 N 
ATOM     14  C   LIG d   1      -8.204  72.607 117.530  0.00  0.00     0.210 C 
ATOM     15  C   LIG d   1      -8.112  71.466 116.512  0.00  0.00     0.109 C 
ATOM     16  O   LIG d   1      -7.948  72.399 118.726  0.00  0.00    -0.276 OA
ATOM     17  H   LIG d   1      -8.819  73.847 116.056  0.00  0.00     0.149 HD
ENDBRANCH   6  13
BRANCH   5  18
ATOM     18  N   LIG d   1     -11.255  74.968 117.966  0.00  0.00     0.381 N 
ATOM     19  H   LIG d   1     -10.983  74.034 118.200  0.00  0.00    -0.090 HD
ATOM     20  H   LIG d   1     -11.886  74.925 117.185  0.00  0.00    -0.090 HD
ATOM     21  H   LIG d   1     -11.707  75.395 118.744  0.00  0.00    -0.090 HD
ENDBRANCH   5  18
BRANCH   3  22
ATOM     22  C   LIG d   1      -9.056  79.207 118.323  0.00  0.00     0.382 C 
ATOM     23  O   LIG d   1      -8.053  79.940 118.150  0.00  0.00    -0.241 OA
ATOM     24  O   LIG d   1     -10.144  79.722 118.644  0.00  0.00    -0.241 OA
ENDBRANCH   3  22
TORSDOF 7
ENDMDL
MODEL 9
REMARK VINA RESULT:      -5.0      2.817      5.856
REMARK  7 active torsions:
REMARK  status: ('A' for Active; 'I' for Inactive)
REMARK    1  A    between atoms: C_2  and  C_3 
REMARK    2  A    between atoms: C_3  and  O_6 
REMARK    3  A    between atoms: C_3  and  C_4 
REMARK    4  A    between atoms: C_7  and  O_6 
REMARK    5  A    between atoms: C_9  and  C_10 
REMARK    6  A    between atoms: N_15  and  C_14 
REMARK    7  A    between atoms: N_20  and  C_19 
REMARK       I    between atoms: C_22  and  N_20 
ROOT
ATOM      1  C   LIG d   1      -7.231  76.773 117.405  0.00  0.00     0.161 C 
ATOM      2  C   LIG d   1      -8.355  77.406 117.961  0.00  0.00     0.016 C 
ATOM      3  C   LIG d   1      -8.387  78.778 118.300  0.00  0.00     0.038 C 
ATOM      4  C   LIG d   1      -7.341  79.650 117.963  0.00  0.00     0.028 C 
ATOM      5  C   LIG d   1      -5.986  78.958 117.859  0.00  0.00    -0.047 C 
ATOM      6  C   LIG d   1      -6.119  77.731 116.928  0.00  0.00     0.091 C 
ENDROOT
BRANCH   1   7
ATOM      7  O   LIG d   1      -7.641  75.906 116.329  0.00  0.00    -0.368 OA
BRANCH   7   8
ATOM      8  C   LIG d   1      -7.618  74.485 116.611  0.00  0.00     0.119 C 
BRANCH   8   9
ATOM      9  C   LIG d   1      -9.038  74.077 117.049  0.00  0.00     0.028 C 
ATOM     10  C   LIG d   1      -9.079  72.671 117.670  0.00  0.00     0.006 C 
ENDBRANCH   8   9
BRANCH   8  11
ATOM     11  C   LIG d   1      -6.718  74.170 117.810  0.00  0.00     0.028 C 
ATOM     12  C   LIG d   1      -5.440  73.414 117.413  0.00  0.00     0.006 C 
ENDBRANCH   8  11
ENDBRANCH   7   8
ENDBRANCH   1   7
BRANCH   6  13
ATOM     13  N   LIG d   1      -4.859  76.948 116.838  0.00  0.00    -0.311 N 
ATOM     14  C   LIG d   1      -4.310  76.573 115.684  0.00  0.00     0.210 C 
ATOM     15  C   LIG d   1      -3.021  75.756 115.817  0.00  0.00     0.109 C 
ATOM     16  O   LIG d   1      -4.749  76.868 114.562  0.00  0.00    -0.276 OA
ATOM     17  H   LIG d   1      -4.418  76.693 117.700  0.00  0.00     0.149 HD
ENDBRANCH   6  13
BRANCH   5  18
ATOM     18  N   LIG d   1      -5.013  79.953 117.369  0.00  0.00     0.381 N 
ATOM     19  H   LIG d   1      -4.471  79.559 116.626  0.00  0.00    -0.090 HD
ATOM     20  H   LIG d   1      -4.391  80.196 118.119  0.00  0.00    -0.090 HD
ATOM     21  H   LIG d   1      -5.491  80.766 117.046  0.00  0.00    -0.090 HD
ENDBRANCH   5  18
BRANCH   3  22
ATOM     22  C   LIG d   1      -9.459  79.284 119.019  0.00  0.00     0.382 C 
ATOM     23  O   LIG d   1     -10.173  80.190 118.526  0.00  0.00    -0.241 OA
ATOM     24  O   LIG d   1      -9.695  78.876 120.172  0.00  0.00    -0.241 OA
ENDBRANCH   3  22
TORSDOF 7
ENDMDL
