MODEL 1
REMARK VINA RESULT:      -5.3      0.000      0.000
REMARK  7 active torsions:
REMARK  status: ('A' for Active; 'I' for Inactive)
REMARK    1  A    between atoms: C_2  and  C_3 
REMARK    2  A    between atoms: C_3  and  O_6 
REMARK    3  A    between atoms: C_3  and  C_4 
REMARK    4  A    between atoms: C_7  and  O_6 
REMARK    5  A    between atoms: C_9  and  C_10 
REMARK    6  A    between atoms: N_15  and  C_14 
REMARK    7  A    between atoms: N_20  and  C_19 
REMARK       I    between atoms: C_22  and  N_20 
ROOT
ATOM      1  C   LIG d   1      -4.789  75.766 117.689  0.00  0.00     0.161 C 
ATOM      2  C   LIG d   1      -5.958  76.512 117.915  0.00  0.00     0.016 C 
ATOM      3  C   LIG d   1      -6.091  77.875 117.563  0.00  0.00     0.038 C 
ATOM      4  C   LIG d   1      -5.111  78.548 116.819  0.00  0.00     0.028 C 
ATOM      5  C   LIG d   1      -3.709  77.981 117.011  0.00  0.00    -0.047 C 
ATOM      6  C   LIG d   1      -3.750  76.453 116.778  0.00  0.00     0.091 C 
ENDROOT
BRANCH   1   7
ATOM      7  O   LIG d   1      -5.131  74.467 117.167  0.00  0.00    -0.368 OA
BRANCH   7   8
ATOM      8  C   LIG d   1      -6.295  74.413 116.306  0.00  0.00     0.119 C 
BRANCH   8   9
ATOM      9  C   LIG d   1      -7.085  73.142 116.674  0.00  0.00     0.028 C 
ATOM     10  C   LIG d   1      -6.447  71.867 116.097  0.00  0.00     0.006 C 
ENDBRANCH   8   9
BRANCH   8  11
ATOM     11  C   LIG d   1      -5.895  74.230 114.839  0.00  0.00     0.028 C 
ATOM     12  C   LIG d   1      -6.139  75.490 113.993  0.00  0.00     0.006 C 
ENDBRANCH   8  11
ENDBRANCH   7   8
ENDBRANCH   1   7
BRANCH   6  13
ATOM     13  N   LIG d   1      -2.435  75.806 117.028  0.00  0.00    -0.311 N 
ATOM     14  C   LIG d   1      -1.831  75.009 116.149  0.00  0.00     0.210 C 
ATOM     15  C   LIG d   1      -0.492  74.430 116.614  0.00  0.00     0.109 C 
ATOM     16  O   LIG d   1      -2.263  74.752 115.015  0.00  0.00    -0.276 OA
ATOM     17  H   LIG d   1      -1.999  75.986 117.911  0.00  0.00     0.149 HD
ENDBRANCH   6  13
BRANCH   5  18
ATOM     18  N   LIG d   1      -2.812  78.685 116.075  0.00  0.00     0.381 N 
ATOM     19  H   LIG d   1      -2.090  78.064 115.766  0.00  0.00    -0.090 HD
ATOM     20  H   LIG d   1      -2.381  79.455 116.555  0.00  0.00    -0.090 HD
ATOM     21  H   LIG d   1      -3.330  79.019 115.293  0.00  0.00    -0.090 HD
ENDBRANCH   5  18
BRANCH   3  22
ATOM     22  C   LIG d   1      -7.200  78.590 117.992  0.00  0.00     0.382 C 
ATOM     23  O   LIG d   1      -7.463  79.705 117.481  0.00  0.00    -0.241 OA
ATOM     24  O   LIG d   1      -7.914  78.154 118.915  0.00  0.00    -0.241 OA
ENDBRANCH   3  22
TORSDOF 7
ENDMDL
MODEL 2
REMARK VINA RESULT:      -5.2      1.671      4.850
REMARK  7 active torsions:
REMARK  status: ('A' for Active; 'I' for Inactive)
REMARK    1  A    between atoms: C_2  and  C_3 
REMARK    2  A    between atoms: C_3  and  O_6 
REMARK    3  A    between atoms: C_3  and  C_4 
REMARK    4  A    between atoms: C_7  and  O_6 
REMARK    5  A    between atoms: C_9  and  C_10 
REMARK    6  A    between atoms: N_15  and  C_14 
REMARK    7  A    between atoms: N_20  and  C_19 
REMARK       I    between atoms: C_22  and  N_20 
ROOT
ATOM      1  C   LIG d   1      -4.615  76.039 115.640  0.00  0.00     0.161 C 
ATOM      2  C   LIG d   1      -3.545  75.197 115.295  0.00  0.00     0.016 C 
ATOM      3  C   LIG d   1      -2.395  75.031 116.100  0.00  0.00     0.038 C 
ATOM      4  C   LIG d   1      -2.303  75.585 117.386  0.00  0.00     0.028 C 
ATOM      5  C   LIG d   1      -3.138  76.849 117.561  0.00  0.00    -0.047 C 
ATOM      6  C   LIG d   1      -4.583  76.565 117.090  0.00  0.00     0.091 C 
ENDROOT
BRANCH   1   7
ATOM      7  O   LIG d   1      -5.866  75.373 115.376  0.00  0.00    -0.368 OA
BRANCH   7   8
ATOM      8  C   LIG d   1      -6.283  74.389 116.354  0.00  0.00     0.119 C 
BRANCH   8   9
ATOM      9  C   LIG d   1      -6.150  73.001 115.699  0.00  0.00     0.028 C 
ATOM     10  C   LIG d   1      -6.761  71.884 116.561  0.00  0.00     0.006 C 
ENDBRANCH   8   9
BRANCH   8  11
ATOM     11  C   LIG d   1      -7.769  74.536 116.694  0.00  0.00     0.028 C 
ATOM     12  C   LIG d   1      -8.430  75.723 115.975  0.00  0.00     0.006 C 
ENDBRANCH   8  11
ENDBRANCH   7   8
ENDBRANCH   1   7
BRANCH   6  13
ATOM     13  N   LIG d   1      -5.446  77.774 117.149  0.00  0.00    -0.311 N 
ATOM     14  C   LIG d   1      -6.454  77.914 118.008  0.00  0.00     0.210 C 
ATOM     15  C   LIG d   1      -7.229  79.229 117.887  0.00  0.00     0.109 C 
ATOM     16  O   LIG d   1      -6.759  77.087 118.880  0.00  0.00    -0.276 OA
ATOM     17  H   LIG d   1      -5.248  78.508 116.497  0.00  0.00     0.149 HD
ENDBRANCH   6  13
BRANCH   5  18
ATOM     18  N   LIG d   1      -3.060  77.241 118.981  0.00  0.00     0.381 N 
ATOM     19  H   LIG d   1      -3.980  77.277 119.374  0.00  0.00    -0.090 HD
ATOM     20  H   LIG d   1      -2.654  78.158 119.043  0.00  0.00    -0.090 HD
ATOM     21  H   LIG d   1      -2.501  76.588 119.485  0.00  0.00    -0.090 HD
ENDBRANCH   5  18
BRANCH   3  22
ATOM     22  C   LIG d   1      -1.302  74.336 115.603  0.00  0.00     0.382 C 
ATOM     23  O   LIG d   1      -0.864  74.594 114.456  0.00  0.00    -0.241 OA
ATOM     24  O   LIG d   1      -0.777  73.424 116.270  0.00  0.00    -0.241 OA
ENDBRANCH   3  22
TORSDOF 7
ENDMDL
MODEL 3
REMARK VINA RESULT:      -4.9      1.795      5.005
REMARK  7 active torsions:
REMARK  status: ('A' for Active; 'I' for Inactive)
REMARK    1  A    between atoms: C_2  and  C_3 
REMARK    2  A    between atoms: C_3  and  O_6 
REMARK    3  A    between atoms: C_3  and  C_4 
REMARK    4  A    between atoms: C_7  and  O_6 
REMARK    5  A    between atoms: C_9  and  C_10 
REMARK    6  A    between atoms: N_15  and  C_14 
REMARK    7  A    between atoms: N_20  and  C_19 
REMARK       I    between atoms: C_22  and  N_20 
ROOT
ATOM      1  C   LIG d   1      -4.328  75.508 116.921  0.00  0.00     0.161 C 
ATOM      2  C   LIG d   1      -3.150  74.797 116.640  0.00  0.00     0.016 C 
ATOM      3  C   LIG d   1      -1.884  75.150 117.164  0.00  0.00     0.038 C 
ATOM      4  C   LIG d   1      -1.737  76.155 118.131  0.00  0.00     0.028 C 
ATOM      5  C   LIG d   1      -2.820  77.226 118.063  0.00  0.00    -0.047 C 
ATOM      6  C   LIG d   1      -4.205  76.540 118.062  0.00  0.00     0.091 C 
ENDROOT
BRANCH   1   7
ATOM      7  O   LIG d   1      -5.402  74.586 117.193  0.00  0.00    -0.368 OA
BRANCH   7   8
ATOM      8  C   LIG d   1      -6.035  73.986 116.036  0.00  0.00     0.119 C 
BRANCH   8   9
ATOM      9  C   LIG d   1      -6.857  75.086 115.336  0.00  0.00     0.028 C 
ATOM     10  C   LIG d   1      -8.122  75.466 116.125  0.00  0.00     0.006 C 
ENDBRANCH   8   9
BRANCH   8  11
ATOM     11  C   LIG d   1      -7.054  72.920 116.450  0.00  0.00     0.028 C 
ATOM     12  C   LIG d   1      -6.599  71.494 116.101  0.00  0.00     0.006 C 
ENDBRANCH   8  11
ENDBRANCH   7   8
ENDBRANCH   1   7
BRANCH   6  13
ATOM     13  N   LIG d   1      -5.319  77.512 117.912  0.00  0.00    -0.311 N 
ATOM     14  C   LIG d   1      -6.417  77.491 118.666  0.00  0.00     0.210 C 
ATOM     15  C   LIG d   1      -7.451  78.571 118.332  0.00  0.00     0.109 C 
ATOM     16  O   LIG d   1      -6.618  76.701 119.600  0.00  0.00    -0.276 OA
ATOM     17  H   LIG d   1      -5.225  78.207 117.197  0.00  0.00     0.149 HD
ENDBRANCH   6  13
BRANCH   5  18
ATOM     18  N   LIG d   1      -2.624  78.132 119.210  0.00  0.00     0.381 N 
ATOM     19  H   LIG d   1      -3.498  78.289 119.671  0.00  0.00    -0.090 HD
ATOM     20  H   LIG d   1      -2.283  79.015 118.872  0.00  0.00    -0.090 HD
ATOM     21  H   LIG d   1      -1.970  77.737 119.849  0.00  0.00    -0.090 HD
ENDBRANCH   5  18
BRANCH   3  22
ATOM     22  C   LIG d   1      -0.744  74.520 116.689  0.00  0.00     0.382 C 
ATOM     23  O   LIG d   1       0.347  75.138 116.660  0.00  0.00    -0.241 OA
ATOM     24  O   LIG d   1      -0.803  73.356 116.248  0.00  0.00    -0.241 OA
ENDBRANCH   3  22
TORSDOF 7
ENDMDL
MODEL 4
REMARK VINA RESULT:      -4.8      2.126      2.682
REMARK  7 active torsions:
REMARK  status: ('A' for Active; 'I' for Inactive)
REMARK    1  A    between atoms: C_2  and  C_3 
REMARK    2  A    between atoms: C_3  and  O_6 
REMARK    3  A    between atoms: C_3  and  C_4 
REMARK    4  A    between atoms: C_7  and  O_6 
REMARK    5  A    between atoms: C_9  and  C_10 
REMARK    6  A    between atoms: N_15  and  C_14 
REMARK    7  A    between atoms: N_20  and  C_19 
REMARK       I    between atoms: C_22  and  N_20 
ROOT
ATOM      1  C   LIG d   1      -6.701  77.319 117.126  0.00  0.00     0.161 C 
ATOM      2  C   LIG d   1      -7.976  77.862 117.356  0.00  0.00     0.016 C 
ATOM      3  C   LIG d   1      -8.196  79.046 118.096  0.00  0.00     0.038 C 
ATOM      4  C   LIG d   1      -7.136  79.856 118.532  0.00  0.00     0.028 C 
ATOM      5  C   LIG d   1      -5.839  79.085 118.759  0.00  0.00    -0.047 C 
ATOM      6  C   LIG d   1      -5.526  78.247 117.498  0.00  0.00     0.091 C 
ENDROOT
BRANCH   1   7
ATOM      7  O   LIG d   1      -6.590  76.897 115.752  0.00  0.00    -0.368 OA
BRANCH   7   8
ATOM      8  C   LIG d   1      -6.869  75.500 115.490  0.00  0.00     0.119 C 
BRANCH   8   9
ATOM      9  C   LIG d   1      -6.600  74.722 116.793  0.00  0.00     0.028 C 
ATOM     10  C   LIG d   1      -6.748  73.202 116.610  0.00  0.00     0.006 C 
ENDBRANCH   8   9
BRANCH   8  11
ATOM     11  C   LIG d   1      -5.893  74.920 114.462  0.00  0.00     0.028 C 
ATOM     12  C   LIG d   1      -4.453  75.416 114.662  0.00  0.00     0.006 C 
ENDBRANCH   8  11
ENDBRANCH   7   8
ENDBRANCH   1   7
BRANCH   6  13
ATOM     13  N   LIG d   1      -4.318  77.398 117.668  0.00  0.00    -0.311 N 
ATOM     14  C   LIG d   1      -3.104  77.760 117.256  0.00  0.00     0.210 C 
ATOM     15  C   LIG d   1      -2.001  76.727 117.511  0.00  0.00     0.109 C 
ATOM     16  O   LIG d   1      -2.830  78.850 116.733  0.00  0.00    -0.276 OA
ATOM     17  H   LIG d   1      -4.444  76.509 118.111  0.00  0.00     0.149 HD
ENDBRANCH   6  13
BRANCH   5  18
ATOM     18  N   LIG d   1      -4.786  80.069 119.076  0.00  0.00     0.381 N 
ATOM     19  H   LIG d   1      -4.855  80.850 118.455  0.00  0.00    -0.090 HD
ATOM     20  H   LIG d   1      -3.888  79.638 118.942  0.00  0.00    -0.090 HD
ATOM     21  H   LIG d   1      -4.879  80.376 120.019  0.00  0.00    -0.090 HD
ENDBRANCH   5  18
BRANCH   3  22
ATOM     22  C   LIG d   1      -9.488  79.411 118.442  0.00  0.00     0.382 C 
ATOM     23  O   LIG d   1      -9.796  80.624 118.525  0.00  0.00    -0.241 OA
ATOM     24  O   LIG d   1     -10.337  78.542 118.716  0.00  0.00    -0.241 OA
ENDBRANCH   3  22
TORSDOF 7
ENDMDL
MODEL 5
REMARK VINA RESULT:      -4.6     14.336     16.919
REMARK  7 active torsions:
REMARK  status: ('A' for Active; 'I' for Inactive)
REMARK    1  A    between atoms: C_2  and  C_3 
REMARK    2  A    between atoms: C_3  and  O_6 
REMARK    3  A    between atoms: C_3  and  C_4 
REMARK    4  A    between atoms: C_7  and  O_6 
REMARK    5  A    between atoms: C_9  and  C_10 
REMARK    6  A    between atoms: N_15  and  C_14 
REMARK    7  A    between atoms: N_20  and  C_19 
REMARK       I    between atoms: C_22  and  N_20 
ROOT
ATOM      1  C   LIG d   1      -0.479  91.703 117.997  0.00  0.00     0.161 C 
ATOM      2  C   LIG d   1       0.861  92.050 118.239  0.00  0.00     0.016 C 
ATOM      3  C   LIG d   1       1.294  93.380 118.451  0.00  0.00     0.038 C 
ATOM      4  C   LIG d   1       0.387  94.442 118.587  0.00  0.00     0.028 C 
ATOM      5  C   LIG d   1      -0.928  94.214 117.849  0.00  0.00    -0.047 C 
ATOM      6  C   LIG d   1      -1.497  92.834 118.252  0.00  0.00     0.091 C 
ENDROOT
BRANCH   1   7
ATOM      7  O   LIG d   1      -0.827  90.534 118.765  0.00  0.00    -0.368 OA
BRANCH   7   8
ATOM      8  C   LIG d   1      -0.954  89.297 118.021  0.00  0.00     0.119 C 
BRANCH   8   9
ATOM      9  C   LIG d   1      -2.337  88.701 118.348  0.00  0.00     0.028 C 
ATOM     10  C   LIG d   1      -2.339  87.914 119.669  0.00  0.00     0.006 C 
ENDBRANCH   8   9
BRANCH   8  11
ATOM     11  C   LIG d   1       0.061  88.254 118.498  0.00  0.00     0.028 C 
ATOM     12  C   LIG d   1       0.524  87.315 117.372  0.00  0.00     0.006 C 
ENDBRANCH   8  11
ENDBRANCH   7   8
ENDBRANCH   1   7
BRANCH   6  13
ATOM     13  N   LIG d   1      -2.740  92.496 117.512  0.00  0.00    -0.311 N 
ATOM     14  C   LIG d   1      -3.854  92.071 118.105  0.00  0.00     0.210 C 
ATOM     15  C   LIG d   1      -5.015  91.759 117.155  0.00  0.00     0.109 C 
ATOM     16  O   LIG d   1      -4.002  91.955 119.331  0.00  0.00    -0.276 OA
ATOM     17  H   LIG d   1      -2.718  92.592 116.515  0.00  0.00     0.149 HD
ENDBRANCH   6  13
BRANCH   5  18
ATOM     18  N   LIG d   1      -1.828  95.332 118.188  0.00  0.00     0.381 N 
ATOM     19  H   LIG d   1      -2.606  95.343 117.559  0.00  0.00    -0.090 HD
ATOM     20  H   LIG d   1      -1.327  96.197 118.084  0.00  0.00    -0.090 HD
ATOM     21  H   LIG d   1      -2.151  95.238 119.126  0.00  0.00    -0.090 HD
ENDBRANCH   5  18
BRANCH   3  22
ATOM     22  C   LIG d   1       2.650  93.662 118.490  0.00  0.00     0.382 C 
ATOM     23  O   LIG d   1       3.364  93.451 117.480  0.00  0.00    -0.241 OA
ATOM     24  O   LIG d   1       3.178  94.084 119.536  0.00  0.00    -0.241 OA
ENDBRANCH   3  22
TORSDOF 7
ENDMDL
MODEL 6
REMARK VINA RESULT:      -4.5     14.839     17.379
REMARK  7 active torsions:
REMARK  status: ('A' for Active; 'I' for Inactive)
REMARK    1  A    between atoms: C_2  and  C_3 
REMARK    2  A    between atoms: C_3  and  O_6 
REMARK    3  A    between atoms: C_3  and  C_4 
REMARK    4  A    between atoms: C_7  and  O_6 
REMARK    5  A    between atoms: C_9  and  C_10 
REMARK    6  A    between atoms: N_15  and  C_14 
REMARK    7  A    between atoms: N_20  and  C_19 
REMARK       I    between atoms: C_22  and  N_20 
ROOT
ATOM      1  C   LIG d   1      -5.204  92.760 118.616  0.00  0.00     0.161 C 
ATOM      2  C   LIG d   1      -5.991  92.521 117.477  0.00  0.00     0.016 C 
ATOM      3  C   LIG d   1      -5.667  91.557 116.495  0.00  0.00     0.038 C 
ATOM      4  C   LIG d   1      -4.606  90.655 116.663  0.00  0.00     0.028 C 
ATOM      5  C   LIG d   1      -3.489  91.192 117.552  0.00  0.00    -0.047 C 
ATOM      6  C   LIG d   1      -4.104  91.709 118.873  0.00  0.00     0.091 C 
ENDROOT
BRANCH   1   7
ATOM      7  O   LIG d   1      -6.050  92.893 119.775  0.00  0.00    -0.368 OA
BRANCH   7   8
ATOM      8  C   LIG d   1      -6.272  94.243 120.251  0.00  0.00     0.119 C 
BRANCH   8   9
ATOM      9  C   LIG d   1      -7.682  94.668 119.798  0.00  0.00     0.028 C 
ATOM     10  C   LIG d   1      -7.646  95.727 118.684  0.00  0.00     0.006 C 
ENDBRANCH   8   9
BRANCH   8  11
ATOM     11  C   LIG d   1      -5.315  95.234 119.581  0.00  0.00     0.028 C 
ATOM     12  C   LIG d   1      -4.274  95.809 120.555  0.00  0.00     0.006 C 
ENDBRANCH   8  11
ENDBRANCH   7   8
ENDBRANCH   1   7
BRANCH   6  13
ATOM     13  N   LIG d   1      -3.090  92.329 119.765  0.00  0.00    -0.311 N 
ATOM     14  C   LIG d   1      -2.092  93.092 119.322  0.00  0.00     0.210 C 
ATOM     15  C   LIG d   1      -1.147  93.615 120.408  0.00  0.00     0.109 C 
ATOM     16  O   LIG d   1      -1.918  93.411 118.137  0.00  0.00    -0.276 OA
ATOM     17  H   LIG d   1      -3.174  92.147 120.746  0.00  0.00     0.149 HD
ENDBRANCH   6  13
BRANCH   5  18
ATOM     18  N   LIG d   1      -2.517  90.102 117.754  0.00  0.00     0.381 N 
ATOM     19  H   LIG d   1      -1.971  89.977 116.925  0.00  0.00    -0.090 HD
ATOM     20  H   LIG d   1      -3.017  89.249 117.933  0.00  0.00    -0.090 HD
ATOM     21  H   LIG d   1      -1.922  90.314 118.524  0.00  0.00    -0.090 HD
ENDBRANCH   5  18
BRANCH   3  22
ATOM     22  C   LIG d   1      -6.385  91.516 115.310  0.00  0.00     0.382 C 
ATOM     23  O   LIG d   1      -7.017  90.478 114.995  0.00  0.00    -0.241 OA
ATOM     24  O   LIG d   1      -6.373  92.486 114.529  0.00  0.00    -0.241 OA
ENDBRANCH   3  22
TORSDOF 7
ENDMDL
MODEL 7
REMARK VINA RESULT:      -4.4      2.725      5.693
REMARK  7 active torsions:
REMARK  status: ('A' for Active; 'I' for Inactive)
REMARK    1  A    between atoms: C_2  and  C_3 
REMARK    2  A    between atoms: C_3  and  O_6 
REMARK    3  A    between atoms: C_3  and  C_4 
REMARK    4  A    between atoms: C_7  and  O_6 
REMARK    5  A    between atoms: C_9  and  C_10 
REMARK    6  A    between atoms: N_15  and  C_14 
REMARK    7  A    between atoms: N_20  and  C_19 
REMARK       I    between atoms: C_22  and  N_20 
ROOT
ATOM      1  C   LIG d   1      -3.112  75.633 118.308  0.00  0.00     0.161 C 
ATOM      2  C   LIG d   1      -2.000  75.748 119.159  0.00  0.00     0.016 C 
ATOM      3  C   LIG d   1      -0.701  75.318 118.805  0.00  0.00     0.038 C 
ATOM      4  C   LIG d   1      -0.393  74.878 117.509  0.00  0.00     0.028 C 
ATOM      5  C   LIG d   1      -1.586  74.273 116.775  0.00  0.00    -0.047 C 
ATOM      6  C   LIG d   1      -2.774  75.259 116.850  0.00  0.00     0.091 C 
ENDROOT
BRANCH   1   7
ATOM      7  O   LIG d   1      -3.884  76.850 118.347  0.00  0.00    -0.368 OA
BRANCH   7   8
ATOM      8  C   LIG d   1      -3.410  77.933 117.509  0.00  0.00     0.119 C 
BRANCH   8   9
ATOM      9  C   LIG d   1      -3.049  79.110 118.436  0.00  0.00     0.028 C 
ATOM     10  C   LIG d   1      -1.539  79.403 118.449  0.00  0.00     0.006 C 
ENDBRANCH   8   9
BRANCH   8  11
ATOM     11  C   LIG d   1      -4.523  78.461 116.598  0.00  0.00     0.028 C 
ATOM     12  C   LIG d   1      -5.929  78.120 117.117  0.00  0.00     0.006 C 
ENDBRANCH   8  11
ENDBRANCH   7   8
ENDBRANCH   1   7
BRANCH   6  13
ATOM     13  N   LIG d   1      -4.007  74.709 116.229  0.00  0.00    -0.311 N 
ATOM     14  C   LIG d   1      -4.402  75.008 114.993  0.00  0.00     0.210 C 
ATOM     15  C   LIG d   1      -5.713  74.347 114.556  0.00  0.00     0.109 C 
ATOM     16  O   LIG d   1      -3.774  75.732 114.206  0.00  0.00    -0.276 OA
ATOM     17  H   LIG d   1      -4.560  74.088 116.787  0.00  0.00     0.149 HD
ENDBRANCH   6  13
BRANCH   5  18
ATOM     18  N   LIG d   1      -1.159  73.985 115.393  0.00  0.00     0.381 N 
ATOM     19  H   LIG d   1      -1.428  74.737 114.791  0.00  0.00    -0.090 HD
ATOM     20  H   LIG d   1      -1.620  73.149 115.078  0.00  0.00    -0.090 HD
ATOM     21  H   LIG d   1      -0.171  73.860 115.360  0.00  0.00    -0.090 HD
ENDBRANCH   5  18
BRANCH   3  22
ATOM     22  C   LIG d   1       0.299  75.287 119.765  0.00  0.00     0.382 C 
ATOM     23  O   LIG d   1       1.150  76.207 119.814  0.00  0.00    -0.241 OA
ATOM     24  O   LIG d   1       0.387  74.327 120.555  0.00  0.00    -0.241 OA
ENDBRANCH   3  22
TORSDOF 7
ENDMDL
MODEL 8
REMARK VINA RESULT:      -4.2     14.482     17.091
REMARK  7 active torsions:
REMARK  status: ('A' for Active; 'I' for Inactive)
REMARK    1  A    between atoms: C_2  and  C_3 
REMARK    2  A    between atoms: C_3  and  O_6 
REMARK    3  A    between atoms: C_3  and  C_4 
REMARK    4  A    between atoms: C_7  and  O_6 
REMARK    5  A    between atoms: C_9  and  C_10 
REMARK    6  A    between atoms: N_15  and  C_14 
REMARK    7  A    between atoms: N_20  and  C_19 
REMARK       I    between atoms: C_22  and  N_20 
ROOT
ATOM      1  C   LIG d   1       0.504  91.598 117.145  0.00  0.00     0.161 C 
ATOM      2  C   LIG d   1       1.815  92.026 117.416  0.00  0.00     0.016 C 
ATOM      3  C   LIG d   1       2.122  93.061 118.328  0.00  0.00     0.038 C 
ATOM      4  C   LIG d   1       1.144  93.641 119.150  0.00  0.00     0.028 C 
ATOM      5  C   LIG d   1      -0.257  93.592 118.550  0.00  0.00    -0.047 C 
ATOM      6  C   LIG d   1      -0.567  92.142 118.114  0.00  0.00     0.091 C 
ENDROOT
BRANCH   1   7
ATOM      7  O   LIG d   1       0.459  90.158 117.106  0.00  0.00    -0.368 OA
BRANCH   7   8
ATOM      8  C   LIG d   1      -0.017  89.502 118.307  0.00  0.00     0.119 C 
BRANCH   8   9
ATOM      9  C   LIG d   1       1.210  88.915 119.031  0.00  0.00     0.028 C 
ATOM     10  C   LIG d   1       1.517  89.644 120.350  0.00  0.00     0.006 C 
ENDBRANCH   8   9
BRANCH   8  11
ATOM     11  C   LIG d   1      -0.903  88.299 117.970  0.00  0.00     0.028 C 
ATOM     12  C   LIG d   1      -2.126  88.183 118.893  0.00  0.00     0.006 C 
ENDBRANCH   8  11
ENDBRANCH   7   8
ENDBRANCH   1   7
BRANCH   6  13
ATOM     13  N   LIG d   1      -1.886  92.021 117.439  0.00  0.00    -0.311 N 
ATOM     14  C   LIG d   1      -3.013  91.720 118.082  0.00  0.00     0.210 C 
ATOM     15  C   LIG d   1      -4.258  91.627 117.194  0.00  0.00     0.109 C 
ATOM     16  O   LIG d   1      -3.106  91.554 119.307  0.00  0.00    -0.276 OA
ATOM     17  H   LIG d   1      -1.907  92.172 116.450  0.00  0.00     0.149 HD
ENDBRANCH   6  13
BRANCH   5  18
ATOM     18  N   LIG d   1      -1.196  94.103 119.566  0.00  0.00     0.381 N 
ATOM     19  H   LIG d   1      -1.755  93.352 119.920  0.00  0.00    -0.090 HD
ATOM     20  H   LIG d   1      -1.807  94.775 119.137  0.00  0.00    -0.090 HD
ATOM     21  H   LIG d   1      -0.692  94.530 120.312  0.00  0.00    -0.090 HD
ENDBRANCH   5  18
BRANCH   3  22
ATOM     22  C   LIG d   1       3.416  93.556 118.397  0.00  0.00     0.382 C 
ATOM     23  O   LIG d   1       3.898  93.899 119.503  0.00  0.00    -0.241 OA
ATOM     24  O   LIG d   1       4.091  93.703 117.361  0.00  0.00    -0.241 OA
ENDBRANCH   3  22
TORSDOF 7
ENDMDL
MODEL 9
REMARK VINA RESULT:      -4.1     14.350     16.782
REMARK  7 active torsions:
REMARK  status: ('A' for Active; 'I' for Inactive)
REMARK    1  A    between atoms: C_2  and  C_3 
REMARK    2  A    between atoms: C_3  and  O_6 
REMARK    3  A    between atoms: C_3  and  C_4 
REMARK    4  A    between atoms: C_7  and  O_6 
REMARK    5  A    between atoms: C_9  and  C_10 
REMARK    6  A    between atoms: N_15  and  C_14 
REMARK    7  A    between atoms: N_20  and  C_19 
REMARK       I    between atoms: C_22  and  N_20 
ROOT
ATOM      1  C   LIG d   1      11.202  75.608 115.228  0.00  0.00     0.161 C 
ATOM      2  C   LIG d   1       9.948  76.224 115.081  0.00  0.00     0.016 C 
ATOM      3  C   LIG d   1       9.785  77.602 114.812  0.00  0.00     0.038 C 
ATOM      4  C   LIG d   1      10.875  78.434 114.519  0.00  0.00     0.028 C 
ATOM      5  C   LIG d   1      12.181  77.967 115.152  0.00  0.00    -0.047 C 
ATOM      6  C   LIG d   1      12.403  76.477 114.802  0.00  0.00     0.091 C 
ENDROOT
BRANCH   1   7
ATOM      7  O   LIG d   1      11.216  74.353 114.519  0.00  0.00    -0.368 OA
BRANCH   7   8
ATOM      8  C   LIG d   1      11.297  73.160 115.337  0.00  0.00     0.119 C 
BRANCH   8   9
ATOM      9  C   LIG d   1      12.655  72.492 115.047  0.00  0.00     0.028 C 
ATOM     10  C   LIG d   1      13.537  72.386 116.303  0.00  0.00     0.006 C 
ENDBRANCH   8   9
BRANCH   8  11
ATOM     11  C   LIG d   1      10.242  72.129 114.926  0.00  0.00     0.028 C 
ATOM     12  C   LIG d   1       9.820  71.212 116.085  0.00  0.00     0.006 C 
ENDBRANCH   8  11
ENDBRANCH   7   8
ENDBRANCH   1   7
BRANCH   6  13
ATOM     13  N   LIG d   1      13.617  75.917 115.451  0.00  0.00    -0.311 N 
ATOM     14  C   LIG d   1      14.827  75.947 114.894  0.00  0.00     0.210 C 
ATOM     15  C   LIG d   1      15.937  75.296 115.725  0.00  0.00     0.109 C 
ATOM     16  O   LIG d   1      15.091  76.479 113.806  0.00  0.00    -0.276 OA
ATOM     17  H   LIG d   1      13.499  75.494 116.351  0.00  0.00     0.149 HD
ENDBRANCH   6  13
BRANCH   5  18
ATOM     18  N   LIG d   1      13.257  78.844 114.653  0.00  0.00     0.381 N 
ATOM     19  H   LIG d   1      13.576  78.517 113.763  0.00  0.00    -0.090 HD
ATOM     20  H   LIG d   1      14.028  78.811 115.297  0.00  0.00    -0.090 HD
ATOM     21  H   LIG d   1      12.924  79.780 114.571  0.00  0.00    -0.090 HD
ENDBRANCH   5  18
BRANCH   3  22
ATOM     22  C   LIG d   1       8.521  78.169 114.873  0.00  0.00     0.382 C 
ATOM     23  O   LIG d   1       8.392  79.383 115.163  0.00  0.00    -0.241 OA
ATOM     24  O   LIG d   1       7.506  77.472 114.687  0.00  0.00    -0.241 OA
ENDBRANCH   3  22
TORSDOF 7
ENDMDL
