MODEL 1
REMARK VINA RESULT:      -5.7      0.000      0.000
REMARK  7 active torsions:
REMARK  status: ('A' for Active; 'I' for Inactive)
REMARK    1  A    between atoms: C_2  and  C_3 
REMARK    2  A    between atoms: C_3  and  O_6 
REMARK    3  A    between atoms: C_3  and  C_4 
REMARK    4  A    between atoms: C_7  and  O_6 
REMARK    5  A    between atoms: C_9  and  C_10 
REMARK    6  A    between atoms: N_15  and  C_14 
REMARK    7  A    between atoms: N_20  and  C_19 
REMARK       I    between atoms: C_22  and  N_20 
ROOT
ATOM      1  C   LIG d   1      -8.561  75.490 116.261  0.00  0.00     0.161 C 
ATOM      2  C   LIG d   1      -7.449  75.167 115.467  0.00  0.00     0.016 C 
ATOM      3  C   LIG d   1      -6.113  75.406 115.864  0.00  0.00     0.038 C 
ATOM      4  C   LIG d   1      -5.792  75.849 117.156  0.00  0.00     0.028 C 
ATOM      5  C   LIG d   1      -6.902  76.663 117.811  0.00  0.00    -0.047 C 
ATOM      6  C   LIG d   1      -8.227  75.871 117.719  0.00  0.00     0.091 C 
ENDROOT
BRANCH   1   7
ATOM      7  O   LIG d   1      -9.513  74.408 116.232  0.00  0.00    -0.368 OA
BRANCH   7   8
ATOM      8  C   LIG d   1      -9.266  73.317 117.152  0.00  0.00     0.119 C 
BRANCH   8   9
ATOM      9  C   LIG d   1      -9.127  72.029 116.316  0.00  0.00     0.028 C 
ATOM     10  C   LIG d   1      -7.662  71.593 116.149  0.00  0.00     0.006 C 
ENDBRANCH   8   9
BRANCH   8  11
ATOM     11  C   LIG d   1     -10.469  73.077 118.069  0.00  0.00     0.028 C 
ATOM     12  C   LIG d   1     -11.679  73.951 117.704  0.00  0.00     0.006 C 
ENDBRANCH   8  11
ENDBRANCH   7   8
ENDBRANCH   1   7
BRANCH   6  13
ATOM     13  N   LIG d   1      -9.382  76.633 118.261  0.00  0.00    -0.311 N 
ATOM     14  C   LIG d   1      -9.821  76.506 119.512  0.00  0.00     0.210 C 
ATOM     15  C   LIG d   1     -11.038  77.369 119.860  0.00  0.00     0.109 C 
ATOM     16  O   LIG d   1      -9.300  75.785 120.375  0.00  0.00    -0.276 OA
ATOM     17  H   LIG d   1      -9.845  77.265 117.637  0.00  0.00     0.149 HD
ENDBRANCH   6  13
BRANCH   5  18
ATOM     18  N   LIG d   1      -6.491  76.942 119.200  0.00  0.00     0.381 N 
ATOM     19  H   LIG d   1      -5.579  76.565 119.365  0.00  0.00    -0.090 HD
ATOM     20  H   LIG d   1      -7.136  76.492 119.826  0.00  0.00    -0.090 HD
ATOM     21  H   LIG d   1      -6.488  77.924 119.364  0.00  0.00    -0.090 HD
ENDBRANCH   5  18
BRANCH   3  22
ATOM     22  C   LIG d   1      -5.084  75.239 114.950  0.00  0.00     0.382 C 
ATOM     23  O   LIG d   1      -5.064  75.920 113.897  0.00  0.00    -0.241 OA
ATOM     24  O   LIG d   1      -4.198  74.385 115.145  0.00  0.00    -0.241 OA
ENDBRANCH   3  22
TORSDOF 7
ENDMDL
MODEL 2
REMARK VINA RESULT:      -5.7      0.875      1.992
REMARK  7 active torsions:
REMARK  status: ('A' for Active; 'I' for Inactive)
REMARK    1  A    between atoms: C_2  and  C_3 
REMARK    2  A    between atoms: C_3  and  O_6 
REMARK    3  A    between atoms: C_3  and  C_4 
REMARK    4  A    between atoms: C_7  and  O_6 
REMARK    5  A    between atoms: C_9  and  C_10 
REMARK    6  A    between atoms: N_15  and  C_14 
REMARK    7  A    between atoms: N_20  and  C_19 
REMARK       I    between atoms: C_22  and  N_20 
ROOT
ATOM      1  C   LIG d   1      -8.340  74.992 116.934  0.00  0.00     0.161 C 
ATOM      2  C   LIG d   1      -7.353  74.695 115.979  0.00  0.00     0.016 C 
ATOM      3  C   LIG d   1      -6.221  75.510 115.750  0.00  0.00     0.038 C 
ATOM      4  C   LIG d   1      -5.919  76.608 116.570  0.00  0.00     0.028 C 
ATOM      5  C   LIG d   1      -7.149  77.235 117.220  0.00  0.00    -0.047 C 
ATOM      6  C   LIG d   1      -7.970  76.125 117.914  0.00  0.00     0.091 C 
ENDROOT
BRANCH   1   7
ATOM      7  O   LIG d   1      -8.693  73.798 117.659  0.00  0.00    -0.368 OA
BRANCH   7   8
ATOM      8  C   LIG d   1      -9.805  73.036 117.128  0.00  0.00     0.119 C 
BRANCH   8   9
ATOM      9  C   LIG d   1     -11.010  73.261 118.062  0.00  0.00     0.028 C 
ATOM     10  C   LIG d   1     -11.946  74.371 117.555  0.00  0.00     0.006 C 
ENDBRANCH   8   9
BRANCH   8  11
ATOM     11  C   LIG d   1      -9.526  71.531 117.183  0.00  0.00     0.028 C 
ATOM     12  C   LIG d   1      -8.448  71.088 116.181  0.00  0.00     0.006 C 
ENDBRANCH   8  11
ENDBRANCH   7   8
ENDBRANCH   1   7
BRANCH   6  13
ATOM     13  N   LIG d   1      -9.234  76.640 118.503  0.00  0.00    -0.311 N 
ATOM     14  C   LIG d   1      -9.636  76.355 119.741  0.00  0.00     0.210 C 
ATOM     15  C   LIG d   1     -10.979  76.972 120.143  0.00  0.00     0.109 C 
ATOM     16  O   LIG d   1      -8.991  75.676 120.555  0.00  0.00    -0.276 OA
ATOM     17  H   LIG d   1      -9.803  77.224 117.922  0.00  0.00     0.149 HD
ENDBRANCH   6  13
BRANCH   5  18
ATOM     18  N   LIG d   1      -6.678  78.276 118.153  0.00  0.00     0.381 N 
ATOM     19  H   LIG d   1      -6.348  79.068 117.638  0.00  0.00    -0.090 HD
ATOM     20  H   LIG d   1      -5.913  77.908 118.691  0.00  0.00    -0.090 HD
ATOM     21  H   LIG d   1      -7.419  78.550 118.759  0.00  0.00    -0.090 HD
ENDBRANCH   5  18
BRANCH   3  22
ATOM     22  C   LIG d   1      -5.398  75.254 114.664  0.00  0.00     0.382 C 
ATOM     23  O   LIG d   1      -5.306  74.089 114.208  0.00  0.00    -0.241 OA
ATOM     24  O   LIG d   1      -4.712  76.165 114.162  0.00  0.00    -0.241 OA
ENDBRANCH   3  22
TORSDOF 7
ENDMDL
MODEL 3
REMARK VINA RESULT:      -5.5      1.985      4.989
REMARK  7 active torsions:
REMARK  status: ('A' for Active; 'I' for Inactive)
REMARK    1  A    between atoms: C_2  and  C_3 
REMARK    2  A    between atoms: C_3  and  O_6 
REMARK    3  A    between atoms: C_3  and  C_4 
REMARK    4  A    between atoms: C_7  and  O_6 
REMARK    5  A    between atoms: C_9  and  C_10 
REMARK    6  A    between atoms: N_15  and  C_14 
REMARK    7  A    between atoms: N_20  and  C_19 
REMARK       I    between atoms: C_22  and  N_20 
ROOT
ATOM      1  C   LIG d   1      -8.605  75.114 117.183  0.00  0.00     0.161 C 
ATOM      2  C   LIG d   1      -9.997  74.940 117.247  0.00  0.00     0.016 C 
ATOM      3  C   LIG d   1     -10.847  75.745 118.041  0.00  0.00     0.038 C 
ATOM      4  C   LIG d   1     -10.376  76.883 118.712  0.00  0.00     0.028 C 
ATOM      5  C   LIG d   1      -8.898  76.800 119.081  0.00  0.00    -0.047 C 
ATOM      6  C   LIG d   1      -8.087  76.420 117.822  0.00  0.00     0.091 C 
ENDROOT
BRANCH   1   7
ATOM      7  O   LIG d   1      -8.162  75.015 115.815  0.00  0.00    -0.368 OA
BRANCH   7   8
ATOM      8  C   LIG d   1      -7.420  73.820 115.470  0.00  0.00     0.119 C 
BRANCH   8   9
ATOM      9  C   LIG d   1      -7.474  72.874 116.686  0.00  0.00     0.028 C 
ATOM     10  C   LIG d   1      -8.017  71.482 116.324  0.00  0.00     0.006 C 
ENDBRANCH   8   9
BRANCH   8  11
ATOM     11  C   LIG d   1      -5.935  74.127 115.261  0.00  0.00     0.028 C 
ATOM     12  C   LIG d   1      -5.700  75.340 114.348  0.00  0.00     0.006 C 
ENDBRANCH   8  11
ENDBRANCH   7   8
ENDBRANCH   1   7
BRANCH   6  13
ATOM     13  N   LIG d   1      -6.641  76.235 118.113  0.00  0.00    -0.311 N 
ATOM     14  C   LIG d   1      -5.681  76.973 117.558  0.00  0.00     0.210 C 
ATOM     15  C   LIG d   1      -4.256  76.604 117.981  0.00  0.00     0.109 C 
ATOM     16  O   LIG d   1      -5.877  77.919 116.781  0.00  0.00    -0.276 OA
ATOM     17  H   LIG d   1      -6.395  75.510 118.758  0.00  0.00     0.149 HD
ENDBRANCH   6  13
BRANCH   5  18
ATOM     18  N   LIG d   1      -8.507  78.104 119.650  0.00  0.00     0.381 N 
ATOM     19  H   LIG d   1      -7.824  77.969 120.368  0.00  0.00    -0.090 HD
ATOM     20  H   LIG d   1      -9.316  78.535 120.061  0.00  0.00    -0.090 HD
ATOM     21  H   LIG d   1      -8.137  78.690 118.935  0.00  0.00    -0.090 HD
ENDBRANCH   5  18
BRANCH   3  22
ATOM     22  C   LIG d   1     -12.178  75.390 118.200  0.00  0.00     0.382 C 
ATOM     23  O   LIG d   1     -12.990  76.209 118.692  0.00  0.00    -0.241 OA
ATOM     24  O   LIG d   1     -12.567  74.245 117.900  0.00  0.00    -0.241 OA
ENDBRANCH   3  22
TORSDOF 7
ENDMDL
MODEL 4
REMARK VINA RESULT:      -5.5      1.998      4.902
REMARK  7 active torsions:
REMARK  status: ('A' for Active; 'I' for Inactive)
REMARK    1  A    between atoms: C_2  and  C_3 
REMARK    2  A    between atoms: C_3  and  O_6 
REMARK    3  A    between atoms: C_3  and  C_4 
REMARK    4  A    between atoms: C_7  and  O_6 
REMARK    5  A    between atoms: C_9  and  C_10 
REMARK    6  A    between atoms: N_15  and  C_14 
REMARK    7  A    between atoms: N_20  and  C_19 
REMARK       I    between atoms: C_22  and  N_20 
ROOT
ATOM      1  C   LIG d   1      -8.832  74.576 117.730  0.00  0.00     0.161 C 
ATOM      2  C   LIG d   1     -10.236  74.597 117.713  0.00  0.00     0.016 C 
ATOM      3  C   LIG d   1     -11.005  75.667 118.226  0.00  0.00     0.038 C 
ATOM      4  C   LIG d   1     -10.415  76.865 118.656  0.00  0.00     0.028 C 
ATOM      5  C   LIG d   1      -8.986  76.689 119.160  0.00  0.00    -0.047 C 
ATOM      6  C   LIG d   1      -8.170  75.922 118.094  0.00  0.00     0.091 C 
ENDROOT
BRANCH   1   7
ATOM      7  O   LIG d   1      -8.334  74.100 116.464  0.00  0.00    -0.368 OA
BRANCH   7   8
ATOM      8  C   LIG d   1      -7.407  72.988 116.521  0.00  0.00     0.119 C 
BRANCH   8   9
ATOM      9  C   LIG d   1      -6.160  73.383 115.708  0.00  0.00     0.028 C 
ATOM     10  C   LIG d   1      -6.428  74.563 114.757  0.00  0.00     0.006 C 
ENDBRANCH   8   9
BRANCH   8  11
ATOM     11  C   LIG d   1      -7.976  71.752 115.817  0.00  0.00     0.028 C 
ATOM     12  C   LIG d   1      -9.180  71.147 116.556  0.00  0.00     0.006 C 
ENDBRANCH   8  11
ENDBRANCH   7   8
ENDBRANCH   1   7
BRANCH   6  13
ATOM     13  N   LIG d   1      -6.782  75.634 118.543  0.00  0.00    -0.311 N 
ATOM     14  C   LIG d   1      -5.708  76.235 118.035  0.00  0.00     0.210 C 
ATOM     15  C   LIG d   1      -4.371  75.776 118.625  0.00  0.00     0.109 C 
ATOM     16  O   LIG d   1      -5.737  77.127 117.174  0.00  0.00    -0.276 OA
ATOM     17  H   LIG d   1      -6.669  74.945 119.260  0.00  0.00     0.149 HD
ENDBRANCH   6  13
BRANCH   5  18
ATOM     18  N   LIG d   1      -8.446  78.031 119.446  0.00  0.00     0.381 N 
ATOM     19  H   LIG d   1      -7.723  78.252 118.791  0.00  0.00    -0.090 HD
ATOM     20  H   LIG d   1      -8.047  78.032 120.368  0.00  0.00    -0.090 HD
ATOM     21  H   LIG d   1      -9.173  78.710 119.390  0.00  0.00    -0.090 HD
ENDBRANCH   5  18
BRANCH   3  22
ATOM     22  C   LIG d   1     -12.379  75.529 118.348  0.00  0.00     0.382 C 
ATOM     23  O   LIG d   1     -12.959  74.545 117.829  0.00  0.00    -0.241 OA
ATOM     24  O   LIG d   1     -13.052  76.398 118.934  0.00  0.00    -0.241 OA
ENDBRANCH   3  22
TORSDOF 7
ENDMDL
MODEL 5
REMARK VINA RESULT:      -5.2     15.819     17.597
REMARK  7 active torsions:
REMARK  status: ('A' for Active; 'I' for Inactive)
REMARK    1  A    between atoms: C_2  and  C_3 
REMARK    2  A    between atoms: C_3  and  O_6 
REMARK    3  A    between atoms: C_3  and  C_4 
REMARK    4  A    between atoms: C_7  and  O_6 
REMARK    5  A    between atoms: C_9  and  C_10 
REMARK    6  A    between atoms: N_15  and  C_14 
REMARK    7  A    between atoms: N_20  and  C_19 
REMARK       I    between atoms: C_22  and  N_20 
ROOT
ATOM      1  C   LIG d   1      -4.698  91.509 117.464  0.00  0.00     0.161 C 
ATOM      2  C   LIG d   1      -3.733  92.334 118.065  0.00  0.00     0.016 C 
ATOM      3  C   LIG d   1      -4.056  93.441 118.883  0.00  0.00     0.038 C 
ATOM      4  C   LIG d   1      -5.374  93.709 119.281  0.00  0.00     0.028 C 
ATOM      5  C   LIG d   1      -6.420  93.206 118.292  0.00  0.00    -0.047 C 
ATOM      6  C   LIG d   1      -6.138  91.719 117.977  0.00  0.00     0.091 C 
ENDROOT
BRANCH   1   7
ATOM      7  O   LIG d   1      -4.313  90.127 117.602  0.00  0.00    -0.368 OA
BRANCH   7   8
ATOM      8  C   LIG d   1      -2.915  89.881 117.892  0.00  0.00     0.119 C 
BRANCH   8   9
ATOM      9  C   LIG d   1      -2.335  89.070 116.717  0.00  0.00     0.028 C 
ATOM     10  C   LIG d   1      -0.799  88.995 116.757  0.00  0.00     0.006 C 
ENDBRANCH   8   9
BRANCH   8  11
ATOM     11  C   LIG d   1      -2.750  88.985 119.123  0.00  0.00     0.028 C 
ATOM     12  C   LIG d   1      -2.213  89.746 120.346  0.00  0.00     0.006 C 
ENDBRANCH   8  11
ENDBRANCH   7   8
ENDBRANCH   1   7
BRANCH   6  13
ATOM     13  N   LIG d   1      -7.065  91.170 116.953  0.00  0.00    -0.311 N 
ATOM     14  C   LIG d   1      -6.984  91.467 115.657  0.00  0.00     0.210 C 
ATOM     15  C   LIG d   1      -8.050  90.810 114.775  0.00  0.00     0.109 C 
ATOM     16  O   LIG d   1      -6.110  92.187 115.150  0.00  0.00    -0.276 OA
ATOM     17  H   LIG d   1      -7.785  90.553 117.273  0.00  0.00     0.149 HD
ENDBRANCH   6  13
BRANCH   5  18
ATOM     18  N   LIG d   1      -7.747  93.427 118.896  0.00  0.00     0.381 N 
ATOM     19  H   LIG d   1      -8.137  92.553 119.188  0.00  0.00    -0.090 HD
ATOM     20  H   LIG d   1      -8.356  93.829 118.205  0.00  0.00    -0.090 HD
ATOM     21  H   LIG d   1      -7.669  94.041 119.677  0.00  0.00    -0.090 HD
ENDBRANCH   5  18
BRANCH   3  22
ATOM     22  C   LIG d   1      -3.057  94.318 119.279  0.00  0.00     0.382 C 
ATOM     23  O   LIG d   1      -1.895  94.193 118.822  0.00  0.00    -0.241 OA
ATOM     24  O   LIG d   1      -3.293  95.205 120.120  0.00  0.00    -0.241 OA
ENDBRANCH   3  22
TORSDOF 7
ENDMDL
MODEL 6
REMARK VINA RESULT:      -5.2      2.121      4.431
REMARK  7 active torsions:
REMARK  status: ('A' for Active; 'I' for Inactive)
REMARK    1  A    between atoms: C_2  and  C_3 
REMARK    2  A    between atoms: C_3  and  O_6 
REMARK    3  A    between atoms: C_3  and  C_4 
REMARK    4  A    between atoms: C_7  and  O_6 
REMARK    5  A    between atoms: C_9  and  C_10 
REMARK    6  A    between atoms: N_15  and  C_14 
REMARK    7  A    between atoms: N_20  and  C_19 
REMARK       I    between atoms: C_22  and  N_20 
ROOT
ATOM      1  C   LIG d   1      -7.446  74.461 117.667  0.00  0.00     0.161 C 
ATOM      2  C   LIG d   1      -7.481  73.231 116.990  0.00  0.00     0.016 C 
ATOM      3  C   LIG d   1      -8.667  72.491 116.780  0.00  0.00     0.038 C 
ATOM      4  C   LIG d   1      -9.930  73.008 117.105  0.00  0.00     0.028 C 
ATOM      5  C   LIG d   1      -9.896  74.021 118.245  0.00  0.00    -0.047 C 
ATOM      6  C   LIG d   1      -8.828  75.094 117.931  0.00  0.00     0.091 C 
ENDROOT
BRANCH   1   7
ATOM      7  O   LIG d   1      -6.599  75.387 116.957  0.00  0.00    -0.368 OA
BRANCH   7   8
ATOM      8  C   LIG d   1      -5.503  74.803 116.210  0.00  0.00     0.119 C 
BRANCH   8   9
ATOM      9  C   LIG d   1      -4.192  75.252 116.884  0.00  0.00     0.028 C 
ATOM     10  C   LIG d   1      -3.487  74.100 117.621  0.00  0.00     0.006 C 
ENDBRANCH   8   9
BRANCH   8  11
ATOM     11  C   LIG d   1      -5.439  75.363 114.786  0.00  0.00     0.028 C 
ATOM     12  C   LIG d   1      -6.828  75.532 114.150  0.00  0.00     0.006 C 
ENDBRANCH   8  11
ENDBRANCH   7   8
ENDBRANCH   1   7
BRANCH   6  13
ATOM     13  N   LIG d   1      -8.670  76.077 119.035  0.00  0.00    -0.311 N 
ATOM     14  C   LIG d   1      -9.391  77.193 119.131  0.00  0.00     0.210 C 
ATOM     15  C   LIG d   1      -9.054  78.077 120.336  0.00  0.00     0.109 C 
ATOM     16  O   LIG d   1     -10.298  77.518 118.351  0.00  0.00    -0.276 OA
ATOM     17  H   LIG d   1      -7.977  75.875 119.729  0.00  0.00     0.149 HD
ENDBRANCH   6  13
BRANCH   5  18
ATOM     18  N   LIG d   1     -11.253  74.580 118.386  0.00  0.00     0.381 N 
ATOM     19  H   LIG d   1     -11.202  75.574 118.483  0.00  0.00    -0.090 HD
ATOM     20  H   LIG d   1     -11.675  74.203 119.217  0.00  0.00    -0.090 HD
ATOM     21  H   LIG d   1     -11.804  74.344 117.590  0.00  0.00    -0.090 HD
ENDBRANCH   5  18
BRANCH   3  22
ATOM     22  C   LIG d   1      -8.593  71.202 116.277  0.00  0.00     0.382 C 
ATOM     23  O   LIG d   1      -9.504  70.377 116.529  0.00  0.00    -0.241 OA
ATOM     24  O   LIG d   1      -7.605  70.840 115.609  0.00  0.00    -0.241 OA
ENDBRANCH   3  22
TORSDOF 7
ENDMDL
MODEL 7
REMARK VINA RESULT:      -5.1     15.539     17.319
REMARK  7 active torsions:
REMARK  status: ('A' for Active; 'I' for Inactive)
REMARK    1  A    between atoms: C_2  and  C_3 
REMARK    2  A    between atoms: C_3  and  O_6 
REMARK    3  A    between atoms: C_3  and  C_4 
REMARK    4  A    between atoms: C_7  and  O_6 
REMARK    5  A    between atoms: C_9  and  C_10 
REMARK    6  A    between atoms: N_15  and  C_14 
REMARK    7  A    between atoms: N_20  and  C_19 
REMARK       I    between atoms: C_22  and  N_20 
ROOT
ATOM      1  C   LIG d   1      -4.450  91.169 117.544  0.00  0.00     0.161 C 
ATOM      2  C   LIG d   1      -5.379  90.578 116.672  0.00  0.00     0.016 C 
ATOM      3  C   LIG d   1      -6.591  91.198 116.289  0.00  0.00     0.038 C 
ATOM      4  C   LIG d   1      -6.887  92.525 116.636  0.00  0.00     0.028 C 
ATOM      5  C   LIG d   1      -6.214  92.977 117.928  0.00  0.00    -0.047 C 
ATOM      6  C   LIG d   1      -4.704  92.661 117.845  0.00  0.00     0.091 C 
ENDROOT
BRANCH   1   7
ATOM      7  O   LIG d   1      -3.114  90.980 117.037  0.00  0.00    -0.368 OA
BRANCH   7   8
ATOM      8  C   LIG d   1      -2.244  90.139 117.832  0.00  0.00     0.119 C 
BRANCH   8   9
ATOM      9  C   LIG d   1      -1.895  88.900 116.983  0.00  0.00     0.028 C 
ATOM     10  C   LIG d   1      -0.469  88.389 117.249  0.00  0.00     0.006 C 
ENDBRANCH   8   9
BRANCH   8  11
ATOM     11  C   LIG d   1      -2.969  89.594 119.065  0.00  0.00     0.028 C 
ATOM     12  C   LIG d   1      -2.296  90.006 120.384  0.00  0.00     0.006 C 
ENDBRANCH   8  11
ENDBRANCH   7   8
ENDBRANCH   1   7
BRANCH   6  13
ATOM     13  N   LIG d   1      -3.984  92.995 119.102  0.00  0.00    -0.311 N 
ATOM     14  C   LIG d   1      -2.808  93.619 119.129  0.00  0.00     0.210 C 
ATOM     15  C   LIG d   1      -2.231  93.849 120.530  0.00  0.00     0.109 C 
ATOM     16  O   LIG d   1      -2.203  94.032 118.129  0.00  0.00    -0.276 OA
ATOM     17  H   LIG d   1      -4.419  92.724 119.962  0.00  0.00     0.149 HD
ENDBRANCH   6  13
BRANCH   5  18
ATOM     18  N   LIG d   1      -6.496  94.415 118.097  0.00  0.00     0.381 N 
ATOM     19  H   LIG d   1      -6.787  94.808 117.224  0.00  0.00    -0.090 HD
ATOM     20  H   LIG d   1      -5.653  94.880 118.386  0.00  0.00    -0.090 HD
ATOM     21  H   LIG d   1      -7.208  94.545 118.782  0.00  0.00    -0.090 HD
ENDBRANCH   5  18
BRANCH   3  22
ATOM     22  C   LIG d   1      -7.540  90.475 115.583  0.00  0.00     0.382 C 
ATOM     23  O   LIG d   1      -8.288  91.057 114.760  0.00  0.00    -0.241 OA
ATOM     24  O   LIG d   1      -7.688  89.256 115.791  0.00  0.00    -0.241 OA
ENDBRANCH   3  22
TORSDOF 7
ENDMDL
MODEL 8
REMARK VINA RESULT:      -4.8     16.241     18.185
REMARK  7 active torsions:
REMARK  status: ('A' for Active; 'I' for Inactive)
REMARK    1  A    between atoms: C_2  and  C_3 
REMARK    2  A    between atoms: C_3  and  O_6 
REMARK    3  A    between atoms: C_3  and  C_4 
REMARK    4  A    between atoms: C_7  and  O_6 
REMARK    5  A    between atoms: C_9  and  C_10 
REMARK    6  A    between atoms: N_15  and  C_14 
REMARK    7  A    between atoms: N_20  and  C_19 
REMARK       I    between atoms: C_22  and  N_20 
ROOT
ATOM      1  C   LIG d   1      -5.275  92.196 118.383  0.00  0.00     0.161 C 
ATOM      2  C   LIG d   1      -4.130  92.191 119.197  0.00  0.00     0.016 C 
ATOM      3  C   LIG d   1      -2.966  91.447 118.899  0.00  0.00     0.038 C 
ATOM      4  C   LIG d   1      -2.811  90.770 117.680  0.00  0.00     0.028 C 
ATOM      5  C   LIG d   1      -4.133  90.334 117.057  0.00  0.00    -0.047 C 
ATOM      6  C   LIG d   1      -5.084  91.552 116.994  0.00  0.00     0.091 C 
ENDROOT
BRANCH   1   7
ATOM      7  O   LIG d   1      -5.773  93.542 118.247  0.00  0.00    -0.368 OA
BRANCH   7   8
ATOM      8  C   LIG d   1      -6.066  94.241 119.482  0.00  0.00     0.119 C 
BRANCH   8   9
ATOM      9  C   LIG d   1      -7.599  94.315 119.619  0.00  0.00     0.028 C 
ATOM     10  C   LIG d   1      -8.294  94.609 118.279  0.00  0.00     0.006 C 
ENDBRANCH   8   9
BRANCH   8  11
ATOM     11  C   LIG d   1      -5.593  95.696 119.424  0.00  0.00     0.028 C 
ATOM     12  C   LIG d   1      -4.073  95.836 119.603  0.00  0.00     0.006 C 
ENDBRANCH   8  11
ENDBRANCH   7   8
ENDBRANCH   1   7
BRANCH   6  13
ATOM     13  N   LIG d   1      -6.429  91.194 116.475  0.00  0.00    -0.311 N 
ATOM     14  C   LIG d   1      -6.818  91.428 115.222  0.00  0.00     0.210 C 
ATOM     15  C   LIG d   1      -8.252  90.999 114.899  0.00  0.00     0.109 C 
ATOM     16  O   LIG d   1      -6.099  91.920 114.339  0.00  0.00    -0.276 OA
ATOM     17  H   LIG d   1      -7.066  90.762 117.116  0.00  0.00     0.149 HD
ENDBRANCH   6  13
BRANCH   5  18
ATOM     18  N   LIG d   1      -3.834  89.766 115.729  0.00  0.00     0.381 N 
ATOM     19  H   LIG d   1      -2.966  89.269 115.761  0.00  0.00    -0.090 HD
ATOM     20  H   LIG d   1      -3.743  90.516 115.067  0.00  0.00    -0.090 HD
ATOM     21  H   LIG d   1      -4.566  89.152 115.448  0.00  0.00    -0.090 HD
ENDBRANCH   5  18
BRANCH   3  22
ATOM     22  C   LIG d   1      -1.957  91.341 119.843  0.00  0.00     0.382 C 
ATOM     23  O   LIG d   1      -1.658  92.331 120.555  0.00  0.00    -0.241 OA
ATOM     24  O   LIG d   1      -1.311  90.283 119.963  0.00  0.00    -0.241 OA
ENDBRANCH   3  22
TORSDOF 7
ENDMDL
MODEL 9
REMARK VINA RESULT:      -4.8      1.969      4.978
REMARK  7 active torsions:
REMARK  status: ('A' for Active; 'I' for Inactive)
REMARK    1  A    between atoms: C_2  and  C_3 
REMARK    2  A    between atoms: C_3  and  O_6 
REMARK    3  A    between atoms: C_3  and  C_4 
REMARK    4  A    between atoms: C_7  and  O_6 
REMARK    5  A    between atoms: C_9  and  C_10 
REMARK    6  A    between atoms: N_15  and  C_14 
REMARK    7  A    between atoms: N_20  and  C_19 
REMARK       I    between atoms: C_22  and  N_20 
ROOT
ATOM      1  C   LIG d   1      -8.299  75.468 119.192  0.00  0.00     0.161 C 
ATOM      2  C   LIG d   1      -9.373  76.356 119.371  0.00  0.00     0.016 C 
ATOM      3  C   LIG d   1      -9.350  77.702 118.939  0.00  0.00     0.038 C 
ATOM      4  C   LIG d   1      -8.302  78.212 118.158  0.00  0.00     0.028 C 
ATOM      5  C   LIG d   1      -6.974  77.499 118.385  0.00  0.00    -0.047 C 
ATOM      6  C   LIG d   1      -7.193  75.975 118.243  0.00  0.00     0.091 C 
ENDROOT
BRANCH   1   7
ATOM      7  O   LIG d   1      -8.793  74.189 118.747  0.00  0.00    -0.368 OA
BRANCH   7   8
ATOM      8  C   LIG d   1      -9.549  74.192 117.511  0.00  0.00     0.119 C 
BRANCH   8   9
ATOM      9  C   LIG d   1     -10.909  73.527 117.799  0.00  0.00     0.028 C 
ATOM     10  C   LIG d   1     -12.074  74.530 117.754  0.00  0.00     0.006 C 
ENDBRANCH   8   9
BRANCH   8  11
ATOM     11  C   LIG d   1      -8.884  73.311 116.449  0.00  0.00     0.028 C 
ATOM     12  C   LIG d   1      -9.406  71.866 116.461  0.00  0.00     0.006 C 
ENDBRANCH   8  11
ENDBRANCH   7   8
ENDBRANCH   1   7
BRANCH   6  13
ATOM     13  N   LIG d   1      -5.960  75.196 118.533  0.00  0.00    -0.311 N 
ATOM     14  C   LIG d   1      -5.318  74.472 117.618  0.00  0.00     0.210 C 
ATOM     15  C   LIG d   1      -4.080  73.731 118.132  0.00  0.00     0.109 C 
ATOM     16  O   LIG d   1      -5.638  74.400 116.422  0.00  0.00    -0.276 OA
ATOM     17  H   LIG d   1      -5.614  75.224 119.472  0.00  0.00     0.149 HD
ENDBRANCH   6  13
BRANCH   5  18
ATOM     18  N   LIG d   1      -6.006  78.037 117.411  0.00  0.00     0.381 N 
ATOM     19  H   LIG d   1      -6.365  77.931 116.483  0.00  0.00    -0.090 HD
ATOM     20  H   LIG d   1      -5.151  77.515 117.480  0.00  0.00    -0.090 HD
ATOM     21  H   LIG d   1      -5.832  79.000 117.600  0.00  0.00    -0.090 HD
ENDBRANCH   5  18
BRANCH   3  22
ATOM     22  C   LIG d   1     -10.366  78.565 119.323  0.00  0.00     0.382 C 
ATOM     23  O   LIG d   1     -11.129  78.253 120.269  0.00  0.00    -0.241 OA
ATOM     24  O   LIG d   1     -10.556  79.630 118.707  0.00  0.00    -0.241 OA
ENDBRANCH   3  22
TORSDOF 7
ENDMDL
