MODEL 1
REMARK VINA RESULT:      -5.7      0.000      0.000
REMARK  7 active torsions:
REMARK  status: ('A' for Active; 'I' for Inactive)
REMARK    1  A    between atoms: C_2  and  C_3 
REMARK    2  A    between atoms: C_3  and  O_6 
REMARK    3  A    between atoms: C_3  and  C_4 
REMARK    4  A    between atoms: C_7  and  O_6 
REMARK    5  A    between atoms: C_9  and  C_10 
REMARK    6  A    between atoms: N_15  and  C_14 
REMARK    7  A    between atoms: N_20  and  C_19 
REMARK       I    between atoms: C_22  and  N_20 
ROOT
ATOM      1  C   LIG d   1      -6.729  92.632 118.038  0.00  0.00     0.161 C 
ATOM      2  C   LIG d   1      -5.684  93.355 118.637  0.00  0.00     0.016 C 
ATOM      3  C   LIG d   1      -4.316  93.076 118.414  0.00  0.00     0.038 C 
ATOM      4  C   LIG d   1      -3.897  92.145 117.452  0.00  0.00     0.028 C 
ATOM      5  C   LIG d   1      -4.916  91.041 117.193  0.00  0.00    -0.047 C 
ATOM      6  C   LIG d   1      -6.290  91.685 116.901  0.00  0.00     0.091 C 
ENDROOT
BRANCH   1   7
ATOM      7  O   LIG d   1      -7.746  93.539 117.570  0.00  0.00    -0.368 OA
BRANCH   7   8
ATOM      8  C   LIG d   1      -8.072  94.640 118.453  0.00  0.00     0.119 C 
BRANCH   8   9
ATOM      9  C   LIG d   1      -9.161  94.147 119.426  0.00  0.00     0.028 C 
ATOM     10  C   LIG d   1     -10.011  95.299 119.988  0.00  0.00     0.006 C 
ENDBRANCH   8   9
BRANCH   8  11
ATOM     11  C   LIG d   1      -8.712  95.800 117.684  0.00  0.00     0.028 C 
ATOM     12  C   LIG d   1      -7.725  96.945 117.403  0.00  0.00     0.006 C 
ENDBRANCH   8  11
ENDBRANCH   7   8
ENDBRANCH   1   7
BRANCH   6  13
ATOM     13  N   LIG d   1      -7.364  90.673 116.719  0.00  0.00    -0.311 N 
ATOM     14  C   LIG d   1      -7.640  90.100 115.549  0.00  0.00     0.210 C 
ATOM     15  C   LIG d   1      -8.799  89.098 115.578  0.00  0.00     0.109 C 
ATOM     16  O   LIG d   1      -7.015  90.302 114.497  0.00  0.00    -0.276 OA
ATOM     17  H   LIG d   1      -7.900  90.427 117.527  0.00  0.00     0.149 HD
ENDBRANCH   6  13
BRANCH   5  18
ATOM     18  N   LIG d   1      -4.412  90.222 116.075  0.00  0.00     0.381 N 
ATOM     19  H   LIG d   1      -3.659  89.643 116.391  0.00  0.00    -0.090 HD
ATOM     20  H   LIG d   1      -4.061  90.832 115.357  0.00  0.00    -0.090 HD
ATOM     21  H   LIG d   1      -5.145  89.654 115.710  0.00  0.00    -0.090 HD
ENDBRANCH   5  18
BRANCH   3  22
ATOM     22  C   LIG d   1      -3.352  93.705 119.186  0.00  0.00     0.382 C 
ATOM     23  O   LIG d   1      -2.237  93.157 119.365  0.00  0.00    -0.241 OA
ATOM     24  O   LIG d   1      -3.598  94.791 119.743  0.00  0.00    -0.241 OA
ENDBRANCH   3  22
TORSDOF 7
ENDMDL
MODEL 2
REMARK VINA RESULT:      -5.2     13.760     16.746
REMARK  7 active torsions:
REMARK  status: ('A' for Active; 'I' for Inactive)
REMARK    1  A    between atoms: C_2  and  C_3 
REMARK    2  A    between atoms: C_3  and  O_6 
REMARK    3  A    between atoms: C_3  and  C_4 
REMARK    4  A    between atoms: C_7  and  O_6 
REMARK    5  A    between atoms: C_9  and  C_10 
REMARK    6  A    between atoms: N_15  and  C_14 
REMARK    7  A    between atoms: N_20  and  C_19 
REMARK       I    between atoms: C_22  and  N_20 
ROOT
ATOM      1  C   LIG d   1      -6.872  76.836 117.340  0.00  0.00     0.161 C 
ATOM      2  C   LIG d   1      -8.230  76.916 117.689  0.00  0.00     0.016 C 
ATOM      3  C   LIG d   1      -8.882  78.130 118.006  0.00  0.00     0.038 C 
ATOM      4  C   LIG d   1      -8.251  79.373 117.848  0.00  0.00     0.028 C 
ATOM      5  C   LIG d   1      -6.734  79.305 117.985  0.00  0.00    -0.047 C 
ATOM      6  C   LIG d   1      -6.196  78.194 117.055  0.00  0.00     0.091 C 
ENDROOT
BRANCH   1   7
ATOM      7  O   LIG d   1      -6.707  75.949 116.217  0.00  0.00    -0.368 OA
BRANCH   7   8
ATOM      8  C   LIG d   1      -5.960  74.733 116.469  0.00  0.00     0.119 C 
BRANCH   8   9
ATOM      9  C   LIG d   1      -5.344  74.282 115.130  0.00  0.00     0.028 C 
ATOM     10  C   LIG d   1      -4.566  75.410 114.433  0.00  0.00     0.006 C 
ENDBRANCH   8   9
BRANCH   8  11
ATOM     11  C   LIG d   1      -6.886  73.589 116.895  0.00  0.00     0.028 C 
ATOM     12  C   LIG d   1      -6.595  72.278 116.149  0.00  0.00     0.006 C 
ENDBRANCH   8  11
ENDBRANCH   7   8
ENDBRANCH   1   7
BRANCH   6  13
ATOM     13  N   LIG d   1      -4.728  78.003 117.190  0.00  0.00    -0.311 N 
ATOM     14  C   LIG d   1      -3.836  78.597 116.401  0.00  0.00     0.210 C 
ATOM     15  C   LIG d   1      -2.374  78.248 116.699  0.00  0.00     0.109 C 
ATOM     16  O   LIG d   1      -4.114  79.406 115.503  0.00  0.00    -0.276 OA
ATOM     17  H   LIG d   1      -4.413  77.387 117.914  0.00  0.00     0.149 HD
ENDBRANCH   6  13
BRANCH   5  18
ATOM     18  N   LIG d   1      -6.197  80.640 117.663  0.00  0.00     0.381 N 
ATOM     19  H   LIG d   1      -5.256  80.555 117.331  0.00  0.00    -0.090 HD
ATOM     20  H   LIG d   1      -6.188  81.198 118.498  0.00  0.00    -0.090 HD
ATOM     21  H   LIG d   1      -6.763  81.077 116.969  0.00  0.00    -0.090 HD
ENDBRANCH   5  18
BRANCH   3  22
ATOM     22  C   LIG d   1     -10.168  78.105 118.525  0.00  0.00     0.382 C 
ATOM     23  O   LIG d   1     -10.876  77.077 118.396  0.00  0.00    -0.241 OA
ATOM     24  O   LIG d   1     -10.644  79.112 119.081  0.00  0.00    -0.241 OA
ENDBRANCH   3  22
TORSDOF 7
ENDMDL
MODEL 3
REMARK VINA RESULT:      -5.0     13.474     16.536
REMARK  7 active torsions:
REMARK  status: ('A' for Active; 'I' for Inactive)
REMARK    1  A    between atoms: C_2  and  C_3 
REMARK    2  A    between atoms: C_3  and  O_6 
REMARK    3  A    between atoms: C_3  and  C_4 
REMARK    4  A    between atoms: C_7  and  O_6 
REMARK    5  A    between atoms: C_9  and  C_10 
REMARK    6  A    between atoms: N_15  and  C_14 
REMARK    7  A    between atoms: N_20  and  C_19 
REMARK       I    between atoms: C_22  and  N_20 
ROOT
ATOM      1  C   LIG d   1      -6.830  77.129 118.509  0.00  0.00     0.161 C 
ATOM      2  C   LIG d   1      -8.121  76.597 118.666  0.00  0.00     0.016 C 
ATOM      3  C   LIG d   1      -9.297  77.381 118.619  0.00  0.00     0.038 C 
ATOM      4  C   LIG d   1      -9.270  78.737 118.259  0.00  0.00     0.028 C 
ATOM      5  C   LIG d   1      -7.949  79.425 118.587  0.00  0.00    -0.047 C 
ATOM      6  C   LIG d   1      -6.788  78.587 118.005  0.00  0.00     0.091 C 
ENDROOT
BRANCH   1   7
ATOM      7  O   LIG d   1      -6.053  76.277 117.644  0.00  0.00    -0.368 OA
BRANCH   7   8
ATOM      8  C   LIG d   1      -6.785  75.592 116.599  0.00  0.00     0.119 C 
BRANCH   8   9
ATOM      9  C   LIG d   1      -6.118  74.218 116.391  0.00  0.00     0.028 C 
ATOM     10  C   LIG d   1      -7.005  73.057 116.874  0.00  0.00     0.006 C 
ENDBRANCH   8   9
BRANCH   8  11
ATOM     11  C   LIG d   1      -6.647  76.316 115.256  0.00  0.00     0.028 C 
ATOM     12  C   LIG d   1      -5.446  75.824 114.434  0.00  0.00     0.006 C 
ENDBRANCH   8  11
ENDBRANCH   7   8
ENDBRANCH   1   7
BRANCH   6  13
ATOM     13  N   LIG d   1      -5.456  79.145 118.354  0.00  0.00    -0.311 N 
ATOM     14  C   LIG d   1      -4.556  79.517 117.445  0.00  0.00     0.210 C 
ATOM     15  C   LIG d   1      -3.238  80.048 118.018  0.00  0.00     0.109 C 
ATOM     16  O   LIG d   1      -4.736  79.488 116.218  0.00  0.00    -0.276 OA
ATOM     17  H   LIG d   1      -5.238  79.232 119.327  0.00  0.00     0.149 HD
ENDBRANCH   6  13
BRANCH   5  18
ATOM     18  N   LIG d   1      -8.009  80.791 118.035  0.00  0.00     0.381 N 
ATOM     19  H   LIG d   1      -7.147  81.010 117.578  0.00  0.00    -0.090 HD
ATOM     20  H   LIG d   1      -8.139  81.441 118.790  0.00  0.00    -0.090 HD
ATOM     21  H   LIG d   1      -8.764  80.865 117.390  0.00  0.00    -0.090 HD
ENDBRANCH   5  18
BRANCH   3  22
ATOM     22  C   LIG d   1     -10.513  76.818 118.973  0.00  0.00     0.382 C 
ATOM     23  O   LIG d   1     -10.622  76.190 120.054  0.00  0.00    -0.241 OA
ATOM     24  O   LIG d   1     -11.491  76.891 118.205  0.00  0.00    -0.241 OA
ENDBRANCH   3  22
TORSDOF 7
ENDMDL
MODEL 4
REMARK VINA RESULT:      -5.0     15.629     17.602
REMARK  7 active torsions:
REMARK  status: ('A' for Active; 'I' for Inactive)
REMARK    1  A    between atoms: C_2  and  C_3 
REMARK    2  A    between atoms: C_3  and  O_6 
REMARK    3  A    between atoms: C_3  and  C_4 
REMARK    4  A    between atoms: C_7  and  O_6 
REMARK    5  A    between atoms: C_9  and  C_10 
REMARK    6  A    between atoms: N_15  and  C_14 
REMARK    7  A    between atoms: N_20  and  C_19 
REMARK       I    between atoms: C_22  and  N_20 
ROOT
ATOM      1  C   LIG d   1      -2.762  76.198 116.952  0.00  0.00     0.161 C 
ATOM      2  C   LIG d   1      -2.807  77.390 116.211  0.00  0.00     0.016 C 
ATOM      3  C   LIG d   1      -2.011  77.625 115.066  0.00  0.00     0.038 C 
ATOM      4  C   LIG d   1      -1.221  76.617 114.493  0.00  0.00     0.028 C 
ATOM      5  C   LIG d   1      -0.760  75.565 115.496  0.00  0.00    -0.047 C 
ATOM      6  C   LIG d   1      -1.988  75.046 116.278  0.00  0.00     0.091 C 
ENDROOT
BRANCH   1   7
ATOM      7  O   LIG d   1      -4.100  75.776 117.282  0.00  0.00    -0.368 OA
BRANCH   7   8
ATOM      8  C   LIG d   1      -5.133  76.129 116.328  0.00  0.00     0.119 C 
BRANCH   8   9
ATOM      9  C   LIG d   1      -6.400  76.487 117.129  0.00  0.00     0.028 C 
ATOM     10  C   LIG d   1      -7.688  76.041 116.418  0.00  0.00     0.006 C 
ENDBRANCH   8   9
BRANCH   8  11
ATOM     11  C   LIG d   1      -5.526  74.927 115.464  0.00  0.00     0.028 C 
ATOM     12  C   LIG d   1      -4.890  74.967 114.065  0.00  0.00     0.006 C 
ENDBRANCH   8  11
ENDBRANCH   7   8
ENDBRANCH   1   7
BRANCH   6  13
ATOM     13  N   LIG d   1      -1.614  74.074 117.339  0.00  0.00    -0.311 N 
ATOM     14  C   LIG d   1      -0.754  74.351 118.317  0.00  0.00     0.210 C 
ATOM     15  C   LIG d   1      -0.495  73.200 119.295  0.00  0.00     0.109 C 
ATOM     16  O   LIG d   1      -0.206  75.450 118.487  0.00  0.00    -0.276 OA
ATOM     17  H   LIG d   1      -2.037  73.167 117.295  0.00  0.00     0.149 HD
ENDBRANCH   6  13
BRANCH   5  18
ATOM     18  N   LIG d   1      -0.064  74.505 114.742  0.00  0.00     0.381 N 
ATOM     19  H   LIG d   1      -0.539  73.634 114.866  0.00  0.00    -0.090 HD
ATOM     20  H   LIG d   1       0.869  74.410 115.102  0.00  0.00    -0.090 HD
ATOM     21  H   LIG d   1      -0.032  74.740 113.774  0.00  0.00    -0.090 HD
ENDBRANCH   5  18
BRANCH   3  22
ATOM     22  C   LIG d   1      -1.971  78.892 114.505  0.00  0.00     0.382 C 
ATOM     23  O   LIG d   1      -0.882  79.511 114.432  0.00  0.00    -0.241 OA
ATOM     24  O   LIG d   1      -3.017  79.443 114.112  0.00  0.00    -0.241 OA
ENDBRANCH   3  22
TORSDOF 7
ENDMDL
MODEL 5
REMARK VINA RESULT:      -4.8     12.674     15.917
REMARK  7 active torsions:
REMARK  status: ('A' for Active; 'I' for Inactive)
REMARK    1  A    between atoms: C_2  and  C_3 
REMARK    2  A    between atoms: C_3  and  O_6 
REMARK    3  A    between atoms: C_3  and  C_4 
REMARK    4  A    between atoms: C_7  and  O_6 
REMARK    5  A    between atoms: C_9  and  C_10 
REMARK    6  A    between atoms: N_15  and  C_14 
REMARK    7  A    between atoms: N_20  and  C_19 
REMARK       I    between atoms: C_22  and  N_20 
ROOT
ATOM      1  C   LIG d   1      -5.324  77.788 116.879  0.00  0.00     0.161 C 
ATOM      2  C   LIG d   1      -6.088  78.958 117.024  0.00  0.00     0.016 C 
ATOM      3  C   LIG d   1      -5.635  80.102 117.720  0.00  0.00     0.038 C 
ATOM      4  C   LIG d   1      -4.319  80.210 118.192  0.00  0.00     0.028 C 
ATOM      5  C   LIG d   1      -3.678  78.864 118.511  0.00  0.00    -0.047 C 
ATOM      6  C   LIG d   1      -3.843  77.928 117.292  0.00  0.00     0.091 C 
ENDROOT
BRANCH   1   7
ATOM      7  O   LIG d   1      -5.423  77.303 115.526  0.00  0.00    -0.368 OA
BRANCH   7   8
ATOM      8  C   LIG d   1      -6.141  76.058 115.345  0.00  0.00     0.119 C 
BRANCH   8   9
ATOM      9  C   LIG d   1      -6.675  75.628 116.725  0.00  0.00     0.028 C 
ATOM     10  C   LIG d   1      -6.726  74.099 116.884  0.00  0.00     0.006 C 
ENDBRANCH   8   9
BRANCH   8  11
ATOM     11  C   LIG d   1      -5.202  74.932 114.904  0.00  0.00     0.028 C 
ATOM     12  C   LIG d   1      -3.939  75.451 114.199  0.00  0.00     0.006 C 
ENDBRANCH   8  11
ENDBRANCH   7   8
ENDBRANCH   1   7
BRANCH   6  13
ATOM     13  N   LIG d   1      -3.318  76.562 117.551  0.00  0.00    -0.311 N 
ATOM     14  C   LIG d   1      -2.092  76.171 117.208  0.00  0.00     0.210 C 
ATOM     15  C   LIG d   1      -1.758  74.715 117.548  0.00  0.00     0.109 C 
ATOM     16  O   LIG d   1      -1.238  76.901 116.682  0.00  0.00    -0.276 OA
ATOM     17  H   LIG d   1      -3.934  75.914 118.002  0.00  0.00     0.149 HD
ENDBRANCH   6  13
BRANCH   5  18
ATOM     18  N   LIG d   1      -2.266  79.114 118.860  0.00  0.00     0.381 N 
ATOM     19  H   LIG d   1      -1.720  78.299 118.666  0.00  0.00    -0.090 HD
ATOM     20  H   LIG d   1      -2.204  79.308 119.844  0.00  0.00    -0.090 HD
ATOM     21  H   LIG d   1      -1.918  79.888 118.339  0.00  0.00    -0.090 HD
ENDBRANCH   5  18
BRANCH   3  22
ATOM     22  C   LIG d   1      -6.517  81.139 117.984  0.00  0.00     0.382 C 
ATOM     23  O   LIG d   1      -7.054  81.762 117.036  0.00  0.00    -0.241 OA
ATOM     24  O   LIG d   1      -6.748  81.489 119.157  0.00  0.00    -0.241 OA
ENDBRANCH   3  22
TORSDOF 7
ENDMDL
MODEL 6
REMARK VINA RESULT:      -4.8     11.507     14.649
REMARK  7 active torsions:
REMARK  status: ('A' for Active; 'I' for Inactive)
REMARK    1  A    between atoms: C_2  and  C_3 
REMARK    2  A    between atoms: C_3  and  O_6 
REMARK    3  A    between atoms: C_3  and  C_4 
REMARK    4  A    between atoms: C_7  and  O_6 
REMARK    5  A    between atoms: C_9  and  C_10 
REMARK    6  A    between atoms: N_15  and  C_14 
REMARK    7  A    between atoms: N_20  and  C_19 
REMARK       I    between atoms: C_22  and  N_20 
ROOT
ATOM      1  C   LIG d   1      -8.507  79.366 118.188  0.00  0.00     0.161 C 
ATOM      2  C   LIG d   1      -9.734  78.881 118.671  0.00  0.00     0.016 C 
ATOM      3  C   LIG d   1     -10.000  77.509 118.883  0.00  0.00     0.038 C 
ATOM      4  C   LIG d   1      -8.998  76.534 118.769  0.00  0.00     0.028 C 
ATOM      5  C   LIG d   1      -7.886  76.918 117.799  0.00  0.00    -0.047 C 
ATOM      6  C   LIG d   1      -7.366  78.327 118.164  0.00  0.00     0.091 C 
ENDROOT
BRANCH   1   7
ATOM      7  O   LIG d   1      -8.111  80.529 118.941  0.00  0.00    -0.368 OA
BRANCH   7   8
ATOM      8  C   LIG d   1      -7.927  81.749 118.182  0.00  0.00     0.119 C 
BRANCH   8   9
ATOM      9  C   LIG d   1      -6.486  82.234 118.426  0.00  0.00     0.028 C 
ATOM     10  C   LIG d   1      -5.837  81.556 119.645  0.00  0.00     0.006 C 
ENDBRANCH   8   9
BRANCH   8  11
ATOM     11  C   LIG d   1      -8.828  82.872 118.705  0.00  0.00     0.028 C 
ATOM     12  C   LIG d   1     -10.308  82.666 118.344  0.00  0.00     0.006 C 
ENDBRANCH   8  11
ENDBRANCH   7   8
ENDBRANCH   1   7
BRANCH   6  13
ATOM     13  N   LIG d   1      -6.334  78.815 117.212  0.00  0.00    -0.311 N 
ATOM     14  C   LIG d   1      -5.026  78.666 117.410  0.00  0.00     0.210 C 
ATOM     15  C   LIG d   1      -4.134  79.260 116.315  0.00  0.00     0.109 C 
ATOM     16  O   LIG d   1      -4.519  78.070 118.372  0.00  0.00    -0.276 OA
ATOM     17  H   LIG d   1      -6.658  79.283 116.389  0.00  0.00     0.149 HD
ENDBRANCH   6  13
BRANCH   5  18
ATOM     18  N   LIG d   1      -6.843  75.878 117.881  0.00  0.00     0.381 N 
ATOM     19  H   LIG d   1      -7.186  75.023 117.492  0.00  0.00    -0.090 HD
ATOM     20  H   LIG d   1      -6.620  75.718 118.848  0.00  0.00    -0.090 HD
ATOM     21  H   LIG d   1      -6.028  76.172 117.389  0.00  0.00    -0.090 HD
ENDBRANCH   5  18
BRANCH   3  22
ATOM     22  C   LIG d   1     -11.291  77.095 119.175  0.00  0.00     0.382 C 
ATOM     23  O   LIG d   1     -11.715  77.151 120.354  0.00  0.00    -0.241 OA
ATOM     24  O   LIG d   1     -12.021  76.626 118.281  0.00  0.00    -0.241 OA
ENDBRANCH   3  22
TORSDOF 7
ENDMDL
MODEL 7
REMARK VINA RESULT:      -4.7      7.548     10.990
REMARK  7 active torsions:
REMARK  status: ('A' for Active; 'I' for Inactive)
REMARK    1  A    between atoms: C_2  and  C_3 
REMARK    2  A    between atoms: C_3  and  O_6 
REMARK    3  A    between atoms: C_3  and  C_4 
REMARK    4  A    between atoms: C_7  and  O_6 
REMARK    5  A    between atoms: C_9  and  C_10 
REMARK    6  A    between atoms: N_15  and  C_14 
REMARK    7  A    between atoms: N_20  and  C_19 
REMARK       I    between atoms: C_22  and  N_20 
ROOT
ATOM      1  C   LIG d   1       1.317  87.966 116.781  0.00  0.00     0.161 C 
ATOM      2  C   LIG d   1      -0.065  87.880 117.020  0.00  0.00     0.016 C 
ATOM      3  C   LIG d   1      -0.814  88.910 117.635  0.00  0.00     0.038 C 
ATOM      4  C   LIG d   1      -0.256  90.166 117.917  0.00  0.00     0.028 C 
ATOM      5  C   LIG d   1       1.250  90.119 118.156  0.00  0.00    -0.047 C 
ATOM      6  C   LIG d   1       1.921  89.372 116.981  0.00  0.00     0.091 C 
ENDROOT
BRANCH   1   7
ATOM      7  O   LIG d   1       1.615  87.476 115.459  0.00  0.00    -0.368 OA
BRANCH   7   8
ATOM      8  C   LIG d   1       2.010  86.085 115.369  0.00  0.00     0.119 C 
BRANCH   8   9
ATOM      9  C   LIG d   1       3.533  86.050 115.136  0.00  0.00     0.028 C 
ATOM     10  C   LIG d   1       4.313  85.681 116.409  0.00  0.00     0.006 C 
ENDBRANCH   8   9
BRANCH   8  11
ATOM     11  C   LIG d   1       1.396  85.410 114.139  0.00  0.00     0.028 C 
ATOM     12  C   LIG d   1       2.058  84.064 113.806  0.00  0.00     0.006 C 
ENDBRANCH   8  11
ENDBRANCH   7   8
ENDBRANCH   1   7
BRANCH   6  13
ATOM     13  N   LIG d   1       3.385  89.208 117.177  0.00  0.00    -0.311 N 
ATOM     14  C   LIG d   1       4.282  89.426 116.216  0.00  0.00     0.210 C 
ATOM     15  C   LIG d   1       5.738  89.179 116.623  0.00  0.00     0.109 C 
ATOM     16  O   LIG d   1       4.013  89.831 115.076  0.00  0.00    -0.276 OA
ATOM     17  H   LIG d   1       3.694  88.912 118.082  0.00  0.00     0.149 HD
ENDBRANCH   6  13
BRANCH   5  18
ATOM     18  N   LIG d   1       1.721  91.509 118.302  0.00  0.00     0.381 N 
ATOM     19  H   LIG d   1       2.407  91.709 117.602  0.00  0.00    -0.090 HD
ATOM     20  H   LIG d   1       2.150  91.614 119.204  0.00  0.00    -0.090 HD
ATOM     21  H   LIG d   1       0.954  92.140 118.216  0.00  0.00    -0.090 HD
ENDBRANCH   5  18
BRANCH   3  22
ATOM     22  C   LIG d   1      -2.128  88.674 118.010  0.00  0.00     0.382 C 
ATOM     23  O   LIG d   1      -3.066  89.241 117.398  0.00  0.00    -0.241 OA
ATOM     24  O   LIG d   1      -2.385  87.936 118.980  0.00  0.00    -0.241 OA
ENDBRANCH   3  22
TORSDOF 7
ENDMDL
MODEL 8
REMARK VINA RESULT:      -4.6     11.920     14.334
REMARK  7 active torsions:
REMARK  status: ('A' for Active; 'I' for Inactive)
REMARK    1  A    between atoms: C_2  and  C_3 
REMARK    2  A    between atoms: C_3  and  O_6 
REMARK    3  A    between atoms: C_3  and  C_4 
REMARK    4  A    between atoms: C_7  and  O_6 
REMARK    5  A    between atoms: C_9  and  C_10 
REMARK    6  A    between atoms: N_15  and  C_14 
REMARK    7  A    between atoms: N_20  and  C_19 
REMARK       I    between atoms: C_22  and  N_20 
ROOT
ATOM      1  C   LIG d   1      -6.910  78.905 118.814  0.00  0.00     0.161 C 
ATOM      2  C   LIG d   1      -5.781  79.341 118.099  0.00  0.00     0.016 C 
ATOM      3  C   LIG d   1      -5.250  78.649 116.987  0.00  0.00     0.038 C 
ATOM      4  C   LIG d   1      -5.906  77.548 116.416  0.00  0.00     0.028 C 
ATOM      5  C   LIG d   1      -6.769  76.776 117.408  0.00  0.00    -0.047 C 
ATOM      6  C   LIG d   1      -7.703  77.768 118.138  0.00  0.00     0.091 C 
ENDROOT
BRANCH   1   7
ATOM      7  O   LIG d   1      -7.775  80.025 119.090  0.00  0.00    -0.368 OA
BRANCH   7   8
ATOM      8  C   LIG d   1      -8.516  80.551 117.962  0.00  0.00     0.119 C 
BRANCH   8   9
ATOM      9  C   LIG d   1      -7.988  81.972 117.683  0.00  0.00     0.028 C 
ATOM     10  C   LIG d   1      -7.356  82.617 118.928  0.00  0.00     0.006 C 
ENDBRANCH   8   9
BRANCH   8  11
ATOM     11  C   LIG d   1      -9.998  80.729 118.303  0.00  0.00     0.028 C 
ATOM     12  C   LIG d   1     -10.304  80.466 119.786  0.00  0.00     0.006 C 
ENDBRANCH   8  11
ENDBRANCH   7   8
ENDBRANCH   1   7
BRANCH   6  13
ATOM     13  N   LIG d   1      -8.523  77.107 119.187  0.00  0.00    -0.311 N 
ATOM     14  C   LIG d   1      -9.844  76.956 119.098  0.00  0.00     0.210 C 
ATOM     15  C   LIG d   1     -10.497  76.265 120.299  0.00  0.00     0.109 C 
ATOM     16  O   LIG d   1     -10.531  77.299 118.125  0.00  0.00    -0.276 OA
ATOM     17  H   LIG d   1      -8.042  76.770 119.997  0.00  0.00     0.149 HD
ENDBRANCH   6  13
BRANCH   5  18
ATOM     18  N   LIG d   1      -7.500  75.742 116.652  0.00  0.00     0.381 N 
ATOM     19  H   LIG d   1      -6.879  74.996 116.411  0.00  0.00    -0.090 HD
ATOM     20  H   LIG d   1      -7.852  76.147 115.803  0.00  0.00    -0.090 HD
ATOM     21  H   LIG d   1      -8.256  75.391 117.199  0.00  0.00    -0.090 HD
ENDBRANCH   5  18
BRANCH   3  22
ATOM     22  C   LIG d   1      -4.027  79.034 116.458  0.00  0.00     0.382 C 
ATOM     23  O   LIG d   1      -3.096  79.384 117.222  0.00  0.00    -0.241 OA
ATOM     24  O   LIG d   1      -3.858  79.078 115.224  0.00  0.00    -0.241 OA
ENDBRANCH   3  22
TORSDOF 7
ENDMDL
MODEL 9
REMARK VINA RESULT:      -4.6     14.319     17.667
REMARK  7 active torsions:
REMARK  status: ('A' for Active; 'I' for Inactive)
REMARK    1  A    between atoms: C_2  and  C_3 
REMARK    2  A    between atoms: C_3  and  O_6 
REMARK    3  A    between atoms: C_3  and  C_4 
REMARK    4  A    between atoms: C_7  and  O_6 
REMARK    5  A    between atoms: C_9  and  C_10 
REMARK    6  A    between atoms: N_15  and  C_14 
REMARK    7  A    between atoms: N_20  and  C_19 
REMARK       I    between atoms: C_22  and  N_20 
ROOT
ATOM      1  C   LIG d   1      -2.624  76.948 116.952  0.00  0.00     0.161 C 
ATOM      2  C   LIG d   1      -3.470  76.152 116.162  0.00  0.00     0.016 C 
ATOM      3  C   LIG d   1      -3.817  76.472 114.829  0.00  0.00     0.038 C 
ATOM      4  C   LIG d   1      -3.218  77.538 114.142  0.00  0.00     0.028 C 
ATOM      5  C   LIG d   1      -2.744  78.660 115.059  0.00  0.00    -0.047 C 
ATOM      6  C   LIG d   1      -1.872  78.054 116.183  0.00  0.00     0.091 C 
ENDROOT
BRANCH   1   7
ATOM      7  O   LIG d   1      -1.691  76.111 117.665  0.00  0.00    -0.368 OA
BRANCH   7   8
ATOM      8  C   LIG d   1      -1.330  74.866 117.018  0.00  0.00     0.119 C 
BRANCH   8   9
ATOM      9  C   LIG d   1      -0.965  73.858 118.126  0.00  0.00     0.028 C 
ATOM     10  C   LIG d   1       0.529  73.902 118.490  0.00  0.00     0.006 C 
ENDBRANCH   8   9
BRANCH   8  11
ATOM     11  C   LIG d   1      -0.059  75.022 116.178  0.00  0.00     0.028 C 
ATOM     12  C   LIG d   1      -0.330  74.944 114.667  0.00  0.00     0.006 C 
ENDBRANCH   8  11
ENDBRANCH   7   8
ENDBRANCH   1   7
BRANCH   6  13
ATOM     13  N   LIG d   1      -1.436  79.073 117.173  0.00  0.00    -0.311 N 
ATOM     14  C   LIG d   1      -0.294  79.750 117.074  0.00  0.00     0.210 C 
ATOM     15  C   LIG d   1      -0.027  80.739 118.213  0.00  0.00     0.109 C 
ATOM     16  O   LIG d   1       0.509  79.649 116.134  0.00  0.00    -0.276 OA
ATOM     17  H   LIG d   1      -2.043  79.242 117.952  0.00  0.00     0.149 HD
ENDBRANCH   6  13
BRANCH   5  18
ATOM     18  N   LIG d   1      -2.017  79.638 114.228  0.00  0.00     0.381 N 
ATOM     19  H   LIG d   1      -1.107  79.286 114.007  0.00  0.00    -0.090 HD
ATOM     20  H   LIG d   1      -1.907  80.490 114.750  0.00  0.00    -0.090 HD
ATOM     21  H   LIG d   1      -2.525  79.817 113.389  0.00  0.00    -0.090 HD
ENDBRANCH   5  18
BRANCH   3  22
ATOM     22  C   LIG d   1      -4.805  75.744 114.183  0.00  0.00     0.382 C 
ATOM     23  O   LIG d   1      -5.944  76.244 114.015  0.00  0.00    -0.241 OA
ATOM     24  O   LIG d   1      -4.586  74.578 113.805  0.00  0.00    -0.241 OA
ENDBRANCH   3  22
TORSDOF 7
ENDMDL
