MODEL 1
REMARK VINA RESULT:      -5.5      0.000      0.000
REMARK  7 active torsions:
REMARK  status: ('A' for Active; 'I' for Inactive)
REMARK    1  A    between atoms: C_2  and  C_3 
REMARK    2  A    between atoms: C_3  and  O_6 
REMARK    3  A    between atoms: C_3  and  C_4 
REMARK    4  A    between atoms: C_7  and  O_6 
REMARK    5  A    between atoms: C_9  and  C_10 
REMARK    6  A    between atoms: N_15  and  C_14 
REMARK    7  A    between atoms: N_20  and  C_19 
REMARK       I    between atoms: C_22  and  N_20 
ROOT
ATOM      1  C   LIG d   1      -7.172  74.431 118.428  0.00  0.00     0.161 C 
ATOM      2  C   LIG d   1      -8.435  75.045 118.482  0.00  0.00     0.016 C 
ATOM      3  C   LIG d   1      -8.696  76.334 117.963  0.00  0.00     0.038 C 
ATOM      4  C   LIG d   1      -7.742  77.040 117.216  0.00  0.00     0.028 C 
ATOM      5  C   LIG d   1      -6.305  76.677 117.571  0.00  0.00    -0.047 C 
ATOM      6  C   LIG d   1      -6.147  75.140 117.518  0.00  0.00     0.091 C 
ENDROOT
BRANCH   1   7
ATOM      7  O   LIG d   1      -7.316  73.051 118.040  0.00  0.00    -0.368 OA
BRANCH   7   8
ATOM      8  C   LIG d   1      -7.674  72.811 116.657  0.00  0.00     0.119 C 
BRANCH   8   9
ATOM      9  C   LIG d   1      -9.071  72.162 116.646  0.00  0.00     0.028 C 
ATOM     10  C   LIG d   1      -9.037  70.686 117.076  0.00  0.00     0.006 C 
ENDBRANCH   8   9
BRANCH   8  11
ATOM     11  C   LIG d   1      -6.743  71.780 116.011  0.00  0.00     0.028 C 
ATOM     12  C   LIG d   1      -5.673  71.254 116.981  0.00  0.00     0.006 C 
ENDBRANCH   8  11
ENDBRANCH   7   8
ENDBRANCH   1   7
BRANCH   6  13
ATOM     13  N   LIG d   1      -4.792  74.694 117.935  0.00  0.00    -0.311 N 
ATOM     14  C   LIG d   1      -3.775  74.548 117.087  0.00  0.00     0.210 C 
ATOM     15  C   LIG d   1      -2.470  74.059 117.721  0.00  0.00     0.109 C 
ATOM     16  O   LIG d   1      -3.823  74.807 115.875  0.00  0.00    -0.276 OA
ATOM     17  H   LIG d   1      -4.657  74.492 118.906  0.00  0.00     0.149 HD
ENDBRANCH   6  13
BRANCH   5  18
ATOM     18  N   LIG d   1      -5.420  77.382 116.625  0.00  0.00     0.381 N 
ATOM     19  H   LIG d   1      -5.376  78.353 116.861  0.00  0.00    -0.090 HD
ATOM     20  H   LIG d   1      -5.802  77.300 115.699  0.00  0.00    -0.090 HD
ATOM     21  H   LIG d   1      -4.507  76.984 116.651  0.00  0.00    -0.090 HD
ENDBRANCH   5  18
BRANCH   3  22
ATOM     22  C   LIG d   1      -9.912  76.946 118.226  0.00  0.00     0.382 C 
ATOM     23  O   LIG d   1     -10.959  76.258 118.296  0.00  0.00    -0.241 OA
ATOM     24  O   LIG d   1      -9.983  78.184 118.349  0.00  0.00    -0.241 OA
ENDBRANCH   3  22
TORSDOF 7
ENDMDL
MODEL 2
REMARK VINA RESULT:      -5.3      1.309      1.542
REMARK  7 active torsions:
REMARK  status: ('A' for Active; 'I' for Inactive)
REMARK    1  A    between atoms: C_2  and  C_3 
REMARK    2  A    between atoms: C_3  and  O_6 
REMARK    3  A    between atoms: C_3  and  C_4 
REMARK    4  A    between atoms: C_7  and  O_6 
REMARK    5  A    between atoms: C_9  and  C_10 
REMARK    6  A    between atoms: N_15  and  C_14 
REMARK    7  A    between atoms: N_20  and  C_19 
REMARK       I    between atoms: C_22  and  N_20 
ROOT
ATOM      1  C   LIG d   1      -6.896  75.060 119.077  0.00  0.00     0.161 C 
ATOM      2  C   LIG d   1      -8.200  75.514 118.820  0.00  0.00     0.016 C 
ATOM      3  C   LIG d   1      -8.487  76.784 118.268  0.00  0.00     0.038 C 
ATOM      4  C   LIG d   1      -7.476  77.631 117.791  0.00  0.00     0.028 C 
ATOM      5  C   LIG d   1      -6.136  77.429 118.492  0.00  0.00    -0.047 C 
ATOM      6  C   LIG d   1      -5.777  75.926 118.461  0.00  0.00     0.091 C 
ENDROOT
BRANCH   1   7
ATOM      7  O   LIG d   1      -6.762  73.690 118.650  0.00  0.00    -0.368 OA
BRANCH   7   8
ATOM      8  C   LIG d   1      -7.460  73.332 117.432  0.00  0.00     0.119 C 
BRANCH   8   9
ATOM      9  C   LIG d   1      -8.377  72.136 117.758  0.00  0.00     0.028 C 
ATOM     10  C   LIG d   1      -8.794  71.357 116.499  0.00  0.00     0.006 C 
ENDBRANCH   8   9
BRANCH   8  11
ATOM     11  C   LIG d   1      -6.490  72.819 116.363  0.00  0.00     0.028 C 
ATOM     12  C   LIG d   1      -5.906  73.947 115.498  0.00  0.00     0.006 C 
ENDBRANCH   8  11
ENDBRANCH   7   8
ENDBRANCH   1   7
BRANCH   6  13
ATOM     13  N   LIG d   1      -4.521  75.628 119.199  0.00  0.00    -0.311 N 
ATOM     14  C   LIG d   1      -3.323  75.585 118.619  0.00  0.00     0.210 C 
ATOM     15  C   LIG d   1      -2.162  75.241 119.557  0.00  0.00     0.109 C 
ATOM     16  O   LIG d   1      -3.107  75.830 117.422  0.00  0.00    -0.276 OA
ATOM     17  H   LIG d   1      -4.600  75.448 120.180  0.00  0.00     0.149 HD
ENDBRANCH   6  13
BRANCH   5  18
ATOM     18  N   LIG d   1      -5.142  78.275 117.805  0.00  0.00     0.381 N 
ATOM     19  H   LIG d   1      -5.593  79.080 117.418  0.00  0.00    -0.090 HD
ATOM     20  H   LIG d   1      -4.733  77.750 117.052  0.00  0.00    -0.090 HD
ATOM     21  H   LIG d   1      -4.434  78.558 118.446  0.00  0.00    -0.090 HD
ENDBRANCH   5  18
BRANCH   3  22
ATOM     22  C   LIG d   1      -9.798  77.233 118.224  0.00  0.00     0.382 C 
ATOM     23  O   LIG d   1     -10.043  78.461 118.308  0.00  0.00    -0.241 OA
ATOM     24  O   LIG d   1     -10.742  76.424 118.148  0.00  0.00    -0.241 OA
ENDBRANCH   3  22
TORSDOF 7
ENDMDL
MODEL 3
REMARK VINA RESULT:      -5.3      2.265      4.976
REMARK  7 active torsions:
REMARK  status: ('A' for Active; 'I' for Inactive)
REMARK    1  A    between atoms: C_2  and  C_3 
REMARK    2  A    between atoms: C_3  and  O_6 
REMARK    3  A    between atoms: C_3  and  C_4 
REMARK    4  A    between atoms: C_7  and  O_6 
REMARK    5  A    between atoms: C_9  and  C_10 
REMARK    6  A    between atoms: N_15  and  C_14 
REMARK    7  A    between atoms: N_20  and  C_19 
REMARK       I    between atoms: C_22  and  N_20 
ROOT
ATOM      1  C   LIG d   1      -6.373  74.521 118.544  0.00  0.00     0.161 C 
ATOM      2  C   LIG d   1      -6.584  73.286 117.908  0.00  0.00     0.016 C 
ATOM      3  C   LIG d   1      -7.794  72.937 117.265  0.00  0.00     0.038 C 
ATOM      4  C   LIG d   1      -8.829  73.865 117.082  0.00  0.00     0.028 C 
ATOM      5  C   LIG d   1      -8.859  74.958 118.145  0.00  0.00    -0.047 C 
ATOM      6  C   LIG d   1      -7.452  75.587 118.258  0.00  0.00     0.091 C 
ENDROOT
BRANCH   1   7
ATOM      7  O   LIG d   1      -5.066  75.027 118.208  0.00  0.00    -0.368 OA
BRANCH   7   8
ATOM      8  C   LIG d   1      -4.404  74.388 117.089  0.00  0.00     0.119 C 
BRANCH   8   9
ATOM      9  C   LIG d   1      -2.910  74.264 117.445  0.00  0.00     0.028 C 
ATOM     10  C   LIG d   1      -1.997  74.870 116.365  0.00  0.00     0.006 C 
ENDBRANCH   8   9
BRANCH   8  11
ATOM     11  C   LIG d   1      -4.451  75.269 115.836  0.00  0.00     0.028 C 
ATOM     12  C   LIG d   1      -5.350  74.689 114.733  0.00  0.00     0.006 C 
ENDBRANCH   8  11
ENDBRANCH   7   8
ENDBRANCH   1   7
BRANCH   6  13
ATOM     13  N   LIG d   1      -7.371  76.608 119.335  0.00  0.00    -0.311 N 
ATOM     14  C   LIG d   1      -7.562  77.910 119.127  0.00  0.00     0.210 C 
ATOM     15  C   LIG d   1      -7.414  78.792 120.370  0.00  0.00     0.109 C 
ATOM     16  O   LIG d   1      -7.871  78.414 118.037  0.00  0.00    -0.276 OA
ATOM     17  H   LIG d   1      -7.156  76.282 120.257  0.00  0.00     0.149 HD
ENDBRANCH   6  13
BRANCH   5  18
ATOM     18  N   LIG d   1      -9.897  75.931 117.755  0.00  0.00     0.381 N 
ATOM     19  H   LIG d   1     -10.060  76.572 118.506  0.00  0.00    -0.090 HD
ATOM     20  H   LIG d   1     -10.753  75.437 117.572  0.00  0.00    -0.090 HD
ATOM     21  H   LIG d   1      -9.611  76.428 116.941  0.00  0.00    -0.090 HD
ENDBRANCH   5  18
BRANCH   3  22
ATOM     22  C   LIG d   1      -7.992  71.635 116.832  0.00  0.00     0.382 C 
ATOM     23  O   LIG d   1      -9.140  71.253 116.500  0.00  0.00    -0.241 OA
ATOM     24  O   LIG d   1      -7.045  70.825 116.811  0.00  0.00    -0.241 OA
ENDBRANCH   3  22
TORSDOF 7
ENDMDL
MODEL 4
REMARK VINA RESULT:      -5.0      2.513      4.317
REMARK  7 active torsions:
REMARK  status: ('A' for Active; 'I' for Inactive)
REMARK    1  A    between atoms: C_2  and  C_3 
REMARK    2  A    between atoms: C_3  and  O_6 
REMARK    3  A    between atoms: C_3  and  C_4 
REMARK    4  A    between atoms: C_7  and  O_6 
REMARK    5  A    between atoms: C_9  and  C_10 
REMARK    6  A    between atoms: N_15  and  C_14 
REMARK    7  A    between atoms: N_20  and  C_19 
REMARK       I    between atoms: C_22  and  N_20 
ROOT
ATOM      1  C   LIG d   1      -7.116  76.286 117.106  0.00  0.00     0.161 C 
ATOM      2  C   LIG d   1      -6.902  77.653 117.346  0.00  0.00     0.016 C 
ATOM      3  C   LIG d   1      -7.817  78.473 118.046  0.00  0.00     0.038 C 
ATOM      4  C   LIG d   1      -8.946  77.943 118.689  0.00  0.00     0.028 C 
ATOM      5  C   LIG d   1      -9.462  76.660 118.045  0.00  0.00    -0.047 C 
ATOM      6  C   LIG d   1      -8.288  75.666 117.895  0.00  0.00     0.091 C 
ENDROOT
BRANCH   1   7
ATOM      7  O   LIG d   1      -5.901  75.550 117.353  0.00  0.00    -0.368 OA
BRANCH   7   8
ATOM      8  C   LIG d   1      -4.951  75.503 116.261  0.00  0.00     0.119 C 
BRANCH   8   9
ATOM      9  C   LIG d   1      -5.587  74.672 115.129  0.00  0.00     0.028 C 
ATOM     10  C   LIG d   1      -5.671  75.450 113.805  0.00  0.00     0.006 C 
ENDBRANCH   8   9
BRANCH   8  11
ATOM     11  C   LIG d   1      -3.682  74.744 116.658  0.00  0.00     0.028 C 
ATOM     12  C   LIG d   1      -2.428  75.257 115.932  0.00  0.00     0.006 C 
ENDBRANCH   8  11
ENDBRANCH   7   8
ENDBRANCH   1   7
BRANCH   6  13
ATOM     13  N   LIG d   1      -8.689  74.417 117.197  0.00  0.00    -0.311 N 
ATOM     14  C   LIG d   1      -8.247  73.209 117.544  0.00  0.00     0.210 C 
ATOM     15  C   LIG d   1      -8.769  72.057 116.680  0.00  0.00     0.109 C 
ATOM     16  O   LIG d   1      -7.497  72.980 118.504  0.00  0.00    -0.276 OA
ATOM     17  H   LIG d   1      -9.321  74.508 116.425  0.00  0.00     0.149 HD
ENDBRANCH   6  13
BRANCH   5  18
ATOM     18  N   LIG d   1     -10.552  76.143 118.895  0.00  0.00     0.381 N 
ATOM     19  H   LIG d   1     -10.498  76.557 119.804  0.00  0.00    -0.090 HD
ATOM     20  H   LIG d   1     -10.444  75.149 118.993  0.00  0.00    -0.090 HD
ATOM     21  H   LIG d   1     -11.435  76.349 118.480  0.00  0.00    -0.090 HD
ENDBRANCH   5  18
BRANCH   3  22
ATOM     22  C   LIG d   1      -7.627  79.846 118.075  0.00  0.00     0.382 C 
ATOM     23  O   LIG d   1      -7.063  80.421 117.113  0.00  0.00    -0.241 OA
ATOM     24  O   LIG d   1      -7.974  80.511 119.069  0.00  0.00    -0.241 OA
ENDBRANCH   3  22
TORSDOF 7
ENDMDL
MODEL 5
REMARK VINA RESULT:      -5.0      1.989      5.290
REMARK  7 active torsions:
REMARK  status: ('A' for Active; 'I' for Inactive)
REMARK    1  A    between atoms: C_2  and  C_3 
REMARK    2  A    between atoms: C_3  and  O_6 
REMARK    3  A    between atoms: C_3  and  C_4 
REMARK    4  A    between atoms: C_7  and  O_6 
REMARK    5  A    between atoms: C_9  and  C_10 
REMARK    6  A    between atoms: N_15  and  C_14 
REMARK    7  A    between atoms: N_20  and  C_19 
REMARK       I    between atoms: C_22  and  N_20 
ROOT
ATOM      1  C   LIG d   1      -5.361  75.235 116.925  0.00  0.00     0.161 C 
ATOM      2  C   LIG d   1      -4.113  74.592 116.882  0.00  0.00     0.016 C 
ATOM      3  C   LIG d   1      -3.089  74.816 117.831  0.00  0.00     0.038 C 
ATOM      4  C   LIG d   1      -3.301  75.590 118.982  0.00  0.00     0.028 C 
ATOM      5  C   LIG d   1      -4.374  76.659 118.804  0.00  0.00    -0.047 C 
ATOM      6  C   LIG d   1      -5.651  75.998 118.235  0.00  0.00     0.091 C 
ENDROOT
BRANCH   1   7
ATOM      7  O   LIG d   1      -6.410  74.283 116.658  0.00  0.00    -0.368 OA
BRANCH   7   8
ATOM      8  C   LIG d   1      -6.916  73.553 117.802  0.00  0.00     0.119 C 
BRANCH   8   9
ATOM      9  C   LIG d   1      -6.554  72.069 117.602  0.00  0.00     0.028 C 
ATOM     10  C   LIG d   1      -6.701  71.621 116.139  0.00  0.00     0.006 C 
ENDBRANCH   8   9
BRANCH   8  11
ATOM     11  C   LIG d   1      -8.446  73.593 117.857  0.00  0.00     0.028 C 
ATOM     12  C   LIG d   1      -9.058  74.485 116.765  0.00  0.00     0.006 C 
ENDBRANCH   8  11
ENDBRANCH   7   8
ENDBRANCH   1   7
BRANCH   6  13
ATOM     13  N   LIG d   1      -6.723  76.987 117.951  0.00  0.00    -0.311 N 
ATOM     14  C   LIG d   1      -7.722  77.247 118.793  0.00  0.00     0.210 C 
ATOM     15  C   LIG d   1      -8.732  78.287 118.297  0.00  0.00     0.109 C 
ATOM     16  O   LIG d   1      -7.850  76.739 119.917  0.00  0.00    -0.276 OA
ATOM     17  H   LIG d   1      -6.680  77.468 117.075  0.00  0.00     0.149 HD
ENDBRANCH   6  13
BRANCH   5  18
ATOM     18  N   LIG d   1      -4.590  77.297 120.116  0.00  0.00     0.381 N 
ATOM     19  H   LIG d   1      -3.857  77.035 120.744  0.00  0.00    -0.090 HD
ATOM     20  H   LIG d   1      -5.462  76.974 120.496  0.00  0.00    -0.090 HD
ATOM     21  H   LIG d   1      -4.610  78.288 120.013  0.00  0.00    -0.090 HD
ENDBRANCH   5  18
BRANCH   3  22
ATOM     22  C   LIG d   1      -1.823  74.294 117.613  0.00  0.00     0.382 C 
ATOM     23  O   LIG d   1      -1.009  74.909 116.882  0.00  0.00    -0.241 OA
ATOM     24  O   LIG d   1      -1.500  73.195 118.101  0.00  0.00    -0.241 OA
ENDBRANCH   3  22
TORSDOF 7
ENDMDL
MODEL 6
REMARK VINA RESULT:      -4.9      2.217      3.066
REMARK  7 active torsions:
REMARK  status: ('A' for Active; 'I' for Inactive)
REMARK    1  A    between atoms: C_2  and  C_3 
REMARK    2  A    between atoms: C_3  and  O_6 
REMARK    3  A    between atoms: C_3  and  C_4 
REMARK    4  A    between atoms: C_7  and  O_6 
REMARK    5  A    between atoms: C_9  and  C_10 
REMARK    6  A    between atoms: N_15  and  C_14 
REMARK    7  A    between atoms: N_20  and  C_19 
REMARK       I    between atoms: C_22  and  N_20 
ROOT
ATOM      1  C   LIG d   1      -6.698  76.832 117.417  0.00  0.00     0.161 C 
ATOM      2  C   LIG d   1      -7.838  77.456 117.952  0.00  0.00     0.016 C 
ATOM      3  C   LIG d   1      -7.970  78.858 118.078  0.00  0.00     0.038 C 
ATOM      4  C   LIG d   1      -7.028  79.744 117.536  0.00  0.00     0.028 C 
ATOM      5  C   LIG d   1      -5.626  79.152 117.439  0.00  0.00    -0.047 C 
ATOM      6  C   LIG d   1      -5.707  77.786 116.718  0.00  0.00     0.091 C 
ENDROOT
BRANCH   1   7
ATOM      7  O   LIG d   1      -7.094  75.777 116.519  0.00  0.00    -0.368 OA
BRANCH   7   8
ATOM      8  C   LIG d   1      -7.173  74.448 117.093  0.00  0.00     0.119 C 
BRANCH   8   9
ATOM      9  C   LIG d   1      -6.270  73.526 116.250  0.00  0.00     0.028 C 
ATOM     10  C   LIG d   1      -5.666  74.248 115.034  0.00  0.00     0.006 C 
ENDBRANCH   8   9
BRANCH   8  11
ATOM     11  C   LIG d   1      -8.583  73.867 116.960  0.00  0.00     0.028 C 
ATOM     12  C   LIG d   1      -8.622  72.344 117.164  0.00  0.00     0.006 C 
ENDBRANCH   8  11
ENDBRANCH   7   8
ENDBRANCH   1   7
BRANCH   6  13
ATOM     13  N   LIG d   1      -4.390  77.100 116.655  0.00  0.00    -0.311 N 
ATOM     14  C   LIG d   1      -3.544  77.228 115.635  0.00  0.00     0.210 C 
ATOM     15  C   LIG d   1      -2.250  76.418 115.761  0.00  0.00     0.109 C 
ATOM     16  O   LIG d   1      -3.729  77.961 114.651  0.00  0.00    -0.276 OA
ATOM     17  H   LIG d   1      -4.146  76.509 117.427  0.00  0.00     0.149 HD
ENDBRANCH   6  13
BRANCH   5  18
ATOM     18  N   LIG d   1      -4.777  80.129 116.731  0.00  0.00     0.381 N 
ATOM     19  H   LIG d   1      -3.821  79.839 116.771  0.00  0.00    -0.090 HD
ATOM     20  H   LIG d   1      -4.855  81.020 117.190  0.00  0.00    -0.090 HD
ATOM     21  H   LIG d   1      -5.069  80.210 115.782  0.00  0.00    -0.090 HD
ENDBRANCH   5  18
BRANCH   3  22
ATOM     22  C   LIG d   1      -9.037  79.385 118.790  0.00  0.00     0.382 C 
ATOM     23  O   LIG d   1      -8.828  80.191 119.729  0.00  0.00    -0.241 OA
ATOM     24  O   LIG d   1     -10.204  79.033 118.533  0.00  0.00    -0.241 OA
ENDBRANCH   3  22
TORSDOF 7
ENDMDL
MODEL 7
REMARK VINA RESULT:      -4.7      3.165      4.505
REMARK  7 active torsions:
REMARK  status: ('A' for Active; 'I' for Inactive)
REMARK    1  A    between atoms: C_2  and  C_3 
REMARK    2  A    between atoms: C_3  and  O_6 
REMARK    3  A    between atoms: C_3  and  C_4 
REMARK    4  A    between atoms: C_7  and  O_6 
REMARK    5  A    between atoms: C_9  and  C_10 
REMARK    6  A    between atoms: N_15  and  C_14 
REMARK    7  A    between atoms: N_20  and  C_19 
REMARK       I    between atoms: C_22  and  N_20 
ROOT
ATOM      1  C   LIG d   1      -6.105  78.096 117.374  0.00  0.00     0.161 C 
ATOM      2  C   LIG d   1      -7.441  77.963 117.786  0.00  0.00     0.016 C 
ATOM      3  C   LIG d   1      -8.296  79.064 118.024  0.00  0.00     0.038 C 
ATOM      4  C   LIG d   1      -7.914  80.378 117.717  0.00  0.00     0.028 C 
ATOM      5  C   LIG d   1      -6.407  80.601 117.777  0.00  0.00    -0.047 C 
ATOM      6  C   LIG d   1      -5.705  79.518 116.927  0.00  0.00     0.091 C 
ENDROOT
BRANCH   1   7
ATOM      7  O   LIG d   1      -5.818  77.144 116.330  0.00  0.00    -0.368 OA
BRANCH   7   8
ATOM      8  C   LIG d   1      -5.453  75.811 116.767  0.00  0.00     0.119 C 
BRANCH   8   9
ATOM      9  C   LIG d   1      -3.960  75.841 117.146  0.00  0.00     0.028 C 
ATOM     10  C   LIG d   1      -3.385  74.434 117.378  0.00  0.00     0.006 C 
ENDBRANCH   8   9
BRANCH   8  11
ATOM     11  C   LIG d   1      -5.560  74.801 115.620  0.00  0.00     0.028 C 
ATOM     12  C   LIG d   1      -5.706  75.473 114.246  0.00  0.00     0.006 C 
ENDBRANCH   8  11
ENDBRANCH   7   8
ENDBRANCH   1   7
BRANCH   6  13
ATOM     13  N   LIG d   1      -4.223  79.612 116.999  0.00  0.00    -0.311 N 
ATOM     14  C   LIG d   1      -3.483  80.235 116.084  0.00  0.00     0.210 C 
ATOM     15  C   LIG d   1      -1.973  80.197 116.340  0.00  0.00     0.109 C 
ATOM     16  O   LIG d   1      -3.935  80.843 115.103  0.00  0.00    -0.276 OA
ATOM     17  H   LIG d   1      -3.776  79.173 117.780  0.00  0.00     0.149 HD
ENDBRANCH   6  13
BRANCH   5  18
ATOM     18  N   LIG d   1      -6.140  81.972 117.302  0.00  0.00     0.381 N 
ATOM     19  H   LIG d   1      -5.897  82.557 118.077  0.00  0.00    -0.090 HD
ATOM     20  H   LIG d   1      -6.974  82.338 116.880  0.00  0.00    -0.090 HD
ATOM     21  H   LIG d   1      -5.398  81.964 116.637  0.00  0.00    -0.090 HD
ENDBRANCH   5  18
BRANCH   3  22
ATOM     22  C   LIG d   1      -9.534  78.858 118.612  0.00  0.00     0.382 C 
ATOM     23  O   LIG d   1     -10.207  77.841 118.317  0.00  0.00    -0.241 OA
ATOM     24  O   LIG d   1     -10.007  79.698 119.401  0.00  0.00    -0.241 OA
ENDBRANCH   3  22
TORSDOF 7
ENDMDL
MODEL 8
REMARK VINA RESULT:      -4.7     17.476     19.242
REMARK  7 active torsions:
REMARK  status: ('A' for Active; 'I' for Inactive)
REMARK    1  A    between atoms: C_2  and  C_3 
REMARK    2  A    between atoms: C_3  and  O_6 
REMARK    3  A    between atoms: C_3  and  C_4 
REMARK    4  A    between atoms: C_7  and  O_6 
REMARK    5  A    between atoms: C_9  and  C_10 
REMARK    6  A    between atoms: N_15  and  C_14 
REMARK    7  A    between atoms: N_20  and  C_19 
REMARK       I    between atoms: C_22  and  N_20 
ROOT
ATOM      1  C   LIG d   1      -0.705  57.495 119.302  0.00  0.00     0.161 C 
ATOM      2  C   LIG d   1      -2.065  57.311 119.003  0.00  0.00     0.016 C 
ATOM      3  C   LIG d   1      -2.601  57.446 117.701  0.00  0.00     0.038 C 
ATOM      4  C   LIG d   1      -1.781  57.627 116.577  0.00  0.00     0.028 C 
ATOM      5  C   LIG d   1      -0.461  58.319 116.896  0.00  0.00    -0.047 C 
ATOM      6  C   LIG d   1       0.222  57.583 118.071  0.00  0.00     0.091 C 
ENDROOT
BRANCH   1   7
ATOM      7  O   LIG d   1      -0.256  56.455 120.194  0.00  0.00    -0.368 OA
BRANCH   7   8
ATOM      8  C   LIG d   1       0.395  55.320 119.573  0.00  0.00     0.119 C 
BRANCH   8   9
ATOM      9  C   LIG d   1      -0.653  54.198 119.444  0.00  0.00     0.028 C 
ATOM     10  C   LIG d   1      -0.858  53.751 117.987  0.00  0.00     0.006 C 
ENDBRANCH   8   9
BRANCH   8  11
ATOM     11  C   LIG d   1       1.494  54.747 120.473  0.00  0.00     0.028 C 
ATOM     12  C   LIG d   1       2.449  53.806 119.721  0.00  0.00     0.006 C 
ENDBRANCH   8  11
ENDBRANCH   7   8
ENDBRANCH   1   7
BRANCH   6  13
ATOM     13  N   LIG d   1       1.480  58.246 118.502  0.00  0.00    -0.311 N 
ATOM     14  C   LIG d   1       2.688  57.717 118.316  0.00  0.00     0.210 C 
ATOM     15  C   LIG d   1       3.851  58.557 118.854  0.00  0.00     0.109 C 
ATOM     16  O   LIG d   1       2.909  56.647 117.729  0.00  0.00    -0.276 OA
ATOM     17  H   LIG d   1       1.395  59.133 118.959  0.00  0.00     0.149 HD
ENDBRANCH   6  13
BRANCH   5  18
ATOM     18  N   LIG d   1       0.351  58.318 115.664  0.00  0.00     0.381 N 
ATOM     19  H   LIG d   1      -0.006  58.998 115.022  0.00  0.00    -0.090 HD
ATOM     20  H   LIG d   1       0.287  57.413 115.233  0.00  0.00    -0.090 HD
ATOM     21  H   LIG d   1       1.301  58.524 115.882  0.00  0.00    -0.090 HD
ENDBRANCH   5  18
BRANCH   3  22
ATOM     22  C   LIG d   1      -3.976  57.440 117.520  0.00  0.00     0.382 C 
ATOM     23  O   LIG d   1      -4.561  58.480 117.133  0.00  0.00    -0.241 OA
ATOM     24  O   LIG d   1      -4.643  56.422 117.781  0.00  0.00    -0.241 OA
ENDBRANCH   3  22
TORSDOF 7
ENDMDL
MODEL 9
REMARK VINA RESULT:      -4.5      2.488      6.022
REMARK  7 active torsions:
REMARK  status: ('A' for Active; 'I' for Inactive)
REMARK    1  A    between atoms: C_2  and  C_3 
REMARK    2  A    between atoms: C_3  and  O_6 
REMARK    3  A    between atoms: C_3  and  C_4 
REMARK    4  A    between atoms: C_7  and  O_6 
REMARK    5  A    between atoms: C_9  and  C_10 
REMARK    6  A    between atoms: N_15  and  C_14 
REMARK    7  A    between atoms: N_20  and  C_19 
REMARK       I    between atoms: C_22  and  N_20 
ROOT
ATOM      1  C   LIG d   1      -4.186  74.582 116.987  0.00  0.00     0.161 C 
ATOM      2  C   LIG d   1      -3.029  75.230 116.524  0.00  0.00     0.016 C 
ATOM      3  C   LIG d   1      -2.986  75.989 115.332  0.00  0.00     0.038 C 
ATOM      4  C   LIG d   1      -4.145  76.279 114.596  0.00  0.00     0.028 C 
ATOM      5  C   LIG d   1      -5.239  75.228 114.751  0.00  0.00    -0.047 C 
ATOM      6  C   LIG d   1      -5.486  74.978 116.256  0.00  0.00     0.091 C 
ENDROOT
BRANCH   1   7
ATOM      7  O   LIG d   1      -4.327  74.788 118.407  0.00  0.00    -0.368 OA
BRANCH   7   8
ATOM      8  C   LIG d   1      -5.254  75.826 118.811  0.00  0.00     0.119 C 
BRANCH   8   9
ATOM      9  C   LIG d   1      -4.427  76.969 119.431  0.00  0.00     0.028 C 
ATOM     10  C   LIG d   1      -4.274  78.167 118.478  0.00  0.00     0.006 C 
ENDBRANCH   8   9
BRANCH   8  11
ATOM     11  C   LIG d   1      -6.179  75.342 119.931  0.00  0.00     0.028 C 
ATOM     12  C   LIG d   1      -7.500  76.124 119.993  0.00  0.00     0.006 C 
ENDBRANCH   8  11
ENDBRANCH   7   8
ENDBRANCH   1   7
BRANCH   6  13
ATOM     13  N   LIG d   1      -6.483  73.903 116.496  0.00  0.00    -0.311 N 
ATOM     14  C   LIG d   1      -7.781  74.136 116.687  0.00  0.00     0.210 C 
ATOM     15  C   LIG d   1      -8.632  72.886 116.937  0.00  0.00     0.109 C 
ATOM     16  O   LIG d   1      -8.313  75.255 116.640  0.00  0.00    -0.276 OA
ATOM     17  H   LIG d   1      -6.142  72.962 116.519  0.00  0.00     0.149 HD
ENDBRANCH   6  13
BRANCH   5  18
ATOM     18  N   LIG d   1      -6.435  75.723 114.043  0.00  0.00     0.381 N 
ATOM     19  H   LIG d   1      -6.337  76.701 113.855  0.00  0.00    -0.090 HD
ATOM     20  H   LIG d   1      -7.238  75.595 114.634  0.00  0.00    -0.090 HD
ATOM     21  H   LIG d   1      -6.558  75.224 113.190  0.00  0.00    -0.090 HD
ENDBRANCH   5  18
BRANCH   3  22
ATOM     22  C   LIG d   1      -1.767  76.434 114.844  0.00  0.00     0.382 C 
ATOM     23  O   LIG d   1      -1.453  77.644 114.953  0.00  0.00    -0.241 OA
ATOM     24  O   LIG d   1      -0.997  75.650 114.258  0.00  0.00    -0.241 OA
ENDBRANCH   3  22
TORSDOF 7
ENDMDL
