MODEL 1
REMARK VINA RESULT:      -5.2      0.000      0.000
REMARK  7 active torsions:
REMARK  status: ('A' for Active; 'I' for Inactive)
REMARK    1  A    between atoms: C_2  and  C_3 
REMARK    2  A    between atoms: C_3  and  O_6 
REMARK    3  A    between atoms: C_3  and  C_4 
REMARK    4  A    between atoms: C_7  and  O_6 
REMARK    5  A    between atoms: C_9  and  C_10 
REMARK    6  A    between atoms: N_15  and  C_14 
REMARK    7  A    between atoms: N_20  and  C_19 
REMARK       I    between atoms: C_22  and  N_20 
ROOT
ATOM      1  C   LIG d   1      -6.210  92.066 119.099  0.00  0.00     0.161 C 
ATOM      2  C   LIG d   1      -7.505  92.592 118.959  0.00  0.00     0.016 C 
ATOM      3  C   LIG d   1      -7.776  93.975 118.850  0.00  0.00     0.038 C 
ATOM      4  C   LIG d   1      -6.750  94.924 118.721  0.00  0.00     0.028 C 
ATOM      5  C   LIG d   1      -5.438  94.488 119.364  0.00  0.00    -0.047 C 
ATOM      6  C   LIG d   1      -5.071  93.077 118.849  0.00  0.00     0.091 C 
ENDROOT
BRANCH   1   7
ATOM      7  O   LIG d   1      -6.054  90.916 118.246  0.00  0.00    -0.368 OA
BRANCH   7   8
ATOM      8  C   LIG d   1      -6.280  91.136 116.831  0.00  0.00     0.119 C 
BRANCH   8   9
ATOM      9  C   LIG d   1      -7.352  90.129 116.371  0.00  0.00     0.028 C 
ATOM     10  C   LIG d   1      -7.526  90.114 114.843  0.00  0.00     0.006 C 
ENDBRANCH   8   9
BRANCH   8  11
ATOM     11  C   LIG d   1      -5.031  90.803 116.009  0.00  0.00     0.028 C 
ATOM     12  C   LIG d   1      -3.954  90.075 116.830  0.00  0.00     0.006 C 
ENDBRANCH   8  11
ENDBRANCH   7   8
ENDBRANCH   1   7
BRANCH   6  13
ATOM     13  N   LIG d   1      -3.844  92.541 119.493  0.00  0.00    -0.311 N 
ATOM     14  C   LIG d   1      -2.622  92.700 118.989  0.00  0.00     0.210 C 
ATOM     15  C   LIG d   1      -1.497  92.050 119.800  0.00  0.00     0.109 C 
ATOM     16  O   LIG d   1      -2.359  93.347 117.963  0.00  0.00    -0.276 OA
ATOM     17  H   LIG d   1      -3.962  92.030 120.346  0.00  0.00     0.149 HD
ENDBRANCH   6  13
BRANCH   5  18
ATOM     18  N   LIG d   1      -4.422  95.506 119.037  0.00  0.00     0.381 N 
ATOM     19  H   LIG d   1      -4.510  95.776 118.078  0.00  0.00    -0.090 HD
ATOM     20  H   LIG d   1      -3.509  95.108 119.170  0.00  0.00    -0.090 HD
ATOM     21  H   LIG d   1      -4.534  96.302 119.626  0.00  0.00    -0.090 HD
ENDBRANCH   5  18
BRANCH   3  22
ATOM     22  C   LIG d   1      -9.086  94.426 118.909  0.00  0.00     0.382 C 
ATOM     23  O   LIG d   1      -9.336  95.647 118.766  0.00  0.00    -0.241 OA
ATOM     24  O   LIG d   1     -10.017  93.632 119.147  0.00  0.00    -0.241 OA
ENDBRANCH   3  22
TORSDOF 7
ENDMDL
MODEL 2
REMARK VINA RESULT:      -5.0     12.928     14.856
REMARK  7 active torsions:
REMARK  status: ('A' for Active; 'I' for Inactive)
REMARK    1  A    between atoms: C_2  and  C_3 
REMARK    2  A    between atoms: C_3  and  O_6 
REMARK    3  A    between atoms: C_3  and  C_4 
REMARK    4  A    between atoms: C_7  and  O_6 
REMARK    5  A    between atoms: C_9  and  C_10 
REMARK    6  A    between atoms: N_15  and  C_14 
REMARK    7  A    between atoms: N_20  and  C_19 
REMARK       I    between atoms: C_22  and  N_20 
ROOT
ATOM      1  C   LIG d   1      -6.918  77.750 117.623  0.00  0.00     0.161 C 
ATOM      2  C   LIG d   1      -8.299  77.851 117.858  0.00  0.00     0.016 C 
ATOM      3  C   LIG d   1      -8.918  79.017 118.365  0.00  0.00     0.038 C 
ATOM      4  C   LIG d   1      -8.214  80.218 118.531  0.00  0.00     0.028 C 
ATOM      5  C   LIG d   1      -6.724  80.017 118.786  0.00  0.00    -0.047 C 
ATOM      6  C   LIG d   1      -6.149  79.086 117.694  0.00  0.00     0.091 C 
ENDROOT
BRANCH   1   7
ATOM      7  O   LIG d   1      -6.683  77.103 116.356  0.00  0.00    -0.368 OA
BRANCH   7   8
ATOM      8  C   LIG d   1      -6.034  75.809 116.411  0.00  0.00     0.119 C 
BRANCH   8   9
ATOM      9  C   LIG d   1      -5.158  75.677 115.150  0.00  0.00     0.028 C 
ATOM     10  C   LIG d   1      -5.991  75.641 113.858  0.00  0.00     0.006 C 
ENDBRANCH   8   9
BRANCH   8  11
ATOM     11  C   LIG d   1      -7.053  74.670 116.319  0.00  0.00     0.028 C 
ATOM     12  C   LIG d   1      -6.488  73.324 116.799  0.00  0.00     0.006 C 
ENDBRANCH   8  11
ENDBRANCH   7   8
ENDBRANCH   1   7
BRANCH   6  13
ATOM     13  N   LIG d   1      -4.715  78.769 117.916  0.00  0.00    -0.311 N 
ATOM     14  C   LIG d   1      -3.786  78.868 116.966  0.00  0.00     0.210 C 
ATOM     15  C   LIG d   1      -2.371  78.474 117.401  0.00  0.00     0.109 C 
ATOM     16  O   LIG d   1      -3.994  79.276 115.814  0.00  0.00    -0.276 OA
ATOM     17  H   LIG d   1      -4.452  78.460 118.832  0.00  0.00     0.149 HD
ENDBRANCH   6  13
BRANCH   5  18
ATOM     18  N   LIG d   1      -6.090  81.349 118.803  0.00  0.00     0.381 N 
ATOM     19  H   LIG d   1      -6.563  81.957 118.165  0.00  0.00    -0.090 HD
ATOM     20  H   LIG d   1      -5.135  81.258 118.503  0.00  0.00    -0.090 HD
ATOM     21  H   LIG d   1      -6.123  81.730 119.723  0.00  0.00    -0.090 HD
ENDBRANCH   5  18
BRANCH   3  22
ATOM     22  C   LIG d   1     -10.250  78.975 118.750  0.00  0.00     0.382 C 
ATOM     23  O   LIG d   1     -10.781  79.981 119.279  0.00  0.00    -0.241 OA
ATOM     24  O   LIG d   1     -10.914  77.930 118.616  0.00  0.00    -0.241 OA
ENDBRANCH   3  22
TORSDOF 7
ENDMDL
MODEL 3
REMARK VINA RESULT:      -4.9     14.637     16.890
REMARK  7 active torsions:
REMARK  status: ('A' for Active; 'I' for Inactive)
REMARK    1  A    between atoms: C_2  and  C_3 
REMARK    2  A    between atoms: C_3  and  O_6 
REMARK    3  A    between atoms: C_3  and  C_4 
REMARK    4  A    between atoms: C_7  and  O_6 
REMARK    5  A    between atoms: C_9  and  C_10 
REMARK    6  A    between atoms: N_15  and  C_14 
REMARK    7  A    between atoms: N_20  and  C_19 
REMARK       I    between atoms: C_22  and  N_20 
ROOT
ATOM      1  C   LIG d   1      -3.524  76.015 117.304  0.00  0.00     0.161 C 
ATOM      2  C   LIG d   1      -4.427  77.055 117.582  0.00  0.00     0.016 C 
ATOM      3  C   LIG d   1      -4.300  78.359 117.051  0.00  0.00     0.038 C 
ATOM      4  C   LIG d   1      -3.338  78.673 116.079  0.00  0.00     0.028 C 
ATOM      5  C   LIG d   1      -2.096  77.791 116.149  0.00  0.00    -0.047 C 
ATOM      6  C   LIG d   1      -2.533  76.309 116.158  0.00  0.00     0.091 C 
ENDROOT
BRANCH   1   7
ATOM      7  O   LIG d   1      -4.248  74.797 117.040  0.00  0.00    -0.368 OA
BRANCH   7   8
ATOM      8  C   LIG d   1      -5.545  74.949 116.413  0.00  0.00     0.119 C 
BRANCH   8   9
ATOM      9  C   LIG d   1      -6.525  74.011 117.143  0.00  0.00     0.028 C 
ATOM     10  C   LIG d   1      -6.431  72.559 116.643  0.00  0.00     0.006 C 
ENDBRANCH   8   9
BRANCH   8  11
ATOM     11  C   LIG d   1      -5.522  74.461 114.961  0.00  0.00     0.028 C 
ATOM     12  C   LIG d   1      -5.659  75.607 113.945  0.00  0.00     0.006 C 
ENDBRANCH   8  11
ENDBRANCH   7   8
ENDBRANCH   1   7
BRANCH   6  13
ATOM     13  N   LIG d   1      -1.383  75.380 116.310  0.00  0.00    -0.311 N 
ATOM     14  C   LIG d   1      -1.120  74.393 115.455  0.00  0.00     0.210 C 
ATOM     15  C   LIG d   1       0.103  73.540 115.808  0.00  0.00     0.109 C 
ATOM     16  O   LIG d   1      -1.764  74.164 114.420  0.00  0.00    -0.276 OA
ATOM     17  H   LIG d   1      -0.790  75.514 117.105  0.00  0.00     0.149 HD
ENDBRANCH   6  13
BRANCH   5  18
ATOM     18  N   LIG d   1      -1.241  78.135 114.997  0.00  0.00     0.381 N 
ATOM     19  H   LIG d   1      -1.769  78.657 114.327  0.00  0.00    -0.090 HD
ATOM     20  H   LIG d   1      -0.928  77.286 114.560  0.00  0.00    -0.090 HD
ATOM     21  H   LIG d   1      -0.457  78.669 115.302  0.00  0.00    -0.090 HD
ENDBRANCH   5  18
BRANCH   3  22
ATOM     22  C   LIG d   1      -5.116  79.376 117.523  0.00  0.00     0.382 C 
ATOM     23  O   LIG d   1      -6.317  79.432 117.166  0.00  0.00    -0.241 OA
ATOM     24  O   LIG d   1      -4.655  80.262 118.267  0.00  0.00    -0.241 OA
ENDBRANCH   3  22
TORSDOF 7
ENDMDL
MODEL 4
REMARK VINA RESULT:      -4.8     15.736     18.175
REMARK  7 active torsions:
REMARK  status: ('A' for Active; 'I' for Inactive)
REMARK    1  A    between atoms: C_2  and  C_3 
REMARK    2  A    between atoms: C_3  and  O_6 
REMARK    3  A    between atoms: C_3  and  C_4 
REMARK    4  A    between atoms: C_7  and  O_6 
REMARK    5  A    between atoms: C_9  and  C_10 
REMARK    6  A    between atoms: N_15  and  C_14 
REMARK    7  A    between atoms: N_20  and  C_19 
REMARK       I    between atoms: C_22  and  N_20 
ROOT
ATOM      1  C   LIG d   1      -2.682  74.957 116.780  0.00  0.00     0.161 C 
ATOM      2  C   LIG d   1      -2.996  76.260 116.360  0.00  0.00     0.016 C 
ATOM      3  C   LIG d   1      -2.062  77.126 115.747  0.00  0.00     0.038 C 
ATOM      4  C   LIG d   1      -0.782  76.691 115.372  0.00  0.00     0.028 C 
ATOM      5  C   LIG d   1      -0.257  75.545 116.231  0.00  0.00    -0.047 C 
ATOM      6  C   LIG d   1      -1.322  74.426 116.280  0.00  0.00     0.091 C 
ENDROOT
BRANCH   1   7
ATOM      7  O   LIG d   1      -3.741  74.054 116.405  0.00  0.00    -0.368 OA
BRANCH   7   8
ATOM      8  C   LIG d   1      -5.026  74.660 116.125  0.00  0.00     0.119 C 
BRANCH   8   9
ATOM      9  C   LIG d   1      -6.056  74.027 117.081  0.00  0.00     0.028 C 
ATOM     10  C   LIG d   1      -6.431  72.593 116.673  0.00  0.00     0.006 C 
ENDBRANCH   8   9
BRANCH   8  11
ATOM     11  C   LIG d   1      -5.513  74.309 114.716  0.00  0.00     0.028 C 
ATOM     12  C   LIG d   1      -5.838  75.551 113.870  0.00  0.00     0.006 C 
ENDBRANCH   8  11
ENDBRANCH   7   8
ENDBRANCH   1   7
BRANCH   6  13
ATOM     13  N   LIG d   1      -0.923  73.303 117.167  0.00  0.00    -0.311 N 
ATOM     14  C   LIG d   1      -0.630  73.456 118.457  0.00  0.00     0.210 C 
ATOM     15  C   LIG d   1      -0.223  72.171 119.185  0.00  0.00     0.109 C 
ATOM     16  O   LIG d   1      -0.699  74.529 119.076  0.00  0.00    -0.276 OA
ATOM     17  H   LIG d   1      -0.872  72.392 116.755  0.00  0.00     0.149 HD
ENDBRANCH   6  13
BRANCH   5  18
ATOM     18  N   LIG d   1       1.022  75.101 115.646  0.00  0.00     0.381 N 
ATOM     19  H   LIG d   1       1.238  74.178 115.966  0.00  0.00    -0.090 HD
ATOM     20  H   LIG d   1       1.752  75.720 115.952  0.00  0.00    -0.090 HD
ATOM     21  H   LIG d   1       0.964  75.110 114.651  0.00  0.00    -0.090 HD
ENDBRANCH   5  18
BRANCH   3  22
ATOM     22  C   LIG d   1      -2.393  78.456 115.538  0.00  0.00     0.382 C 
ATOM     23  O   LIG d   1      -1.490  79.324 115.472  0.00  0.00    -0.241 OA
ATOM     24  O   LIG d   1      -3.586  78.806 115.459  0.00  0.00    -0.241 OA
ENDBRANCH   3  22
TORSDOF 7
ENDMDL
MODEL 5
REMARK VINA RESULT:      -4.7      2.238      4.165
REMARK  7 active torsions:
REMARK  status: ('A' for Active; 'I' for Inactive)
REMARK    1  A    between atoms: C_2  and  C_3 
REMARK    2  A    between atoms: C_3  and  O_6 
REMARK    3  A    between atoms: C_3  and  C_4 
REMARK    4  A    between atoms: C_7  and  O_6 
REMARK    5  A    between atoms: C_9  and  C_10 
REMARK    6  A    between atoms: N_15  and  C_14 
REMARK    7  A    between atoms: N_20  and  C_19 
REMARK       I    between atoms: C_22  and  N_20 
ROOT
ATOM      1  C   LIG d   1      -4.758  92.806 118.315  0.00  0.00     0.161 C 
ATOM      2  C   LIG d   1      -5.091  93.956 119.051  0.00  0.00     0.016 C 
ATOM      3  C   LIG d   1      -6.310  94.655 118.891  0.00  0.00     0.038 C 
ATOM      4  C   LIG d   1      -7.348  94.162 118.087  0.00  0.00     0.028 C 
ATOM      5  C   LIG d   1      -6.861  93.278 116.944  0.00  0.00    -0.047 C 
ATOM      6  C   LIG d   1      -5.924  92.190 117.515  0.00  0.00     0.091 C 
ENDROOT
BRANCH   1   7
ATOM      7  O   LIG d   1      -4.173  91.820 119.189  0.00  0.00    -0.368 OA
BRANCH   7   8
ATOM      8  C   LIG d   1      -2.933  91.223 118.737  0.00  0.00     0.119 C 
BRANCH   8   9
ATOM      9  C   LIG d   1      -3.096  89.694 118.824  0.00  0.00     0.028 C 
ATOM     10  C   LIG d   1      -2.310  88.956 117.727  0.00  0.00     0.006 C 
ENDBRANCH   8   9
BRANCH   8  11
ATOM     11  C   LIG d   1      -1.775  91.562 119.682  0.00  0.00     0.028 C 
ATOM     12  C   LIG d   1      -1.213  92.974 119.452  0.00  0.00     0.006 C 
ENDBRANCH   8  11
ENDBRANCH   7   8
ENDBRANCH   1   7
BRANCH   6  13
ATOM     13  N   LIG d   1      -5.336  91.333 116.452  0.00  0.00    -0.311 N 
ATOM     14  C   LIG d   1      -5.876  90.182 116.056  0.00  0.00     0.210 C 
ATOM     15  C   LIG d   1      -5.099  89.446 114.960  0.00  0.00     0.109 C 
ATOM     16  O   LIG d   1      -6.942  89.716 116.486  0.00  0.00    -0.276 OA
ATOM     17  H   LIG d   1      -4.487  91.652 116.027  0.00  0.00     0.149 HD
ENDBRANCH   6  13
BRANCH   5  18
ATOM     18  N   LIG d   1      -8.051  92.722 116.272  0.00  0.00     0.381 N 
ATOM     19  H   LIG d   1      -8.878  93.153 116.637  0.00  0.00    -0.090 HD
ATOM     20  H   LIG d   1      -8.100  91.737 116.461  0.00  0.00    -0.090 HD
ATOM     21  H   LIG d   1      -7.992  92.878 115.290  0.00  0.00    -0.090 HD
ENDBRANCH   5  18
BRANCH   3  22
ATOM     22  C   LIG d   1      -6.483  95.884 119.510  0.00  0.00     0.382 C 
ATOM     23  O   LIG d   1      -7.440  96.058 120.302  0.00  0.00    -0.241 OA
ATOM     24  O   LIG d   1      -5.719  96.834 119.252  0.00  0.00    -0.241 OA
ENDBRANCH   3  22
TORSDOF 7
ENDMDL
MODEL 6
REMARK VINA RESULT:      -4.7     15.444     18.197
REMARK  7 active torsions:
REMARK  status: ('A' for Active; 'I' for Inactive)
REMARK    1  A    between atoms: C_2  and  C_3 
REMARK    2  A    between atoms: C_3  and  O_6 
REMARK    3  A    between atoms: C_3  and  C_4 
REMARK    4  A    between atoms: C_7  and  O_6 
REMARK    5  A    between atoms: C_9  and  C_10 
REMARK    6  A    between atoms: N_15  and  C_14 
REMARK    7  A    between atoms: N_20  and  C_19 
REMARK       I    between atoms: C_22  and  N_20 
ROOT
ATOM      1  C   LIG d   1      -3.160  75.228 115.960  0.00  0.00     0.161 C 
ATOM      2  C   LIG d   1      -2.105  74.395 115.552  0.00  0.00     0.016 C 
ATOM      3  C   LIG d   1      -0.743  74.760 115.653  0.00  0.00     0.038 C 
ATOM      4  C   LIG d   1      -0.335  75.929 116.312  0.00  0.00     0.028 C 
ATOM      5  C   LIG d   1      -1.384  77.035 116.288  0.00  0.00    -0.047 C 
ATOM      6  C   LIG d   1      -2.731  76.460 116.783  0.00  0.00     0.091 C 
ENDROOT
BRANCH   1   7
ATOM      7  O   LIG d   1      -4.139  74.457 116.685  0.00  0.00    -0.368 OA
BRANCH   7   8
ATOM      8  C   LIG d   1      -5.205  73.875 115.894  0.00  0.00     0.119 C 
BRANCH   8   9
ATOM      9  C   LIG d   1      -5.757  74.982 114.976  0.00  0.00     0.028 C 
ATOM     10  C   LIG d   1      -6.950  75.724 115.602  0.00  0.00     0.006 C 
ENDBRANCH   8   9
BRANCH   8  11
ATOM     11  C   LIG d   1      -6.384  73.453 116.775  0.00  0.00     0.028 C 
ATOM     12  C   LIG d   1      -6.707  71.955 116.660  0.00  0.00     0.006 C 
ENDBRANCH   8  11
ENDBRANCH   7   8
ENDBRANCH   1   7
BRANCH   6  13
ATOM     13  N   LIG d   1      -3.832  77.455 116.712  0.00  0.00    -0.311 N 
ATOM     14  C   LIG d   1      -4.195  78.222 117.739  0.00  0.00     0.210 C 
ATOM     15  C   LIG d   1      -5.368  79.166 117.458  0.00  0.00     0.109 C 
ATOM     16  O   LIG d   1      -3.637  78.232 118.846  0.00  0.00    -0.276 OA
ATOM     17  H   LIG d   1      -4.319  77.535 115.841  0.00  0.00     0.149 HD
ENDBRANCH   6  13
BRANCH   5  18
ATOM     18  N   LIG d   1      -0.884  78.141 117.127  0.00  0.00     0.381 N 
ATOM     19  H   LIG d   1       0.017  78.432 116.803  0.00  0.00    -0.090 HD
ATOM     20  H   LIG d   1      -0.789  77.815 118.072  0.00  0.00    -0.090 HD
ATOM     21  H   LIG d   1      -1.520  78.908 117.094  0.00  0.00    -0.090 HD
ENDBRANCH   5  18
BRANCH   3  22
ATOM     22  C   LIG d   1       0.226  73.969 115.054  0.00  0.00     0.382 C 
ATOM     23  O   LIG d   1       1.103  74.494 114.326  0.00  0.00    -0.241 OA
ATOM     24  O   LIG d   1       0.209  72.732 115.197  0.00  0.00    -0.241 OA
ENDBRANCH   3  22
TORSDOF 7
ENDMDL
MODEL 7
REMARK VINA RESULT:      -4.7      2.599      4.792
REMARK  7 active torsions:
REMARK  status: ('A' for Active; 'I' for Inactive)
REMARK    1  A    between atoms: C_2  and  C_3 
REMARK    2  A    between atoms: C_3  and  O_6 
REMARK    3  A    between atoms: C_3  and  C_4 
REMARK    4  A    between atoms: C_7  and  O_6 
REMARK    5  A    between atoms: C_9  and  C_10 
REMARK    6  A    between atoms: N_15  and  C_14 
REMARK    7  A    between atoms: N_20  and  C_19 
REMARK       I    between atoms: C_22  and  N_20 
ROOT
ATOM      1  C   LIG d   1      -4.680  92.380 117.369  0.00  0.00     0.161 C 
ATOM      2  C   LIG d   1      -4.168  93.316 118.283  0.00  0.00     0.016 C 
ATOM      3  C   LIG d   1      -4.969  94.269 118.952  0.00  0.00     0.038 C 
ATOM      4  C   LIG d   1      -6.369  94.252 118.866  0.00  0.00     0.028 C 
ATOM      5  C   LIG d   1      -6.889  93.650 117.565  0.00  0.00    -0.047 C 
ATOM      6  C   LIG d   1      -6.219  92.274 117.346  0.00  0.00     0.091 C 
ENDROOT
BRANCH   1   7
ATOM      7  O   LIG d   1      -4.092  91.087 117.613  0.00  0.00    -0.368 OA
BRANCH   7   8
ATOM      8  C   LIG d   1      -3.116  91.021 118.681  0.00  0.00     0.119 C 
BRANCH   8   9
ATOM      9  C   LIG d   1      -1.793  90.522 118.070  0.00  0.00     0.028 C 
ATOM     10  C   LIG d   1      -0.710  91.614 118.043  0.00  0.00     0.006 C 
ENDBRANCH   8   9
BRANCH   8  11
ATOM     11  C   LIG d   1      -3.502  89.970 119.726  0.00  0.00     0.028 C 
ATOM     12  C   LIG d   1      -2.584  88.738 119.699  0.00  0.00     0.006 C 
ENDBRANCH   8  11
ENDBRANCH   7   8
ENDBRANCH   1   7
BRANCH   6  13
ATOM     13  N   LIG d   1      -6.608  91.653 116.053  0.00  0.00    -0.311 N 
ATOM     14  C   LIG d   1      -7.303  90.520 115.964  0.00  0.00     0.210 C 
ATOM     15  C   LIG d   1      -7.581  90.043 114.535  0.00  0.00     0.109 C 
ATOM     16  O   LIG d   1      -7.743  89.882 116.932  0.00  0.00    -0.276 OA
ATOM     17  H   LIG d   1      -6.319  92.121 115.217  0.00  0.00     0.149 HD
ENDBRANCH   6  13
BRANCH   5  18
ATOM     18  N   LIG d   1      -8.358  93.568 117.667  0.00  0.00     0.381 N 
ATOM     19  H   LIG d   1      -8.683  94.188 118.382  0.00  0.00    -0.090 HD
ATOM     20  H   LIG d   1      -8.615  92.631 117.920  0.00  0.00    -0.090 HD
ATOM     21  H   LIG d   1      -8.774  93.810 116.794  0.00  0.00    -0.090 HD
ENDBRANCH   5  18
BRANCH   3  22
ATOM     22  C   LIG d   1      -4.367  95.279 119.687  0.00  0.00     0.382 C 
ATOM     23  O   LIG d   1      -3.116  95.331 119.773  0.00  0.00    -0.241 OA
ATOM     24  O   LIG d   1      -5.059  96.112 120.302  0.00  0.00    -0.241 OA
ENDBRANCH   3  22
TORSDOF 7
ENDMDL
MODEL 8
REMARK VINA RESULT:      -4.6     16.044     18.564
REMARK  7 active torsions:
REMARK  status: ('A' for Active; 'I' for Inactive)
REMARK    1  A    between atoms: C_2  and  C_3 
REMARK    2  A    between atoms: C_3  and  O_6 
REMARK    3  A    between atoms: C_3  and  C_4 
REMARK    4  A    between atoms: C_7  and  O_6 
REMARK    5  A    between atoms: C_9  and  C_10 
REMARK    6  A    between atoms: N_15  and  C_14 
REMARK    7  A    between atoms: N_20  and  C_19 
REMARK       I    between atoms: C_22  and  N_20 
ROOT
ATOM      1  C   LIG d   1      -4.085  74.351 116.331  0.00  0.00     0.161 C 
ATOM      2  C   LIG d   1      -4.831  73.190 116.068  0.00  0.00     0.016 C 
ATOM      3  C   LIG d   1      -6.208  73.067 116.362  0.00  0.00     0.038 C 
ATOM      4  C   LIG d   1      -6.973  74.157 116.804  0.00  0.00     0.028 C 
ATOM      5  C   LIG d   1      -6.158  75.201 117.560  0.00  0.00    -0.047 C 
ATOM      6  C   LIG d   1      -4.926  75.588 116.710  0.00  0.00     0.091 C 
ENDROOT
BRANCH   1   7
ATOM      7  O   LIG d   1      -3.233  74.649 115.208  0.00  0.00    -0.368 OA
BRANCH   7   8
ATOM      8  C   LIG d   1      -1.856  74.213 115.319  0.00  0.00     0.119 C 
BRANCH   8   9
ATOM      9  C   LIG d   1      -1.476  74.253 116.812  0.00  0.00     0.028 C 
ATOM     10  C   LIG d   1      -0.151  73.527 117.100  0.00  0.00     0.006 C 
ENDBRANCH   8   9
BRANCH   8  11
ATOM     11  C   LIG d   1      -0.903  75.195 114.632  0.00  0.00     0.028 C 
ATOM     12  C   LIG d   1      -1.600  76.491 114.188  0.00  0.00     0.006 C 
ENDBRANCH   8  11
ENDBRANCH   7   8
ENDBRANCH   1   7
BRANCH   6  13
ATOM     13  N   LIG d   1      -4.030  76.543 117.413  0.00  0.00    -0.311 N 
ATOM     14  C   LIG d   1      -3.724  77.748 116.935  0.00  0.00     0.210 C 
ATOM     15  C   LIG d   1      -2.767  78.566 117.808  0.00  0.00     0.109 C 
ATOM     16  O   LIG d   1      -4.181  78.231 115.888  0.00  0.00    -0.276 OA
ATOM     17  H   LIG d   1      -3.640  76.245 118.285  0.00  0.00     0.149 HD
ENDBRANCH   6  13
BRANCH   5  18
ATOM     18  N   LIG d   1      -7.048  76.343 117.841  0.00  0.00     0.381 N 
ATOM     19  H   LIG d   1      -6.518  77.192 117.850  0.00  0.00    -0.090 HD
ATOM     20  H   LIG d   1      -7.460  76.219 118.749  0.00  0.00    -0.090 HD
ATOM     21  H   LIG d   1      -7.763  76.397 117.149  0.00  0.00    -0.090 HD
ENDBRANCH   5  18
BRANCH   3  22
ATOM     22  C   LIG d   1      -6.827  71.830 116.252  0.00  0.00     0.382 C 
ATOM     23  O   LIG d   1      -7.976  71.660 116.724  0.00  0.00    -0.241 OA
ATOM     24  O   LIG d   1      -6.231  70.871 115.726  0.00  0.00    -0.241 OA
ENDBRANCH   3  22
TORSDOF 7
ENDMDL
MODEL 9
REMARK VINA RESULT:      -4.4     28.973     31.477
REMARK  7 active torsions:
REMARK  status: ('A' for Active; 'I' for Inactive)
REMARK    1  A    between atoms: C_2  and  C_3 
REMARK    2  A    between atoms: C_3  and  O_6 
REMARK    3  A    between atoms: C_3  and  C_4 
REMARK    4  A    between atoms: C_7  and  O_6 
REMARK    5  A    between atoms: C_9  and  C_10 
REMARK    6  A    between atoms: N_15  and  C_14 
REMARK    7  A    between atoms: N_20  and  C_19 
REMARK       I    between atoms: C_22  and  N_20 
ROOT
ATOM      1  C   LIG d   1     -15.726  62.879 117.130  0.00  0.00     0.161 C 
ATOM      2  C   LIG d   1     -16.058  61.568 116.748  0.00  0.00     0.016 C 
ATOM      3  C   LIG d   1     -16.615  61.241 115.491  0.00  0.00     0.038 C 
ATOM      4  C   LIG d   1     -16.739  62.190 114.465  0.00  0.00     0.028 C 
ATOM      5  C   LIG d   1     -16.886  63.619 114.977  0.00  0.00    -0.047 C 
ATOM      6  C   LIG d   1     -15.750  63.911 115.983  0.00  0.00     0.091 C 
ENDROOT
BRANCH   1   7
ATOM      7  O   LIG d   1     -14.441  62.887 117.784  0.00  0.00    -0.368 OA
BRANCH   7   8
ATOM      8  C   LIG d   1     -14.462  62.785 119.229  0.00  0.00     0.119 C 
BRANCH   8   9
ATOM      9  C   LIG d   1     -14.418  64.218 119.794  0.00  0.00     0.028 C 
ATOM     10  C   LIG d   1     -15.805  64.719 120.232  0.00  0.00     0.006 C 
ENDBRANCH   8   9
BRANCH   8  11
ATOM     11  C   LIG d   1     -13.197  62.102 119.758  0.00  0.00     0.028 C 
ATOM     12  C   LIG d   1     -12.023  63.078 119.936  0.00  0.00     0.006 C 
ENDBRANCH   8  11
ENDBRANCH   7   8
ENDBRANCH   1   7
BRANCH   6  13
ATOM     13  N   LIG d   1     -15.869  65.260 116.595  0.00  0.00    -0.311 N 
ATOM     14  C   LIG d   1     -15.195  66.324 116.162  0.00  0.00     0.210 C 
ATOM     15  C   LIG d   1     -15.448  67.615 116.947  0.00  0.00     0.109 C 
ATOM     16  O   LIG d   1     -14.435  66.329 115.181  0.00  0.00    -0.276 OA
ATOM     17  H   LIG d   1     -16.487  65.354 117.377  0.00  0.00     0.149 HD
ENDBRANCH   6  13
BRANCH   5  18
ATOM     18  N   LIG d   1     -16.866  64.515 113.806  0.00  0.00     0.381 N 
ATOM     19  H   LIG d   1     -16.821  63.974 112.965  0.00  0.00    -0.090 HD
ATOM     20  H   LIG d   1     -16.046  65.094 113.853  0.00  0.00    -0.090 HD
ATOM     21  H   LIG d   1     -17.684  65.085 113.798  0.00  0.00    -0.090 HD
ENDBRANCH   5  18
BRANCH   3  22
ATOM     22  C   LIG d   1     -17.093  59.959 115.264  0.00  0.00     0.382 C 
ATOM     23  O   LIG d   1     -16.369  59.114 114.684  0.00  0.00    -0.241 OA
ATOM     24  O   LIG d   1     -18.254  59.650 115.591  0.00  0.00    -0.241 OA
ENDBRANCH   3  22
TORSDOF 7
ENDMDL
