MODEL 1
REMARK VINA RESULT:      -5.2      0.000      0.000
REMARK  7 active torsions:
REMARK  status: ('A' for Active; 'I' for Inactive)
REMARK    1  A    between atoms: C_2  and  C_3 
REMARK    2  A    between atoms: C_3  and  O_6 
REMARK    3  A    between atoms: C_3  and  C_4 
REMARK    4  A    between atoms: C_7  and  O_6 
REMARK    5  A    between atoms: C_9  and  C_10 
REMARK    6  A    between atoms: N_15  and  C_14 
REMARK    7  A    between atoms: N_20  and  C_19 
REMARK       I    between atoms: C_22  and  N_20 
ROOT
ATOM      1  C   LIG d   1      -3.829  90.443 117.488  0.00  0.00     0.161 C 
ATOM      2  C   LIG d   1      -4.838  89.782 116.768  0.00  0.00     0.016 C 
ATOM      3  C   LIG d   1      -6.070  90.384 116.422  0.00  0.00     0.038 C 
ATOM      4  C   LIG d   1      -6.317  91.747 116.644  0.00  0.00     0.028 C 
ATOM      5  C   LIG d   1      -5.529  92.322 117.816  0.00  0.00    -0.047 C 
ATOM      6  C   LIG d   1      -4.036  91.965 117.641  0.00  0.00     0.091 C 
ENDROOT
BRANCH   1   7
ATOM      7  O   LIG d   1      -2.545  90.169 116.893  0.00  0.00    -0.368 OA
BRANCH   7   8
ATOM      8  C   LIG d   1      -1.831  89.023 117.419  0.00  0.00     0.119 C 
BRANCH   8   9
ATOM      9  C   LIG d   1      -2.078  88.981 118.940  0.00  0.00     0.028 C 
ATOM     10  C   LIG d   1      -2.415  87.567 119.440  0.00  0.00     0.006 C 
ENDBRANCH   8   9
BRANCH   8  11
ATOM     11  C   LIG d   1      -0.317  89.189 117.259  0.00  0.00     0.028 C 
ATOM     12  C   LIG d   1       0.095  90.638 116.952  0.00  0.00     0.006 C 
ENDBRANCH   8  11
ENDBRANCH   7   8
ENDBRANCH   1   7
BRANCH   6  13
ATOM     13  N   LIG d   1      -3.206  92.417 118.788  0.00  0.00    -0.311 N 
ATOM     14  C   LIG d   1      -2.145  93.211 118.657  0.00  0.00     0.210 C 
ATOM     15  C   LIG d   1      -1.419  93.541 119.965  0.00  0.00     0.109 C 
ATOM     16  O   LIG d   1      -1.755  93.700 117.586  0.00  0.00    -0.276 OA
ATOM     17  H   LIG d   1      -3.471  92.094 119.698  0.00  0.00     0.149 HD
ENDBRANCH   6  13
BRANCH   5  18
ATOM     18  N   LIG d   1      -5.776  93.776 117.848  0.00  0.00     0.381 N 
ATOM     19  H   LIG d   1      -6.729  93.964 117.609  0.00  0.00    -0.090 HD
ATOM     20  H   LIG d   1      -5.187  94.221 117.166  0.00  0.00    -0.090 HD
ATOM     21  H   LIG d   1      -5.576  94.136 118.755  0.00  0.00    -0.090 HD
ENDBRANCH   5  18
BRANCH   3  22
ATOM     22  C   LIG d   1      -7.086  89.610 115.883  0.00  0.00     0.382 C 
ATOM     23  O   LIG d   1      -7.843  88.954 116.639  0.00  0.00    -0.241 OA
ATOM     24  O   LIG d   1      -7.227  89.523 114.648  0.00  0.00    -0.241 OA
ENDBRANCH   3  22
TORSDOF 7
ENDMDL
MODEL 2
REMARK VINA RESULT:      -5.1      2.499      4.583
REMARK  7 active torsions:
REMARK  status: ('A' for Active; 'I' for Inactive)
REMARK    1  A    between atoms: C_2  and  C_3 
REMARK    2  A    between atoms: C_3  and  O_6 
REMARK    3  A    between atoms: C_3  and  C_4 
REMARK    4  A    between atoms: C_7  and  O_6 
REMARK    5  A    between atoms: C_9  and  C_10 
REMARK    6  A    between atoms: N_15  and  C_14 
REMARK    7  A    between atoms: N_20  and  C_19 
REMARK       I    between atoms: C_22  and  N_20 
ROOT
ATOM      1  C   LIG d   1      -5.244  91.734 117.781  0.00  0.00     0.161 C 
ATOM      2  C   LIG d   1      -6.061  91.854 116.645  0.00  0.00     0.016 C 
ATOM      3  C   LIG d   1      -6.000  90.966 115.546  0.00  0.00     0.038 C 
ATOM      4  C   LIG d   1      -5.219  89.801 115.576  0.00  0.00     0.028 C 
ATOM      5  C   LIG d   1      -4.003  89.911 116.490  0.00  0.00    -0.047 C 
ATOM      6  C   LIG d   1      -4.464  90.406 117.880  0.00  0.00     0.091 C 
ENDROOT
BRANCH   1   7
ATOM      7  O   LIG d   1      -6.029  91.944 118.972  0.00  0.00    -0.368 OA
BRANCH   7   8
ATOM      8  C   LIG d   1      -5.817  93.200 119.662  0.00  0.00     0.119 C 
BRANCH   8   9
ATOM      9  C   LIG d   1      -7.043  94.092 119.385  0.00  0.00     0.028 C 
ATOM     10  C   LIG d   1      -6.763  95.158 118.313  0.00  0.00     0.006 C 
ENDBRANCH   8   9
BRANCH   8  11
ATOM     11  C   LIG d   1      -4.622  93.961 119.080  0.00  0.00     0.028 C 
ATOM     12  C   LIG d   1      -3.449  94.071 120.066  0.00  0.00     0.006 C 
ENDBRANCH   8  11
ENDBRANCH   7   8
ENDBRANCH   1   7
BRANCH   6  13
ATOM     13  N   LIG d   1      -3.325  90.621 118.811  0.00  0.00    -0.311 N 
ATOM     14  C   LIG d   1      -2.899  89.700 119.673  0.00  0.00     0.210 C 
ATOM     15  C   LIG d   1      -1.724  90.134 120.555  0.00  0.00     0.109 C 
ATOM     16  O   LIG d   1      -3.362  88.553 119.769  0.00  0.00    -0.276 OA
ATOM     17  H   LIG d   1      -2.872  91.513 118.778  0.00  0.00     0.149 HD
ENDBRANCH   6  13
BRANCH   5  18
ATOM     18  N   LIG d   1      -3.357  88.585 116.533  0.00  0.00     0.381 N 
ATOM     19  H   LIG d   1      -2.382  88.677 116.332  0.00  0.00    -0.090 HD
ATOM     20  H   LIG d   1      -3.771  87.999 115.830  0.00  0.00    -0.090 HD
ATOM     21  H   LIG d   1      -3.481  88.175 117.433  0.00  0.00    -0.090 HD
ENDBRANCH   5  18
BRANCH   3  22
ATOM     22  C   LIG d   1      -6.698  91.261 114.385  0.00  0.00     0.382 C 
ATOM     23  O   LIG d   1      -6.569  92.386 113.845  0.00  0.00    -0.241 OA
ATOM     24  O   LIG d   1      -7.489  90.433 113.895  0.00  0.00    -0.241 OA
ENDBRANCH   3  22
TORSDOF 7
ENDMDL
MODEL 3
REMARK VINA RESULT:      -4.9     11.508     13.437
REMARK  7 active torsions:
REMARK  status: ('A' for Active; 'I' for Inactive)
REMARK    1  A    between atoms: C_2  and  C_3 
REMARK    2  A    between atoms: C_3  and  O_6 
REMARK    3  A    between atoms: C_3  and  C_4 
REMARK    4  A    between atoms: C_7  and  O_6 
REMARK    5  A    between atoms: C_9  and  C_10 
REMARK    6  A    between atoms: N_15  and  C_14 
REMARK    7  A    between atoms: N_20  and  C_19 
REMARK       I    between atoms: C_22  and  N_20 
ROOT
ATOM      1  C   LIG d   1      -5.984  77.891 117.535  0.00  0.00     0.161 C 
ATOM      2  C   LIG d   1      -7.262  78.451 117.694  0.00  0.00     0.016 C 
ATOM      3  C   LIG d   1      -7.529  79.557 118.534  0.00  0.00     0.038 C 
ATOM      4  C   LIG d   1      -6.500  80.277 119.160  0.00  0.00     0.028 C 
ATOM      5  C   LIG d   1      -5.254  79.441 119.431  0.00  0.00    -0.047 C 
ATOM      6  C   LIG d   1      -4.832  78.731 118.124  0.00  0.00     0.091 C 
ENDROOT
BRANCH   1   7
ATOM      7  O   LIG d   1      -5.742  77.614 116.142  0.00  0.00    -0.368 OA
BRANCH   7   8
ATOM      8  C   LIG d   1      -5.710  76.215 115.766  0.00  0.00     0.119 C 
BRANCH   8   9
ATOM      9  C   LIG d   1      -4.503  76.014 114.829  0.00  0.00     0.028 C 
ATOM     10  C   LIG d   1      -3.545  74.922 115.333  0.00  0.00     0.006 C 
ENDBRANCH   8   9
BRANCH   8  11
ATOM     11  C   LIG d   1      -6.938  75.834 114.933  0.00  0.00     0.028 C 
ATOM     12  C   LIG d   1      -8.134  75.404 115.796  0.00  0.00     0.006 C 
ENDBRANCH   8  11
ENDBRANCH   7   8
ENDBRANCH   1   7
BRANCH   6  13
ATOM     13  N   LIG d   1      -3.669  77.827 118.319  0.00  0.00    -0.311 N 
ATOM     14  C   LIG d   1      -2.606  77.815 117.518  0.00  0.00     0.210 C 
ATOM     15  C   LIG d   1      -1.528  76.791 117.887  0.00  0.00     0.109 C 
ATOM     16  O   LIG d   1      -2.438  78.578 116.555  0.00  0.00    -0.276 OA
ATOM     17  H   LIG d   1      -3.708  77.196 119.096  0.00  0.00     0.149 HD
ENDBRANCH   6  13
BRANCH   5  18
ATOM     18  N   LIG d   1      -4.215  80.347 119.958  0.00  0.00     0.381 N 
ATOM     19  H   LIG d   1      -3.378  79.831 120.142  0.00  0.00    -0.090 HD
ATOM     20  H   LIG d   1      -4.539  80.743 120.823  0.00  0.00    -0.090 HD
ATOM     21  H   LIG d   1      -4.030  81.072 119.300  0.00  0.00    -0.090 HD
ENDBRANCH   5  18
BRANCH   3  22
ATOM     22  C   LIG d   1      -8.840  79.928 118.787  0.00  0.00     0.382 C 
ATOM     23  O   LIG d   1      -9.082  80.933 119.498  0.00  0.00    -0.241 OA
ATOM     24  O   LIG d   1      -9.786  79.245 118.349  0.00  0.00    -0.241 OA
ENDBRANCH   3  22
TORSDOF 7
ENDMDL
MODEL 4
REMARK VINA RESULT:      -4.9      1.791      2.151
REMARK  7 active torsions:
REMARK  status: ('A' for Active; 'I' for Inactive)
REMARK    1  A    between atoms: C_2  and  C_3 
REMARK    2  A    between atoms: C_3  and  O_6 
REMARK    3  A    between atoms: C_3  and  C_4 
REMARK    4  A    between atoms: C_7  and  O_6 
REMARK    5  A    between atoms: C_9  and  C_10 
REMARK    6  A    between atoms: N_15  and  C_14 
REMARK    7  A    between atoms: N_20  and  C_19 
REMARK       I    between atoms: C_22  and  N_20 
ROOT
ATOM      1  C   LIG d   1      -2.683  89.921 117.644  0.00  0.00     0.161 C 
ATOM      2  C   LIG d   1      -3.909  89.712 116.989  0.00  0.00     0.016 C 
ATOM      3  C   LIG d   1      -4.871  90.730 116.796  0.00  0.00     0.038 C 
ATOM      4  C   LIG d   1      -4.606  92.071 117.112  0.00  0.00     0.028 C 
ATOM      5  C   LIG d   1      -3.585  92.238 118.233  0.00  0.00    -0.047 C 
ATOM      6  C   LIG d   1      -2.330  91.401 117.897  0.00  0.00     0.091 C 
ENDROOT
BRANCH   1   7
ATOM      7  O   LIG d   1      -1.623  89.270 116.915  0.00  0.00    -0.368 OA
BRANCH   7   8
ATOM      8  C   LIG d   1      -1.319  87.911 117.312  0.00  0.00     0.119 C 
BRANCH   8   9
ATOM      9  C   LIG d   1      -1.329  87.864 118.852  0.00  0.00     0.028 C 
ATOM     10  C   LIG d   1       0.072  88.060 119.455  0.00  0.00     0.006 C 
ENDBRANCH   8   9
BRANCH   8  11
ATOM     11  C   LIG d   1       0.104  87.516 116.904  0.00  0.00     0.028 C 
ATOM     12  C   LIG d   1       0.134  86.379 115.871  0.00  0.00     0.006 C 
ENDBRANCH   8  11
ENDBRANCH   7   8
ENDBRANCH   1   7
BRANCH   6  13
ATOM     13  N   LIG d   1      -1.315  91.442 118.982  0.00  0.00    -0.311 N 
ATOM     14  C   LIG d   1      -0.062  91.855 118.799  0.00  0.00     0.210 C 
ATOM     15  C   LIG d   1       0.827  91.798 120.045  0.00  0.00     0.109 C 
ATOM     16  O   LIG d   1       0.389  92.293 117.730  0.00  0.00    -0.276 OA
ATOM     17  H   LIG d   1      -1.604  91.133 119.889  0.00  0.00     0.149 HD
ENDBRANCH   6  13
BRANCH   5  18
ATOM     18  N   LIG d   1      -3.302  93.679 118.365  0.00  0.00     0.381 N 
ATOM     19  H   LIG d   1      -3.814  94.056 119.138  0.00  0.00    -0.090 HD
ATOM     20  H   LIG d   1      -3.602  94.148 117.529  0.00  0.00    -0.090 HD
ATOM     21  H   LIG d   1      -2.325  93.823 118.503  0.00  0.00    -0.090 HD
ENDBRANCH   5  18
BRANCH   3  22
ATOM     22  C   LIG d   1      -6.130  90.403 116.316  0.00  0.00     0.382 C 
ATOM     23  O   LIG d   1      -6.895  91.305 115.897  0.00  0.00    -0.241 OA
ATOM     24  O   LIG d   1      -6.528  89.222 116.338  0.00  0.00    -0.241 OA
ENDBRANCH   3  22
TORSDOF 7
ENDMDL
MODEL 5
REMARK VINA RESULT:      -4.8      3.095      4.772
REMARK  7 active torsions:
REMARK  status: ('A' for Active; 'I' for Inactive)
REMARK    1  A    between atoms: C_2  and  C_3 
REMARK    2  A    between atoms: C_3  and  O_6 
REMARK    3  A    between atoms: C_3  and  C_4 
REMARK    4  A    between atoms: C_7  and  O_6 
REMARK    5  A    between atoms: C_9  and  C_10 
REMARK    6  A    between atoms: N_15  and  C_14 
REMARK    7  A    between atoms: N_20  and  C_19 
REMARK       I    between atoms: C_22  and  N_20 
ROOT
ATOM      1  C   LIG d   1      -5.693  92.853 118.134  0.00  0.00     0.161 C 
ATOM      2  C   LIG d   1      -6.897  93.574 118.077  0.00  0.00     0.016 C 
ATOM      3  C   LIG d   1      -7.096  94.809 118.736  0.00  0.00     0.038 C 
ATOM      4  C   LIG d   1      -6.048  95.484 119.378  0.00  0.00     0.028 C 
ATOM      5  C   LIG d   1      -4.951  94.555 119.889  0.00  0.00    -0.047 C 
ATOM      6  C   LIG d   1      -4.503  93.628 118.737  0.00  0.00     0.091 C 
ENDROOT
BRANCH   1   7
ATOM      7  O   LIG d   1      -5.357  92.359 116.822  0.00  0.00    -0.368 OA
BRANCH   7   8
ATOM      8  C   LIG d   1      -6.331  91.485 116.201  0.00  0.00     0.119 C 
BRANCH   8   9
ATOM      9  C   LIG d   1      -5.890  90.034 116.472  0.00  0.00     0.028 C 
ATOM     10  C   LIG d   1      -4.361  89.873 116.458  0.00  0.00     0.006 C 
ENDBRANCH   8   9
BRANCH   8  11
ATOM     11  C   LIG d   1      -6.321  91.634 114.677  0.00  0.00     0.028 C 
ATOM     12  C   LIG d   1      -7.107  90.521 113.964  0.00  0.00     0.006 C 
ENDBRANCH   8  11
ENDBRANCH   7   8
ENDBRANCH   1   7
BRANCH   6  13
ATOM     13  N   LIG d   1      -3.491  92.630 119.174  0.00  0.00    -0.311 N 
ATOM     14  C   LIG d   1      -2.324  92.452 118.558  0.00  0.00     0.210 C 
ATOM     15  C   LIG d   1      -1.436  91.357 119.159  0.00  0.00     0.109 C 
ATOM     16  O   LIG d   1      -1.926  93.118 117.590  0.00  0.00    -0.276 OA
ATOM     17  H   LIG d   1      -3.719  92.068 119.970  0.00  0.00     0.149 HD
ENDBRANCH   6  13
BRANCH   5  18
ATOM     18  N   LIG d   1      -3.860  95.399 120.410  0.00  0.00     0.381 N 
ATOM     19  H   LIG d   1      -2.991  95.123 119.998  0.00  0.00    -0.090 HD
ATOM     20  H   LIG d   1      -3.793  95.267 121.404  0.00  0.00    -0.090 HD
ATOM     21  H   LIG d   1      -4.042  96.357 120.207  0.00  0.00    -0.090 HD
ENDBRANCH   5  18
BRANCH   3  22
ATOM     22  C   LIG d   1      -8.367  95.361 118.792  0.00  0.00     0.382 C 
ATOM     23  O   LIG d   1      -8.507  96.597 118.951  0.00  0.00    -0.241 OA
ATOM     24  O   LIG d   1      -9.376  94.632 118.729  0.00  0.00    -0.241 OA
ENDBRANCH   3  22
TORSDOF 7
ENDMDL
MODEL 6
REMARK VINA RESULT:      -4.8      3.230      4.580
REMARK  7 active torsions:
REMARK  status: ('A' for Active; 'I' for Inactive)
REMARK    1  A    between atoms: C_2  and  C_3 
REMARK    2  A    between atoms: C_3  and  O_6 
REMARK    3  A    between atoms: C_3  and  C_4 
REMARK    4  A    between atoms: C_7  and  O_6 
REMARK    5  A    between atoms: C_9  and  C_10 
REMARK    6  A    between atoms: N_15  and  C_14 
REMARK    7  A    between atoms: N_20  and  C_19 
REMARK       I    between atoms: C_22  and  N_20 
ROOT
ATOM      1  C   LIG d   1      -5.869  93.000 119.589  0.00  0.00     0.161 C 
ATOM      2  C   LIG d   1      -7.173  93.464 119.352  0.00  0.00     0.016 C 
ATOM      3  C   LIG d   1      -7.470  94.794 118.976  0.00  0.00     0.038 C 
ATOM      4  C   LIG d   1      -6.462  95.718 118.662  0.00  0.00     0.028 C 
ATOM      5  C   LIG d   1      -5.143  95.441 119.375  0.00  0.00    -0.047 C 
ATOM      6  C   LIG d   1      -4.749  93.964 119.144  0.00  0.00     0.091 C 
ENDROOT
BRANCH   1   7
ATOM      7  O   LIG d   1      -5.691  91.708 118.976  0.00  0.00    -0.368 OA
BRANCH   7   8
ATOM      8  C   LIG d   1      -5.178  91.711 117.621  0.00  0.00     0.119 C 
BRANCH   8   9
ATOM      9  C   LIG d   1      -6.284  91.152 116.705  0.00  0.00     0.028 C 
ATOM     10  C   LIG d   1      -6.314  91.843 115.332  0.00  0.00     0.006 C 
ENDBRANCH   8   9
BRANCH   8  11
ATOM     11  C   LIG d   1      -4.000  90.744 117.469  0.00  0.00     0.028 C 
ATOM     12  C   LIG d   1      -3.690  89.975 118.763  0.00  0.00     0.006 C 
ENDBRANCH   8  11
ENDBRANCH   7   8
ENDBRANCH   1   7
BRANCH   6  13
ATOM     13  N   LIG d   1      -3.512  93.586 119.876  0.00  0.00    -0.311 N 
ATOM     14  C   LIG d   1      -2.301  93.595 119.323  0.00  0.00     0.210 C 
ATOM     15  C   LIG d   1      -1.164  93.150 120.249  0.00  0.00     0.109 C 
ATOM     16  O   LIG d   1      -2.055  93.960 118.164  0.00  0.00    -0.276 OA
ATOM     17  H   LIG d   1      -3.616  93.307 120.832  0.00  0.00     0.149 HD
ENDBRANCH   6  13
BRANCH   5  18
ATOM     18  N   LIG d   1      -4.145  96.394 118.853  0.00  0.00     0.381 N 
ATOM     19  H   LIG d   1      -3.223  96.064 119.056  0.00  0.00    -0.090 HD
ATOM     20  H   LIG d   1      -4.272  97.280 119.309  0.00  0.00    -0.090 HD
ATOM     21  H   LIG d   1      -4.258  96.500 117.868  0.00  0.00    -0.090 HD
ENDBRANCH   5  18
BRANCH   3  22
ATOM     22  C   LIG d   1      -8.788  95.223 118.950  0.00  0.00     0.382 C 
ATOM     23  O   LIG d   1      -9.718  94.406 119.157  0.00  0.00    -0.241 OA
ATOM     24  O   LIG d   1      -9.062  96.407 118.677  0.00  0.00    -0.241 OA
ENDBRANCH   3  22
TORSDOF 7
ENDMDL
MODEL 7
REMARK VINA RESULT:      -4.8     30.537     33.154
REMARK  7 active torsions:
REMARK  status: ('A' for Active; 'I' for Inactive)
REMARK    1  A    between atoms: C_2  and  C_3 
REMARK    2  A    between atoms: C_3  and  O_6 
REMARK    3  A    between atoms: C_3  and  C_4 
REMARK    4  A    between atoms: C_7  and  O_6 
REMARK    5  A    between atoms: C_9  and  C_10 
REMARK    6  A    between atoms: N_15  and  C_14 
REMARK    7  A    between atoms: N_20  and  C_19 
REMARK       I    between atoms: C_22  and  N_20 
ROOT
ATOM      1  C   LIG d   1      -0.764  58.037 120.358  0.00  0.00     0.161 C 
ATOM      2  C   LIG d   1      -1.645  59.128 120.286  0.00  0.00     0.016 C 
ATOM      3  C   LIG d   1      -1.287  60.384 119.743  0.00  0.00     0.038 C 
ATOM      4  C   LIG d   1      -0.060  60.587 119.094  0.00  0.00     0.028 C 
ATOM      5  C   LIG d   1       1.049  59.666 119.591  0.00  0.00    -0.047 C 
ATOM      6  C   LIG d   1       0.542  58.206 119.555  0.00  0.00     0.091 C 
ENDROOT
BRANCH   1   7
ATOM      7  O   LIG d   1      -1.445  56.831 119.959  0.00  0.00    -0.368 OA
BRANCH   7   8
ATOM      8  C   LIG d   1      -1.973  56.814 118.610  0.00  0.00     0.119 C 
BRANCH   8   9
ATOM      9  C   LIG d   1      -3.456  56.405 118.697  0.00  0.00     0.028 C 
ATOM     10  C   LIG d   1      -4.348  57.543 119.223  0.00  0.00     0.006 C 
ENDBRANCH   8   9
BRANCH   8  11
ATOM     11  C   LIG d   1      -1.302  55.728 117.763  0.00  0.00     0.028 C 
ATOM     12  C   LIG d   1      -0.999  54.451 118.563  0.00  0.00     0.006 C 
ENDBRANCH   8  11
ENDBRANCH   7   8
ENDBRANCH   1   7
BRANCH   6  13
ATOM     13  N   LIG d   1       1.536  57.248 120.104  0.00  0.00    -0.311 N 
ATOM     14  C   LIG d   1       2.143  56.318 119.368  0.00  0.00     0.210 C 
ATOM     15  C   LIG d   1       3.117  55.420 120.136  0.00  0.00     0.109 C 
ATOM     16  O   LIG d   1       1.990  56.173 118.146  0.00  0.00    -0.276 OA
ATOM     17  H   LIG d   1       1.743  57.315 121.082  0.00  0.00     0.149 HD
ENDBRANCH   6  13
BRANCH   5  18
ATOM     18  N   LIG d   1       2.230  59.890 118.737  0.00  0.00     0.381 N 
ATOM     19  H   LIG d   1       1.961  60.380 117.908  0.00  0.00    -0.090 HD
ATOM     20  H   LIG d   1       2.610  58.999 118.468  0.00  0.00    -0.090 HD
ATOM     21  H   LIG d   1       2.916  60.415 119.234  0.00  0.00    -0.090 HD
ENDBRANCH   5  18
BRANCH   3  22
ATOM     22  C   LIG d   1      -2.146  61.463 119.883  0.00  0.00     0.382 C 
ATOM     23  O   LIG d   1      -3.352  61.350 119.559  0.00  0.00    -0.241 OA
ATOM     24  O   LIG d   1      -1.719  62.562 120.287  0.00  0.00    -0.241 OA
ENDBRANCH   3  22
TORSDOF 7
ENDMDL
MODEL 8
REMARK VINA RESULT:      -4.8      1.852      4.730
REMARK  7 active torsions:
REMARK  status: ('A' for Active; 'I' for Inactive)
REMARK    1  A    between atoms: C_2  and  C_3 
REMARK    2  A    between atoms: C_3  and  O_6 
REMARK    3  A    between atoms: C_3  and  C_4 
REMARK    4  A    between atoms: C_7  and  O_6 
REMARK    5  A    between atoms: C_9  and  C_10 
REMARK    6  A    between atoms: N_15  and  C_14 
REMARK    7  A    between atoms: N_20  and  C_19 
REMARK       I    between atoms: C_22  and  N_20 
ROOT
ATOM      1  C   LIG d   1      -4.200  90.824 117.428  0.00  0.00     0.161 C 
ATOM      2  C   LIG d   1      -3.201  91.602 118.037  0.00  0.00     0.016 C 
ATOM      3  C   LIG d   1      -3.470  92.782 118.767  0.00  0.00     0.038 C 
ATOM      4  C   LIG d   1      -4.779  93.185 119.068  0.00  0.00     0.028 C 
ATOM      5  C   LIG d   1      -5.809  92.710 118.049  0.00  0.00    -0.047 C 
ATOM      6  C   LIG d   1      -5.642  91.187 117.840  0.00  0.00     0.091 C 
ENDROOT
BRANCH   1   7
ATOM      7  O   LIG d   1      -3.947  89.426 117.671  0.00  0.00    -0.368 OA
BRANCH   7   8
ATOM      8  C   LIG d   1      -2.732  89.115 118.397  0.00  0.00     0.119 C 
BRANCH   8   9
ATOM      9  C   LIG d   1      -2.059  87.926 117.685  0.00  0.00     0.028 C 
ATOM     10  C   LIG d   1      -0.672  88.285 117.127  0.00  0.00     0.006 C 
ENDBRANCH   8   9
BRANCH   8  11
ATOM     11  C   LIG d   1      -3.041  88.618 119.812  0.00  0.00     0.028 C 
ATOM     12  C   LIG d   1      -2.632  87.153 120.032  0.00  0.00     0.006 C 
ENDBRANCH   8  11
ENDBRANCH   7   8
ENDBRANCH   1   7
BRANCH   6  13
ATOM     13  N   LIG d   1      -6.555  90.655 116.795  0.00  0.00    -0.311 N 
ATOM     14  C   LIG d   1      -6.589  91.118 115.546  0.00  0.00     0.210 C 
ATOM     15  C   LIG d   1      -7.619  90.442 114.635  0.00  0.00     0.109 C 
ATOM     16  O   LIG d   1      -5.842  92.001 115.099  0.00  0.00    -0.276 OA
ATOM     17  H   LIG d   1      -7.174  89.915 117.064  0.00  0.00     0.149 HD
ENDBRANCH   6  13
BRANCH   5  18
ATOM     18  N   LIG d   1      -7.143  93.081 118.557  0.00  0.00     0.381 N 
ATOM     19  H   LIG d   1      -7.465  93.906 118.091  0.00  0.00    -0.090 HD
ATOM     20  H   LIG d   1      -7.073  93.280 119.539  0.00  0.00    -0.090 HD
ATOM     21  H   LIG d   1      -7.785  92.334 118.406  0.00  0.00    -0.090 HD
ENDBRANCH   5  18
BRANCH   3  22
ATOM     22  C   LIG d   1      -2.421  93.594 119.171  0.00  0.00     0.382 C 
ATOM     23  O   LIG d   1      -1.269  93.406 118.711  0.00  0.00    -0.241 OA
ATOM     24  O   LIG d   1      -2.604  94.485 120.022  0.00  0.00    -0.241 OA
ENDBRANCH   3  22
TORSDOF 7
ENDMDL
MODEL 9
REMARK VINA RESULT:      -4.7     11.830     14.133
REMARK  7 active torsions:
REMARK  status: ('A' for Active; 'I' for Inactive)
REMARK    1  A    between atoms: C_2  and  C_3 
REMARK    2  A    between atoms: C_3  and  O_6 
REMARK    3  A    between atoms: C_3  and  C_4 
REMARK    4  A    between atoms: C_7  and  O_6 
REMARK    5  A    between atoms: C_9  and  C_10 
REMARK    6  A    between atoms: N_15  and  C_14 
REMARK    7  A    between atoms: N_20  and  C_19 
REMARK       I    between atoms: C_22  and  N_20 
ROOT
ATOM      1  C   LIG d   1      -4.842  77.953 117.175  0.00  0.00     0.161 C 
ATOM      2  C   LIG d   1      -5.605  77.118 116.341  0.00  0.00     0.016 C 
ATOM      3  C   LIG d   1      -5.058  76.036 115.613  0.00  0.00     0.038 C 
ATOM      4  C   LIG d   1      -3.729  75.621 115.787  0.00  0.00     0.028 C 
ATOM      5  C   LIG d   1      -2.798  76.743 116.233  0.00  0.00    -0.047 C 
ATOM      6  C   LIG d   1      -3.413  77.447 117.464  0.00  0.00     0.091 C 
ENDROOT
BRANCH   1   7
ATOM      7  O   LIG d   1      -5.549  78.189 118.408  0.00  0.00    -0.368 OA
BRANCH   7   8
ATOM      8  C   LIG d   1      -6.912  78.665 118.281  0.00  0.00     0.119 C 
BRANCH   8   9
ATOM      9  C   LIG d   1      -6.951  80.107 118.824  0.00  0.00     0.028 C 
ATOM     10  C   LIG d   1      -7.732  81.059 117.903  0.00  0.00     0.006 C 
ENDBRANCH   8   9
BRANCH   8  11
ATOM     11  C   LIG d   1      -7.866  77.869 119.176  0.00  0.00     0.028 C 
ATOM     12  C   LIG d   1      -8.647  76.792 118.405  0.00  0.00     0.006 C 
ENDBRANCH   8  11
ENDBRANCH   7   8
ENDBRANCH   1   7
BRANCH   6  13
ATOM     13  N   LIG d   1      -2.606  78.611 117.913  0.00  0.00    -0.311 N 
ATOM     14  C   LIG d   1      -1.621  78.520 118.805  0.00  0.00     0.210 C 
ATOM     15  C   LIG d   1      -0.931  79.845 119.143  0.00  0.00     0.109 C 
ATOM     16  O   LIG d   1      -1.233  77.463 119.324  0.00  0.00    -0.276 OA
ATOM     17  H   LIG d   1      -2.834  79.503 117.519  0.00  0.00     0.149 HD
ENDBRANCH   6  13
BRANCH   5  18
ATOM     18  N   LIG d   1      -1.479  76.144 116.509  0.00  0.00     0.381 N 
ATOM     19  H   LIG d   1      -1.593  75.305 117.043  0.00  0.00    -0.090 HD
ATOM     20  H   LIG d   1      -0.934  76.791 117.052  0.00  0.00    -0.090 HD
ATOM     21  H   LIG d   1      -1.010  75.940 115.654  0.00  0.00    -0.090 HD
ENDBRANCH   5  18
BRANCH   3  22
ATOM     22  C   LIG d   1      -5.833  75.383 114.667  0.00  0.00     0.382 C 
ATOM     23  O   LIG d   1      -5.288  74.652 113.806  0.00  0.00    -0.241 OA
ATOM     24  O   LIG d   1      -7.067  75.550 114.637  0.00  0.00    -0.241 OA
ENDBRANCH   3  22
TORSDOF 7
ENDMDL
