MODEL 1
REMARK VINA RESULT:      -5.3      0.000      0.000
REMARK  7 active torsions:
REMARK  status: ('A' for Active; 'I' for Inactive)
REMARK    1  A    between atoms: C_2  and  C_3 
REMARK    2  A    between atoms: C_3  and  O_6 
REMARK    3  A    between atoms: C_3  and  C_4 
REMARK    4  A    between atoms: C_7  and  O_6 
REMARK    5  A    between atoms: C_9  and  C_10 
REMARK    6  A    between atoms: N_15  and  C_14 
REMARK    7  A    between atoms: N_20  and  C_19 
REMARK       I    between atoms: C_22  and  N_20 
ROOT
ATOM      1  C   LIG d   1      -3.009  76.912 116.494  0.00  0.00     0.161 C 
ATOM      2  C   LIG d   1      -3.350  78.139 115.900  0.00  0.00     0.016 C 
ATOM      3  C   LIG d   1      -2.395  79.049 115.392  0.00  0.00     0.038 C 
ATOM      4  C   LIG d   1      -1.033  78.725 115.307  0.00  0.00     0.028 C 
ATOM      5  C   LIG d   1      -0.585  77.710 116.353  0.00  0.00    -0.047 C 
ATOM      6  C   LIG d   1      -1.535  76.492 116.309  0.00  0.00     0.091 C 
ENDROOT
BRANCH   1   7
ATOM      7  O   LIG d   1      -3.889  75.876 116.016  0.00  0.00    -0.368 OA
BRANCH   7   8
ATOM      8  C   LIG d   1      -5.178  76.314 115.520  0.00  0.00     0.119 C 
BRANCH   8   9
ATOM      9  C   LIG d   1      -6.245  75.845 116.529  0.00  0.00     0.028 C 
ATOM     10  C   LIG d   1      -6.674  76.965 117.491  0.00  0.00     0.006 C 
ENDBRANCH   8   9
BRANCH   8  11
ATOM     11  C   LIG d   1      -5.534  75.619 114.202  0.00  0.00     0.028 C 
ATOM     12  C   LIG d   1      -5.248  74.110 114.228  0.00  0.00     0.006 C 
ENDBRANCH   8  11
ENDBRANCH   7   8
ENDBRANCH   1   7
BRANCH   6  13
ATOM     13  N   LIG d   1      -1.219  75.488 117.359  0.00  0.00    -0.311 N 
ATOM     14  C   LIG d   1      -0.468  74.410 117.141  0.00  0.00     0.210 C 
ATOM     15  C   LIG d   1      -0.283  73.494 118.354  0.00  0.00     0.109 C 
ATOM     16  O   LIG d   1       0.088  74.142 116.065  0.00  0.00    -0.276 OA
ATOM     17  H   LIG d   1      -1.605  75.644 118.270  0.00  0.00     0.149 HD
ENDBRANCH   6  13
BRANCH   5  18
ATOM     18  N   LIG d   1       0.818  77.360 116.063  0.00  0.00     0.381 N 
ATOM     19  H   LIG d   1       0.984  76.402 116.300  0.00  0.00    -0.090 HD
ATOM     20  H   LIG d   1       1.420  77.933 116.628  0.00  0.00    -0.090 HD
ATOM     21  H   LIG d   1       1.014  77.510 115.098  0.00  0.00    -0.090 HD
ENDBRANCH   5  18
BRANCH   3  22
ATOM     22  C   LIG d   1      -2.796  80.317 114.999  0.00  0.00     0.382 C 
ATOM     23  O   LIG d   1      -3.289  81.108 115.839  0.00  0.00    -0.241 OA
ATOM     24  O   LIG d   1      -2.711  80.665 113.805  0.00  0.00    -0.241 OA
ENDBRANCH   3  22
TORSDOF 7
ENDMDL
MODEL 2
REMARK VINA RESULT:      -5.2     10.307     13.058
REMARK  7 active torsions:
REMARK  status: ('A' for Active; 'I' for Inactive)
REMARK    1  A    between atoms: C_2  and  C_3 
REMARK    2  A    between atoms: C_3  and  O_6 
REMARK    3  A    between atoms: C_3  and  C_4 
REMARK    4  A    between atoms: C_7  and  O_6 
REMARK    5  A    between atoms: C_9  and  C_10 
REMARK    6  A    between atoms: N_15  and  C_14 
REMARK    7  A    between atoms: N_20  and  C_19 
REMARK       I    between atoms: C_22  and  N_20 
ROOT
ATOM      1  C   LIG d   1       1.336  88.330 116.186  0.00  0.00     0.161 C 
ATOM      2  C   LIG d   1       0.035  88.356 116.714  0.00  0.00     0.016 C 
ATOM      3  C   LIG d   1      -0.540  89.501 117.312  0.00  0.00     0.038 C 
ATOM      4  C   LIG d   1       0.099  90.750 117.286  0.00  0.00     0.028 C 
ATOM      5  C   LIG d   1       1.619  90.652 117.214  0.00  0.00    -0.047 C 
ATOM      6  C   LIG d   1       2.006  89.713 116.049  0.00  0.00     0.091 C 
ENDROOT
BRANCH   1   7
ATOM      7  O   LIG d   1       1.335  87.646 114.917  0.00  0.00    -0.368 OA
BRANCH   7   8
ATOM      8  C   LIG d   1       1.495  86.207 114.969  0.00  0.00     0.119 C 
BRANCH   8   9
ATOM      9  C   LIG d   1       2.881  85.874 114.385  0.00  0.00     0.028 C 
ATOM     10  C   LIG d   1       3.975  85.817 115.465  0.00  0.00     0.006 C 
ENDBRANCH   8   9
BRANCH   8  11
ATOM     11  C   LIG d   1       0.489  85.501 114.054  0.00  0.00     0.028 C 
ATOM     12  C   LIG d   1      -0.891  85.329 114.706  0.00  0.00     0.006 C 
ENDBRANCH   8  11
ENDBRANCH   7   8
ENDBRANCH   1   7
BRANCH   6  13
ATOM     13  N   LIG d   1       3.474  89.495 115.961  0.00  0.00    -0.311 N 
ATOM     14  C   LIG d   1       4.185  89.727 114.859  0.00  0.00     0.210 C 
ATOM     15  C   LIG d   1       5.680  89.417 114.977  0.00  0.00     0.109 C 
ATOM     16  O   LIG d   1       3.724  90.192 113.805  0.00  0.00    -0.276 OA
ATOM     17  H   LIG d   1       3.933  89.149 116.781  0.00  0.00     0.149 HD
ENDBRANCH   6  13
BRANCH   5  18
ATOM     18  N   LIG d   1       2.147  92.020 117.055  0.00  0.00     0.381 N 
ATOM     19  H   LIG d   1       2.042  92.525 117.912  0.00  0.00    -0.090 HD
ATOM     20  H   LIG d   1       1.616  92.492 116.344  0.00  0.00    -0.090 HD
ATOM     21  H   LIG d   1       3.108  91.986 116.795  0.00  0.00    -0.090 HD
ENDBRANCH   5  18
BRANCH   3  22
ATOM     22  C   LIG d   1      -1.750  89.394 117.980  0.00  0.00     0.382 C 
ATOM     23  O   LIG d   1      -2.744  88.893 117.400  0.00  0.00    -0.241 OA
ATOM     24  O   LIG d   1      -1.873  89.832 119.139  0.00  0.00    -0.241 OA
ENDBRANCH   3  22
TORSDOF 7
ENDMDL
MODEL 3
REMARK VINA RESULT:      -5.1      2.343      4.649
REMARK  7 active torsions:
REMARK  status: ('A' for Active; 'I' for Inactive)
REMARK    1  A    between atoms: C_2  and  C_3 
REMARK    2  A    between atoms: C_3  and  O_6 
REMARK    3  A    between atoms: C_3  and  C_4 
REMARK    4  A    between atoms: C_7  and  O_6 
REMARK    5  A    between atoms: C_9  and  C_10 
REMARK    6  A    between atoms: N_15  and  C_14 
REMARK    7  A    between atoms: N_20  and  C_19 
REMARK       I    between atoms: C_22  and  N_20 
ROOT
ATOM      1  C   LIG d   1      -3.279  77.125 115.225  0.00  0.00     0.161 C 
ATOM      2  C   LIG d   1      -2.347  76.142 114.850  0.00  0.00     0.016 C 
ATOM      3  C   LIG d   1      -1.376  75.614 115.732  0.00  0.00     0.038 C 
ATOM      4  C   LIG d   1      -1.369  75.927 117.100  0.00  0.00     0.028 C 
ATOM      5  C   LIG d   1      -1.969  77.293 117.412  0.00  0.00    -0.047 C 
ATOM      6  C   LIG d   1      -3.358  77.396 116.742  0.00  0.00     0.091 C 
ENDROOT
BRANCH   1   7
ATOM      7  O   LIG d   1      -4.581  76.785 114.708  0.00  0.00    -0.368 OA
BRANCH   7   8
ATOM      8  C   LIG d   1      -5.239  75.655 115.331  0.00  0.00     0.119 C 
BRANCH   8   9
ATOM      9  C   LIG d   1      -5.384  74.556 114.261  0.00  0.00     0.028 C 
ATOM     10  C   LIG d   1      -5.700  73.180 114.871  0.00  0.00     0.006 C 
ENDBRANCH   8   9
BRANCH   8  11
ATOM     11  C   LIG d   1      -6.671  76.005 115.750  0.00  0.00     0.028 C 
ATOM     12  C   LIG d   1      -6.918  75.803 117.253  0.00  0.00     0.006 C 
ENDBRANCH   8  11
ENDBRANCH   7   8
ENDBRANCH   1   7
BRANCH   6  13
ATOM     13  N   LIG d   1      -3.979  78.734 116.927  0.00  0.00    -0.311 N 
ATOM     14  C   LIG d   1      -4.794  79.029 117.939  0.00  0.00     0.210 C 
ATOM     15  C   LIG d   1      -5.341  80.460 117.931  0.00  0.00     0.109 C 
ATOM     16  O   LIG d   1      -5.090  78.252 118.859  0.00  0.00    -0.276 OA
ATOM     17  H   LIG d   1      -3.768  79.434 116.244  0.00  0.00     0.149 HD
ENDBRANCH   6  13
BRANCH   5  18
ATOM     18  N   LIG d   1      -2.024  77.431 118.880  0.00  0.00     0.381 N 
ATOM     19  H   LIG d   1      -1.925  76.532 119.308  0.00  0.00    -0.090 HD
ATOM     20  H   LIG d   1      -2.920  77.806 119.138  0.00  0.00    -0.090 HD
ATOM     21  H   LIG d   1      -1.299  78.038 119.193  0.00  0.00    -0.090 HD
ENDBRANCH   5  18
BRANCH   3  22
ATOM     22  C   LIG d   1      -0.373  74.794 115.238  0.00  0.00     0.382 C 
ATOM     23  O   LIG d   1       0.208  73.986 116.002  0.00  0.00    -0.241 OA
ATOM     24  O   LIG d   1      -0.012  74.884 114.050  0.00  0.00    -0.241 OA
ENDBRANCH   3  22
TORSDOF 7
ENDMDL
MODEL 4
REMARK VINA RESULT:      -4.4      2.126      4.555
REMARK  7 active torsions:
REMARK  status: ('A' for Active; 'I' for Inactive)
REMARK    1  A    between atoms: C_2  and  C_3 
REMARK    2  A    between atoms: C_3  and  O_6 
REMARK    3  A    between atoms: C_3  and  C_4 
REMARK    4  A    between atoms: C_7  and  O_6 
REMARK    5  A    between atoms: C_9  and  C_10 
REMARK    6  A    between atoms: N_15  and  C_14 
REMARK    7  A    between atoms: N_20  and  C_19 
REMARK       I    between atoms: C_22  and  N_20 
ROOT
ATOM      1  C   LIG d   1      -2.786  76.899 114.593  0.00  0.00     0.161 C 
ATOM      2  C   LIG d   1      -2.298  78.186 114.309  0.00  0.00     0.016 C 
ATOM      3  C   LIG d   1      -2.631  79.330 115.070  0.00  0.00     0.038 C 
ATOM      4  C   LIG d   1      -3.359  79.239 116.266  0.00  0.00     0.028 C 
ATOM      5  C   LIG d   1      -4.293  78.035 116.316  0.00  0.00    -0.047 C 
ATOM      6  C   LIG d   1      -3.492  76.763 115.959  0.00  0.00     0.091 C 
ENDROOT
BRANCH   1   7
ATOM      7  O   LIG d   1      -1.719  75.937 114.482  0.00  0.00    -0.368 OA
BRANCH   7   8
ATOM      8  C   LIG d   1      -0.775  75.902 115.580  0.00  0.00     0.119 C 
BRANCH   8   9
ATOM      9  C   LIG d   1       0.638  75.803 114.973  0.00  0.00     0.028 C 
ATOM     10  C   LIG d   1       0.879  74.460 114.263  0.00  0.00     0.006 C 
ENDBRANCH   8   9
BRANCH   8  11
ATOM     11  C   LIG d   1      -0.944  74.634 116.422  0.00  0.00     0.028 C 
ATOM     12  C   LIG d   1      -0.497  74.822 117.880  0.00  0.00     0.006 C 
ENDBRANCH   8  11
ENDBRANCH   7   8
ENDBRANCH   1   7
BRANCH   6  13
ATOM     13  N   LIG d   1      -4.349  75.550 115.903  0.00  0.00    -0.311 N 
ATOM     14  C   LIG d   1      -5.398  75.430 115.091  0.00  0.00     0.210 C 
ATOM     15  C   LIG d   1      -6.157  74.105 115.206  0.00  0.00     0.109 C 
ATOM     16  O   LIG d   1      -5.752  76.283 114.263  0.00  0.00    -0.276 OA
ATOM     17  H   LIG d   1      -4.114  74.796 116.519  0.00  0.00     0.149 HD
ENDBRANCH   6  13
BRANCH   5  18
ATOM     18  N   LIG d   1      -4.884  77.986 117.667  0.00  0.00     0.381 N 
ATOM     19  H   LIG d   1      -4.490  77.224 118.182  0.00  0.00    -0.090 HD
ATOM     20  H   LIG d   1      -5.874  77.831 117.583  0.00  0.00    -0.090 HD
ATOM     21  H   LIG d   1      -4.714  78.843 118.145  0.00  0.00    -0.090 HD
ENDBRANCH   5  18
BRANCH   3  22
ATOM     22  C   LIG d   1      -2.268  80.588 114.614  0.00  0.00     0.382 C 
ATOM     23  O   LIG d   1      -1.227  81.137 115.050  0.00  0.00    -0.241 OA
ATOM     24  O   LIG d   1      -2.991  81.200 113.805  0.00  0.00    -0.241 OA
ENDBRANCH   3  22
TORSDOF 7
ENDMDL
MODEL 5
REMARK VINA RESULT:      -4.3      2.437      4.876
REMARK  7 active torsions:
REMARK  status: ('A' for Active; 'I' for Inactive)
REMARK    1  A    between atoms: C_2  and  C_3 
REMARK    2  A    between atoms: C_3  and  O_6 
REMARK    3  A    between atoms: C_3  and  C_4 
REMARK    4  A    between atoms: C_7  and  O_6 
REMARK    5  A    between atoms: C_9  and  C_10 
REMARK    6  A    between atoms: N_15  and  C_14 
REMARK    7  A    between atoms: N_20  and  C_19 
REMARK       I    between atoms: C_22  and  N_20 
ROOT
ATOM      1  C   LIG d   1      -0.635  77.717 115.643  0.00  0.00     0.161 C 
ATOM      2  C   LIG d   1      -1.975  77.478 115.296  0.00  0.00     0.016 C 
ATOM      3  C   LIG d   1      -2.572  76.197 115.334  0.00  0.00     0.038 C 
ATOM      4  C   LIG d   1      -1.907  75.085 115.871  0.00  0.00     0.028 C 
ATOM      5  C   LIG d   1      -0.389  75.177 115.763  0.00  0.00    -0.047 C 
ATOM      6  C   LIG d   1       0.074  76.535 116.337  0.00  0.00     0.091 C 
ENDROOT
BRANCH   1   7
ATOM      7  O   LIG d   1      -0.545  78.903 116.458  0.00  0.00    -0.368 OA
BRANCH   7   8
ATOM      8  C   LIG d   1      -1.234  78.855 117.731  0.00  0.00     0.119 C 
BRANCH   8   9
ATOM      9  C   LIG d   1      -2.059  80.150 117.860  0.00  0.00     0.028 C 
ATOM     10  C   LIG d   1      -1.861  81.094 116.662  0.00  0.00     0.006 C 
ENDBRANCH   8   9
BRANCH   8  11
ATOM     11  C   LIG d   1      -0.246  78.886 118.901  0.00  0.00     0.028 C 
ATOM     12  C   LIG d   1       1.048  79.645 118.568  0.00  0.00     0.006 C 
ENDBRANCH   8  11
ENDBRANCH   7   8
ENDBRANCH   1   7
BRANCH   6  13
ATOM     13  N   LIG d   1       1.539  76.742 116.193  0.00  0.00    -0.311 N 
ATOM     14  C   LIG d   1       2.414  76.485 117.164  0.00  0.00     0.210 C 
ATOM     15  C   LIG d   1       3.874  76.788 116.814  0.00  0.00     0.109 C 
ATOM     16  O   LIG d   1       2.123  76.006 118.270  0.00  0.00    -0.276 OA
ATOM     17  H   LIG d   1       1.865  77.099 115.317  0.00  0.00     0.149 HD
ENDBRANCH   6  13
BRANCH   5  18
ATOM     18  N   LIG d   1       0.179  74.021 116.482  0.00  0.00     0.381 N 
ATOM     19  H   LIG d   1       0.952  74.318 117.044  0.00  0.00    -0.090 HD
ATOM     20  H   LIG d   1       0.516  73.354 115.811  0.00  0.00    -0.090 HD
ATOM     21  H   LIG d   1      -0.517  73.601 117.058  0.00  0.00    -0.090 HD
ENDBRANCH   5  18
BRANCH   3  22
ATOM     22  C   LIG d   1      -3.836  76.012 114.795  0.00  0.00     0.382 C 
ATOM     23  O   LIG d   1      -4.123  74.930 114.228  0.00  0.00    -0.241 OA
ATOM     24  O   LIG d   1      -4.678  76.929 114.828  0.00  0.00    -0.241 OA
ENDBRANCH   3  22
TORSDOF 7
ENDMDL
MODEL 6
REMARK VINA RESULT:      -4.3     16.139     18.366
REMARK  7 active torsions:
REMARK  status: ('A' for Active; 'I' for Inactive)
REMARK    1  A    between atoms: C_2  and  C_3 
REMARK    2  A    between atoms: C_3  and  O_6 
REMARK    3  A    between atoms: C_3  and  C_4 
REMARK    4  A    between atoms: C_7  and  O_6 
REMARK    5  A    between atoms: C_9  and  C_10 
REMARK    6  A    between atoms: N_15  and  C_14 
REMARK    7  A    between atoms: N_20  and  C_19 
REMARK       I    between atoms: C_22  and  N_20 
ROOT
ATOM      1  C   LIG d   1     -15.677  65.944 117.150  0.00  0.00     0.161 C 
ATOM      2  C   LIG d   1     -15.106  66.652 118.220  0.00  0.00     0.016 C 
ATOM      3  C   LIG d   1     -15.799  67.639 118.958  0.00  0.00     0.038 C 
ATOM      4  C   LIG d   1     -17.168  67.880 118.771  0.00  0.00     0.028 C 
ATOM      5  C   LIG d   1     -17.655  67.547 117.365  0.00  0.00    -0.047 C 
ATOM      6  C   LIG d   1     -17.204  66.114 117.004  0.00  0.00     0.091 C 
ENDROOT
BRANCH   1   7
ATOM      7  O   LIG d   1     -15.336  64.547 117.250  0.00  0.00    -0.368 OA
BRANCH   7   8
ATOM      8  C   LIG d   1     -15.440  63.959 118.570  0.00  0.00     0.119 C 
BRANCH   8   9
ATOM      9  C   LIG d   1     -14.090  63.288 118.886  0.00  0.00     0.028 C 
ATOM     10  C   LIG d   1     -13.672  63.470 120.355  0.00  0.00     0.006 C 
ENDBRANCH   8   9
BRANCH   8  11
ATOM     11  C   LIG d   1     -16.472  62.827 118.597  0.00  0.00     0.028 C 
ATOM     12  C   LIG d   1     -16.943  62.418 117.192  0.00  0.00     0.006 C 
ENDBRANCH   8  11
ENDBRANCH   7   8
ENDBRANCH   1   7
BRANCH   6  13
ATOM     13  N   LIG d   1     -17.567  65.739 115.612  0.00  0.00    -0.311 N 
ATOM     14  C   LIG d   1     -18.683  65.083 115.297  0.00  0.00     0.210 C 
ATOM     15  C   LIG d   1     -18.854  64.779 113.805  0.00  0.00     0.109 C 
ATOM     16  O   LIG d   1     -19.562  64.753 116.106  0.00  0.00    -0.276 OA
ATOM     17  H   LIG d   1     -16.925  65.996 114.888  0.00  0.00     0.149 HD
ENDBRANCH   6  13
BRANCH   5  18
ATOM     18  N   LIG d   1     -19.121  67.714 117.350  0.00  0.00     0.381 N 
ATOM     19  H   LIG d   1     -19.546  66.931 116.894  0.00  0.00    -0.090 HD
ATOM     20  H   LIG d   1     -19.349  68.543 116.831  0.00  0.00    -0.090 HD
ATOM     21  H   LIG d   1     -19.465  67.791 118.282  0.00  0.00    -0.090 HD
ENDBRANCH   5  18
BRANCH   3  22
ATOM     22  C   LIG d   1     -15.110  68.426 119.868  0.00  0.00     0.382 C 
ATOM     23  O   LIG d   1     -13.992  68.054 120.299  0.00  0.00    -0.241 OA
ATOM     24  O   LIG d   1     -15.612  69.482 120.298  0.00  0.00    -0.241 OA
ENDBRANCH   3  22
TORSDOF 7
ENDMDL
MODEL 7
REMARK VINA RESULT:      -4.3     10.493     13.364
REMARK  7 active torsions:
REMARK  status: ('A' for Active; 'I' for Inactive)
REMARK    1  A    between atoms: C_2  and  C_3 
REMARK    2  A    between atoms: C_3  and  O_6 
REMARK    3  A    between atoms: C_3  and  C_4 
REMARK    4  A    between atoms: C_7  and  O_6 
REMARK    5  A    between atoms: C_9  and  C_10 
REMARK    6  A    between atoms: N_15  and  C_14 
REMARK    7  A    between atoms: N_20  and  C_19 
REMARK       I    between atoms: C_22  and  N_20 
ROOT
ATOM      1  C   LIG d   1       1.519  88.609 116.742  0.00  0.00     0.161 C 
ATOM      2  C   LIG d   1       0.954  87.595 115.951  0.00  0.00     0.016 C 
ATOM      3  C   LIG d   1       1.722  86.641 115.245  0.00  0.00     0.038 C 
ATOM      4  C   LIG d   1       3.113  86.543 115.405  0.00  0.00     0.028 C 
ATOM      5  C   LIG d   1       3.772  87.861 115.797  0.00  0.00    -0.047 C 
ATOM      6  C   LIG d   1       3.029  88.450 117.018  0.00  0.00     0.091 C 
ENDROOT
BRANCH   1   7
ATOM      7  O   LIG d   1       0.792  88.723 117.982  0.00  0.00    -0.368 OA
BRANCH   7   8
ATOM      8  C   LIG d   1       0.184  90.010 118.249  0.00  0.00     0.119 C 
BRANCH   8   9
ATOM      9  C   LIG d   1      -1.257  89.751 118.728  0.00  0.00     0.028 C 
ATOM     10  C   LIG d   1      -2.171  89.250 117.597  0.00  0.00     0.006 C 
ENDBRANCH   8   9
BRANCH   8  11
ATOM     11  C   LIG d   1       0.042  90.836 116.967  0.00  0.00     0.028 C 
ATOM     12  C   LIG d   1       0.334  92.329 117.185  0.00  0.00     0.006 C 
ENDBRANCH   8  11
ENDBRANCH   7   8
ENDBRANCH   1   7
BRANCH   6  13
ATOM     13  N   LIG d   1       3.557  89.781 117.414  0.00  0.00    -0.311 N 
ATOM     14  C   LIG d   1       3.675  90.804 116.570  0.00  0.00     0.210 C 
ATOM     15  C   LIG d   1       4.261  92.082 117.180  0.00  0.00     0.109 C 
ATOM     16  O   LIG d   1       3.320  90.785 115.382  0.00  0.00    -0.276 OA
ATOM     17  H   LIG d   1       3.839  89.894 118.368  0.00  0.00     0.149 HD
ENDBRANCH   6  13
BRANCH   5  18
ATOM     18  N   LIG d   1       5.196  87.585 116.065  0.00  0.00     0.381 N 
ATOM     19  H   LIG d   1       5.280  86.976 116.854  0.00  0.00    -0.090 HD
ATOM     20  H   LIG d   1       5.659  88.449 116.282  0.00  0.00    -0.090 HD
ATOM     21  H   LIG d   1       5.618  87.165 115.266  0.00  0.00    -0.090 HD
ENDBRANCH   5  18
BRANCH   3  22
ATOM     22  C   LIG d   1       1.103  85.797 114.336  0.00  0.00     0.382 C 
ATOM     23  O   LIG d   1       1.651  84.716 114.009  0.00  0.00    -0.241 OA
ATOM     24  O   LIG d   1       0.024  86.122 113.805  0.00  0.00    -0.241 OA
ENDBRANCH   3  22
TORSDOF 7
ENDMDL
MODEL 8
REMARK VINA RESULT:      -4.2     13.380     15.921
REMARK  7 active torsions:
REMARK  status: ('A' for Active; 'I' for Inactive)
REMARK    1  A    between atoms: C_2  and  C_3 
REMARK    2  A    between atoms: C_3  and  O_6 
REMARK    3  A    between atoms: C_3  and  C_4 
REMARK    4  A    between atoms: C_7  and  O_6 
REMARK    5  A    between atoms: C_9  and  C_10 
REMARK    6  A    between atoms: N_15  and  C_14 
REMARK    7  A    between atoms: N_20  and  C_19 
REMARK       I    between atoms: C_22  and  N_20 
ROOT
ATOM      1  C   LIG d   1       3.495  91.066 117.322  0.00  0.00     0.161 C 
ATOM      2  C   LIG d   1       3.966  91.970 118.289  0.00  0.00     0.016 C 
ATOM      3  C   LIG d   1       5.335  92.133 118.600  0.00  0.00     0.038 C 
ATOM      4  C   LIG d   1       6.345  91.508 117.853  0.00  0.00     0.028 C 
ATOM      5  C   LIG d   1       5.897  90.203 117.202  0.00  0.00    -0.047 C 
ATOM      6  C   LIG d   1       4.589  90.456 116.420  0.00  0.00     0.091 C 
ENDROOT
BRANCH   1   7
ATOM      7  O   LIG d   1       2.477  91.695 116.519  0.00  0.00    -0.368 OA
BRANCH   7   8
ATOM      8  C   LIG d   1       1.113  91.283 116.781  0.00  0.00     0.119 C 
BRANCH   8   9
ATOM      9  C   LIG d   1       0.502  92.300 117.764  0.00  0.00     0.028 C 
ATOM     10  C   LIG d   1      -0.254  93.430 117.045  0.00  0.00     0.006 C 
ENDBRANCH   8   9
BRANCH   8  11
ATOM     11  C   LIG d   1       1.068  89.937 117.510  0.00  0.00     0.028 C 
ATOM     12  C   LIG d   1       0.214  89.979 118.787  0.00  0.00     0.006 C 
ENDBRANCH   8  11
ENDBRANCH   7   8
ENDBRANCH   1   7
BRANCH   6  13
ATOM     13  N   LIG d   1       4.036  89.213 115.821  0.00  0.00    -0.311 N 
ATOM     14  C   LIG d   1       3.508  89.159 114.600  0.00  0.00     0.210 C 
ATOM     15  C   LIG d   1       2.979  87.782 114.185  0.00  0.00     0.109 C 
ATOM     16  O   LIG d   1       3.457  90.112 113.809  0.00  0.00    -0.276 OA
ATOM     17  H   LIG d   1       4.066  88.384 116.383  0.00  0.00     0.149 HD
ENDBRANCH   6  13
BRANCH   5  18
ATOM     18  N   LIG d   1       7.001  89.731 116.345  0.00  0.00     0.381 N 
ATOM     19  H   LIG d   1       7.520  90.513 115.999  0.00  0.00    -0.090 HD
ATOM     20  H   LIG d   1       6.615  89.236 115.561  0.00  0.00    -0.090 HD
ATOM     21  H   LIG d   1       7.602  89.129 116.864  0.00  0.00    -0.090 HD
ENDBRANCH   5  18
BRANCH   3  22
ATOM     22  C   LIG d   1       5.705  92.899 119.695  0.00  0.00     0.382 C 
ATOM     23  O   LIG d   1       6.488  92.428 120.554  0.00  0.00    -0.241 OA
ATOM     24  O   LIG d   1       5.230  94.039 119.857  0.00  0.00    -0.241 OA
ENDBRANCH   3  22
TORSDOF 7
ENDMDL
MODEL 9
REMARK VINA RESULT:      -4.2      8.856     12.105
REMARK  7 active torsions:
REMARK  status: ('A' for Active; 'I' for Inactive)
REMARK    1  A    between atoms: C_2  and  C_3 
REMARK    2  A    between atoms: C_3  and  O_6 
REMARK    3  A    between atoms: C_3  and  C_4 
REMARK    4  A    between atoms: C_7  and  O_6 
REMARK    5  A    between atoms: C_9  and  C_10 
REMARK    6  A    between atoms: N_15  and  C_14 
REMARK    7  A    between atoms: N_20  and  C_19 
REMARK       I    between atoms: C_22  and  N_20 
ROOT
ATOM      1  C   LIG d   1       1.123  87.578 115.674  0.00  0.00     0.161 C 
ATOM      2  C   LIG d   1       0.025  86.711 115.548  0.00  0.00     0.016 C 
ATOM      3  C   LIG d   1       0.136  85.373 115.105  0.00  0.00     0.038 C 
ATOM      4  C   LIG d   1       1.382  84.761 114.900  0.00  0.00     0.028 C 
ATOM      5  C   LIG d   1       2.486  85.745 114.529  0.00  0.00    -0.047 C 
ATOM      6  C   LIG d   1       2.502  86.895 115.562  0.00  0.00     0.091 C 
ENDROOT
BRANCH   1   7
ATOM      7  O   LIG d   1       1.027  88.312 116.910  0.00  0.00    -0.368 OA
BRANCH   7   8
ATOM      8  C   LIG d   1       0.265  89.543 116.863  0.00  0.00     0.119 C 
BRANCH   8   9
ATOM      9  C   LIG d   1       1.234  90.701 117.171  0.00  0.00     0.028 C 
ATOM     10  C   LIG d   1       0.575  92.080 116.999  0.00  0.00     0.006 C 
ENDBRANCH   8   9
BRANCH   8  11
ATOM     11  C   LIG d   1      -0.788  89.590 117.974  0.00  0.00     0.028 C 
ATOM     12  C   LIG d   1      -2.168  89.098 117.509  0.00  0.00     0.006 C 
ENDBRANCH   8  11
ENDBRANCH   7   8
ENDBRANCH   1   7
BRANCH   6  13
ATOM     13  N   LIG d   1       3.498  87.945 115.225  0.00  0.00    -0.311 N 
ATOM     14  C   LIG d   1       4.745  87.950 115.693  0.00  0.00     0.210 C 
ATOM     15  C   LIG d   1       5.602  89.135 115.238  0.00  0.00     0.109 C 
ATOM     16  O   LIG d   1       5.233  87.068 116.415  0.00  0.00    -0.276 OA
ATOM     17  H   LIG d   1       3.196  88.683 114.619  0.00  0.00     0.149 HD
ENDBRANCH   6  13
BRANCH   5  18
ATOM     18  N   LIG d   1       3.755  84.993 114.481  0.00  0.00     0.381 N 
ATOM     19  H   LIG d   1       4.326  85.242 115.263  0.00  0.00    -0.090 HD
ATOM     20  H   LIG d   1       4.247  85.240 113.640  0.00  0.00    -0.090 HD
ATOM     21  H   LIG d   1       3.571  84.014 114.492  0.00  0.00    -0.090 HD
ENDBRANCH   5  18
BRANCH   3  22
ATOM     22  C   LIG d   1      -1.010  84.645 114.824  0.00  0.00     0.382 C 
ATOM     23  O   LIG d   1      -1.989  85.204 114.274  0.00  0.00    -0.241 OA
ATOM     24  O   LIG d   1      -1.093  83.447 115.153  0.00  0.00    -0.241 OA
ENDBRANCH   3  22
TORSDOF 7
ENDMDL
