MODEL 1
REMARK VINA RESULT:      -6.9      0.000      0.000
REMARK  7 active torsions:
REMARK  status: ('A' for Active; 'I' for Inactive)
REMARK    1  A    between atoms: C_2  and  C_3 
REMARK    2  A    between atoms: C_3  and  O_6 
REMARK    3  A    between atoms: C_3  and  C_4 
REMARK    4  A    between atoms: C_7  and  O_6 
REMARK    5  A    between atoms: C_9  and  C_10 
REMARK    6  A    between atoms: N_15  and  C_14 
REMARK    7  A    between atoms: N_20  and  C_19 
REMARK       I    between atoms: C_22  and  N_20 
ROOT
ATOM      1  C   LIG d   1       0.790  83.805 109.509  0.00  0.00     0.161 C 
ATOM      2  C   LIG d   1       0.454  85.095 109.950  0.00  0.00     0.016 C 
ATOM      3  C   LIG d   1      -0.317  85.346 111.108  0.00  0.00     0.038 C 
ATOM      4  C   LIG d   1      -0.680  84.320 111.993  0.00  0.00     0.028 C 
ATOM      5  C   LIG d   1      -0.795  82.955 111.324  0.00  0.00    -0.047 C 
ATOM      6  C   LIG d   1       0.497  82.678 110.522  0.00  0.00     0.091 C 
ENDROOT
BRANCH   1   7
ATOM      7  O   LIG d   1       2.174  83.770 109.107  0.00  0.00    -0.368 OA
BRANCH   7   8
ATOM      8  C   LIG d   1       3.146  83.681 110.178  0.00  0.00     0.119 C 
BRANCH   8   9
ATOM      9  C   LIG d   1       3.514  85.120 110.590  0.00  0.00     0.028 C 
ATOM     10  C   LIG d   1       3.437  85.332 112.111  0.00  0.00     0.006 C 
ENDBRANCH   8   9
BRANCH   8  11
ATOM     11  C   LIG d   1       4.455  83.051 109.691  0.00  0.00     0.028 C 
ATOM     12  C   LIG d   1       4.242  82.040 108.554  0.00  0.00     0.006 C 
ENDBRANCH   8  11
ENDBRANCH   7   8
ENDBRANCH   1   7
BRANCH   6  13
ATOM     13  N   LIG d   1       0.434  81.400 109.768  0.00  0.00    -0.311 N 
ATOM     14  C   LIG d   1       1.279  80.389 109.964  0.00  0.00     0.210 C 
ATOM     15  C   LIG d   1       1.050  79.170 109.066  0.00  0.00     0.109 C 
ATOM     16  O   LIG d   1       2.177  80.375 110.820  0.00  0.00    -0.276 OA
ATOM     17  H   LIG d   1      -0.284  81.314 109.075  0.00  0.00     0.149 HD
ENDBRANCH   6  13
BRANCH   5  18
ATOM     18  N   LIG d   1      -1.043  81.958 112.383  0.00  0.00     0.381 N 
ATOM     19  H   LIG d   1      -1.920  81.505 112.223  0.00  0.00    -0.090 HD
ATOM     20  H   LIG d   1      -1.088  82.430 113.269  0.00  0.00    -0.090 HD
ATOM     21  H   LIG d   1      -0.310  81.284 112.395  0.00  0.00    -0.090 HD
ENDBRANCH   5  18
BRANCH   3  22
ATOM     22  C   LIG d   1      -0.767  86.631 111.369  0.00  0.00     0.382 C 
ATOM     23  O   LIG d   1       0.057  87.556 111.569  0.00  0.00    -0.241 OA
ATOM     24  O   LIG d   1      -1.987  86.869 111.451  0.00  0.00    -0.241 OA
ENDBRANCH   3  22
TORSDOF 7
ENDMDL
MODEL 2
REMARK VINA RESULT:      -6.4      2.626      4.305
REMARK  7 active torsions:
REMARK  status: ('A' for Active; 'I' for Inactive)
REMARK    1  A    between atoms: C_2  and  C_3 
REMARK    2  A    between atoms: C_3  and  O_6 
REMARK    3  A    between atoms: C_3  and  C_4 
REMARK    4  A    between atoms: C_7  and  O_6 
REMARK    5  A    between atoms: C_9  and  C_10 
REMARK    6  A    between atoms: N_15  and  C_14 
REMARK    7  A    between atoms: N_20  and  C_19 
REMARK       I    between atoms: C_22  and  N_20 
ROOT
ATOM      1  C   LIG d   1       0.001  82.534 111.452  0.00  0.00     0.161 C 
ATOM      2  C   LIG d   1      -1.087  82.209 112.280  0.00  0.00     0.016 C 
ATOM      3  C   LIG d   1      -1.560  80.889 112.461  0.00  0.00     0.038 C 
ATOM      4  C   LIG d   1      -0.877  79.779 111.941  0.00  0.00     0.028 C 
ATOM      5  C   LIG d   1      -0.071  80.098 110.686  0.00  0.00    -0.047 C 
ATOM      6  C   LIG d   1       0.826  81.325 110.964  0.00  0.00     0.091 C 
ENDROOT
BRANCH   1   7
ATOM      7  O   LIG d   1       0.853  83.487 112.117  0.00  0.00    -0.368 OA
BRANCH   7   8
ATOM      8  C   LIG d   1       0.583  84.884 111.842  0.00  0.00     0.119 C 
BRANCH   8   9
ATOM      9  C   LIG d   1       0.136  84.989 110.371  0.00  0.00     0.028 C 
ATOM     10  C   LIG d   1      -1.145  85.823 110.206  0.00  0.00     0.006 C 
ENDBRANCH   8   9
BRANCH   8  11
ATOM     11  C   LIG d   1       1.858  85.728 111.940  0.00  0.00     0.028 C 
ATOM     12  C   LIG d   1       2.807  85.513 110.750  0.00  0.00     0.006 C 
ENDBRANCH   8  11
ENDBRANCH   7   8
ENDBRANCH   1   7
BRANCH   6  13
ATOM     13  N   LIG d   1       1.586  81.756 109.762  0.00  0.00    -0.311 N 
ATOM     14  C   LIG d   1       2.907  81.927 109.753  0.00  0.00     0.210 C 
ATOM     15  C   LIG d   1       3.489  82.394 108.414  0.00  0.00     0.109 C 
ATOM     16  O   LIG d   1       3.656  81.706 110.716  0.00  0.00    -0.276 OA
ATOM     17  H   LIG d   1       1.061  81.927 108.927  0.00  0.00     0.149 HD
ENDBRANCH   6  13
BRANCH   5  18
ATOM     18  N   LIG d   1       0.696  78.889 110.331  0.00  0.00     0.381 N 
ATOM     19  H   LIG d   1       1.496  79.143 109.786  0.00  0.00    -0.090 HD
ATOM     20  H   LIG d   1       0.115  78.286 109.776  0.00  0.00    -0.090 HD
ATOM     21  H   LIG d   1       0.986  78.414 111.158  0.00  0.00    -0.090 HD
ENDBRANCH   5  18
BRANCH   3  22
ATOM     22  C   LIG d   1      -2.751  80.673 113.137  0.00  0.00     0.382 C 
ATOM     23  O   LIG d   1      -2.905  79.629 113.817  0.00  0.00    -0.241 OA
ATOM     24  O   LIG d   1      -3.689  81.486 113.041  0.00  0.00    -0.241 OA
ENDBRANCH   3  22
TORSDOF 7
ENDMDL
MODEL 3
REMARK VINA RESULT:      -6.4      2.579      4.799
REMARK  7 active torsions:
REMARK  status: ('A' for Active; 'I' for Inactive)
REMARK    1  A    between atoms: C_2  and  C_3 
REMARK    2  A    between atoms: C_3  and  O_6 
REMARK    3  A    between atoms: C_3  and  C_4 
REMARK    4  A    between atoms: C_7  and  O_6 
REMARK    5  A    between atoms: C_9  and  C_10 
REMARK    6  A    between atoms: N_15  and  C_14 
REMARK    7  A    between atoms: N_20  and  C_19 
REMARK       I    between atoms: C_22  and  N_20 
ROOT
ATOM      1  C   LIG d   1       2.066  83.057 112.075  0.00  0.00     0.161 C 
ATOM      2  C   LIG d   1       1.049  82.088 112.070  0.00  0.00     0.016 C 
ATOM      3  C   LIG d   1      -0.328  82.405 112.031  0.00  0.00     0.038 C 
ATOM      4  C   LIG d   1      -0.781  83.719 111.842  0.00  0.00     0.028 C 
ATOM      5  C   LIG d   1       0.195  84.776 112.349  0.00  0.00    -0.047 C 
ATOM      6  C   LIG d   1       1.594  84.492 111.756  0.00  0.00     0.091 C 
ENDROOT
BRANCH   1   7
ATOM      7  O   LIG d   1       3.120  82.665 111.173  0.00  0.00    -0.368 OA
BRANCH   7   8
ATOM      8  C   LIG d   1       2.701  82.012 109.949  0.00  0.00     0.119 C 
BRANCH   8   9
ATOM      9  C   LIG d   1       3.650  80.821 109.712  0.00  0.00     0.028 C 
ATOM     10  C   LIG d   1       2.896  79.539 109.321  0.00  0.00     0.006 C 
ENDBRANCH   8   9
BRANCH   8  11
ATOM     11  C   LIG d   1       2.889  82.928 108.736  0.00  0.00     0.028 C 
ATOM     12  C   LIG d   1       1.558  83.454 108.175  0.00  0.00     0.006 C 
ENDBRANCH   8  11
ENDBRANCH   7   8
ENDBRANCH   1   7
BRANCH   6  13
ATOM     13  N   LIG d   1       2.627  85.429 112.268  0.00  0.00    -0.311 N 
ATOM     14  C   LIG d   1       2.902  86.600 111.696  0.00  0.00     0.210 C 
ATOM     15  C   LIG d   1       4.017  87.404 112.372  0.00  0.00     0.109 C 
ATOM     16  O   LIG d   1       2.307  87.064 110.712  0.00  0.00    -0.276 OA
ATOM     17  H   LIG d   1       3.137  85.146 113.082  0.00  0.00     0.149 HD
ENDBRANCH   6  13
BRANCH   5  18
ATOM     18  N   LIG d   1      -0.338  86.096 111.964  0.00  0.00     0.381 N 
ATOM     19  H   LIG d   1       0.416  86.738 111.821  0.00  0.00    -0.090 HD
ATOM     20  H   LIG d   1      -0.912  86.446 112.712  0.00  0.00    -0.090 HD
ATOM     21  H   LIG d   1      -0.879  86.017 111.131  0.00  0.00    -0.090 HD
ENDBRANCH   5  18
BRANCH   3  22
ATOM     22  C   LIG d   1      -1.269  81.405 112.224  0.00  0.00     0.382 C 
ATOM     23  O   LIG d   1      -1.057  80.251 111.780  0.00  0.00    -0.241 OA
ATOM     24  O   LIG d   1      -2.347  81.654 112.796  0.00  0.00    -0.241 OA
ENDBRANCH   3  22
TORSDOF 7
ENDMDL
MODEL 4
REMARK VINA RESULT:      -6.3      2.553      4.905
REMARK  7 active torsions:
REMARK  status: ('A' for Active; 'I' for Inactive)
REMARK    1  A    between atoms: C_2  and  C_3 
REMARK    2  A    between atoms: C_3  and  O_6 
REMARK    3  A    between atoms: C_3  and  C_4 
REMARK    4  A    between atoms: C_7  and  O_6 
REMARK    5  A    between atoms: C_9  and  C_10 
REMARK    6  A    between atoms: N_15  and  C_14 
REMARK    7  A    between atoms: N_20  and  C_19 
REMARK       I    between atoms: C_22  and  N_20 
ROOT
ATOM      1  C   LIG d   1       1.085  81.616 112.419  0.00  0.00     0.161 C 
ATOM      2  C   LIG d   1       2.242  82.046 111.748  0.00  0.00     0.016 C 
ATOM      3  C   LIG d   1       2.462  81.839 110.366  0.00  0.00     0.038 C 
ATOM      4  C   LIG d   1       1.466  81.318 109.527  0.00  0.00     0.028 C 
ATOM      5  C   LIG d   1       0.479  80.409 110.250  0.00  0.00    -0.047 C 
ATOM      6  C   LIG d   1      -0.060  81.145 111.498  0.00  0.00     0.091 C 
ENDROOT
BRANCH   1   7
ATOM      7  O   LIG d   1       0.620  82.654 113.305  0.00  0.00    -0.368 OA
BRANCH   7   8
ATOM      8  C   LIG d   1       0.841  84.016 112.864  0.00  0.00     0.119 C 
BRANCH   8   9
ATOM      9  C   LIG d   1       1.384  84.811 114.067  0.00  0.00     0.028 C 
ATOM     10  C   LIG d   1       1.735  86.263 113.701  0.00  0.00     0.006 C 
ENDBRANCH   8   9
BRANCH   8  11
ATOM     11  C   LIG d   1      -0.476  84.700 112.487  0.00  0.00     0.028 C 
ATOM     12  C   LIG d   1      -0.724  84.720 110.970  0.00  0.00     0.006 C 
ENDBRANCH   8  11
ENDBRANCH   7   8
ENDBRANCH   1   7
BRANCH   6  13
ATOM     13  N   LIG d   1      -0.969  80.294 112.310  0.00  0.00    -0.311 N 
ATOM     14  C   LIG d   1      -2.083  80.749 112.881  0.00  0.00     0.210 C 
ATOM     15  C   LIG d   1      -2.864  79.710 113.691  0.00  0.00     0.109 C 
ATOM     16  O   LIG d   1      -2.515  81.906 112.768  0.00  0.00    -0.276 OA
ATOM     17  H   LIG d   1      -0.711  79.334 112.428  0.00  0.00     0.149 HD
ENDBRANCH   6  13
BRANCH   5  18
ATOM     18  N   LIG d   1      -0.581  80.048 109.290  0.00  0.00     0.381 N 
ATOM     19  H   LIG d   1      -0.176  79.601 108.491  0.00  0.00    -0.090 HD
ATOM     20  H   LIG d   1      -1.041  80.887 108.983  0.00  0.00    -0.090 HD
ATOM     21  H   LIG d   1      -1.240  79.438 109.722  0.00  0.00    -0.090 HD
ENDBRANCH   5  18
BRANCH   3  22
ATOM     22  C   LIG d   1       3.705  82.119 109.819  0.00  0.00     0.382 C 
ATOM     23  O   LIG d   1       4.167  81.390 108.909  0.00  0.00    -0.241 OA
ATOM     24  O   LIG d   1       4.389  83.064 110.255  0.00  0.00    -0.241 OA
ENDBRANCH   3  22
TORSDOF 7
ENDMDL
MODEL 5
REMARK VINA RESULT:      -6.1      1.756      5.214
REMARK  7 active torsions:
REMARK  status: ('A' for Active; 'I' for Inactive)
REMARK    1  A    between atoms: C_2  and  C_3 
REMARK    2  A    between atoms: C_3  and  O_6 
REMARK    3  A    between atoms: C_3  and  C_4 
REMARK    4  A    between atoms: C_7  and  O_6 
REMARK    5  A    between atoms: C_9  and  C_10 
REMARK    6  A    between atoms: N_15  and  C_14 
REMARK    7  A    between atoms: N_20  and  C_19 
REMARK       I    between atoms: C_22  and  N_20 
ROOT
ATOM      1  C   LIG d   1       1.214  82.072 110.190  0.00  0.00     0.161 C 
ATOM      2  C   LIG d   1       1.488  80.888 109.486  0.00  0.00     0.016 C 
ATOM      3  C   LIG d   1       0.843  79.658 109.749  0.00  0.00     0.038 C 
ATOM      4  C   LIG d   1      -0.237  79.563 110.640  0.00  0.00     0.028 C 
ATOM      5  C   LIG d   1      -0.211  80.622 111.738  0.00  0.00    -0.047 C 
ATOM      6  C   LIG d   1      -0.039  82.014 111.089  0.00  0.00     0.091 C 
ENDROOT
BRANCH   1   7
ATOM      7  O   LIG d   1       1.119  83.177 109.270  0.00  0.00    -0.368 OA
BRANCH   7   8
ATOM      8  C   LIG d   1       2.221  84.118 109.289  0.00  0.00     0.119 C 
BRANCH   8   9
ATOM      9  C   LIG d   1       3.292  83.558 110.245  0.00  0.00     0.028 C 
ATOM     10  C   LIG d   1       4.561  83.105 109.504  0.00  0.00     0.006 C 
ENDBRANCH   8   9
BRANCH   8  11
ATOM     11  C   LIG d   1       1.798  85.459 109.895  0.00  0.00     0.028 C 
ATOM     12  C   LIG d   1       2.736  85.928 111.018  0.00  0.00     0.006 C 
ENDBRANCH   8  11
ENDBRANCH   7   8
ENDBRANCH   1   7
BRANCH   6  13
ATOM     13  N   LIG d   1       0.080  83.099 112.097  0.00  0.00    -0.311 N 
ATOM     14  C   LIG d   1      -0.600  84.242 112.029  0.00  0.00     0.210 C 
ATOM     15  C   LIG d   1      -0.314  85.234 113.161  0.00  0.00     0.109 C 
ATOM     16  O   LIG d   1      -1.436  84.516 111.155  0.00  0.00    -0.276 OA
ATOM     17  H   LIG d   1       0.714  82.947 112.858  0.00  0.00     0.149 HD
ENDBRANCH   6  13
BRANCH   5  18
ATOM     18  N   LIG d   1      -1.462  80.494 112.509  0.00  0.00     0.381 N 
ATOM     19  H   LIG d   1      -1.390  79.726 113.146  0.00  0.00    -0.090 HD
ATOM     20  H   LIG d   1      -2.218  80.307 111.874  0.00  0.00    -0.090 HD
ATOM     21  H   LIG d   1      -1.641  81.335 113.011  0.00  0.00    -0.090 HD
ENDBRANCH   5  18
BRANCH   3  22
ATOM     22  C   LIG d   1       1.304  78.497 109.147  0.00  0.00     0.382 C 
ATOM     23  O   LIG d   1       1.117  77.387 109.701  0.00  0.00    -0.241 OA
ATOM     24  O   LIG d   1       1.943  78.550 108.079  0.00  0.00    -0.241 OA
ENDBRANCH   3  22
TORSDOF 7
ENDMDL
MODEL 6
REMARK VINA RESULT:      -5.9      2.190      5.118
REMARK  7 active torsions:
REMARK  status: ('A' for Active; 'I' for Inactive)
REMARK    1  A    between atoms: C_2  and  C_3 
REMARK    2  A    between atoms: C_3  and  O_6 
REMARK    3  A    between atoms: C_3  and  C_4 
REMARK    4  A    between atoms: C_7  and  O_6 
REMARK    5  A    between atoms: C_9  and  C_10 
REMARK    6  A    between atoms: N_15  and  C_14 
REMARK    7  A    between atoms: N_20  and  C_19 
REMARK       I    between atoms: C_22  and  N_20 
ROOT
ATOM      1  C   LIG d   1       1.848  83.524 110.945  0.00  0.00     0.161 C 
ATOM      2  C   LIG d   1       2.424  82.618 110.039  0.00  0.00     0.016 C 
ATOM      3  C   LIG d   1       2.344  81.214 110.186  0.00  0.00     0.038 C 
ATOM      4  C   LIG d   1       1.549  80.616 111.175  0.00  0.00     0.028 C 
ATOM      5  C   LIG d   1       1.362  81.489 112.411  0.00  0.00    -0.047 C 
ATOM      6  C   LIG d   1       0.883  82.890 111.968  0.00  0.00     0.091 C 
ENDROOT
BRANCH   1   7
ATOM      7  O   LIG d   1       1.189  84.584 110.224  0.00  0.00    -0.368 OA
BRANCH   7   8
ATOM      8  C   LIG d   1       1.786  85.899 110.338  0.00  0.00     0.119 C 
BRANCH   8   9
ATOM      9  C   LIG d   1       3.175  85.723 110.981  0.00  0.00     0.028 C 
ATOM     10  C   LIG d   1       3.531  86.876 111.934  0.00  0.00     0.006 C 
ENDBRANCH   8   9
BRANCH   8  11
ATOM     11  C   LIG d   1       0.999  86.785 111.309  0.00  0.00     0.028 C 
ATOM     12  C   LIG d   1      -0.518  86.551 111.234  0.00  0.00     0.006 C 
ENDBRANCH   8  11
ENDBRANCH   7   8
ENDBRANCH   1   7
BRANCH   6  13
ATOM     13  N   LIG d   1       0.756  83.833 113.111  0.00  0.00    -0.311 N 
ATOM     14  C   LIG d   1       1.757  84.114 113.943  0.00  0.00     0.210 C 
ATOM     15  C   LIG d   1       1.407  85.097 115.065  0.00  0.00     0.109 C 
ATOM     16  O   LIG d   1       2.910  83.669 113.840  0.00  0.00    -0.276 OA
ATOM     17  H   LIG d   1      -0.137  84.264 113.249  0.00  0.00     0.149 HD
ENDBRANCH   6  13
BRANCH   5  18
ATOM     18  N   LIG d   1       0.403  80.804 113.299  0.00  0.00     0.381 N 
ATOM     19  H   LIG d   1       0.647  80.972 114.255  0.00  0.00    -0.090 HD
ATOM     20  H   LIG d   1       0.453  79.815 113.130  0.00  0.00    -0.090 HD
ATOM     21  H   LIG d   1      -0.520  81.132 113.121  0.00  0.00    -0.090 HD
ENDBRANCH   5  18
BRANCH   3  22
ATOM     22  C   LIG d   1       3.097  80.393 109.361  0.00  0.00     0.382 C 
ATOM     23  O   LIG d   1       2.827  79.170 109.277  0.00  0.00    -0.241 OA
ATOM     24  O   LIG d   1       4.072  80.850 108.733  0.00  0.00    -0.241 OA
ENDBRANCH   3  22
TORSDOF 7
ENDMDL
MODEL 7
REMARK VINA RESULT:      -5.9      2.943      5.671
REMARK  7 active torsions:
REMARK  status: ('A' for Active; 'I' for Inactive)
REMARK    1  A    between atoms: C_2  and  C_3 
REMARK    2  A    between atoms: C_3  and  O_6 
REMARK    3  A    between atoms: C_3  and  C_4 
REMARK    4  A    between atoms: C_7  and  O_6 
REMARK    5  A    between atoms: C_9  and  C_10 
REMARK    6  A    between atoms: N_15  and  C_14 
REMARK    7  A    between atoms: N_20  and  C_19 
REMARK       I    between atoms: C_22  and  N_20 
ROOT
ATOM      1  C   LIG d   1       0.007  80.307 111.314  0.00  0.00     0.161 C 
ATOM      2  C   LIG d   1      -0.367  78.970 111.095  0.00  0.00     0.016 C 
ATOM      3  C   LIG d   1      -1.535  78.390 111.641  0.00  0.00     0.038 C 
ATOM      4  C   LIG d   1      -2.493  79.154 112.324  0.00  0.00     0.028 C 
ATOM      5  C   LIG d   1      -1.912  80.391 112.999  0.00  0.00    -0.047 C 
ATOM      6  C   LIG d   1      -1.082  81.185 111.964  0.00  0.00     0.091 C 
ENDROOT
BRANCH   1   7
ATOM      7  O   LIG d   1       0.455  80.897 110.078  0.00  0.00    -0.368 OA
BRANCH   7   8
ATOM      8  C   LIG d   1       1.831  81.351 110.050  0.00  0.00     0.119 C 
BRANCH   8   9
ATOM      9  C   LIG d   1       1.928  82.469 108.994  0.00  0.00     0.028 C 
ATOM     10  C   LIG d   1       2.078  83.862 109.628  0.00  0.00     0.006 C 
ENDBRANCH   8   9
BRANCH   8  11
ATOM     11  C   LIG d   1       2.771  80.246 109.558  0.00  0.00     0.028 C 
ATOM     12  C   LIG d   1       4.092  80.795 108.996  0.00  0.00     0.006 C 
ENDBRANCH   8  11
ENDBRANCH   7   8
ENDBRANCH   1   7
BRANCH   6  13
ATOM     13  N   LIG d   1      -0.409  82.367 112.563  0.00  0.00    -0.311 N 
ATOM     14  C   LIG d   1      -0.599  83.614 112.136  0.00  0.00     0.210 C 
ATOM     15  C   LIG d   1       0.209  84.682 112.879  0.00  0.00     0.109 C 
ATOM     16  O   LIG d   1      -1.384  83.940 111.233  0.00  0.00    -0.276 OA
ATOM     17  H   LIG d   1       0.222  82.196 113.322  0.00  0.00     0.149 HD
ENDBRANCH   6  13
BRANCH   5  18
ATOM     18  N   LIG d   1      -3.037  81.166 113.555  0.00  0.00     0.381 N 
ATOM     19  H   LIG d   1      -3.343  80.751 114.413  0.00  0.00    -0.090 HD
ATOM     20  H   LIG d   1      -3.801  81.142 112.904  0.00  0.00    -0.090 HD
ATOM     21  H   LIG d   1      -2.756  82.108 113.715  0.00  0.00    -0.090 HD
ENDBRANCH   5  18
BRANCH   3  22
ATOM     22  C   LIG d   1      -1.734  77.021 111.540  0.00  0.00     0.382 C 
ATOM     23  O   LIG d   1      -1.124  76.362 110.664  0.00  0.00    -0.241 OA
ATOM     24  O   LIG d   1      -2.549  76.445 112.284  0.00  0.00    -0.241 OA
ENDBRANCH   3  22
TORSDOF 7
ENDMDL
MODEL 8
REMARK VINA RESULT:      -5.7      1.751      2.949
REMARK  7 active torsions:
REMARK  status: ('A' for Active; 'I' for Inactive)
REMARK    1  A    between atoms: C_2  and  C_3 
REMARK    2  A    between atoms: C_3  and  O_6 
REMARK    3  A    between atoms: C_3  and  C_4 
REMARK    4  A    between atoms: C_7  and  O_6 
REMARK    5  A    between atoms: C_9  and  C_10 
REMARK    6  A    between atoms: N_15  and  C_14 
REMARK    7  A    between atoms: N_20  and  C_19 
REMARK       I    between atoms: C_22  and  N_20 
ROOT
ATOM      1  C   LIG d   1       2.249  84.125 111.042  0.00  0.00     0.161 C 
ATOM      2  C   LIG d   1       1.217  85.073 111.145  0.00  0.00     0.016 C 
ATOM      3  C   LIG d   1      -0.152  84.728 111.214  0.00  0.00     0.038 C 
ATOM      4  C   LIG d   1      -0.576  83.397 111.338  0.00  0.00     0.028 C 
ATOM      5  C   LIG d   1       0.398  82.392 110.731  0.00  0.00    -0.047 C 
ATOM      6  C   LIG d   1       1.813  82.666 111.289  0.00  0.00     0.091 C 
ENDROOT
BRANCH   1   7
ATOM      7  O   LIG d   1       3.329  84.482 111.928  0.00  0.00    -0.368 OA
BRANCH   7   8
ATOM      8  C   LIG d   1       3.150  85.698 112.694  0.00  0.00     0.119 C 
BRANCH   8   9
ATOM      9  C   LIG d   1       4.075  86.769 112.085  0.00  0.00     0.028 C 
ATOM     10  C   LIG d   1       4.014  88.102 112.851  0.00  0.00     0.006 C 
ENDBRANCH   8   9
BRANCH   8  11
ATOM     11  C   LIG d   1       3.629  85.522 114.138  0.00  0.00     0.028 C 
ATOM     12  C   LIG d   1       2.593  84.818 115.028  0.00  0.00     0.006 C 
ENDBRANCH   8  11
ENDBRANCH   7   8
ENDBRANCH   1   7
BRANCH   6  13
ATOM     13  N   LIG d   1       2.842  81.781 110.683  0.00  0.00    -0.311 N 
ATOM     14  C   LIG d   1       3.130  81.776 109.382  0.00  0.00     0.210 C 
ATOM     15  C   LIG d   1       4.209  80.772 108.963  0.00  0.00     0.109 C 
ATOM     16  O   LIG d   1       2.618  82.529 108.541  0.00  0.00    -0.276 OA
ATOM     17  H   LIG d   1       3.328  81.158 111.298  0.00  0.00     0.149 HD
ENDBRANCH   6  13
BRANCH   5  18
ATOM     18  N   LIG d   1      -0.099  81.041 111.053  0.00  0.00     0.381 N 
ATOM     19  H   LIG d   1       0.006  80.865 112.032  0.00  0.00    -0.090 HD
ATOM     20  H   LIG d   1       0.450  80.365 110.550  0.00  0.00    -0.090 HD
ATOM     21  H   LIG d   1      -1.058  80.959 110.794  0.00  0.00    -0.090 HD
ENDBRANCH   5  18
BRANCH   3  22
ATOM     22  C   LIG d   1      -1.116  85.720 111.118  0.00  0.00     0.382 C 
ATOM     23  O   LIG d   1      -1.617  86.002 110.003  0.00  0.00    -0.241 OA
ATOM     24  O   LIG d   1      -1.460  86.367 112.126  0.00  0.00    -0.241 OA
ENDBRANCH   3  22
TORSDOF 7
ENDMDL
MODEL 9
REMARK VINA RESULT:      -5.7      3.165      4.513
REMARK  7 active torsions:
REMARK  status: ('A' for Active; 'I' for Inactive)
REMARK    1  A    between atoms: C_2  and  C_3 
REMARK    2  A    between atoms: C_3  and  O_6 
REMARK    3  A    between atoms: C_3  and  C_4 
REMARK    4  A    between atoms: C_7  and  O_6 
REMARK    5  A    between atoms: C_9  and  C_10 
REMARK    6  A    between atoms: N_15  and  C_14 
REMARK    7  A    between atoms: N_20  and  C_19 
REMARK       I    between atoms: C_22  and  N_20 
ROOT
ATOM      1  C   LIG d   1       3.820  85.491 112.560  0.00  0.00     0.161 C 
ATOM      2  C   LIG d   1       3.556  86.802 112.991  0.00  0.00     0.016 C 
ATOM      3  C   LIG d   1       2.600  87.645 112.379  0.00  0.00     0.038 C 
ATOM      4  C   LIG d   1       1.731  87.179 111.382  0.00  0.00     0.028 C 
ATOM      5  C   LIG d   1       2.303  86.020 110.572  0.00  0.00    -0.047 C 
ATOM      6  C   LIG d   1       2.804  84.928 111.545  0.00  0.00     0.091 C 
ENDROOT
BRANCH   1   7
ATOM      7  O   LIG d   1       3.929  84.615 113.699  0.00  0.00    -0.368 OA
BRANCH   7   8
ATOM      8  C   LIG d   1       3.184  85.006 114.878  0.00  0.00     0.119 C 
BRANCH   8   9
ATOM      9  C   LIG d   1       4.119  84.843 116.092  0.00  0.00     0.028 C 
ATOM     10  C   LIG d   1       4.572  86.195 116.669  0.00  0.00     0.006 C 
ENDBRANCH   8   9
BRANCH   8  11
ATOM     11  C   LIG d   1       2.013  84.054 115.138  0.00  0.00     0.028 C 
ATOM     12  C   LIG d   1       2.169  82.706 114.416  0.00  0.00     0.006 C 
ENDBRANCH   8  11
ENDBRANCH   7   8
ENDBRANCH   1   7
BRANCH   6  13
ATOM     13  N   LIG d   1       3.455  83.795 110.838  0.00  0.00    -0.311 N 
ATOM     14  C   LIG d   1       2.819  82.672 110.508  0.00  0.00     0.210 C 
ATOM     15  C   LIG d   1       3.682  81.622 109.801  0.00  0.00     0.109 C 
ATOM     16  O   LIG d   1       1.613  82.459 110.705  0.00  0.00    -0.276 OA
ATOM     17  H   LIG d   1       4.426  83.896 110.611  0.00  0.00     0.149 HD
ENDBRANCH   6  13
BRANCH   5  18
ATOM     18  N   LIG d   1       1.243  85.544 109.664  0.00  0.00     0.381 N 
ATOM     19  H   LIG d   1       0.471  86.180 109.681  0.00  0.00    -0.090 HD
ATOM     20  H   LIG d   1       0.920  84.648 109.983  0.00  0.00    -0.090 HD
ATOM     21  H   LIG d   1       1.598  85.467 108.736  0.00  0.00    -0.090 HD
ENDBRANCH   5  18
BRANCH   3  22
ATOM     22  C   LIG d   1       2.535  88.983 112.737  0.00  0.00     0.382 C 
ATOM     23  O   LIG d   1       3.579  89.596 113.067  0.00  0.00    -0.241 OA
ATOM     24  O   LIG d   1       1.439  89.574 112.776  0.00  0.00    -0.241 OA
ENDBRANCH   3  22
TORSDOF 7
ENDMDL
