MODEL 1
REMARK VINA RESULT:      -7.0      0.000      0.000
REMARK  7 active torsions:
REMARK  status: ('A' for Active; 'I' for Inactive)
REMARK    1  A    between atoms: C_2  and  C_3 
REMARK    2  A    between atoms: C_3  and  O_6 
REMARK    3  A    between atoms: C_3  and  C_4 
REMARK    4  A    between atoms: C_7  and  O_6 
REMARK    5  A    between atoms: C_9  and  C_10 
REMARK    6  A    between atoms: N_15  and  C_14 
REMARK    7  A    between atoms: N_20  and  C_19 
REMARK       I    between atoms: C_22  and  N_20 
ROOT
ATOM      1  C   LIG d   1       1.043  84.168 109.327  0.00  0.00     0.161 C 
ATOM      2  C   LIG d   1       0.647  85.423 109.819  0.00  0.00     0.016 C 
ATOM      3  C   LIG d   1      -0.305  85.590 110.851  0.00  0.00     0.038 C 
ATOM      4  C   LIG d   1      -0.817  84.500 111.569  0.00  0.00     0.028 C 
ATOM      5  C   LIG d   1      -0.829  83.200 110.772  0.00  0.00    -0.047 C 
ATOM      6  C   LIG d   1       0.577  82.965 110.174  0.00  0.00     0.091 C 
ENDROOT
BRANCH   1   7
ATOM      7  O   LIG d   1       2.474  84.138 109.159  0.00  0.00    -0.368 OA
BRANCH   7   8
ATOM      8  C   LIG d   1       3.246  83.768 110.328  0.00  0.00     0.119 C 
BRANCH   8   9
ATOM      9  C   LIG d   1       3.938  85.042 110.848  0.00  0.00     0.028 C 
ATOM     10  C   LIG d   1       4.419  84.897 112.302  0.00  0.00     0.006 C 
ENDBRANCH   8   9
BRANCH   8  11
ATOM     11  C   LIG d   1       4.383  82.808 109.964  0.00  0.00     0.028 C 
ATOM     12  C   LIG d   1       4.305  82.317 108.510  0.00  0.00     0.006 C 
ENDBRANCH   8  11
ENDBRANCH   7   8
ENDBRANCH   1   7
BRANCH   6  13
ATOM     13  N   LIG d   1       0.632  81.758 109.310  0.00  0.00    -0.311 N 
ATOM     14  C   LIG d   1       1.308  80.656 109.631  0.00  0.00     0.210 C 
ATOM     15  C   LIG d   1       1.249  79.535 108.589  0.00  0.00     0.109 C 
ATOM     16  O   LIG d   1       1.924  80.489 110.694  0.00  0.00    -0.276 OA
ATOM     17  H   LIG d   1       0.133  81.795 108.442  0.00  0.00     0.149 HD
ENDBRANCH   6  13
BRANCH   5  18
ATOM     18  N   LIG d   1      -1.257  82.122 111.683  0.00  0.00     0.381 N 
ATOM     19  H   LIG d   1      -0.909  81.243 111.355  0.00  0.00    -0.090 HD
ATOM     20  H   LIG d   1      -2.261  82.081 111.690  0.00  0.00    -0.090 HD
ATOM     21  H   LIG d   1      -0.918  82.298 112.604  0.00  0.00    -0.090 HD
ENDBRANCH   5  18
BRANCH   3  22
ATOM     22  C   LIG d   1      -0.783  86.857 111.146  0.00  0.00     0.382 C 
ATOM     23  O   LIG d   1      -0.001  87.738 111.578  0.00  0.00    -0.241 OA
ATOM     24  O   LIG d   1      -1.995  87.118 111.027  0.00  0.00    -0.241 OA
ENDBRANCH   3  22
TORSDOF 7
ENDMDL
MODEL 2
REMARK VINA RESULT:      -6.8      1.483      2.329
REMARK  7 active torsions:
REMARK  status: ('A' for Active; 'I' for Inactive)
REMARK    1  A    between atoms: C_2  and  C_3 
REMARK    2  A    between atoms: C_3  and  O_6 
REMARK    3  A    between atoms: C_3  and  C_4 
REMARK    4  A    between atoms: C_7  and  O_6 
REMARK    5  A    between atoms: C_9  and  C_10 
REMARK    6  A    between atoms: N_15  and  C_14 
REMARK    7  A    between atoms: N_20  and  C_19 
REMARK       I    between atoms: C_22  and  N_20 
ROOT
ATOM      1  C   LIG d   1       2.446  84.925 110.033  0.00  0.00     0.161 C 
ATOM      2  C   LIG d   1       1.611  85.938 110.534  0.00  0.00     0.016 C 
ATOM      3  C   LIG d   1       0.239  85.747 110.814  0.00  0.00     0.038 C 
ATOM      4  C   LIG d   1      -0.361  84.480 110.754  0.00  0.00     0.028 C 
ATOM      5  C   LIG d   1       0.319  83.534 109.770  0.00  0.00    -0.047 C 
ATOM      6  C   LIG d   1       1.836  83.508 110.067  0.00  0.00     0.091 C 
ENDROOT
BRANCH   1   7
ATOM      7  O   LIG d   1       3.708  84.943 110.729  0.00  0.00    -0.368 OA
BRANCH   7   8
ATOM      8  C   LIG d   1       3.763  85.755 111.928  0.00  0.00     0.119 C 
BRANCH   8   9
ATOM      9  C   LIG d   1       4.912  86.767 111.750  0.00  0.00     0.028 C 
ATOM     10  C   LIG d   1       5.409  87.331 113.092  0.00  0.00     0.006 C 
ENDBRANCH   8   9
BRANCH   8  11
ATOM     11  C   LIG d   1       4.147  84.917 113.151  0.00  0.00     0.028 C 
ATOM     12  C   LIG d   1       2.947  84.181 113.770  0.00  0.00     0.006 C 
ENDBRANCH   8  11
ENDBRANCH   7   8
ENDBRANCH   1   7
BRANCH   6  13
ATOM     13  N   LIG d   1       2.589  82.671 109.096  0.00  0.00    -0.311 N 
ATOM     14  C   LIG d   1       3.344  81.634 109.454  0.00  0.00     0.210 C 
ATOM     15  C   LIG d   1       4.051  80.919 108.298  0.00  0.00     0.109 C 
ATOM     16  O   LIG d   1       3.471  81.218 110.616  0.00  0.00    -0.276 OA
ATOM     17  H   LIG d   1       2.518  82.919 108.129  0.00  0.00     0.149 HD
ENDBRANCH   6  13
BRANCH   5  18
ATOM     18  N   LIG d   1      -0.319  82.211 109.910  0.00  0.00     0.381 N 
ATOM     19  H   LIG d   1      -0.020  81.611 109.168  0.00  0.00    -0.090 HD
ATOM     20  H   LIG d   1      -1.316  82.323 109.843  0.00  0.00    -0.090 HD
ATOM     21  H   LIG d   1      -0.081  81.809 110.789  0.00  0.00    -0.090 HD
ENDBRANCH   5  18
BRANCH   3  22
ATOM     22  C   LIG d   1      -0.558  86.839 111.120  0.00  0.00     0.382 C 
ATOM     23  O   LIG d   1      -0.042  87.877 111.599  0.00  0.00    -0.241 OA
ATOM     24  O   LIG d   1      -1.793  86.783 110.966  0.00  0.00    -0.241 OA
ENDBRANCH   3  22
TORSDOF 7
ENDMDL
MODEL 3
REMARK VINA RESULT:      -6.7      2.425      4.780
REMARK  7 active torsions:
REMARK  status: ('A' for Active; 'I' for Inactive)
REMARK    1  A    between atoms: C_2  and  C_3 
REMARK    2  A    between atoms: C_3  and  O_6 
REMARK    3  A    between atoms: C_3  and  C_4 
REMARK    4  A    between atoms: C_7  and  O_6 
REMARK    5  A    between atoms: C_9  and  C_10 
REMARK    6  A    between atoms: N_15  and  C_14 
REMARK    7  A    between atoms: N_20  and  C_19 
REMARK       I    between atoms: C_22  and  N_20 
ROOT
ATOM      1  C   LIG d   1       1.081  82.139 111.615  0.00  0.00     0.161 C 
ATOM      2  C   LIG d   1       2.174  82.561 110.839  0.00  0.00     0.016 C 
ATOM      3  C   LIG d   1       2.368  82.176 109.493  0.00  0.00     0.038 C 
ATOM      4  C   LIG d   1       1.395  81.459 108.779  0.00  0.00     0.028 C 
ATOM      5  C   LIG d   1       0.514  80.586 109.666  0.00  0.00    -0.047 C 
ATOM      6  C   LIG d   1      -0.047  81.448 110.820  0.00  0.00     0.091 C 
ENDROOT
BRANCH   1   7
ATOM      7  O   LIG d   1       0.556  83.252 112.365  0.00  0.00    -0.368 OA
BRANCH   7   8
ATOM      8  C   LIG d   1       0.691  84.556 111.750  0.00  0.00     0.119 C 
BRANCH   8   9
ATOM      9  C   LIG d   1       0.982  85.570 112.874  0.00  0.00     0.028 C 
ATOM     10  C   LIG d   1       1.745  86.805 112.367  0.00  0.00     0.006 C 
ENDBRANCH   8   9
BRANCH   8  11
ATOM     11  C   LIG d   1      -0.627  85.016 111.121  0.00  0.00     0.028 C 
ATOM     12  C   LIG d   1      -0.479  85.399 109.640  0.00  0.00     0.006 C 
ENDBRANCH   8  11
ENDBRANCH   7   8
ENDBRANCH   1   7
BRANCH   6  13
ATOM     13  N   LIG d   1      -0.852  80.652 111.782  0.00  0.00    -0.311 N 
ATOM     14  C   LIG d   1      -2.030  81.051 112.260  0.00  0.00     0.210 C 
ATOM     15  C   LIG d   1      -2.684  80.088 113.256  0.00  0.00     0.109 C 
ATOM     16  O   LIG d   1      -2.610  82.096 111.928  0.00  0.00    -0.276 OA
ATOM     17  H   LIG d   1      -0.471  79.775 112.081  0.00  0.00     0.149 HD
ENDBRANCH   6  13
BRANCH   5  18
ATOM     18  N   LIG d   1      -0.540  80.005 108.813  0.00  0.00     0.381 N 
ATOM     19  H   LIG d   1      -0.314  79.054 108.597  0.00  0.00    -0.090 HD
ATOM     20  H   LIG d   1      -0.584  80.522 107.953  0.00  0.00    -0.090 HD
ATOM     21  H   LIG d   1      -1.419  80.048 109.280  0.00  0.00    -0.090 HD
ENDBRANCH   5  18
BRANCH   3  22
ATOM     22  C   LIG d   1       3.564  82.474 108.858  0.00  0.00     0.382 C 
ATOM     23  O   LIG d   1       3.911  81.830 107.839  0.00  0.00    -0.241 OA
ATOM     24  O   LIG d   1       4.321  83.350 109.317  0.00  0.00    -0.241 OA
ENDBRANCH   3  22
TORSDOF 7
ENDMDL
MODEL 4
REMARK VINA RESULT:      -6.6      2.564      4.761
REMARK  7 active torsions:
REMARK  status: ('A' for Active; 'I' for Inactive)
REMARK    1  A    between atoms: C_2  and  C_3 
REMARK    2  A    between atoms: C_3  and  O_6 
REMARK    3  A    between atoms: C_3  and  C_4 
REMARK    4  A    between atoms: C_7  and  O_6 
REMARK    5  A    between atoms: C_9  and  C_10 
REMARK    6  A    between atoms: N_15  and  C_14 
REMARK    7  A    between atoms: N_20  and  C_19 
REMARK       I    between atoms: C_22  and  N_20 
ROOT
ATOM      1  C   LIG d   1       1.878  82.918 111.688  0.00  0.00     0.161 C 
ATOM      2  C   LIG d   1       0.767  82.062 111.625  0.00  0.00     0.016 C 
ATOM      3  C   LIG d   1      -0.568  82.523 111.548  0.00  0.00     0.038 C 
ATOM      4  C   LIG d   1      -0.874  83.881 111.376  0.00  0.00     0.028 C 
ATOM      5  C   LIG d   1       0.188  84.818 111.941  0.00  0.00    -0.047 C 
ATOM      6  C   LIG d   1       1.570  84.400 111.389  0.00  0.00     0.091 C 
ENDROOT
BRANCH   1   7
ATOM      7  O   LIG d   1       2.917  82.436 110.813  0.00  0.00    -0.368 OA
BRANCH   7   8
ATOM      8  C   LIG d   1       2.475  81.731 109.627  0.00  0.00     0.119 C 
BRANCH   8   9
ATOM      9  C   LIG d   1       3.355  80.474 109.481  0.00  0.00     0.028 C 
ATOM     10  C   LIG d   1       2.537  79.227 109.106  0.00  0.00     0.006 C 
ENDBRANCH   8   9
BRANCH   8  11
ATOM     11  C   LIG d   1       2.731  82.555 108.362  0.00  0.00     0.028 C 
ATOM     12  C   LIG d   1       1.464  83.246 107.834  0.00  0.00     0.006 C 
ENDBRANCH   8  11
ENDBRANCH   7   8
ENDBRANCH   1   7
BRANCH   6  13
ATOM     13  N   LIG d   1       2.677  85.213 111.959  0.00  0.00    -0.311 N 
ATOM     14  C   LIG d   1       3.013  86.417 111.499  0.00  0.00     0.210 C 
ATOM     15  C   LIG d   1       4.197  87.075 112.216  0.00  0.00     0.109 C 
ATOM     16  O   LIG d   1       2.424  87.017 110.587  0.00  0.00    -0.276 OA
ATOM     17  H   LIG d   1       3.188  84.816 112.722  0.00  0.00     0.149 HD
ENDBRANCH   6  13
BRANCH   5  18
ATOM     18  N   LIG d   1      -0.190  86.195 111.571  0.00  0.00     0.381 N 
ATOM     19  H   LIG d   1      -1.114  86.392 111.901  0.00  0.00    -0.090 HD
ATOM     20  H   LIG d   1      -0.189  86.275 110.570  0.00  0.00    -0.090 HD
ATOM     21  H   LIG d   1       0.456  86.843 111.965  0.00  0.00    -0.090 HD
ENDBRANCH   5  18
BRANCH   3  22
ATOM     22  C   LIG d   1      -1.614  81.623 111.684  0.00  0.00     0.382 C 
ATOM     23  O   LIG d   1      -2.733  82.020 112.091  0.00  0.00    -0.241 OA
ATOM     24  O   LIG d   1      -1.442  80.413 111.448  0.00  0.00    -0.241 OA
ENDBRANCH   3  22
TORSDOF 7
ENDMDL
MODEL 5
REMARK VINA RESULT:      -6.5      2.604      4.368
REMARK  7 active torsions:
REMARK  status: ('A' for Active; 'I' for Inactive)
REMARK    1  A    between atoms: C_2  and  C_3 
REMARK    2  A    between atoms: C_3  and  O_6 
REMARK    3  A    between atoms: C_3  and  C_4 
REMARK    4  A    between atoms: C_7  and  O_6 
REMARK    5  A    between atoms: C_9  and  C_10 
REMARK    6  A    between atoms: N_15  and  C_14 
REMARK    7  A    between atoms: N_20  and  C_19 
REMARK       I    between atoms: C_22  and  N_20 
ROOT
ATOM      1  C   LIG d   1       0.108  82.776 111.275  0.00  0.00     0.161 C 
ATOM      2  C   LIG d   1      -1.088  82.408 111.912  0.00  0.00     0.016 C 
ATOM      3  C   LIG d   1      -1.635  81.106 111.850  0.00  0.00     0.038 C 
ATOM      4  C   LIG d   1      -0.939  80.037 111.266  0.00  0.00     0.028 C 
ATOM      5  C   LIG d   1       0.033  80.471 110.174  0.00  0.00    -0.047 C 
ATOM      6  C   LIG d   1       0.938  81.596 110.727  0.00  0.00     0.091 C 
ENDROOT
BRANCH   1   7
ATOM      7  O   LIG d   1       0.908  83.581 112.163  0.00  0.00    -0.368 OA
BRANCH   7   8
ATOM      8  C   LIG d   1       1.148  84.947 111.744  0.00  0.00     0.119 C 
BRANCH   8   9
ATOM      9  C   LIG d   1       2.577  85.321 112.181  0.00  0.00     0.028 C 
ATOM     10  C   LIG d   1       3.585  85.241 111.022  0.00  0.00     0.006 C 
ENDBRANCH   8   9
BRANCH   8  11
ATOM     11  C   LIG d   1       0.229  85.926 112.481  0.00  0.00     0.028 C 
ATOM     12  C   LIG d   1      -0.897  86.474 111.590  0.00  0.00     0.006 C 
ENDBRANCH   8  11
ENDBRANCH   7   8
ENDBRANCH   1   7
BRANCH   6  13
ATOM     13  N   LIG d   1       1.863  82.137 109.696  0.00  0.00    -0.311 N 
ATOM     14  C   LIG d   1       3.120  81.724 109.551  0.00  0.00     0.210 C 
ATOM     15  C   LIG d   1       3.908  82.427 108.440  0.00  0.00     0.109 C 
ATOM     16  O   LIG d   1       3.649  80.820 110.214  0.00  0.00    -0.276 OA
ATOM     17  H   LIG d   1       1.506  82.853 109.094  0.00  0.00     0.149 HD
ENDBRANCH   6  13
BRANCH   5  18
ATOM     18  N   LIG d   1       0.789  79.277 109.750  0.00  0.00     0.381 N 
ATOM     19  H   LIG d   1       0.768  78.588 110.475  0.00  0.00    -0.090 HD
ATOM     20  H   LIG d   1       1.746  79.539 109.590  0.00  0.00    -0.090 HD
ATOM     21  H   LIG d   1       0.395  78.904 108.915  0.00  0.00    -0.090 HD
ENDBRANCH   5  18
BRANCH   3  22
ATOM     22  C   LIG d   1      -2.910  80.872 112.340  0.00  0.00     0.382 C 
ATOM     23  O   LIG d   1      -3.783  81.770 112.272  0.00  0.00    -0.241 OA
ATOM     24  O   LIG d   1      -3.187  79.789 112.890  0.00  0.00    -0.241 OA
ENDBRANCH   3  22
TORSDOF 7
ENDMDL
MODEL 6
REMARK VINA RESULT:      -6.2      2.453      4.118
REMARK  7 active torsions:
REMARK  status: ('A' for Active; 'I' for Inactive)
REMARK    1  A    between atoms: C_2  and  C_3 
REMARK    2  A    between atoms: C_3  and  O_6 
REMARK    3  A    between atoms: C_3  and  C_4 
REMARK    4  A    between atoms: C_7  and  O_6 
REMARK    5  A    between atoms: C_9  and  C_10 
REMARK    6  A    between atoms: N_15  and  C_14 
REMARK    7  A    between atoms: N_20  and  C_19 
REMARK       I    between atoms: C_22  and  N_20 
ROOT
ATOM      1  C   LIG d   1      -0.329  82.996 110.854  0.00  0.00     0.161 C 
ATOM      2  C   LIG d   1      -0.799  84.268 111.219  0.00  0.00     0.016 C 
ATOM      3  C   LIG d   1      -0.559  85.434 110.457  0.00  0.00     0.038 C 
ATOM      4  C   LIG d   1       0.045  85.382 109.191  0.00  0.00     0.028 C 
ATOM      5  C   LIG d   1       0.982  84.192 109.016  0.00  0.00    -0.047 C 
ATOM      6  C   LIG d   1       0.235  82.901 109.421  0.00  0.00     0.091 C 
ENDROOT
BRANCH   1   7
ATOM      7  O   LIG d   1      -1.368  82.016 111.049  0.00  0.00    -0.368 OA
BRANCH   7   8
ATOM      8  C   LIG d   1      -1.437  81.413 112.365  0.00  0.00     0.119 C 
BRANCH   8   9
ATOM      9  C   LIG d   1      -0.322  80.352 112.446  0.00  0.00     0.028 C 
ATOM     10  C   LIG d   1       0.950  80.888 113.124  0.00  0.00     0.006 C 
ENDBRANCH   8   9
BRANCH   8  11
ATOM     11  C   LIG d   1      -2.746  80.642 112.557  0.00  0.00     0.028 C 
ATOM     12  C   LIG d   1      -2.528  79.130 112.723  0.00  0.00     0.006 C 
ENDBRANCH   8  11
ENDBRANCH   7   8
ENDBRANCH   1   7
BRANCH   6  13
ATOM     13  N   LIG d   1       1.107  81.699 109.360  0.00  0.00    -0.311 N 
ATOM     14  C   LIG d   1       0.701  80.522 108.885  0.00  0.00     0.210 C 
ATOM     15  C   LIG d   1       1.752  79.409 108.931  0.00  0.00     0.109 C 
ATOM     16  O   LIG d   1      -0.420  80.303 108.402  0.00  0.00    -0.276 OA
ATOM     17  H   LIG d   1       2.043  81.796 109.702  0.00  0.00     0.149 HD
ENDBRANCH   6  13
BRANCH   5  18
ATOM     18  N   LIG d   1       1.433  84.183 107.612  0.00  0.00     0.381 N 
ATOM     19  H   LIG d   1       0.972  84.911 107.103  0.00  0.00    -0.090 HD
ATOM     20  H   LIG d   1       1.185  83.302 107.196  0.00  0.00    -0.090 HD
ATOM     21  H   LIG d   1       2.420  84.313 107.569  0.00  0.00    -0.090 HD
ENDBRANCH   5  18
BRANCH   3  22
ATOM     22  C   LIG d   1      -0.887  86.676 110.979  0.00  0.00     0.382 C 
ATOM     23  O   LIG d   1      -2.069  87.092 110.910  0.00  0.00    -0.241 OA
ATOM     24  O   LIG d   1      -0.009  87.405 111.478  0.00  0.00    -0.241 OA
ENDBRANCH   3  22
TORSDOF 7
ENDMDL
MODEL 7
REMARK VINA RESULT:      -6.1      2.848      4.019
REMARK  7 active torsions:
REMARK  status: ('A' for Active; 'I' for Inactive)
REMARK    1  A    between atoms: C_2  and  C_3 
REMARK    2  A    between atoms: C_3  and  O_6 
REMARK    3  A    between atoms: C_3  and  C_4 
REMARK    4  A    between atoms: C_7  and  O_6 
REMARK    5  A    between atoms: C_9  and  C_10 
REMARK    6  A    between atoms: N_15  and  C_14 
REMARK    7  A    between atoms: N_20  and  C_19 
REMARK       I    between atoms: C_22  and  N_20 
ROOT
ATOM      1  C   LIG d   1       2.938  84.032 110.934  0.00  0.00     0.161 C 
ATOM      2  C   LIG d   1       3.676  85.227 110.934  0.00  0.00     0.016 C 
ATOM      3  C   LIG d   1       3.811  86.058 112.069  0.00  0.00     0.038 C 
ATOM      4  C   LIG d   1       3.339  85.670 113.332  0.00  0.00     0.028 C 
ATOM      5  C   LIG d   1       2.153  84.713 113.268  0.00  0.00    -0.047 C 
ATOM      6  C   LIG d   1       2.509  83.536 112.331  0.00  0.00     0.091 C 
ENDROOT
BRANCH   1   7
ATOM      7  O   LIG d   1       3.674  83.003 110.242  0.00  0.00    -0.368 OA
BRANCH   7   8
ATOM      8  C   LIG d   1       3.329  82.800 108.849  0.00  0.00     0.119 C 
BRANCH   8   9
ATOM      9  C   LIG d   1       1.805  82.987 108.718  0.00  0.00     0.028 C 
ATOM     10  C   LIG d   1       1.398  83.538 107.341  0.00  0.00     0.006 C 
ENDBRANCH   8   9
BRANCH   8  11
ATOM     11  C   LIG d   1       3.599  81.357 108.413  0.00  0.00     0.028 C 
ATOM     12  C   LIG d   1       3.435  80.347 109.560  0.00  0.00     0.006 C 
ENDBRANCH   8  11
ENDBRANCH   7   8
ENDBRANCH   1   7
BRANCH   6  13
ATOM     13  N   LIG d   1       1.373  82.596 112.145  0.00  0.00    -0.311 N 
ATOM     14  C   LIG d   1       1.183  81.518 112.904  0.00  0.00     0.210 C 
ATOM     15  C   LIG d   1      -0.039  80.672 112.530  0.00  0.00     0.109 C 
ATOM     16  O   LIG d   1       1.891  81.199 113.870  0.00  0.00    -0.276 OA
ATOM     17  H   LIG d   1       0.732  82.796 111.403  0.00  0.00     0.149 HD
ENDBRANCH   6  13
BRANCH   5  18
ATOM     18  N   LIG d   1       1.853  84.283 114.647  0.00  0.00     0.381 N 
ATOM     19  H   LIG d   1       1.624  83.309 114.656  0.00  0.00    -0.090 HD
ATOM     20  H   LIG d   1       1.056  84.797 114.981  0.00  0.00    -0.090 HD
ATOM     21  H   LIG d   1       2.638  84.453 115.236  0.00  0.00    -0.090 HD
ENDBRANCH   5  18
BRANCH   3  22
ATOM     22  C   LIG d   1       4.389  87.311 111.939  0.00  0.00     0.382 C 
ATOM     23  O   LIG d   1       3.668  88.338 111.933  0.00  0.00    -0.241 OA
ATOM     24  O   LIG d   1       5.620  87.426 111.783  0.00  0.00    -0.241 OA
ENDBRANCH   3  22
TORSDOF 7
ENDMDL
MODEL 8
REMARK VINA RESULT:      -5.8      3.174      4.825
REMARK  7 active torsions:
REMARK  status: ('A' for Active; 'I' for Inactive)
REMARK    1  A    between atoms: C_2  and  C_3 
REMARK    2  A    between atoms: C_3  and  O_6 
REMARK    3  A    between atoms: C_3  and  C_4 
REMARK    4  A    between atoms: C_7  and  O_6 
REMARK    5  A    between atoms: C_9  and  C_10 
REMARK    6  A    between atoms: N_15  and  C_14 
REMARK    7  A    between atoms: N_20  and  C_19 
REMARK       I    between atoms: C_22  and  N_20 
ROOT
ATOM      1  C   LIG d   1       1.630  84.829 112.671  0.00  0.00     0.161 C 
ATOM      2  C   LIG d   1       0.526  85.008 111.821  0.00  0.00     0.016 C 
ATOM      3  C   LIG d   1       0.175  86.255 111.255  0.00  0.00     0.038 C 
ATOM      4  C   LIG d   1       0.998  87.385 111.381  0.00  0.00     0.028 C 
ATOM      5  C   LIG d   1       1.852  87.374 112.644  0.00  0.00    -0.047 C 
ATOM      6  C   LIG d   1       2.603  86.025 112.730  0.00  0.00     0.091 C 
ENDROOT
BRANCH   1   7
ATOM      7  O   LIG d   1       2.337  83.626 112.307  0.00  0.00    -0.368 OA
BRANCH   7   8
ATOM      8  C   LIG d   1       2.510  83.394 110.887  0.00  0.00     0.119 C 
BRANCH   8   9
ATOM      9  C   LIG d   1       2.100  81.936 110.603  0.00  0.00     0.028 C 
ATOM     10  C   LIG d   1       1.414  81.274 111.810  0.00  0.00     0.006 C 
ENDBRANCH   8   9
BRANCH   8  11
ATOM     11  C   LIG d   1       3.984  83.487 110.483  0.00  0.00     0.028 C 
ATOM     12  C   LIG d   1       4.314  82.653 109.236  0.00  0.00     0.006 C 
ENDBRANCH   8  11
ENDBRANCH   7   8
ENDBRANCH   1   7
BRANCH   6  13
ATOM     13  N   LIG d   1       3.397  85.898 113.980  0.00  0.00    -0.311 N 
ATOM     14  C   LIG d   1       4.672  86.269 114.079  0.00  0.00     0.210 C 
ATOM     15  C   LIG d   1       5.310  86.033 115.451  0.00  0.00     0.109 C 
ATOM     16  O   LIG d   1       5.327  86.802 113.169  0.00  0.00    -0.276 OA
ATOM     17  H   LIG d   1       2.935  85.504 114.776  0.00  0.00     0.149 HD
ENDBRANCH   6  13
BRANCH   5  18
ATOM     18  N   LIG d   1       2.758  88.536 112.579  0.00  0.00     0.381 N 
ATOM     19  H   LIG d   1       2.569  89.156 113.341  0.00  0.00    -0.090 HD
ATOM     20  H   LIG d   1       2.591  89.031 111.721  0.00  0.00    -0.090 HD
ATOM     21  H   LIG d   1       3.706  88.232 112.616  0.00  0.00    -0.090 HD
ENDBRANCH   5  18
BRANCH   3  22
ATOM     22  C   LIG d   1      -1.032  86.391 110.587  0.00  0.00     0.382 C 
ATOM     23  O   LIG d   1      -1.982  87.007 111.128  0.00  0.00    -0.241 OA
ATOM     24  O   LIG d   1      -1.198  85.867 109.469  0.00  0.00    -0.241 OA
ENDBRANCH   3  22
TORSDOF 7
ENDMDL
MODEL 9
REMARK VINA RESULT:      -5.8      2.342      5.182
REMARK  7 active torsions:
REMARK  status: ('A' for Active; 'I' for Inactive)
REMARK    1  A    between atoms: C_2  and  C_3 
REMARK    2  A    between atoms: C_3  and  O_6 
REMARK    3  A    between atoms: C_3  and  C_4 
REMARK    4  A    between atoms: C_7  and  O_6 
REMARK    5  A    between atoms: C_9  and  C_10 
REMARK    6  A    between atoms: N_15  and  C_14 
REMARK    7  A    between atoms: N_20  and  C_19 
REMARK       I    between atoms: C_22  and  N_20 
ROOT
ATOM      1  C   LIG d   1       2.130  84.087 110.460  0.00  0.00     0.161 C 
ATOM      2  C   LIG d   1       2.861  82.890 110.538  0.00  0.00     0.016 C 
ATOM      3  C   LIG d   1       3.079  82.038 109.432  0.00  0.00     0.038 C 
ATOM      4  C   LIG d   1       2.706  82.403 108.130  0.00  0.00     0.028 C 
ATOM      5  C   LIG d   1       1.523  83.365 108.085  0.00  0.00    -0.047 C 
ATOM      6  C   LIG d   1       1.811  84.558 109.026  0.00  0.00     0.091 C 
ENDROOT
BRANCH   1   7
ATOM      7  O   LIG d   1       2.815  85.126 111.188  0.00  0.00    -0.368 OA
BRANCH   7   8
ATOM      8  C   LIG d   1       3.388  84.740 112.461  0.00  0.00     0.119 C 
BRANCH   8   9
ATOM      9  C   LIG d   1       2.314  84.972 113.542  0.00  0.00     0.028 C 
ATOM     10  C   LIG d   1       1.295  86.049 113.134  0.00  0.00     0.006 C 
ENDBRANCH   8   9
BRANCH   8  11
ATOM     11  C   LIG d   1       4.555  85.655 112.846  0.00  0.00     0.028 C 
ATOM     12  C   LIG d   1       4.764  86.806 111.850  0.00  0.00     0.006 C 
ENDBRANCH   8  11
ENDBRANCH   7   8
ENDBRANCH   1   7
BRANCH   6  13
ATOM     13  N   LIG d   1       0.668  85.504 109.107  0.00  0.00    -0.311 N 
ATOM     14  C   LIG d   1      -0.485  85.212 109.706  0.00  0.00     0.210 C 
ATOM     15  C   LIG d   1      -1.539  86.323 109.657  0.00  0.00     0.109 C 
ATOM     16  O   LIG d   1      -0.724  84.150 110.300  0.00  0.00    -0.276 OA
ATOM     17  H   LIG d   1       0.787  86.401 108.677  0.00  0.00     0.149 HD
ENDBRANCH   6  13
BRANCH   5  18
ATOM     18  N   LIG d   1       1.330  83.770 106.680  0.00  0.00     0.381 N 
ATOM     19  H   LIG d   1       0.557  84.401 106.613  0.00  0.00    -0.090 HD
ATOM     20  H   LIG d   1       1.121  82.954 106.133  0.00  0.00    -0.090 HD
ATOM     21  H   LIG d   1       2.156  84.207 106.335  0.00  0.00    -0.090 HD
ENDBRANCH   5  18
BRANCH   3  22
ATOM     22  C   LIG d   1       3.641  80.785 109.629  0.00  0.00     0.382 C 
ATOM     23  O   LIG d   1       3.362  80.129 110.661  0.00  0.00    -0.241 OA
ATOM     24  O   LIG d   1       4.457  80.323 108.809  0.00  0.00    -0.241 OA
ENDBRANCH   3  22
TORSDOF 7
ENDMDL
