MODEL 1
REMARK VINA RESULT:      -6.1      0.000      0.000
REMARK  7 active torsions:
REMARK  status: ('A' for Active; 'I' for Inactive)
REMARK    1  A    between atoms: C_2  and  C_3 
REMARK    2  A    between atoms: C_3  and  O_6 
REMARK    3  A    between atoms: C_3  and  C_4 
REMARK    4  A    between atoms: C_7  and  O_6 
REMARK    5  A    between atoms: C_9  and  C_10 
REMARK    6  A    between atoms: N_15  and  C_14 
REMARK    7  A    between atoms: N_20  and  C_19 
REMARK       I    between atoms: C_22  and  N_20 
ROOT
ATOM      1  C   LIG d   1       1.777  84.833 112.856  0.00  0.00     0.161 C 
ATOM      2  C   LIG d   1       0.802  83.826 112.763  0.00  0.00     0.016 C 
ATOM      3  C   LIG d   1      -0.405  83.840 113.499  0.00  0.00     0.038 C 
ATOM      4  C   LIG d   1      -0.789  84.947 114.270  0.00  0.00     0.028 C 
ATOM      5  C   LIG d   1       0.390  85.762 114.790  0.00  0.00    -0.047 C 
ATOM      6  C   LIG d   1       1.325  86.103 113.608  0.00  0.00     0.091 C 
ENDROOT
BRANCH   1   7
ATOM      7  O   LIG d   1       2.255  85.174 111.539  0.00  0.00    -0.368 OA
BRANCH   7   8
ATOM      8  C   LIG d   1       1.492  84.644 110.427  0.00  0.00     0.119 C 
BRANCH   8   9
ATOM      9  C   LIG d   1       2.497  84.091 109.398  0.00  0.00     0.028 C 
ATOM     10  C   LIG d   1       3.486  83.092 110.022  0.00  0.00     0.006 C 
ENDBRANCH   8   9
BRANCH   8  11
ATOM     11  C   LIG d   1       0.731  85.754 109.695  0.00  0.00     0.028 C 
ATOM     12  C   LIG d   1      -0.724  85.892 110.171  0.00  0.00     0.006 C 
ENDBRANCH   8  11
ENDBRANCH   7   8
ENDBRANCH   1   7
BRANCH   6  13
ATOM     13  N   LIG d   1       2.548  86.827 114.042  0.00  0.00    -0.311 N 
ATOM     14  C   LIG d   1       2.984  87.943 113.461  0.00  0.00     0.210 C 
ATOM     15  C   LIG d   1       4.276  88.518 114.051  0.00  0.00     0.109 C 
ATOM     16  O   LIG d   1       2.406  88.530 112.533  0.00  0.00    -0.276 OA
ATOM     17  H   LIG d   1       3.061  86.438 114.809  0.00  0.00     0.149 HD
ENDBRANCH   6  13
BRANCH   5  18
ATOM     18  N   LIG d   1      -0.155  86.958 115.459  0.00  0.00     0.381 N 
ATOM     19  H   LIG d   1      -0.905  87.338 114.916  0.00  0.00    -0.090 HD
ATOM     20  H   LIG d   1       0.569  87.652 115.526  0.00  0.00    -0.090 HD
ATOM     21  H   LIG d   1      -0.483  86.720 116.370  0.00  0.00    -0.090 HD
ENDBRANCH   5  18
BRANCH   3  22
ATOM     22  C   LIG d   1      -1.223  82.721 113.499  0.00  0.00     0.382 C 
ATOM     23  O   LIG d   1      -2.040  82.541 112.564  0.00  0.00    -0.241 OA
ATOM     24  O   LIG d   1      -1.186  81.911 114.445  0.00  0.00    -0.241 OA
ENDBRANCH   3  22
TORSDOF 7
ENDMDL
MODEL 2
REMARK VINA RESULT:      -5.9      3.013      6.013
REMARK  7 active torsions:
REMARK  status: ('A' for Active; 'I' for Inactive)
REMARK    1  A    between atoms: C_2  and  C_3 
REMARK    2  A    between atoms: C_3  and  O_6 
REMARK    3  A    between atoms: C_3  and  C_4 
REMARK    4  A    between atoms: C_7  and  O_6 
REMARK    5  A    between atoms: C_9  and  C_10 
REMARK    6  A    between atoms: N_15  and  C_14 
REMARK    7  A    between atoms: N_20  and  C_19 
REMARK       I    between atoms: C_22  and  N_20 
ROOT
ATOM      1  C   LIG d   1       0.834  82.893 112.700  0.00  0.00     0.161 C 
ATOM      2  C   LIG d   1       1.851  83.408 111.878  0.00  0.00     0.016 C 
ATOM      3  C   LIG d   1       2.180  82.865 110.615  0.00  0.00     0.038 C 
ATOM      4  C   LIG d   1       1.408  81.857 110.017  0.00  0.00     0.028 C 
ATOM      5  C   LIG d   1       0.686  80.969 111.025  0.00  0.00    -0.047 C 
ATOM      6  C   LIG d   1      -0.091  81.864 112.017  0.00  0.00     0.091 C 
ENDROOT
BRANCH   1   7
ATOM      7  O   LIG d   1       0.059  83.975 113.253  0.00  0.00    -0.368 OA
BRANCH   7   8
ATOM      8  C   LIG d   1       0.374  85.301 112.763  0.00  0.00     0.119 C 
BRANCH   8   9
ATOM      9  C   LIG d   1       0.654  86.193 113.988  0.00  0.00     0.028 C 
ATOM     10  C   LIG d   1      -0.436  86.068 115.066  0.00  0.00     0.006 C 
ENDBRANCH   8   9
BRANCH   8  11
ATOM     11  C   LIG d   1      -0.830  85.938 112.064  0.00  0.00     0.028 C 
ATOM     12  C   LIG d   1      -0.806  85.743 110.539  0.00  0.00     0.006 C 
ENDBRANCH   8  11
ENDBRANCH   7   8
ENDBRANCH   1   7
BRANCH   6  13
ATOM     13  N   LIG d   1      -0.758  81.078 113.088  0.00  0.00    -0.311 N 
ATOM     14  C   LIG d   1      -2.050  81.198 113.389  0.00  0.00     0.210 C 
ATOM     15  C   LIG d   1      -2.530  80.309 114.540  0.00  0.00     0.109 C 
ATOM     16  O   LIG d   1      -2.850  81.933 112.791  0.00  0.00    -0.276 OA
ATOM     17  H   LIG d   1      -0.189  80.435 113.603  0.00  0.00     0.149 HD
ENDBRANCH   6  13
BRANCH   5  18
ATOM     18  N   LIG d   1      -0.187  80.052 110.267  0.00  0.00     0.381 N 
ATOM     19  H   LIG d   1      -0.497  79.311 110.863  0.00  0.00    -0.090 HD
ATOM     20  H   LIG d   1       0.341  79.651 109.513  0.00  0.00    -0.090 HD
ATOM     21  H   LIG d   1      -0.971  80.549 109.906  0.00  0.00    -0.090 HD
ENDBRANCH   5  18
BRANCH   3  22
ATOM     22  C   LIG d   1       3.316  83.304 109.953  0.00  0.00     0.382 C 
ATOM     23  O   LIG d   1       3.567  84.531 109.885  0.00  0.00    -0.241 OA
ATOM     24  O   LIG d   1       4.070  82.491 109.384  0.00  0.00    -0.241 OA
ENDBRANCH   3  22
TORSDOF 7
ENDMDL
MODEL 3
REMARK VINA RESULT:      -5.9      3.284      5.702
REMARK  7 active torsions:
REMARK  status: ('A' for Active; 'I' for Inactive)
REMARK    1  A    between atoms: C_2  and  C_3 
REMARK    2  A    between atoms: C_3  and  O_6 
REMARK    3  A    between atoms: C_3  and  C_4 
REMARK    4  A    between atoms: C_7  and  O_6 
REMARK    5  A    between atoms: C_9  and  C_10 
REMARK    6  A    between atoms: N_15  and  C_14 
REMARK    7  A    between atoms: N_20  and  C_19 
REMARK       I    between atoms: C_22  and  N_20 
ROOT
ATOM      1  C   LIG d   1       1.311  83.062 111.645  0.00  0.00     0.161 C 
ATOM      2  C   LIG d   1       2.572  82.802 111.083  0.00  0.00     0.016 C 
ATOM      3  C   LIG d   1       2.826  81.718 110.211  0.00  0.00     0.038 C 
ATOM      4  C   LIG d   1       1.795  80.904 109.720  0.00  0.00     0.028 C 
ATOM      5  C   LIG d   1       0.593  80.819 110.655  0.00  0.00    -0.047 C 
ATOM      6  C   LIG d   1       0.150  82.251 111.033  0.00  0.00     0.091 C 
ENDROOT
BRANCH   1   7
ATOM      7  O   LIG d   1       1.028  84.474 111.576  0.00  0.00    -0.368 OA
BRANCH   7   8
ATOM      8  C   LIG d   1       1.549  85.172 110.418  0.00  0.00     0.119 C 
BRANCH   8   9
ATOM      9  C   LIG d   1       2.201  86.476 110.919  0.00  0.00     0.028 C 
ATOM     10  C   LIG d   1       3.664  86.274 111.347  0.00  0.00     0.006 C 
ENDBRANCH   8   9
BRANCH   8  11
ATOM     11  C   LIG d   1       0.422  85.616 109.481  0.00  0.00     0.028 C 
ATOM     12  C   LIG d   1      -0.909  85.844 110.216  0.00  0.00     0.006 C 
ENDBRANCH   8  11
ENDBRANCH   7   8
ENDBRANCH   1   7
BRANCH   6  13
ATOM     13  N   LIG d   1      -0.968  82.259 112.012  0.00  0.00    -0.311 N 
ATOM     14  C   LIG d   1      -0.924  81.621 113.181  0.00  0.00     0.210 C 
ATOM     15  C   LIG d   1      -2.192  81.741 114.032  0.00  0.00     0.109 C 
ATOM     16  O   LIG d   1       0.058  80.995 113.608  0.00  0.00    -0.276 OA
ATOM     17  H   LIG d   1      -1.792  82.769 111.760  0.00  0.00     0.149 HD
ENDBRANCH   6  13
BRANCH   5  18
ATOM     18  N   LIG d   1      -0.459  80.054 109.959  0.00  0.00     0.381 N 
ATOM     19  H   LIG d   1      -0.956  79.487 110.617  0.00  0.00    -0.090 HD
ATOM     20  H   LIG d   1      -0.028  79.448 109.284  0.00  0.00    -0.090 HD
ATOM     21  H   LIG d   1      -1.089  80.677 109.504  0.00  0.00    -0.090 HD
ENDBRANCH   5  18
BRANCH   3  22
ATOM     22  C   LIG d   1       4.131  81.415 109.854  0.00  0.00     0.382 C 
ATOM     23  O   LIG d   1       5.039  82.266 110.016  0.00  0.00    -0.241 OA
ATOM     24  O   LIG d   1       4.405  80.318 109.330  0.00  0.00    -0.241 OA
ENDBRANCH   3  22
TORSDOF 7
ENDMDL
MODEL 4
REMARK VINA RESULT:      -5.7      2.832      4.094
REMARK  7 active torsions:
REMARK  status: ('A' for Active; 'I' for Inactive)
REMARK    1  A    between atoms: C_2  and  C_3 
REMARK    2  A    between atoms: C_3  and  O_6 
REMARK    3  A    between atoms: C_3  and  C_4 
REMARK    4  A    between atoms: C_7  and  O_6 
REMARK    5  A    between atoms: C_9  and  C_10 
REMARK    6  A    between atoms: N_15  and  C_14 
REMARK    7  A    between atoms: N_20  and  C_19 
REMARK       I    between atoms: C_22  and  N_20 
ROOT
ATOM      1  C   LIG d   1       0.139  82.829 111.253  0.00  0.00     0.161 C 
ATOM      2  C   LIG d   1      -1.095  82.619 111.891  0.00  0.00     0.016 C 
ATOM      3  C   LIG d   1      -1.216  82.064 113.186  0.00  0.00     0.038 C 
ATOM      4  C   LIG d   1      -0.097  81.818 113.995  0.00  0.00     0.028 C 
ATOM      5  C   LIG d   1       1.176  81.543 113.202  0.00  0.00    -0.047 C 
ATOM      6  C   LIG d   1       1.374  82.671 112.164  0.00  0.00     0.091 C 
ENDROOT
BRANCH   1   7
ATOM      7  O   LIG d   1       0.147  84.124 110.619  0.00  0.00    -0.368 OA
BRANCH   7   8
ATOM      8  C   LIG d   1       0.746  85.202 111.378  0.00  0.00     0.119 C 
BRANCH   8   9
ATOM      9  C   LIG d   1      -0.387  86.162 111.792  0.00  0.00     0.028 C 
ATOM     10  C   LIG d   1      -0.797  85.987 113.264  0.00  0.00     0.006 C 
ENDBRANCH   8   9
BRANCH   8  11
ATOM     11  C   LIG d   1       1.689  86.039 110.510  0.00  0.00     0.028 C 
ATOM     12  C   LIG d   1       2.965  86.463 111.254  0.00  0.00     0.006 C 
ENDBRANCH   8  11
ENDBRANCH   7   8
ENDBRANCH   1   7
BRANCH   6  13
ATOM     13  N   LIG d   1       2.552  82.436 111.289  0.00  0.00    -0.311 N 
ATOM     14  C   LIG d   1       3.786  82.829 111.599  0.00  0.00     0.210 C 
ATOM     15  C   LIG d   1       4.851  82.503 110.547  0.00  0.00     0.109 C 
ATOM     16  O   LIG d   1       4.105  83.387 112.660  0.00  0.00    -0.276 OA
ATOM     17  H   LIG d   1       2.388  81.961 110.422  0.00  0.00     0.149 HD
ENDBRANCH   6  13
BRANCH   5  18
ATOM     18  N   LIG d   1       2.288  81.442 114.166  0.00  0.00     0.381 N 
ATOM     19  H   LIG d   1       2.781  80.583 114.025  0.00  0.00    -0.090 HD
ATOM     20  H   LIG d   1       1.912  81.440 115.097  0.00  0.00    -0.090 HD
ATOM     21  H   LIG d   1       2.909  82.212 114.052  0.00  0.00    -0.090 HD
ENDBRANCH   5  18
BRANCH   3  22
ATOM     22  C   LIG d   1      -2.468  81.710 113.667  0.00  0.00     0.382 C 
ATOM     23  O   LIG d   1      -2.585  81.245 114.826  0.00  0.00    -0.241 OA
ATOM     24  O   LIG d   1      -3.475  81.808 112.940  0.00  0.00    -0.241 OA
ENDBRANCH   3  22
TORSDOF 7
ENDMDL
MODEL 5
REMARK VINA RESULT:      -5.7      2.472      5.327
REMARK  7 active torsions:
REMARK  status: ('A' for Active; 'I' for Inactive)
REMARK    1  A    between atoms: C_2  and  C_3 
REMARK    2  A    between atoms: C_3  and  O_6 
REMARK    3  A    between atoms: C_3  and  C_4 
REMARK    4  A    between atoms: C_7  and  O_6 
REMARK    5  A    between atoms: C_9  and  C_10 
REMARK    6  A    between atoms: N_15  and  C_14 
REMARK    7  A    between atoms: N_20  and  C_19 
REMARK       I    between atoms: C_22  and  N_20 
ROOT
ATOM      1  C   LIG d   1       3.156  85.221 111.915  0.00  0.00     0.161 C 
ATOM      2  C   LIG d   1       3.807  86.465 111.950  0.00  0.00     0.016 C 
ATOM      3  C   LIG d   1       3.952  87.235 113.127  0.00  0.00     0.038 C 
ATOM      4  C   LIG d   1       3.584  86.740 114.387  0.00  0.00     0.028 C 
ATOM      5  C   LIG d   1       2.467  85.704 114.328  0.00  0.00    -0.047 C 
ATOM      6  C   LIG d   1       2.847  84.614 113.299  0.00  0.00     0.091 C 
ENDROOT
BRANCH   1   7
ATOM      7  O   LIG d   1       3.919  84.292 111.120  0.00  0.00    -0.368 OA
BRANCH   7   8
ATOM      8  C   LIG d   1       3.495  84.134 109.743  0.00  0.00     0.119 C 
BRANCH   8   9
ATOM      9  C   LIG d   1       2.003  84.513 109.672  0.00  0.00     0.028 C 
ATOM     10  C   LIG d   1       1.091  83.282 109.538  0.00  0.00     0.006 C 
ENDBRANCH   8   9
BRANCH   8  11
ATOM     11  C   LIG d   1       3.562  82.668 109.305  0.00  0.00     0.028 C 
ATOM     12  C   LIG d   1       4.554  81.841 110.139  0.00  0.00     0.006 C 
ENDBRANCH   8  11
ENDBRANCH   7   8
ENDBRANCH   1   7
BRANCH   6  13
ATOM     13  N   LIG d   1       1.770  83.606 113.118  0.00  0.00    -0.311 N 
ATOM     14  C   LIG d   1       1.985  82.291 113.140  0.00  0.00     0.210 C 
ATOM     15  C   LIG d   1       0.740  81.429 112.912  0.00  0.00     0.109 C 
ATOM     16  O   LIG d   1       3.083  81.758 113.358  0.00  0.00    -0.276 OA
ATOM     17  H   LIG d   1       0.842  83.951 112.966  0.00  0.00     0.149 HD
ENDBRANCH   6  13
BRANCH   5  18
ATOM     18  N   LIG d   1       2.279  85.172 115.691  0.00  0.00     0.381 N 
ATOM     19  H   LIG d   1       1.343  85.350 115.998  0.00  0.00    -0.090 HD
ATOM     20  H   LIG d   1       2.910  85.645 116.314  0.00  0.00    -0.090 HD
ATOM     21  H   LIG d   1       2.460  84.193 115.703  0.00  0.00    -0.090 HD
ENDBRANCH   5  18
BRANCH   3  22
ATOM     22  C   LIG d   1       4.433  88.533 113.045  0.00  0.00     0.382 C 
ATOM     23  O   LIG d   1       3.680  89.499 113.316  0.00  0.00    -0.241 OA
ATOM     24  O   LIG d   1       5.597  88.752 112.659  0.00  0.00    -0.241 OA
ENDBRANCH   3  22
TORSDOF 7
ENDMDL
MODEL 6
REMARK VINA RESULT:      -5.7      3.123      4.934
REMARK  7 active torsions:
REMARK  status: ('A' for Active; 'I' for Inactive)
REMARK    1  A    between atoms: C_2  and  C_3 
REMARK    2  A    between atoms: C_3  and  O_6 
REMARK    3  A    between atoms: C_3  and  C_4 
REMARK    4  A    between atoms: C_7  and  O_6 
REMARK    5  A    between atoms: C_9  and  C_10 
REMARK    6  A    between atoms: N_15  and  C_14 
REMARK    7  A    between atoms: N_20  and  C_19 
REMARK       I    between atoms: C_22  and  N_20 
ROOT
ATOM      1  C   LIG d   1       0.799  82.951 112.306  0.00  0.00     0.161 C 
ATOM      2  C   LIG d   1      -0.425  82.723 112.958  0.00  0.00     0.016 C 
ATOM      3  C   LIG d   1      -1.224  81.578 112.735  0.00  0.00     0.038 C 
ATOM      4  C   LIG d   1      -0.777  80.503 111.951  0.00  0.00     0.028 C 
ATOM      5  C   LIG d   1       0.224  80.912 110.876  0.00  0.00    -0.047 C 
ATOM      6  C   LIG d   1       1.355  81.737 111.531  0.00  0.00     0.091 C 
ENDROOT
BRANCH   1   7
ATOM      7  O   LIG d   1       1.774  83.432 113.251  0.00  0.00    -0.368 OA
BRANCH   7   8
ATOM      8  C   LIG d   1       2.010  84.861 113.252  0.00  0.00     0.119 C 
BRANCH   8   9
ATOM      9  C   LIG d   1       3.384  85.104 112.596  0.00  0.00     0.028 C 
ATOM     10  C   LIG d   1       3.267  85.800 111.229  0.00  0.00     0.006 C 
ENDBRANCH   8   9
BRANCH   8  11
ATOM     11  C   LIG d   1       2.141  85.404 114.678  0.00  0.00     0.028 C 
ATOM     12  C   LIG d   1       3.592  85.734 115.060  0.00  0.00     0.006 C 
ENDBRANCH   8  11
ENDBRANCH   7   8
ENDBRANCH   1   7
BRANCH   6  13
ATOM     13  N   LIG d   1       2.333  82.249 110.536  0.00  0.00    -0.311 N 
ATOM     14  C   LIG d   1       3.645  82.033 110.620  0.00  0.00     0.210 C 
ATOM     15  C   LIG d   1       4.477  82.666 109.500  0.00  0.00     0.109 C 
ATOM     16  O   LIG d   1       4.195  81.350 111.497  0.00  0.00    -0.276 OA
ATOM     17  H   LIG d   1       1.970  82.787 109.774  0.00  0.00     0.149 HD
ENDBRANCH   6  13
BRANCH   5  18
ATOM     18  N   LIG d   1       0.709  79.680 110.227  0.00  0.00     0.381 N 
ATOM     19  H   LIG d   1       1.295  79.914 109.450  0.00  0.00    -0.090 HD
ATOM     20  H   LIG d   1      -0.080  79.162 109.882  0.00  0.00    -0.090 HD
ATOM     21  H   LIG d   1       1.219  79.127 110.881  0.00  0.00    -0.090 HD
ENDBRANCH   5  18
BRANCH   3  22
ATOM     22  C   LIG d   1      -2.502  81.518 113.267  0.00  0.00     0.382 C 
ATOM     23  O   LIG d   1      -3.272  80.581 112.945  0.00  0.00    -0.241 OA
ATOM     24  O   LIG d   1      -2.911  82.413 114.031  0.00  0.00    -0.241 OA
ENDBRANCH   3  22
TORSDOF 7
ENDMDL
MODEL 7
REMARK VINA RESULT:      -5.6      2.612      5.774
REMARK  7 active torsions:
REMARK  status: ('A' for Active; 'I' for Inactive)
REMARK    1  A    between atoms: C_2  and  C_3 
REMARK    2  A    between atoms: C_3  and  O_6 
REMARK    3  A    between atoms: C_3  and  C_4 
REMARK    4  A    between atoms: C_7  and  O_6 
REMARK    5  A    between atoms: C_9  and  C_10 
REMARK    6  A    between atoms: N_15  and  C_14 
REMARK    7  A    between atoms: N_20  and  C_19 
REMARK       I    between atoms: C_22  and  N_20 
ROOT
ATOM      1  C   LIG d   1       2.829  84.206 112.181  0.00  0.00     0.161 C 
ATOM      2  C   LIG d   1       3.288  85.434 112.685  0.00  0.00     0.016 C 
ATOM      3  C   LIG d   1       2.939  86.684 112.125  0.00  0.00     0.038 C 
ATOM      4  C   LIG d   1       1.980  86.799 111.108  0.00  0.00     0.028 C 
ATOM      5  C   LIG d   1       1.872  85.554 110.233  0.00  0.00    -0.047 C 
ATOM      6  C   LIG d   1       1.694  84.316 111.142  0.00  0.00     0.091 C 
ENDROOT
BRANCH   1   7
ATOM      7  O   LIG d   1       2.430  83.349 113.270  0.00  0.00    -0.368 OA
BRANCH   7   8
ATOM      8  C   LIG d   1       1.717  83.990 114.357  0.00  0.00     0.119 C 
BRANCH   8   9
ATOM      9  C   LIG d   1       2.174  83.322 115.668  0.00  0.00     0.028 C 
ATOM     10  C   LIG d   1       3.706  83.262 115.793  0.00  0.00     0.006 C 
ENDBRANCH   8   9
BRANCH   8  11
ATOM     11  C   LIG d   1       0.211  83.725 114.269  0.00  0.00     0.028 C 
ATOM     12  C   LIG d   1      -0.604  85.000 114.003  0.00  0.00     0.006 C 
ENDBRANCH   8  11
ENDBRANCH   7   8
ENDBRANCH   1   7
BRANCH   6  13
ATOM     13  N   LIG d   1       1.665  83.046 110.371  0.00  0.00    -0.311 N 
ATOM     14  C   LIG d   1       0.674  82.161 110.454  0.00  0.00     0.210 C 
ATOM     15  C   LIG d   1       0.851  80.908 109.589  0.00  0.00     0.109 C 
ATOM     16  O   LIG d   1      -0.351  82.308 111.137  0.00  0.00    -0.276 OA
ATOM     17  H   LIG d   1       2.442  82.861 109.767  0.00  0.00     0.149 HD
ENDBRANCH   6  13
BRANCH   5  18
ATOM     18  N   LIG d   1       0.744  85.757 109.305  0.00  0.00     0.381 N 
ATOM     19  H   LIG d   1       0.070  86.370 109.720  0.00  0.00    -0.090 HD
ATOM     20  H   LIG d   1       0.301  84.872 109.133  0.00  0.00    -0.090 HD
ATOM     21  H   LIG d   1       1.073  86.145 108.448  0.00  0.00    -0.090 HD
ENDBRANCH   5  18
BRANCH   3  22
ATOM     22  C   LIG d   1       3.582  87.834 112.556  0.00  0.00     0.382 C 
ATOM     23  O   LIG d   1       2.919  88.772 113.060  0.00  0.00    -0.241 OA
ATOM     24  O   LIG d   1       4.812  87.964 112.406  0.00  0.00    -0.241 OA
ENDBRANCH   3  22
TORSDOF 7
ENDMDL
MODEL 8
REMARK VINA RESULT:      -5.5      8.009     11.386
REMARK  7 active torsions:
REMARK  status: ('A' for Active; 'I' for Inactive)
REMARK    1  A    between atoms: C_2  and  C_3 
REMARK    2  A    between atoms: C_3  and  O_6 
REMARK    3  A    between atoms: C_3  and  C_4 
REMARK    4  A    between atoms: C_7  and  O_6 
REMARK    5  A    between atoms: C_9  and  C_10 
REMARK    6  A    between atoms: N_15  and  C_14 
REMARK    7  A    between atoms: N_20  and  C_19 
REMARK       I    between atoms: C_22  and  N_20 
ROOT
ATOM      1  C   LIG d   1      -3.027  76.579 116.716  0.00  0.00     0.161 C 
ATOM      2  C   LIG d   1      -3.013  77.734 115.915  0.00  0.00     0.016 C 
ATOM      3  C   LIG d   1      -2.155  77.900 114.804  0.00  0.00     0.038 C 
ATOM      4  C   LIG d   1      -1.354  76.854 114.323  0.00  0.00     0.028 C 
ATOM      5  C   LIG d   1      -0.963  75.846 115.399  0.00  0.00    -0.047 C 
ATOM      6  C   LIG d   1      -2.238  75.384 116.140  0.00  0.00     0.091 C 
ENDROOT
BRANCH   1   7
ATOM      7  O   LIG d   1      -4.387  76.194 116.994  0.00  0.00    -0.368 OA
BRANCH   7   8
ATOM      8  C   LIG d   1      -5.382  76.626 116.034  0.00  0.00     0.119 C 
BRANCH   8   9
ATOM      9  C   LIG d   1      -6.638  77.044 116.823  0.00  0.00     0.028 C 
ATOM     10  C   LIG d   1      -7.685  75.920 116.897  0.00  0.00     0.006 C 
ENDBRANCH   8   9
BRANCH   8  11
ATOM     11  C   LIG d   1      -5.832  75.468 115.139  0.00  0.00     0.028 C 
ATOM     12  C   LIG d   1      -5.151  75.479 113.761  0.00  0.00     0.006 C 
ENDBRANCH   8  11
ENDBRANCH   7   8
ENDBRANCH   1   7
BRANCH   6  13
ATOM     13  N   LIG d   1      -1.937  74.461 117.265  0.00  0.00    -0.311 N 
ATOM     14  C   LIG d   1      -1.093  74.758 118.252  0.00  0.00     0.210 C 
ATOM     15  C   LIG d   1      -0.911  73.657 119.301  0.00  0.00     0.109 C 
ATOM     16  O   LIG d   1      -0.503  75.842 118.375  0.00  0.00    -0.276 OA
ATOM     17  H   LIG d   1      -2.396  73.571 117.260  0.00  0.00     0.149 HD
ENDBRANCH   6  13
BRANCH   5  18
ATOM     18  N   LIG d   1      -0.247  74.741 114.735  0.00  0.00     0.381 N 
ATOM     19  H   LIG d   1       0.486  75.108 114.162  0.00  0.00    -0.090 HD
ATOM     20  H   LIG d   1      -0.891  74.245 114.145  0.00  0.00    -0.090 HD
ATOM     21  H   LIG d   1       0.133  74.122 115.418  0.00  0.00    -0.090 HD
ENDBRANCH   5  18
BRANCH   3  22
ATOM     22  C   LIG d   1      -2.065  79.137 114.185  0.00  0.00     0.382 C 
ATOM     23  O   LIG d   1      -3.108  79.777 113.907  0.00  0.00    -0.241 OA
ATOM     24  O   LIG d   1      -0.956  79.601 113.860  0.00  0.00    -0.241 OA
ENDBRANCH   3  22
TORSDOF 7
ENDMDL
MODEL 9
REMARK VINA RESULT:      -5.4      8.023     11.015
REMARK  7 active torsions:
REMARK  status: ('A' for Active; 'I' for Inactive)
REMARK    1  A    between atoms: C_2  and  C_3 
REMARK    2  A    between atoms: C_3  and  O_6 
REMARK    3  A    between atoms: C_3  and  C_4 
REMARK    4  A    between atoms: C_7  and  O_6 
REMARK    5  A    between atoms: C_9  and  C_10 
REMARK    6  A    between atoms: N_15  and  C_14 
REMARK    7  A    between atoms: N_20  and  C_19 
REMARK       I    between atoms: C_22  and  N_20 
ROOT
ATOM      1  C   LIG d   1      -5.258  78.021 117.015  0.00  0.00     0.161 C 
ATOM      2  C   LIG d   1      -5.174  76.790 116.344  0.00  0.00     0.016 C 
ATOM      3  C   LIG d   1      -6.273  75.914 116.186  0.00  0.00     0.038 C 
ATOM      4  C   LIG d   1      -7.574  76.280 116.562  0.00  0.00     0.028 C 
ATOM      5  C   LIG d   1      -7.612  77.299 117.696  0.00  0.00    -0.047 C 
ATOM      6  C   LIG d   1      -6.693  78.488 117.334  0.00  0.00     0.091 C 
ENDROOT
BRANCH   1   7
ATOM      7  O   LIG d   1      -4.556  79.034 116.268  0.00  0.00    -0.368 OA
BRANCH   7   8
ATOM      8  C   LIG d   1      -3.165  79.236 116.619  0.00  0.00     0.119 C 
BRANCH   8   9
ATOM      9  C   LIG d   1      -3.126  79.788 118.058  0.00  0.00     0.028 C 
ATOM     10  C   LIG d   1      -1.695  80.092 118.531  0.00  0.00     0.006 C 
ENDBRANCH   8   9
BRANCH   8  11
ATOM     11  C   LIG d   1      -2.523  80.323 115.751  0.00  0.00     0.028 C 
ATOM     12  C   LIG d   1      -1.533  79.755 114.721  0.00  0.00     0.006 C 
ENDBRANCH   8  11
ENDBRANCH   7   8
ENDBRANCH   1   7
BRANCH   6  13
ATOM     13  N   LIG d   1      -6.608  79.491 118.428  0.00  0.00    -0.311 N 
ATOM     14  C   LIG d   1      -6.828  80.792 118.247  0.00  0.00     0.210 C 
ATOM     15  C   LIG d   1      -6.668  81.655 119.503  0.00  0.00     0.109 C 
ATOM     16  O   LIG d   1      -7.172  81.310 117.174  0.00  0.00    -0.276 OA
ATOM     17  H   LIG d   1      -6.365  79.154 119.338  0.00  0.00     0.149 HD
ENDBRANCH   6  13
BRANCH   5  18
ATOM     18  N   LIG d   1      -9.020  77.694 117.892  0.00  0.00     0.381 N 
ATOM     19  H   LIG d   1      -9.480  77.028 118.479  0.00  0.00    -0.090 HD
ATOM     20  H   LIG d   1      -9.482  77.702 117.000  0.00  0.00    -0.090 HD
ATOM     21  H   LIG d   1      -9.065  78.599 118.306  0.00  0.00    -0.090 HD
ENDBRANCH   5  18
BRANCH   3  22
ATOM     22  C   LIG d   1      -6.067  74.638 115.684  0.00  0.00     0.382 C 
ATOM     23  O   LIG d   1      -6.509  73.641 116.304  0.00  0.00    -0.241 OA
ATOM     24  O   LIG d   1      -5.407  74.468 114.641  0.00  0.00    -0.241 OA
ENDBRANCH   3  22
TORSDOF 7
ENDMDL
