MODEL 1
REMARK VINA RESULT:      -6.4      0.000      0.000
REMARK  7 active torsions:
REMARK  status: ('A' for Active; 'I' for Inactive)
REMARK    1  A    between atoms: C_2  and  C_3 
REMARK    2  A    between atoms: C_3  and  O_6 
REMARK    3  A    between atoms: C_3  and  C_4 
REMARK    4  A    between atoms: C_7  and  O_6 
REMARK    5  A    between atoms: C_9  and  C_10 
REMARK    6  A    between atoms: N_15  and  C_14 
REMARK    7  A    between atoms: N_20  and  C_19 
REMARK       I    between atoms: C_22  and  N_20 
ROOT
ATOM      1  C   LIG d   1       1.408  84.073 109.631  0.00  0.00     0.161 C 
ATOM      2  C   LIG d   1       0.952  85.346 110.012  0.00  0.00     0.016 C 
ATOM      3  C   LIG d   1      -0.072  85.553 110.965  0.00  0.00     0.038 C 
ATOM      4  C   LIG d   1      -0.608  84.498 111.718  0.00  0.00     0.028 C 
ATOM      5  C   LIG d   1      -0.535  83.150 111.009  0.00  0.00    -0.047 C 
ATOM      6  C   LIG d   1       0.913  82.916 110.523  0.00  0.00     0.091 C 
ENDROOT
BRANCH   1   7
ATOM      7  O   LIG d   1       2.848  84.071 109.561  0.00  0.00    -0.368 OA
BRANCH   7   8
ATOM      8  C   LIG d   1       3.548  84.010 110.828  0.00  0.00     0.119 C 
BRANCH   8   9
ATOM      9  C   LIG d   1       4.305  85.340 111.004  0.00  0.00     0.028 C 
ATOM     10  C   LIG d   1       3.868  86.103 112.265  0.00  0.00     0.006 C 
ENDBRANCH   8   9
BRANCH   8  11
ATOM     11  C   LIG d   1       4.629  82.926 110.815  0.00  0.00     0.028 C 
ATOM     12  C   LIG d   1       4.692  82.163 109.483  0.00  0.00     0.006 C 
ENDBRANCH   8  11
ENDBRANCH   7   8
ENDBRANCH   1   7
BRANCH   6  13
ATOM     13  N   LIG d   1       1.054  81.657 109.745  0.00  0.00    -0.311 N 
ATOM     14  C   LIG d   1       1.415  80.496 110.289  0.00  0.00     0.210 C 
ATOM     15  C   LIG d   1       1.519  79.326 109.305  0.00  0.00     0.109 C 
ATOM     16  O   LIG d   1       1.628  80.316 111.497  0.00  0.00    -0.276 OA
ATOM     17  H   LIG d   1       0.869  81.705 108.763  0.00  0.00     0.149 HD
ENDBRANCH   6  13
BRANCH   5  18
ATOM     18  N   LIG d   1      -1.000  82.121 111.959  0.00  0.00     0.381 N 
ATOM     19  H   LIG d   1      -2.000  82.104 111.977  0.00  0.00    -0.090 HD
ATOM     20  H   LIG d   1      -0.672  82.357 112.879  0.00  0.00    -0.090 HD
ATOM     21  H   LIG d   1      -0.650  81.228 111.692  0.00  0.00    -0.090 HD
ENDBRANCH   5  18
BRANCH   3  22
ATOM     22  C   LIG d   1      -0.598  86.824 111.144  0.00  0.00     0.382 C 
ATOM     23  O   LIG d   1       0.116  87.736 111.626  0.00  0.00    -0.241 OA
ATOM     24  O   LIG d   1      -1.790  87.058 110.870  0.00  0.00    -0.241 OA
ENDBRANCH   3  22
TORSDOF 7
ENDMDL
MODEL 2
REMARK VINA RESULT:      -5.8      1.535      2.483
REMARK  7 active torsions:
REMARK  status: ('A' for Active; 'I' for Inactive)
REMARK    1  A    between atoms: C_2  and  C_3 
REMARK    2  A    between atoms: C_3  and  O_6 
REMARK    3  A    between atoms: C_3  and  C_4 
REMARK    4  A    between atoms: C_7  and  O_6 
REMARK    5  A    between atoms: C_9  and  C_10 
REMARK    6  A    between atoms: N_15  and  C_14 
REMARK    7  A    between atoms: N_20  and  C_19 
REMARK       I    between atoms: C_22  and  N_20 
ROOT
ATOM      1  C   LIG d   1       2.723  84.833 110.373  0.00  0.00     0.161 C 
ATOM      2  C   LIG d   1       1.694  85.761 110.604  0.00  0.00     0.016 C 
ATOM      3  C   LIG d   1       0.335  85.397 110.746  0.00  0.00     0.038 C 
ATOM      4  C   LIG d   1      -0.070  84.056 110.817  0.00  0.00     0.028 C 
ATOM      5  C   LIG d   1       0.866  83.101 110.084  0.00  0.00    -0.047 C 
ATOM      6  C   LIG d   1       2.315  83.356 110.558  0.00  0.00     0.091 C 
ENDROOT
BRANCH   1   7
ATOM      7  O   LIG d   1       3.859  85.146 111.201  0.00  0.00    -0.368 OA
BRANCH   7   8
ATOM      8  C   LIG d   1       3.597  85.987 112.352  0.00  0.00     0.119 C 
BRANCH   8   9
ATOM      9  C   LIG d   1       4.685  87.078 112.385  0.00  0.00     0.028 C 
ATOM     10  C   LIG d   1       4.906  87.643 113.798  0.00  0.00     0.006 C 
ENDBRANCH   8   9
BRANCH   8  11
ATOM     11  C   LIG d   1       3.763  85.209 113.660  0.00  0.00     0.028 C 
ATOM     12  C   LIG d   1       2.425  84.717 114.234  0.00  0.00     0.006 C 
ENDBRANCH   8  11
ENDBRANCH   7   8
ENDBRANCH   1   7
BRANCH   6  13
ATOM     13  N   LIG d   1       3.305  82.521 109.829  0.00  0.00    -0.311 N 
ATOM     14  C   LIG d   1       3.742  81.345 110.275  0.00  0.00     0.210 C 
ATOM     15  C   LIG d   1       4.777  80.658 109.379  0.00  0.00     0.109 C 
ATOM     16  O   LIG d   1       3.348  80.791 111.312  0.00  0.00    -0.276 OA
ATOM     17  H   LIG d   1       3.655  82.881 108.962  0.00  0.00     0.149 HD
ENDBRANCH   6  13
BRANCH   5  18
ATOM     18  N   LIG d   1       0.402  81.727 110.355  0.00  0.00     0.381 N 
ATOM     19  H   LIG d   1       0.407  81.556 111.341  0.00  0.00    -0.090 HD
ATOM     20  H   LIG d   1       1.034  81.079 109.919  0.00  0.00    -0.090 HD
ATOM     21  H   LIG d   1      -0.517  81.600 109.993  0.00  0.00    -0.090 HD
ENDBRANCH   5  18
BRANCH   3  22
ATOM     22  C   LIG d   1      -0.640  86.382 110.779  0.00  0.00     0.382 C 
ATOM     23  O   LIG d   1      -1.680  86.259 110.088  0.00  0.00    -0.241 OA
ATOM     24  O   LIG d   1      -0.473  87.414 111.457  0.00  0.00    -0.241 OA
ENDBRANCH   3  22
TORSDOF 7
ENDMDL
MODEL 3
REMARK VINA RESULT:      -5.7      3.154      4.712
REMARK  7 active torsions:
REMARK  status: ('A' for Active; 'I' for Inactive)
REMARK    1  A    between atoms: C_2  and  C_3 
REMARK    2  A    between atoms: C_3  and  O_6 
REMARK    3  A    between atoms: C_3  and  C_4 
REMARK    4  A    between atoms: C_7  and  O_6 
REMARK    5  A    between atoms: C_9  and  C_10 
REMARK    6  A    between atoms: N_15  and  C_14 
REMARK    7  A    between atoms: N_20  and  C_19 
REMARK       I    between atoms: C_22  and  N_20 
ROOT
ATOM      1  C   LIG d   1       2.081  86.612 112.329  0.00  0.00     0.161 C 
ATOM      2  C   LIG d   1       2.301  87.991 112.478  0.00  0.00     0.016 C 
ATOM      3  C   LIG d   1       2.897  88.564 113.624  0.00  0.00     0.038 C 
ATOM      4  C   LIG d   1       3.455  87.777 114.642  0.00  0.00     0.028 C 
ATOM      5  C   LIG d   1       2.805  86.403 114.770  0.00  0.00    -0.047 C 
ATOM      6  C   LIG d   1       2.783  85.727 113.380  0.00  0.00     0.091 C 
ENDROOT
BRANCH   1   7
ATOM      7  O   LIG d   1       2.451  86.199 110.998  0.00  0.00    -0.368 OA
BRANCH   7   8
ATOM      8  C   LIG d   1       1.360  85.998 110.066  0.00  0.00     0.119 C 
BRANCH   8   9
ATOM      9  C   LIG d   1       0.068  85.847 110.892  0.00  0.00     0.028 C 
ATOM     10  C   LIG d   1      -0.472  84.407 110.877  0.00  0.00     0.006 C 
ENDBRANCH   8   9
BRANCH   8  11
ATOM     11  C   LIG d   1       1.513  84.677 109.306  0.00  0.00     0.028 C 
ATOM     12  C   LIG d   1       2.934  84.099 109.395  0.00  0.00     0.006 C 
ENDBRANCH   8  11
ENDBRANCH   7   8
ENDBRANCH   1   7
BRANCH   6  13
ATOM     13  N   LIG d   1       2.088  84.414 113.399  0.00  0.00    -0.311 N 
ATOM     14  C   LIG d   1       2.642  83.285 112.959  0.00  0.00     0.210 C 
ATOM     15  C   LIG d   1       1.745  82.046 113.051  0.00  0.00     0.109 C 
ATOM     16  O   LIG d   1       3.801  83.186 112.530  0.00  0.00    -0.276 OA
ATOM     17  H   LIG d   1       1.155  84.397 113.760  0.00  0.00     0.149 HD
ENDBRANCH   6  13
BRANCH   5  18
ATOM     18  N   LIG d   1       3.572  85.639 115.772  0.00  0.00     0.381 N 
ATOM     19  H   LIG d   1       4.458  85.374 115.391  0.00  0.00    -0.090 HD
ATOM     20  H   LIG d   1       3.064  84.803 116.002  0.00  0.00    -0.090 HD
ATOM     21  H   LIG d   1       3.706  86.190 116.591  0.00  0.00    -0.090 HD
ENDBRANCH   5  18
BRANCH   3  22
ATOM     22  C   LIG d   1       2.904  89.942 113.779  0.00  0.00     0.382 C 
ATOM     23  O   LIG d   1       2.891  90.687 112.769  0.00  0.00    -0.241 OA
ATOM     24  O   LIG d   1       2.967  90.450 114.915  0.00  0.00    -0.241 OA
ENDBRANCH   3  22
TORSDOF 7
ENDMDL
MODEL 4
REMARK VINA RESULT:      -5.5      2.307      4.785
REMARK  7 active torsions:
REMARK  status: ('A' for Active; 'I' for Inactive)
REMARK    1  A    between atoms: C_2  and  C_3 
REMARK    2  A    between atoms: C_3  and  O_6 
REMARK    3  A    between atoms: C_3  and  C_4 
REMARK    4  A    between atoms: C_7  and  O_6 
REMARK    5  A    between atoms: C_9  and  C_10 
REMARK    6  A    between atoms: N_15  and  C_14 
REMARK    7  A    between atoms: N_20  and  C_19 
REMARK       I    between atoms: C_22  and  N_20 
ROOT
ATOM      1  C   LIG d   1       1.836  82.381 112.191  0.00  0.00     0.161 C 
ATOM      2  C   LIG d   1       0.723  81.524 112.195  0.00  0.00     0.016 C 
ATOM      3  C   LIG d   1      -0.582  81.941 111.848  0.00  0.00     0.038 C 
ATOM      4  C   LIG d   1      -0.837  83.217 111.323  0.00  0.00     0.028 C 
ATOM      5  C   LIG d   1       0.167  84.271 111.778  0.00  0.00    -0.047 C 
ATOM      6  C   LIG d   1       1.597  83.748 111.515  0.00  0.00     0.091 C 
ENDROOT
BRANCH   1   7
ATOM      7  O   LIG d   1       2.964  81.715 111.590  0.00  0.00    -0.368 OA
BRANCH   7   8
ATOM      8  C   LIG d   1       2.815  81.341 110.198  0.00  0.00     0.119 C 
BRANCH   8   9
ATOM      9  C   LIG d   1       3.236  79.865 110.068  0.00  0.00     0.028 C 
ATOM     10  C   LIG d   1       2.072  78.959 109.629  0.00  0.00     0.006 C 
ENDBRANCH   8   9
BRANCH   8  11
ATOM     11  C   LIG d   1       3.786  82.120 109.305  0.00  0.00     0.028 C 
ATOM     12  C   LIG d   1       5.145  82.369 109.978  0.00  0.00     0.006 C 
ENDBRANCH   8  11
ENDBRANCH   7   8
ENDBRANCH   1   7
BRANCH   6  13
ATOM     13  N   LIG d   1       2.642  84.682 112.009  0.00  0.00    -0.311 N 
ATOM     14  C   LIG d   1       3.220  85.606 111.243  0.00  0.00     0.210 C 
ATOM     15  C   LIG d   1       4.287  86.452 111.944  0.00  0.00     0.109 C 
ATOM     16  O   LIG d   1       2.927  85.827 110.058  0.00  0.00    -0.276 OA
ATOM     17  H   LIG d   1       2.918  84.594 112.967  0.00  0.00     0.149 HD
ENDBRANCH   6  13
BRANCH   5  18
ATOM     18  N   LIG d   1      -0.136  85.518 111.050  0.00  0.00     0.381 N 
ATOM     19  H   LIG d   1      -1.114  85.718 111.112  0.00  0.00    -0.090 HD
ATOM     20  H   LIG d   1       0.101  85.394 110.081  0.00  0.00    -0.090 HD
ATOM     21  H   LIG d   1       0.389  86.273 111.434  0.00  0.00    -0.090 HD
ENDBRANCH   5  18
BRANCH   3  22
ATOM     22  C   LIG d   1      -1.656  81.090 112.061  0.00  0.00     0.382 C 
ATOM     23  O   LIG d   1      -1.597  79.898 111.676  0.00  0.00    -0.241 OA
ATOM     24  O   LIG d   1      -2.699  81.512 112.595  0.00  0.00    -0.241 OA
ENDBRANCH   3  22
TORSDOF 7
ENDMDL
MODEL 5
REMARK VINA RESULT:      -5.4      3.583      4.897
REMARK  7 active torsions:
REMARK  status: ('A' for Active; 'I' for Inactive)
REMARK    1  A    between atoms: C_2  and  C_3 
REMARK    2  A    between atoms: C_3  and  O_6 
REMARK    3  A    between atoms: C_3  and  C_4 
REMARK    4  A    between atoms: C_7  and  O_6 
REMARK    5  A    between atoms: C_9  and  C_10 
REMARK    6  A    between atoms: N_15  and  C_14 
REMARK    7  A    between atoms: N_20  and  C_19 
REMARK       I    between atoms: C_22  and  N_20 
ROOT
ATOM      1  C   LIG d   1       1.703  85.645 113.176  0.00  0.00     0.161 C 
ATOM      2  C   LIG d   1       1.872  86.967 112.732  0.00  0.00     0.016 C 
ATOM      3  C   LIG d   1       2.655  87.924 113.418  0.00  0.00     0.038 C 
ATOM      4  C   LIG d   1       3.450  87.579 114.521  0.00  0.00     0.028 C 
ATOM      5  C   LIG d   1       2.918  86.381 115.300  0.00  0.00    -0.047 C 
ATOM      6  C   LIG d   1       2.652  85.219 114.316  0.00  0.00     0.091 C 
ENDROOT
BRANCH   1   7
ATOM      7  O   LIG d   1       1.819  84.737 112.062  0.00  0.00    -0.368 OA
BRANCH   7   8
ATOM      8  C   LIG d   1       2.156  85.334 110.786  0.00  0.00     0.119 C 
BRANCH   8   9
ATOM      9  C   LIG d   1       1.120  84.842 109.757  0.00  0.00     0.028 C 
ATOM     10  C   LIG d   1      -0.168  85.683 109.772  0.00  0.00     0.006 C 
ENDBRANCH   8   9
BRANCH   8  11
ATOM     11  C   LIG d   1       3.508  84.829 110.274  0.00  0.00     0.028 C 
ATOM     12  C   LIG d   1       3.926  83.494 110.911  0.00  0.00     0.006 C 
ENDBRANCH   8  11
ENDBRANCH   7   8
ENDBRANCH   1   7
BRANCH   6  13
ATOM     13  N   LIG d   1       2.050  84.036 114.984  0.00  0.00    -0.311 N 
ATOM     14  C   LIG d   1       2.769  83.054 115.525  0.00  0.00     0.210 C 
ATOM     15  C   LIG d   1       1.949  81.919 116.146  0.00  0.00     0.109 C 
ATOM     16  O   LIG d   1       4.008  83.031 115.577  0.00  0.00    -0.276 OA
ATOM     17  H   LIG d   1       1.050  83.990 115.015  0.00  0.00     0.149 HD
ENDBRANCH   6  13
BRANCH   5  18
ATOM     18  N   LIG d   1       3.912  86.045 116.336  0.00  0.00     0.381 N 
ATOM     19  H   LIG d   1       4.830  86.050 115.939  0.00  0.00    -0.090 HD
ATOM     20  H   LIG d   1       3.723  85.121 116.681  0.00  0.00    -0.090 HD
ATOM     21  H   LIG d   1       3.862  86.703 117.083  0.00  0.00    -0.090 HD
ENDBRANCH   5  18
BRANCH   3  22
ATOM     22  C   LIG d   1       2.617  89.253 113.024  0.00  0.00     0.382 C 
ATOM     23  O   LIG d   1       1.558  89.738 112.558  0.00  0.00    -0.241 OA
ATOM     24  O   LIG d   1       3.639  89.961 113.089  0.00  0.00    -0.241 OA
ENDBRANCH   3  22
TORSDOF 7
ENDMDL
MODEL 6
REMARK VINA RESULT:      -5.3      3.474      4.874
REMARK  7 active torsions:
REMARK  status: ('A' for Active; 'I' for Inactive)
REMARK    1  A    between atoms: C_2  and  C_3 
REMARK    2  A    between atoms: C_3  and  O_6 
REMARK    3  A    between atoms: C_3  and  C_4 
REMARK    4  A    between atoms: C_7  and  O_6 
REMARK    5  A    between atoms: C_9  and  C_10 
REMARK    6  A    between atoms: N_15  and  C_14 
REMARK    7  A    between atoms: N_20  and  C_19 
REMARK       I    between atoms: C_22  and  N_20 
ROOT
ATOM      1  C   LIG d   1       2.200  85.822 112.697  0.00  0.00     0.161 C 
ATOM      2  C   LIG d   1       2.266  87.189 112.381  0.00  0.00     0.016 C 
ATOM      3  C   LIG d   1       2.583  88.191 113.327  0.00  0.00     0.038 C 
ATOM      4  C   LIG d   1       3.008  87.877 114.626  0.00  0.00     0.028 C 
ATOM      5  C   LIG d   1       2.469  86.543 115.133  0.00  0.00    -0.047 C 
ATOM      6  C   LIG d   1       2.768  85.449 114.082  0.00  0.00     0.091 C 
ENDROOT
BRANCH   1   7
ATOM      7  O   LIG d   1       2.848  85.051 111.666  0.00  0.00    -0.368 OA
BRANCH   7   8
ATOM      8  C   LIG d   1       1.978  84.259 110.820  0.00  0.00     0.119 C 
BRANCH   8   9
ATOM      9  C   LIG d   1       2.758  82.995 110.408  0.00  0.00     0.028 C 
ATOM     10  C   LIG d   1       3.911  83.306 109.439  0.00  0.00     0.006 C 
ENDBRANCH   8   9
BRANCH   8  11
ATOM     11  C   LIG d   1       1.663  84.986 109.509  0.00  0.00     0.028 C 
ATOM     12  C   LIG d   1       0.253  85.595 109.490  0.00  0.00     0.006 C 
ENDBRANCH   8  11
ENDBRANCH   7   8
ENDBRANCH   1   7
BRANCH   6  13
ATOM     13  N   LIG d   1       2.201  84.129 114.461  0.00  0.00    -0.311 N 
ATOM     14  C   LIG d   1       2.897  83.186 115.093  0.00  0.00     0.210 C 
ATOM     15  C   LIG d   1       2.127  81.891 115.371  0.00  0.00     0.109 C 
ATOM     16  O   LIG d   1       4.069  83.310 115.478  0.00  0.00    -0.276 OA
ATOM     17  H   LIG d   1       1.246  83.955 114.215  0.00  0.00     0.149 HD
ENDBRANCH   6  13
BRANCH   5  18
ATOM     18  N   LIG d   1       3.099  86.276 116.440  0.00  0.00     0.381 N 
ATOM     19  H   LIG d   1       2.399  86.253 117.155  0.00  0.00    -0.090 HD
ATOM     20  H   LIG d   1       3.741  87.020 116.650  0.00  0.00    -0.090 HD
ATOM     21  H   LIG d   1       3.585  85.406 116.413  0.00  0.00    -0.090 HD
ENDBRANCH   5  18
BRANCH   3  22
ATOM     22  C   LIG d   1       2.439  89.528 112.986  0.00  0.00     0.382 C 
ATOM     23  O   LIG d   1       1.404  89.915 112.392  0.00  0.00    -0.241 OA
ATOM     24  O   LIG d   1       3.350  90.342 113.226  0.00  0.00    -0.241 OA
ENDBRANCH   3  22
TORSDOF 7
ENDMDL
MODEL 7
REMARK VINA RESULT:      -5.3      3.312      4.406
REMARK  7 active torsions:
REMARK  status: ('A' for Active; 'I' for Inactive)
REMARK    1  A    between atoms: C_2  and  C_3 
REMARK    2  A    between atoms: C_3  and  O_6 
REMARK    3  A    between atoms: C_3  and  C_4 
REMARK    4  A    between atoms: C_7  and  O_6 
REMARK    5  A    between atoms: C_9  and  C_10 
REMARK    6  A    between atoms: N_15  and  C_14 
REMARK    7  A    between atoms: N_20  and  C_19 
REMARK       I    between atoms: C_22  and  N_20 
ROOT
ATOM      1  C   LIG d   1       2.014  84.819 113.035  0.00  0.00     0.161 C 
ATOM      2  C   LIG d   1       2.360  86.161 113.259  0.00  0.00     0.016 C 
ATOM      3  C   LIG d   1       1.878  87.232 112.471  0.00  0.00     0.038 C 
ATOM      4  C   LIG d   1       0.892  87.045 111.491  0.00  0.00     0.028 C 
ATOM      5  C   LIG d   1       0.889  85.643 110.893  0.00  0.00    -0.047 C 
ATOM      6  C   LIG d   1       0.852  84.608 112.041  0.00  0.00     0.091 C 
ENDROOT
BRANCH   1   7
ATOM      7  O   LIG d   1       1.723  84.172 114.290  0.00  0.00    -0.368 OA
BRANCH   7   8
ATOM      8  C   LIG d   1       2.425  84.685 115.449  0.00  0.00     0.119 C 
BRANCH   8   9
ATOM      9  C   LIG d   1       3.633  83.763 115.704  0.00  0.00     0.028 C 
ATOM     10  C   LIG d   1       4.925  84.551 115.977  0.00  0.00     0.006 C 
ENDBRANCH   8   9
BRANCH   8  11
ATOM     11  C   LIG d   1       1.564  84.585 116.711  0.00  0.00     0.028 C 
ATOM     12  C   LIG d   1       1.337  85.946 117.387  0.00  0.00     0.006 C 
ENDBRANCH   8  11
ENDBRANCH   7   8
ENDBRANCH   1   7
BRANCH   6  13
ATOM     13  N   LIG d   1       0.933  83.209 111.546  0.00  0.00    -0.311 N 
ATOM     14  C   LIG d   1      -0.137  82.476 111.243  0.00  0.00     0.210 C 
ATOM     15  C   LIG d   1       0.168  81.051 110.769  0.00  0.00     0.109 C 
ATOM     16  O   LIG d   1      -1.309  82.880 111.292  0.00  0.00    -0.276 OA
ATOM     17  H   LIG d   1       1.846  82.812 111.446  0.00  0.00     0.149 HD
ENDBRANCH   6  13
BRANCH   5  18
ATOM     18  N   LIG d   1      -0.272  85.545 109.989  0.00  0.00     0.381 N 
ATOM     19  H   LIG d   1      -0.369  84.605 109.662  0.00  0.00    -0.090 HD
ATOM     20  H   LIG d   1      -0.118  86.141 109.195  0.00  0.00    -0.090 HD
ATOM     21  H   LIG d   1      -1.101  85.825 110.467  0.00  0.00    -0.090 HD
ENDBRANCH   5  18
BRANCH   3  22
ATOM     22  C   LIG d   1       2.414  88.500 112.633  0.00  0.00     0.382 C 
ATOM     23  O   LIG d   1       1.670  89.508 112.567  0.00  0.00    -0.241 OA
ATOM     24  O   LIG d   1       3.639  88.652 112.801  0.00  0.00    -0.241 OA
ENDBRANCH   3  22
TORSDOF 7
ENDMDL
MODEL 8
REMARK VINA RESULT:      -5.2      2.522      5.201
REMARK  7 active torsions:
REMARK  status: ('A' for Active; 'I' for Inactive)
REMARK    1  A    between atoms: C_2  and  C_3 
REMARK    2  A    between atoms: C_3  and  O_6 
REMARK    3  A    between atoms: C_3  and  C_4 
REMARK    4  A    between atoms: C_7  and  O_6 
REMARK    5  A    between atoms: C_9  and  C_10 
REMARK    6  A    between atoms: N_15  and  C_14 
REMARK    7  A    between atoms: N_20  and  C_19 
REMARK       I    between atoms: C_22  and  N_20 
ROOT
ATOM      1  C   LIG d   1       2.363  83.050 111.163  0.00  0.00     0.161 C 
ATOM      2  C   LIG d   1       1.737  82.117 110.319  0.00  0.00     0.016 C 
ATOM      3  C   LIG d   1       1.036  80.985 110.794  0.00  0.00     0.038 C 
ATOM      4  C   LIG d   1       0.783  80.790 112.160  0.00  0.00     0.028 C 
ATOM      5  C   LIG d   1       1.825  81.434 113.068  0.00  0.00    -0.047 C 
ATOM      6  C   LIG d   1       2.003  82.914 112.657  0.00  0.00     0.091 C 
ENDROOT
BRANCH   1   7
ATOM      7  O   LIG d   1       2.088  84.388 110.701  0.00  0.00    -0.368 OA
BRANCH   7   8
ATOM      8  C   LIG d   1       0.990  85.073 111.351  0.00  0.00     0.119 C 
BRANCH   8   9
ATOM      9  C   LIG d   1      -0.076  85.362 110.277  0.00  0.00     0.028 C 
ATOM     10  C   LIG d   1      -1.076  86.444 110.719  0.00  0.00     0.006 C 
ENDBRANCH   8   9
BRANCH   8  11
ATOM     11  C   LIG d   1       1.422  86.447 111.874  0.00  0.00     0.028 C 
ATOM     12  C   LIG d   1       2.916  86.727 111.650  0.00  0.00     0.006 C 
ENDBRANCH   8  11
ENDBRANCH   7   8
ENDBRANCH   1   7
BRANCH   6  13
ATOM     13  N   LIG d   1       3.066  83.596 113.440  0.00  0.00    -0.311 N 
ATOM     14  C   LIG d   1       2.828  84.283 114.556  0.00  0.00     0.210 C 
ATOM     15  C   LIG d   1       4.063  84.925 115.196  0.00  0.00     0.109 C 
ATOM     16  O   LIG d   1       1.716  84.396 115.094  0.00  0.00    -0.276 OA
ATOM     17  H   LIG d   1       4.002  83.530 113.092  0.00  0.00     0.149 HD
ENDBRANCH   6  13
BRANCH   5  18
ATOM     18  N   LIG d   1       1.366  81.272 114.460  0.00  0.00     0.381 N 
ATOM     19  H   LIG d   1       0.738  80.495 114.521  0.00  0.00    -0.090 HD
ATOM     20  H   LIG d   1       0.869  82.100 114.737  0.00  0.00    -0.090 HD
ATOM     21  H   LIG d   1       2.146  81.126 115.062  0.00  0.00    -0.090 HD
ENDBRANCH   5  18
BRANCH   3  22
ATOM     22  C   LIG d   1       0.615  80.013 109.900  0.00  0.00     0.382 C 
ATOM     23  O   LIG d   1      -0.611  79.816 109.720  0.00  0.00    -0.241 OA
ATOM     24  O   LIG d   1       1.444  79.300 109.305  0.00  0.00    -0.241 OA
ENDBRANCH   3  22
TORSDOF 7
ENDMDL
MODEL 9
REMARK VINA RESULT:      -5.0      8.749     11.030
REMARK  7 active torsions:
REMARK  status: ('A' for Active; 'I' for Inactive)
REMARK    1  A    between atoms: C_2  and  C_3 
REMARK    2  A    between atoms: C_3  and  O_6 
REMARK    3  A    between atoms: C_3  and  C_4 
REMARK    4  A    between atoms: C_7  and  O_6 
REMARK    5  A    between atoms: C_9  and  C_10 
REMARK    6  A    between atoms: N_15  and  C_14 
REMARK    7  A    between atoms: N_20  and  C_19 
REMARK       I    between atoms: C_22  and  N_20 
ROOT
ATOM      1  C   LIG d   1      -3.366  76.646 116.913  0.00  0.00     0.161 C 
ATOM      2  C   LIG d   1      -3.313  77.857 116.204  0.00  0.00     0.016 C 
ATOM      3  C   LIG d   1      -2.158  78.312 115.526  0.00  0.00     0.038 C 
ATOM      4  C   LIG d   1      -1.017  77.509 115.384  0.00  0.00     0.028 C 
ATOM      5  C   LIG d   1      -0.848  76.493 116.509  0.00  0.00    -0.047 C 
ATOM      6  C   LIG d   1      -2.167  75.704 116.676  0.00  0.00     0.091 C 
ENDROOT
BRANCH   1   7
ATOM      7  O   LIG d   1      -4.603  75.964 116.623  0.00  0.00    -0.368 OA
BRANCH   7   8
ATOM      8  C   LIG d   1      -5.363  76.472 115.499  0.00  0.00     0.119 C 
BRANCH   8   9
ATOM      9  C   LIG d   1      -6.837  76.560 115.939  0.00  0.00     0.028 C 
ATOM     10  C   LIG d   1      -7.002  77.255 117.301  0.00  0.00     0.006 C 
ENDBRANCH   8   9
BRANCH   8  11
ATOM     11  C   LIG d   1      -5.348  75.488 114.326  0.00  0.00     0.028 C 
ATOM     12  C   LIG d   1      -4.966  74.061 114.750  0.00  0.00     0.006 C 
ENDBRANCH   8  11
ENDBRANCH   7   8
ENDBRANCH   1   7
BRANCH   6  13
ATOM     13  N   LIG d   1      -2.115  74.747 117.812  0.00  0.00    -0.311 N 
ATOM     14  C   LIG d   1      -1.674  73.496 117.696  0.00  0.00     0.210 C 
ATOM     15  C   LIG d   1      -1.724  72.671 118.986  0.00  0.00     0.109 C 
ATOM     16  O   LIG d   1      -1.216  73.000 116.656  0.00  0.00    -0.276 OA
ATOM     17  H   LIG d   1      -2.438  75.076 118.700  0.00  0.00     0.149 HD
ENDBRANCH   6  13
BRANCH   5  18
ATOM     18  N   LIG d   1       0.300  75.633 116.164  0.00  0.00     0.381 N 
ATOM     19  H   LIG d   1       0.989  76.168 115.673  0.00  0.00    -0.090 HD
ATOM     20  H   LIG d   1      -0.016  74.896 115.559  0.00  0.00    -0.090 HD
ATOM     21  H   LIG d   1       0.697  75.246 116.992  0.00  0.00    -0.090 HD
ENDBRANCH   5  18
BRANCH   3  22
ATOM     22  C   LIG d   1      -2.124  79.601 115.015  0.00  0.00     0.382 C 
ATOM     23  O   LIG d   1      -3.044  80.001 114.261  0.00  0.00    -0.241 OA
ATOM     24  O   LIG d   1      -1.163  80.353 115.262  0.00  0.00    -0.241 OA
ENDBRANCH   3  22
TORSDOF 7
ENDMDL
