MODEL 1
REMARK VINA RESULT:      -6.7      0.000      0.000
REMARK  7 active torsions:
REMARK  status: ('A' for Active; 'I' for Inactive)
REMARK    1  A    between atoms: C_2  and  C_3 
REMARK    2  A    between atoms: C_3  and  O_6 
REMARK    3  A    between atoms: C_3  and  C_4 
REMARK    4  A    between atoms: C_7  and  O_6 
REMARK    5  A    between atoms: C_9  and  C_10 
REMARK    6  A    between atoms: N_15  and  C_14 
REMARK    7  A    between atoms: N_20  and  C_19 
REMARK       I    between atoms: C_22  and  N_20 
ROOT
ATOM      1  C   LIG d   1       1.233  83.944 109.401  0.00  0.00     0.161 C 
ATOM      2  C   LIG d   1       0.869  85.234 109.822  0.00  0.00     0.016 C 
ATOM      3  C   LIG d   1       0.018  85.482 110.924  0.00  0.00     0.038 C 
ATOM      4  C   LIG d   1      -0.408  84.453 111.778  0.00  0.00     0.028 C 
ATOM      5  C   LIG d   1      -0.478  83.091 111.097  0.00  0.00    -0.047 C 
ATOM      6  C   LIG d   1       0.868  82.815 110.388  0.00  0.00     0.091 C 
ENDROOT
BRANCH   1   7
ATOM      7  O   LIG d   1       2.642  83.908 109.099  0.00  0.00    -0.368 OA
BRANCH   7   8
ATOM      8  C   LIG d   1       3.525  83.621 110.210  0.00  0.00     0.119 C 
BRANCH   8   9
ATOM      9  C   LIG d   1       4.107  84.963 110.698  0.00  0.00     0.028 C 
ATOM     10  C   LIG d   1       3.780  85.242 112.174  0.00  0.00     0.006 C 
ENDBRANCH   8   9
BRANCH   8  11
ATOM     11  C   LIG d   1       4.734  82.795 109.762  0.00  0.00     0.028 C 
ATOM     12  C   LIG d   1       4.507  82.088 108.416  0.00  0.00     0.006 C 
ENDBRANCH   8  11
ENDBRANCH   7   8
ENDBRANCH   1   7
BRANCH   6  13
ATOM     13  N   LIG d   1       0.856  81.539 109.626  0.00  0.00    -0.311 N 
ATOM     14  C   LIG d   1       1.566  80.468 109.977  0.00  0.00     0.210 C 
ATOM     15  C   LIG d   1       1.425  79.263 109.042  0.00  0.00     0.109 C 
ATOM     16  O   LIG d   1       2.275  80.392 110.992  0.00  0.00    -0.276 OA
ATOM     17  H   LIG d   1       0.283  81.503 108.805  0.00  0.00     0.149 HD
ENDBRANCH   6  13
BRANCH   5  18
ATOM     18  N   LIG d   1      -0.801  82.091 112.132  0.00  0.00     0.381 N 
ATOM     19  H   LIG d   1      -1.507  82.452 112.743  0.00  0.00    -0.090 HD
ATOM     20  H   LIG d   1       0.023  81.909 112.677  0.00  0.00    -0.090 HD
ATOM     21  H   LIG d   1      -1.120  81.249 111.706  0.00  0.00    -0.090 HD
ENDBRANCH   5  18
BRANCH   3  22
ATOM     22  C   LIG d   1      -0.448  86.767 111.157  0.00  0.00     0.382 C 
ATOM     23  O   LIG d   1       0.301  87.617 111.695  0.00  0.00    -0.241 OA
ATOM     24  O   LIG d   1      -1.622  87.074 110.876  0.00  0.00    -0.241 OA
ENDBRANCH   3  22
TORSDOF 7
ENDMDL
MODEL 2
REMARK VINA RESULT:      -6.2      2.764      4.675
REMARK  7 active torsions:
REMARK  status: ('A' for Active; 'I' for Inactive)
REMARK    1  A    between atoms: C_2  and  C_3 
REMARK    2  A    between atoms: C_3  and  O_6 
REMARK    3  A    between atoms: C_3  and  C_4 
REMARK    4  A    between atoms: C_7  and  O_6 
REMARK    5  A    between atoms: C_9  and  C_10 
REMARK    6  A    between atoms: N_15  and  C_14 
REMARK    7  A    between atoms: N_20  and  C_19 
REMARK       I    between atoms: C_22  and  N_20 
ROOT
ATOM      1  C   LIG d   1       0.417  81.648 111.288  0.00  0.00     0.161 C 
ATOM      2  C   LIG d   1      -0.710  81.331 112.064  0.00  0.00     0.016 C 
ATOM      3  C   LIG d   1      -1.301  80.046 112.088  0.00  0.00     0.038 C 
ATOM      4  C   LIG d   1      -0.711  78.946 111.449  0.00  0.00     0.028 C 
ATOM      5  C   LIG d   1       0.144  79.331 110.247  0.00  0.00    -0.047 C 
ATOM      6  C   LIG d   1       1.141  80.433 110.671  0.00  0.00     0.091 C 
ENDROOT
BRANCH   1   7
ATOM      7  O   LIG d   1       1.338  82.439 112.065  0.00  0.00    -0.368 OA
BRANCH   7   8
ATOM      8  C   LIG d   1       1.522  83.810 111.634  0.00  0.00     0.119 C 
BRANCH   8   9
ATOM      9  C   LIG d   1       0.994  84.723 112.757  0.00  0.00     0.028 C 
ATOM     10  C   LIG d   1      -0.242  85.530 112.326  0.00  0.00     0.006 C 
ENDBRANCH   8   9
BRANCH   8  11
ATOM     11  C   LIG d   1       0.657  84.131 110.411  0.00  0.00     0.028 C 
ATOM     12  C   LIG d   1       1.487  84.542 109.185  0.00  0.00     0.006 C 
ENDBRANCH   8  11
ENDBRANCH   7   8
ENDBRANCH   1   7
BRANCH   6  13
ATOM     13  N   LIG d   1       1.959  80.927 109.533  0.00  0.00    -0.311 N 
ATOM     14  C   LIG d   1       3.267  81.162 109.618  0.00  0.00     0.210 C 
ATOM     15  C   LIG d   1       3.915  81.686 108.332  0.00  0.00     0.109 C 
ATOM     16  O   LIG d   1       3.959  80.955 110.626  0.00  0.00    -0.276 OA
ATOM     17  H   LIG d   1       1.484  81.092 108.667  0.00  0.00     0.149 HD
ENDBRANCH   6  13
BRANCH   5  18
ATOM     18  N   LIG d   1       0.808  78.106 109.762  0.00  0.00     0.381 N 
ATOM     19  H   LIG d   1       1.547  78.348 109.132  0.00  0.00    -0.090 HD
ATOM     20  H   LIG d   1       0.138  77.549 109.262  0.00  0.00    -0.090 HD
ATOM     21  H   LIG d   1       1.173  77.589 110.531  0.00  0.00    -0.090 HD
ENDBRANCH   5  18
BRANCH   3  22
ATOM     22  C   LIG d   1      -2.519  79.863 112.725  0.00  0.00     0.382 C 
ATOM     23  O   LIG d   1      -2.935  78.703 112.960  0.00  0.00    -0.241 OA
ATOM     24  O   LIG d   1      -3.228  80.841 113.027  0.00  0.00    -0.241 OA
ENDBRANCH   3  22
TORSDOF 7
ENDMDL
MODEL 3
REMARK VINA RESULT:      -6.1      2.451      4.708
REMARK  7 active torsions:
REMARK  status: ('A' for Active; 'I' for Inactive)
REMARK    1  A    between atoms: C_2  and  C_3 
REMARK    2  A    between atoms: C_3  and  O_6 
REMARK    3  A    between atoms: C_3  and  C_4 
REMARK    4  A    between atoms: C_7  and  O_6 
REMARK    5  A    between atoms: C_9  and  C_10 
REMARK    6  A    between atoms: N_15  and  C_14 
REMARK    7  A    between atoms: N_20  and  C_19 
REMARK       I    between atoms: C_22  and  N_20 
ROOT
ATOM      1  C   LIG d   1       1.146  82.362 111.472  0.00  0.00     0.161 C 
ATOM      2  C   LIG d   1       1.855  82.848 110.360  0.00  0.00     0.016 C 
ATOM      3  C   LIG d   1       2.166  82.058 109.230  0.00  0.00     0.038 C 
ATOM      4  C   LIG d   1       1.654  80.761 109.068  0.00  0.00     0.028 C 
ATOM      5  C   LIG d   1       1.357  80.058 110.388  0.00  0.00    -0.047 C 
ATOM      6  C   LIG d   1       0.484  80.984 111.265  0.00  0.00     0.091 C 
ENDROOT
BRANCH   1   7
ATOM      7  O   LIG d   1       0.164  83.332 111.887  0.00  0.00    -0.368 OA
BRANCH   7   8
ATOM      8  C   LIG d   1       0.459  84.714 111.568  0.00  0.00     0.119 C 
BRANCH   8   9
ATOM      9  C   LIG d   1       0.337  85.527 112.871  0.00  0.00     0.028 C 
ATOM     10  C   LIG d   1       1.626  85.491 113.709  0.00  0.00     0.006 C 
ENDBRANCH   8   9
BRANCH   8  11
ATOM     11  C   LIG d   1      -0.592  85.304 110.622  0.00  0.00     0.028 C 
ATOM     12  C   LIG d   1       0.030  86.059 109.437  0.00  0.00     0.006 C 
ENDBRANCH   8  11
ENDBRANCH   7   8
ENDBRANCH   1   7
BRANCH   6  13
ATOM     13  N   LIG d   1       0.217  80.407 112.608  0.00  0.00    -0.311 N 
ATOM     14  C   LIG d   1      -0.879  79.709 112.902  0.00  0.00     0.210 C 
ATOM     15  C   LIG d   1      -0.965  79.221 114.352  0.00  0.00     0.109 C 
ATOM     16  O   LIG d   1      -1.772  79.421 112.092  0.00  0.00    -0.276 OA
ATOM     17  H   LIG d   1       0.905  80.566 113.318  0.00  0.00     0.149 HD
ENDBRANCH   6  13
BRANCH   5  18
ATOM     18  N   LIG d   1       0.703  78.774 110.072  0.00  0.00     0.381 N 
ATOM     19  H   LIG d   1       0.148  78.477 110.849  0.00  0.00    -0.090 HD
ATOM     20  H   LIG d   1       1.411  78.081 109.906  0.00  0.00    -0.090 HD
ATOM     21  H   LIG d   1       0.129  78.874 109.264  0.00  0.00    -0.090 HD
ENDBRANCH   5  18
BRANCH   3  22
ATOM     22  C   LIG d   1       3.030  82.550 108.264  0.00  0.00     0.382 C 
ATOM     23  O   LIG d   1       2.613  82.769 107.102  0.00  0.00    -0.241 OA
ATOM     24  O   LIG d   1       4.233  82.735 108.529  0.00  0.00    -0.241 OA
ENDBRANCH   3  22
TORSDOF 7
ENDMDL
MODEL 4
REMARK VINA RESULT:      -6.1      2.409      4.811
REMARK  7 active torsions:
REMARK  status: ('A' for Active; 'I' for Inactive)
REMARK    1  A    between atoms: C_2  and  C_3 
REMARK    2  A    between atoms: C_3  and  O_6 
REMARK    3  A    between atoms: C_3  and  C_4 
REMARK    4  A    between atoms: C_7  and  O_6 
REMARK    5  A    between atoms: C_9  and  C_10 
REMARK    6  A    between atoms: N_15  and  C_14 
REMARK    7  A    between atoms: N_20  and  C_19 
REMARK       I    between atoms: C_22  and  N_20 
ROOT
ATOM      1  C   LIG d   1       2.475  83.177 111.279  0.00  0.00     0.161 C 
ATOM      2  C   LIG d   1       1.566  82.107 111.224  0.00  0.00     0.016 C 
ATOM      3  C   LIG d   1       0.181  82.250 111.468  0.00  0.00     0.038 C 
ATOM      4  C   LIG d   1      -0.417  83.508 111.637  0.00  0.00     0.028 C 
ATOM      5  C   LIG d   1       0.534  84.559 112.200  0.00  0.00    -0.047 C 
ATOM      6  C   LIG d   1       1.825  84.574 111.351  0.00  0.00     0.091 C 
ENDROOT
BRANCH   1   7
ATOM      7  O   LIG d   1       3.383  83.104 110.162  0.00  0.00    -0.368 OA
BRANCH   7   8
ATOM      8  C   LIG d   1       3.140  82.038 109.211  0.00  0.00     0.119 C 
BRANCH   8   9
ATOM      9  C   LIG d   1       4.360  81.097 109.248  0.00  0.00     0.028 C 
ATOM     10  C   LIG d   1       3.968  79.638 109.535  0.00  0.00     0.006 C 
ENDBRANCH   8   9
BRANCH   8  11
ATOM     11  C   LIG d   1       3.083  82.573 107.777  0.00  0.00     0.028 C 
ATOM     12  C   LIG d   1       1.788  83.346 107.481  0.00  0.00     0.006 C 
ENDBRANCH   8  11
ENDBRANCH   7   8
ENDBRANCH   1   7
BRANCH   6  13
ATOM     13  N   LIG d   1       2.843  85.516 111.885  0.00  0.00    -0.311 N 
ATOM     14  C   LIG d   1       2.915  86.798 111.530  0.00  0.00     0.210 C 
ATOM     15  C   LIG d   1       4.052  87.588 112.184  0.00  0.00     0.109 C 
ATOM     16  O   LIG d   1       2.124  87.363 110.759  0.00  0.00    -0.276 OA
ATOM     17  H   LIG d   1       3.506  85.149 112.541  0.00  0.00     0.149 HD
ENDBRANCH   6  13
BRANCH   5  18
ATOM     18  N   LIG d   1      -0.177  85.852 112.194  0.00  0.00     0.381 N 
ATOM     19  H   LIG d   1      -0.744  85.930 113.015  0.00  0.00    -0.090 HD
ATOM     20  H   LIG d   1      -0.779  85.888 111.390  0.00  0.00    -0.090 HD
ATOM     21  H   LIG d   1       0.478  86.601 112.161  0.00  0.00    -0.090 HD
ENDBRANCH   5  18
BRANCH   3  22
ATOM     22  C   LIG d   1      -0.617  81.121 111.586  0.00  0.00     0.382 C 
ATOM     23  O   LIG d   1      -0.450  80.152 110.806  0.00  0.00    -0.241 OA
ATOM     24  O   LIG d   1      -1.529  81.078 112.432  0.00  0.00    -0.241 OA
ENDBRANCH   3  22
TORSDOF 7
ENDMDL
MODEL 5
REMARK VINA RESULT:      -6.0      1.654      2.784
REMARK  7 active torsions:
REMARK  status: ('A' for Active; 'I' for Inactive)
REMARK    1  A    between atoms: C_2  and  C_3 
REMARK    2  A    between atoms: C_3  and  O_6 
REMARK    3  A    between atoms: C_3  and  C_4 
REMARK    4  A    between atoms: C_7  and  O_6 
REMARK    5  A    between atoms: C_9  and  C_10 
REMARK    6  A    between atoms: N_15  and  C_14 
REMARK    7  A    between atoms: N_20  and  C_19 
REMARK       I    between atoms: C_22  and  N_20 
ROOT
ATOM      1  C   LIG d   1       2.415  85.139 110.133  0.00  0.00     0.161 C 
ATOM      2  C   LIG d   1       1.327  85.936 110.528  0.00  0.00     0.016 C 
ATOM      3  C   LIG d   1       0.071  85.407 110.904  0.00  0.00     0.038 C 
ATOM      4  C   LIG d   1      -0.137  84.028 111.056  0.00  0.00     0.028 C 
ATOM      5  C   LIG d   1       0.779  83.177 110.184  0.00  0.00    -0.047 C 
ATOM      6  C   LIG d   1       2.241  83.629 110.400  0.00  0.00     0.091 C 
ENDROOT
BRANCH   1   7
ATOM      7  O   LIG d   1       3.624  85.622 110.752  0.00  0.00    -0.368 OA
BRANCH   7   8
ATOM      8  C   LIG d   1       3.460  86.324 112.008  0.00  0.00     0.119 C 
BRANCH   8   9
ATOM      9  C   LIG d   1       4.428  87.523 111.997  0.00  0.00     0.028 C 
ATOM     10  C   LIG d   1       4.098  88.554 113.090  0.00  0.00     0.006 C 
ENDBRANCH   8   9
BRANCH   8  11
ATOM     11  C   LIG d   1       3.901  85.459 113.192  0.00  0.00     0.028 C 
ATOM     12  C   LIG d   1       2.716  84.850 113.959  0.00  0.00     0.006 C 
ENDBRANCH   8  11
ENDBRANCH   7   8
ENDBRANCH   1   7
BRANCH   6  13
ATOM     13  N   LIG d   1       3.195  82.904 109.521  0.00  0.00    -0.311 N 
ATOM     14  C   LIG d   1       3.834  81.795 109.890  0.00  0.00     0.210 C 
ATOM     15  C   LIG d   1       4.788  81.219 108.838  0.00  0.00     0.109 C 
ATOM     16  O   LIG d   1       3.678  81.216 110.975  0.00  0.00    -0.276 OA
ATOM     17  H   LIG d   1       3.358  83.288 108.610  0.00  0.00     0.149 HD
ENDBRANCH   6  13
BRANCH   5  18
ATOM     18  N   LIG d   1       0.552  81.765 110.544  0.00  0.00     0.381 N 
ATOM     19  H   LIG d   1       0.819  81.610 111.495  0.00  0.00    -0.090 HD
ATOM     20  H   LIG d   1       1.124  81.183 109.957  0.00  0.00    -0.090 HD
ATOM     21  H   LIG d   1      -0.409  81.531 110.419  0.00  0.00    -0.090 HD
ENDBRANCH   5  18
BRANCH   3  22
ATOM     22  C   LIG d   1      -1.005  86.261 111.093  0.00  0.00     0.382 C 
ATOM     23  O   LIG d   1      -1.582  86.771 110.102  0.00  0.00    -0.241 OA
ATOM     24  O   LIG d   1      -1.378  86.562 112.242  0.00  0.00    -0.241 OA
ENDBRANCH   3  22
TORSDOF 7
ENDMDL
MODEL 6
REMARK VINA RESULT:      -5.6      2.219      3.032
REMARK  7 active torsions:
REMARK  status: ('A' for Active; 'I' for Inactive)
REMARK    1  A    between atoms: C_2  and  C_3 
REMARK    2  A    between atoms: C_3  and  O_6 
REMARK    3  A    between atoms: C_3  and  C_4 
REMARK    4  A    between atoms: C_7  and  O_6 
REMARK    5  A    between atoms: C_9  and  C_10 
REMARK    6  A    between atoms: N_15  and  C_14 
REMARK    7  A    between atoms: N_20  and  C_19 
REMARK       I    between atoms: C_22  and  N_20 
ROOT
ATOM      1  C   LIG d   1       1.199  84.983 110.872  0.00  0.00     0.161 C 
ATOM      2  C   LIG d   1       1.738  86.272 111.016  0.00  0.00     0.016 C 
ATOM      3  C   LIG d   1       2.373  86.722 112.197  0.00  0.00     0.038 C 
ATOM      4  C   LIG d   1       2.649  85.857 113.266  0.00  0.00     0.028 C 
ATOM      5  C   LIG d   1       1.677  84.686 113.364  0.00  0.00    -0.047 C 
ATOM      6  C   LIG d   1       1.589  83.990 111.987  0.00  0.00     0.091 C 
ENDROOT
BRANCH   1   7
ATOM      7  O   LIG d   1       1.551  84.449 109.580  0.00  0.00    -0.368 OA
BRANCH   7   8
ATOM      8  C   LIG d   1       2.472  83.329 109.582  0.00  0.00     0.119 C 
BRANCH   8   9
ATOM      9  C   LIG d   1       3.897  83.902 109.462  0.00  0.00     0.028 C 
ATOM     10  C   LIG d   1       4.947  82.811 109.194  0.00  0.00     0.006 C 
ENDBRANCH   8   9
BRANCH   8  11
ATOM     11  C   LIG d   1       2.282  82.450 108.343  0.00  0.00     0.028 C 
ATOM     12  C   LIG d   1       1.912  83.259 107.089  0.00  0.00     0.006 C 
ENDBRANCH   8  11
ENDBRANCH   7   8
ENDBRANCH   1   7
BRANCH   6  13
ATOM     13  N   LIG d   1       0.596  82.884 111.973  0.00  0.00    -0.311 N 
ATOM     14  C   LIG d   1       0.921  81.605 112.149  0.00  0.00     0.210 C 
ATOM     15  C   LIG d   1      -0.253  80.624 112.077  0.00  0.00     0.109 C 
ATOM     16  O   LIG d   1       2.066  81.192 112.389  0.00  0.00    -0.276 OA
ATOM     17  H   LIG d   1      -0.361  83.133 111.815  0.00  0.00     0.149 HD
ENDBRANCH   6  13
BRANCH   5  18
ATOM     18  N   LIG d   1       2.162  83.793 114.433  0.00  0.00     0.381 N 
ATOM     19  H   LIG d   1       1.628  82.947 114.437  0.00  0.00    -0.090 HD
ATOM     20  H   LIG d   1       2.036  84.249 115.320  0.00  0.00    -0.090 HD
ATOM     21  H   LIG d   1       3.126  83.585 114.293  0.00  0.00    -0.090 HD
ENDBRANCH   5  18
BRANCH   3  22
ATOM     22  C   LIG d   1       2.704  88.062 112.331  0.00  0.00     0.382 C 
ATOM     23  O   LIG d   1       1.874  88.867 112.819  0.00  0.00    -0.241 OA
ATOM     24  O   LIG d   1       3.804  88.484 111.929  0.00  0.00    -0.241 OA
ENDBRANCH   3  22
TORSDOF 7
ENDMDL
MODEL 7
REMARK VINA RESULT:      -5.4      2.238      3.894
REMARK  7 active torsions:
REMARK  status: ('A' for Active; 'I' for Inactive)
REMARK    1  A    between atoms: C_2  and  C_3 
REMARK    2  A    between atoms: C_3  and  O_6 
REMARK    3  A    between atoms: C_3  and  C_4 
REMARK    4  A    between atoms: C_7  and  O_6 
REMARK    5  A    between atoms: C_9  and  C_10 
REMARK    6  A    between atoms: N_15  and  C_14 
REMARK    7  A    between atoms: N_20  and  C_19 
REMARK       I    between atoms: C_22  and  N_20 
ROOT
ATOM      1  C   LIG d   1       0.503  82.422 111.234  0.00  0.00     0.161 C 
ATOM      2  C   LIG d   1      -0.154  83.571 111.704  0.00  0.00     0.016 C 
ATOM      3  C   LIG d   1       0.364  84.879 111.559  0.00  0.00     0.038 C 
ATOM      4  C   LIG d   1       1.511  85.141 110.795  0.00  0.00     0.028 C 
ATOM      5  C   LIG d   1       2.478  83.964 110.730  0.00  0.00    -0.047 C 
ATOM      6  C   LIG d   1       1.700  82.699 110.300  0.00  0.00     0.091 C 
ENDROOT
BRANCH   1   7
ATOM      7  O   LIG d   1      -0.443  81.547 110.588  0.00  0.00    -0.368 OA
BRANCH   7   8
ATOM      8  C   LIG d   1      -0.729  80.303 111.272  0.00  0.00     0.119 C 
BRANCH   8   9
ATOM      9  C   LIG d   1       0.088  80.294 112.579  0.00  0.00     0.028 C 
ATOM     10  C   LIG d   1      -0.573  79.447 113.679  0.00  0.00     0.006 C 
ENDBRANCH   8   9
BRANCH   8  11
ATOM     11  C   LIG d   1      -0.226  79.098 110.471  0.00  0.00     0.028 C 
ATOM     12  C   LIG d   1      -0.185  79.364 108.958  0.00  0.00     0.006 C 
ENDBRANCH   8  11
ENDBRANCH   7   8
ENDBRANCH   1   7
BRANCH   6  13
ATOM     13  N   LIG d   1       2.555  81.483 110.293  0.00  0.00    -0.311 N 
ATOM     14  C   LIG d   1       3.174  81.029 109.205  0.00  0.00     0.210 C 
ATOM     15  C   LIG d   1       3.989  79.749 109.412  0.00  0.00     0.109 C 
ATOM     16  O   LIG d   1       3.151  81.582 108.095  0.00  0.00    -0.276 OA
ATOM     17  H   LIG d   1       2.654  80.990 111.159  0.00  0.00     0.149 HD
ENDBRANCH   6  13
BRANCH   5  18
ATOM     18  N   LIG d   1       3.558  84.326 109.793  0.00  0.00     0.381 N 
ATOM     19  H   LIG d   1       4.447  84.155 110.218  0.00  0.00    -0.090 HD
ATOM     20  H   LIG d   1       3.492  85.306 109.583  0.00  0.00    -0.090 HD
ATOM     21  H   LIG d   1       3.474  83.793 108.955  0.00  0.00    -0.090 HD
ENDBRANCH   5  18
BRANCH   3  22
ATOM     22  C   LIG d   1      -0.246  85.936 112.217  0.00  0.00     0.382 C 
ATOM     23  O   LIG d   1       0.251  86.385 113.278  0.00  0.00    -0.241 OA
ATOM     24  O   LIG d   1      -1.311  86.418 111.787  0.00  0.00    -0.241 OA
ENDBRANCH   3  22
TORSDOF 7
ENDMDL
MODEL 8
REMARK VINA RESULT:      -5.2      2.119      3.032
REMARK  7 active torsions:
REMARK  status: ('A' for Active; 'I' for Inactive)
REMARK    1  A    between atoms: C_2  and  C_3 
REMARK    2  A    between atoms: C_3  and  O_6 
REMARK    3  A    between atoms: C_3  and  C_4 
REMARK    4  A    between atoms: C_7  and  O_6 
REMARK    5  A    between atoms: C_9  and  C_10 
REMARK    6  A    between atoms: N_15  and  C_14 
REMARK    7  A    between atoms: N_20  and  C_19 
REMARK       I    between atoms: C_22  and  N_20 
ROOT
ATOM      1  C   LIG d   1       2.913  84.033 111.010  0.00  0.00     0.161 C 
ATOM      2  C   LIG d   1       3.481  85.293 111.258  0.00  0.00     0.016 C 
ATOM      3  C   LIG d   1       2.783  86.353 111.881  0.00  0.00     0.038 C 
ATOM      4  C   LIG d   1       1.508  86.173 112.439  0.00  0.00     0.028 C 
ATOM      5  C   LIG d   1       0.702  85.067 111.766  0.00  0.00    -0.047 C 
ATOM      6  C   LIG d   1       1.561  83.783 111.711  0.00  0.00     0.091 C 
ENDROOT
BRANCH   1   7
ATOM      7  O   LIG d   1       3.854  82.996 111.353  0.00  0.00    -0.368 OA
BRANCH   7   8
ATOM      8  C   LIG d   1       4.275  82.133 110.268  0.00  0.00     0.119 C 
BRANCH   8   9
ATOM      9  C   LIG d   1       3.676  82.700 108.966  0.00  0.00     0.028 C 
ATOM     10  C   LIG d   1       4.751  82.995 107.906  0.00  0.00     0.006 C 
ENDBRANCH   8   9
BRANCH   8  11
ATOM     11  C   LIG d   1       3.680  80.729 110.411  0.00  0.00     0.028 C 
ATOM     12  C   LIG d   1       4.083  79.791 109.262  0.00  0.00     0.006 C 
ENDBRANCH   8  11
ENDBRANCH   7   8
ENDBRANCH   1   7
BRANCH   6  13
ATOM     13  N   LIG d   1       0.879  82.676 110.992  0.00  0.00    -0.311 N 
ATOM     14  C   LIG d   1       0.580  81.508 111.560  0.00  0.00     0.210 C 
ATOM     15  C   LIG d   1      -0.105  80.497 110.635  0.00  0.00     0.109 C 
ATOM     16  O   LIG d   1       0.787  81.227 112.749  0.00  0.00    -0.276 OA
ATOM     17  H   LIG d   1       0.647  82.831 110.031  0.00  0.00     0.149 HD
ENDBRANCH   6  13
BRANCH   5  18
ATOM     18  N   LIG d   1      -0.546  84.896 112.533  0.00  0.00     0.381 N 
ATOM     19  H   LIG d   1      -0.871  85.785 112.854  0.00  0.00    -0.090 HD
ATOM     20  H   LIG d   1      -0.358  84.320 113.335  0.00  0.00    -0.090 HD
ATOM     21  H   LIG d   1      -1.240  84.466 111.962  0.00  0.00    -0.090 HD
ENDBRANCH   5  18
BRANCH   3  22
ATOM     22  C   LIG d   1       3.344  87.620 111.916  0.00  0.00     0.382 C 
ATOM     23  O   LIG d   1       2.635  88.613 112.207  0.00  0.00    -0.241 OA
ATOM     24  O   LIG d   1       4.542  87.789 111.616  0.00  0.00    -0.241 OA
ENDBRANCH   3  22
TORSDOF 7
ENDMDL
MODEL 9
REMARK VINA RESULT:      -5.0      2.600      4.551
REMARK  7 active torsions:
REMARK  status: ('A' for Active; 'I' for Inactive)
REMARK    1  A    between atoms: C_2  and  C_3 
REMARK    2  A    between atoms: C_3  and  O_6 
REMARK    3  A    between atoms: C_3  and  C_4 
REMARK    4  A    between atoms: C_7  and  O_6 
REMARK    5  A    between atoms: C_9  and  C_10 
REMARK    6  A    between atoms: N_15  and  C_14 
REMARK    7  A    between atoms: N_20  and  C_19 
REMARK       I    between atoms: C_22  and  N_20 
ROOT
ATOM      1  C   LIG d   1       2.388  83.876 111.554  0.00  0.00     0.161 C 
ATOM      2  C   LIG d   1       1.422  82.863 111.676  0.00  0.00     0.016 C 
ATOM      3  C   LIG d   1       0.045  83.068 111.431  0.00  0.00     0.038 C 
ATOM      4  C   LIG d   1      -0.443  84.270 110.898  0.00  0.00     0.028 C 
ATOM      5  C   LIG d   1       0.423  85.479 111.238  0.00  0.00    -0.047 C 
ATOM      6  C   LIG d   1       1.890  85.165 110.866  0.00  0.00     0.091 C 
ENDROOT
BRANCH   1   7
ATOM      7  O   LIG d   1       3.551  83.363 110.875  0.00  0.00    -0.368 OA
BRANCH   7   8
ATOM      8  C   LIG d   1       3.558  83.496 109.432  0.00  0.00     0.119 C 
BRANCH   8   9
ATOM      9  C   LIG d   1       2.408  82.630 108.883  0.00  0.00     0.028 C 
ATOM     10  C   LIG d   1       1.938  83.093 107.493  0.00  0.00     0.006 C 
ENDBRANCH   8   9
BRANCH   8  11
ATOM     11  C   LIG d   1       4.834  82.909 108.824  0.00  0.00     0.028 C 
ATOM     12  C   LIG d   1       4.831  81.372 108.803  0.00  0.00     0.006 C 
ENDBRANCH   8  11
ENDBRANCH   7   8
ENDBRANCH   1   7
BRANCH   6  13
ATOM     13  N   LIG d   1       2.818  86.263 111.244  0.00  0.00    -0.311 N 
ATOM     14  C   LIG d   1       2.905  86.758 112.477  0.00  0.00     0.210 C 
ATOM     15  C   LIG d   1       3.911  87.901 112.646  0.00  0.00     0.109 C 
ATOM     16  O   LIG d   1       2.268  86.337 113.455  0.00  0.00    -0.276 OA
ATOM     17  H   LIG d   1       3.394  86.642 110.519  0.00  0.00     0.149 HD
ENDBRANCH   6  13
BRANCH   5  18
ATOM     18  N   LIG d   1      -0.123  86.638 110.507  0.00  0.00     0.381 N 
ATOM     19  H   LIG d   1      -0.549  87.274 111.150  0.00  0.00    -0.090 HD
ATOM     20  H   LIG d   1      -0.829  86.316 109.868  0.00  0.00    -0.090 HD
ATOM     21  H   LIG d   1       0.604  87.098 110.005  0.00  0.00    -0.090 HD
ENDBRANCH   5  18
BRANCH   3  22
ATOM     22  C   LIG d   1      -0.866  82.075 111.759  0.00  0.00     0.382 C 
ATOM     23  O   LIG d   1      -1.935  82.373 112.343  0.00  0.00    -0.241 OA
ATOM     24  O   LIG d   1      -0.612  80.880 111.517  0.00  0.00    -0.241 OA
ENDBRANCH   3  22
TORSDOF 7
ENDMDL
