MODEL 1
REMARK VINA RESULT:      -6.6      0.000      0.000
REMARK  7 active torsions:
REMARK  status: ('A' for Active; 'I' for Inactive)
REMARK    1  A    between atoms: C_2  and  C_3 
REMARK    2  A    between atoms: C_3  and  O_6 
REMARK    3  A    between atoms: C_3  and  C_4 
REMARK    4  A    between atoms: C_7  and  O_6 
REMARK    5  A    between atoms: C_9  and  C_10 
REMARK    6  A    between atoms: N_15  and  C_14 
REMARK    7  A    between atoms: N_20  and  C_19 
REMARK       I    between atoms: C_22  and  N_20 
ROOT
ATOM      1  C   LIG d   1       1.364  83.960 111.625  0.00  0.00     0.161 C 
ATOM      2  C   LIG d   1       0.286  83.059 111.610  0.00  0.00     0.016 C 
ATOM      3  C   LIG d   1      -0.813  83.146 112.496  0.00  0.00     0.038 C 
ATOM      4  C   LIG d   1      -0.981  84.236 113.363  0.00  0.00     0.028 C 
ATOM      5  C   LIG d   1       0.332  84.900 113.765  0.00  0.00    -0.047 C 
ATOM      6  C   LIG d   1       1.143  85.219 112.488  0.00  0.00     0.091 C 
ENDROOT
BRANCH   1   7
ATOM      7  O   LIG d   1       1.708  84.332 110.275  0.00  0.00    -0.368 OA
BRANCH   7   8
ATOM      8  C   LIG d   1       0.619  84.341 109.319  0.00  0.00     0.119 C 
BRANCH   8   9
ATOM      9  C   LIG d   1       1.198  83.922 107.954  0.00  0.00     0.028 C 
ATOM     10  C   LIG d   1       1.791  82.503 107.979  0.00  0.00     0.006 C 
ENDBRANCH   8   9
BRANCH   8  11
ATOM     11  C   LIG d   1       0.073  85.757 109.111  0.00  0.00     0.028 C 
ATOM     12  C   LIG d   1      -1.244  86.004 109.863  0.00  0.00     0.006 C 
ENDBRANCH   8  11
ENDBRANCH   7   8
ENDBRANCH   1   7
BRANCH   6  13
ATOM     13  N   LIG d   1       2.479  85.794 112.795  0.00  0.00    -0.311 N 
ATOM     14  C   LIG d   1       3.010  86.814 112.123  0.00  0.00     0.210 C 
ATOM     15  C   LIG d   1       4.407  87.238 112.589  0.00  0.00     0.109 C 
ATOM     16  O   LIG d   1       2.444  87.428 111.206  0.00  0.00    -0.276 OA
ATOM     17  H   LIG d   1       2.994  85.376 113.545  0.00  0.00     0.149 HD
ENDBRANCH   6  13
BRANCH   5  18
ATOM     18  N   LIG d   1       0.001  86.101 114.555  0.00  0.00     0.381 N 
ATOM     19  H   LIG d   1      -0.058  86.897 113.952  0.00  0.00    -0.090 HD
ATOM     20  H   LIG d   1       0.735  86.264 115.222  0.00  0.00    -0.090 HD
ATOM     21  H   LIG d   1      -0.866  85.969 115.029  0.00  0.00    -0.090 HD
ENDBRANCH   5  18
BRANCH   3  22
ATOM     22  C   LIG d   1      -1.737  82.114 112.549  0.00  0.00     0.382 C 
ATOM     23  O   LIG d   1      -2.834  82.284 113.133  0.00  0.00    -0.241 OA
ATOM     24  O   LIG d   1      -1.469  81.001 112.058  0.00  0.00    -0.241 OA
ENDBRANCH   3  22
TORSDOF 7
ENDMDL
MODEL 2
REMARK VINA RESULT:      -6.4      1.328      1.896
REMARK  7 active torsions:
REMARK  status: ('A' for Active; 'I' for Inactive)
REMARK    1  A    between atoms: C_2  and  C_3 
REMARK    2  A    between atoms: C_3  and  O_6 
REMARK    3  A    between atoms: C_3  and  C_4 
REMARK    4  A    between atoms: C_7  and  O_6 
REMARK    5  A    between atoms: C_9  and  C_10 
REMARK    6  A    between atoms: N_15  and  C_14 
REMARK    7  A    between atoms: N_20  and  C_19 
REMARK       I    between atoms: C_22  and  N_20 
ROOT
ATOM      1  C   LIG d   1       0.815  83.432 111.437  0.00  0.00     0.161 C 
ATOM      2  C   LIG d   1      -0.297  82.591 111.607  0.00  0.00     0.016 C 
ATOM      3  C   LIG d   1      -1.300  82.813 112.580  0.00  0.00     0.038 C 
ATOM      4  C   LIG d   1      -1.336  83.983 113.353  0.00  0.00     0.028 C 
ATOM      5  C   LIG d   1       0.037  84.611 113.567  0.00  0.00    -0.047 C 
ATOM      6  C   LIG d   1       0.734  84.773 112.197  0.00  0.00     0.091 C 
ENDROOT
BRANCH   1   7
ATOM      7  O   LIG d   1       1.042  83.665 110.033  0.00  0.00    -0.368 OA
BRANCH   7   8
ATOM      8  C   LIG d   1       1.993  82.783 109.387  0.00  0.00     0.119 C 
BRANCH   8   9
ATOM      9  C   LIG d   1       3.285  83.590 109.150  0.00  0.00     0.028 C 
ATOM     10  C   LIG d   1       4.501  82.686 108.889  0.00  0.00     0.006 C 
ENDBRANCH   8   9
BRANCH   8  11
ATOM     11  C   LIG d   1       1.512  82.370 107.993  0.00  0.00     0.028 C 
ATOM     12  C   LIG d   1       1.444  83.551 107.012  0.00  0.00     0.006 C 
ENDBRANCH   8  11
ENDBRANCH   7   8
ENDBRANCH   1   7
BRANCH   6  13
ATOM     13  N   LIG d   1       2.117  85.303 112.323  0.00  0.00    -0.311 N 
ATOM     14  C   LIG d   1       2.604  86.272 111.550  0.00  0.00     0.210 C 
ATOM     15  C   LIG d   1       4.060  86.655 111.834  0.00  0.00     0.109 C 
ATOM     16  O   LIG d   1       1.959  86.872 110.677  0.00  0.00    -0.276 OA
ATOM     17  H   LIG d   1       2.699  84.894 113.027  0.00  0.00     0.149 HD
ENDBRANCH   6  13
BRANCH   5  18
ATOM     18  N   LIG d   1      -0.164  85.893 114.269  0.00  0.00     0.381 N 
ATOM     19  H   LIG d   1      -0.237  86.636 113.603  0.00  0.00    -0.090 HD
ATOM     20  H   LIG d   1       0.634  86.071 114.854  0.00  0.00    -0.090 HD
ATOM     21  H   LIG d   1      -0.990  85.851 114.825  0.00  0.00    -0.090 HD
ENDBRANCH   5  18
BRANCH   3  22
ATOM     22  C   LIG d   1      -2.258  81.839 112.814  0.00  0.00     0.382 C 
ATOM     23  O   LIG d   1      -2.062  80.661 112.426  0.00  0.00    -0.241 OA
ATOM     24  O   LIG d   1      -3.334  82.132 113.367  0.00  0.00    -0.241 OA
ENDBRANCH   3  22
TORSDOF 7
ENDMDL
MODEL 3
REMARK VINA RESULT:      -6.4      2.957      5.876
REMARK  7 active torsions:
REMARK  status: ('A' for Active; 'I' for Inactive)
REMARK    1  A    between atoms: C_2  and  C_3 
REMARK    2  A    between atoms: C_3  and  O_6 
REMARK    3  A    between atoms: C_3  and  C_4 
REMARK    4  A    between atoms: C_7  and  O_6 
REMARK    5  A    between atoms: C_9  and  C_10 
REMARK    6  A    between atoms: N_15  and  C_14 
REMARK    7  A    between atoms: N_20  and  C_19 
REMARK       I    between atoms: C_22  and  N_20 
ROOT
ATOM      1  C   LIG d   1       0.176  82.721 110.912  0.00  0.00     0.161 C 
ATOM      2  C   LIG d   1       0.878  83.151 109.774  0.00  0.00     0.016 C 
ATOM      3  C   LIG d   1       1.310  82.277 108.750  0.00  0.00     0.038 C 
ATOM      4  C   LIG d   1       0.934  80.926 108.720  0.00  0.00     0.028 C 
ATOM      5  C   LIG d   1       0.654  80.345 110.102  0.00  0.00    -0.047 C 
ATOM      6  C   LIG d   1      -0.340  81.269 110.842  0.00  0.00     0.091 C 
ENDROOT
BRANCH   1   7
ATOM      7  O   LIG d   1      -0.912  83.627 111.185  0.00  0.00    -0.368 OA
BRANCH   7   8
ATOM      8  C   LIG d   1      -0.587  84.791 111.984  0.00  0.00     0.119 C 
BRANCH   8   9
ATOM      9  C   LIG d   1      -1.210  84.585 113.378  0.00  0.00     0.028 C 
ATOM     10  C   LIG d   1      -0.231  83.935 114.369  0.00  0.00     0.006 C 
ENDBRANCH   8   9
BRANCH   8  11
ATOM     11  C   LIG d   1      -1.250  86.053 111.425  0.00  0.00     0.028 C 
ATOM     12  C   LIG d   1      -1.300  86.070 109.889  0.00  0.00     0.006 C 
ENDBRANCH   8  11
ENDBRANCH   7   8
ENDBRANCH   1   7
BRANCH   6  13
ATOM     13  N   LIG d   1      -0.604  80.818 112.234  0.00  0.00    -0.311 N 
ATOM     14  C   LIG d   1      -1.800  80.897 112.816  0.00  0.00     0.210 C 
ATOM     15  C   LIG d   1      -1.849  80.395 114.263  0.00  0.00     0.109 C 
ATOM     16  O   LIG d   1      -2.831  81.304 112.261  0.00  0.00    -0.276 OA
ATOM     17  H   LIG d   1       0.171  80.446 112.747  0.00  0.00     0.149 HD
ENDBRANCH   6  13
BRANCH   5  18
ATOM     18  N   LIG d   1       0.140  78.975 109.914  0.00  0.00     0.381 N 
ATOM     19  H   LIG d   1      -0.789  79.010 109.544  0.00  0.00    -0.090 HD
ATOM     20  H   LIG d   1       0.108  78.515 110.807  0.00  0.00    -0.090 HD
ATOM     21  H   LIG d   1       0.734  78.471 109.293  0.00  0.00    -0.090 HD
ENDBRANCH   5  18
BRANCH   3  22
ATOM     22  C   LIG d   1       2.162  82.746 107.761  0.00  0.00     0.382 C 
ATOM     23  O   LIG d   1       1.703  83.063 106.637  0.00  0.00    -0.241 OA
ATOM     24  O   LIG d   1       3.389  82.813 107.963  0.00  0.00    -0.241 OA
ENDBRANCH   3  22
TORSDOF 7
ENDMDL
MODEL 4
REMARK VINA RESULT:      -6.3      2.615      4.066
REMARK  7 active torsions:
REMARK  status: ('A' for Active; 'I' for Inactive)
REMARK    1  A    between atoms: C_2  and  C_3 
REMARK    2  A    between atoms: C_3  and  O_6 
REMARK    3  A    between atoms: C_3  and  C_4 
REMARK    4  A    between atoms: C_7  and  O_6 
REMARK    5  A    between atoms: C_9  and  C_10 
REMARK    6  A    between atoms: N_15  and  C_14 
REMARK    7  A    between atoms: N_20  and  C_19 
REMARK       I    between atoms: C_22  and  N_20 
ROOT
ATOM      1  C   LIG d   1       2.133  83.104 110.828  0.00  0.00     0.161 C 
ATOM      2  C   LIG d   1       2.606  82.070 110.004  0.00  0.00     0.016 C 
ATOM      3  C   LIG d   1       2.033  80.778 109.970  0.00  0.00     0.038 C 
ATOM      4  C   LIG d   1       0.845  80.476 110.652  0.00  0.00     0.028 C 
ATOM      5  C   LIG d   1       0.620  81.339 111.889  0.00  0.00    -0.047 C 
ATOM      6  C   LIG d   1       0.770  82.827 111.496  0.00  0.00     0.091 C 
ENDROOT
BRANCH   1   7
ATOM      7  O   LIG d   1       2.084  84.338 110.085  0.00  0.00    -0.368 OA
BRANCH   7   8
ATOM      8  C   LIG d   1       0.842  84.618 109.394  0.00  0.00     0.119 C 
BRANCH   8   9
ATOM      9  C   LIG d   1       1.168  84.763 107.895  0.00  0.00     0.028 C 
ATOM     10  C   LIG d   1       1.286  83.403 107.186  0.00  0.00     0.006 C 
ENDBRANCH   8   9
BRANCH   8  11
ATOM     11  C   LIG d   1       0.262  85.971 109.815  0.00  0.00     0.028 C 
ATOM     12  C   LIG d   1      -1.275  85.982 109.832  0.00  0.00     0.006 C 
ENDBRANCH   8  11
ENDBRANCH   7   8
ENDBRANCH   1   7
BRANCH   6  13
ATOM     13  N   LIG d   1       0.648  83.737 112.665  0.00  0.00    -0.311 N 
ATOM     14  C   LIG d   1      -0.513  84.229 113.093  0.00  0.00     0.210 C 
ATOM     15  C   LIG d   1      -0.413  85.164 114.303  0.00  0.00     0.109 C 
ATOM     16  O   LIG d   1      -1.620  83.954 112.606  0.00  0.00    -0.276 OA
ATOM     17  H   LIG d   1       1.494  83.986 113.138  0.00  0.00     0.149 HD
ENDBRANCH   6  13
BRANCH   5  18
ATOM     18  N   LIG d   1      -0.716  81.014 112.422  0.00  0.00     0.381 N 
ATOM     19  H   LIG d   1      -0.800  80.024 112.545  0.00  0.00    -0.090 HD
ATOM     20  H   LIG d   1      -1.412  81.309 111.760  0.00  0.00    -0.090 HD
ATOM     21  H   LIG d   1      -0.858  81.477 113.293  0.00  0.00    -0.090 HD
ENDBRANCH   5  18
BRANCH   3  22
ATOM     22  C   LIG d   1       2.673  79.760 109.279  0.00  0.00     0.382 C 
ATOM     23  O   LIG d   1       2.002  78.830 108.770  0.00  0.00    -0.241 OA
ATOM     24  O   LIG d   1       3.915  79.738 109.195  0.00  0.00    -0.241 OA
ENDBRANCH   3  22
TORSDOF 7
ENDMDL
MODEL 5
REMARK VINA RESULT:      -6.0      2.472      4.043
REMARK  7 active torsions:
REMARK  status: ('A' for Active; 'I' for Inactive)
REMARK    1  A    between atoms: C_2  and  C_3 
REMARK    2  A    between atoms: C_3  and  O_6 
REMARK    3  A    between atoms: C_3  and  C_4 
REMARK    4  A    between atoms: C_7  and  O_6 
REMARK    5  A    between atoms: C_9  and  C_10 
REMARK    6  A    between atoms: N_15  and  C_14 
REMARK    7  A    between atoms: N_20  and  C_19 
REMARK       I    between atoms: C_22  and  N_20 
ROOT
ATOM      1  C   LIG d   1       0.067  83.091 111.224  0.00  0.00     0.161 C 
ATOM      2  C   LIG d   1      -0.963  82.823 112.141  0.00  0.00     0.016 C 
ATOM      3  C   LIG d   1      -1.467  81.525 112.388  0.00  0.00     0.038 C 
ATOM      4  C   LIG d   1      -0.868  80.381 111.840  0.00  0.00     0.028 C 
ATOM      5  C   LIG d   1      -0.152  80.645 110.520  0.00  0.00    -0.047 C 
ATOM      6  C   LIG d   1       0.808  81.843 110.700  0.00  0.00     0.091 C 
ENDROOT
BRANCH   1   7
ATOM      7  O   LIG d   1       1.002  84.025 111.799  0.00  0.00    -0.368 OA
BRANCH   7   8
ATOM      8  C   LIG d   1       0.981  85.367 111.253  0.00  0.00     0.119 C 
BRANCH   8   9
ATOM      9  C   LIG d   1      -0.041  85.381 110.099  0.00  0.00     0.028 C 
ATOM     10  C   LIG d   1       0.615  85.672 108.739  0.00  0.00     0.006 C 
ENDBRANCH   8   9
BRANCH   8  11
ATOM     11  C   LIG d   1       2.323  85.729 110.611  0.00  0.00     0.028 C 
ATOM     12  C   LIG d   1       3.263  86.472 111.573  0.00  0.00     0.006 C 
ENDBRANCH   8  11
ENDBRANCH   7   8
ENDBRANCH   1   7
BRANCH   6  13
ATOM     13  N   LIG d   1       1.486  82.222 109.433  0.00  0.00    -0.311 N 
ATOM     14  C   LIG d   1       2.805  82.371 109.324  0.00  0.00     0.210 C 
ATOM     15  C   LIG d   1       3.296  82.784 107.933  0.00  0.00     0.109 C 
ATOM     16  O   LIG d   1       3.618  82.168 110.238  0.00  0.00    -0.276 OA
ATOM     17  H   LIG d   1       0.905  82.375 108.632  0.00  0.00     0.149 HD
ENDBRANCH   6  13
BRANCH   5  18
ATOM     18  N   LIG d   1       0.542  79.402 110.133  0.00  0.00     0.381 N 
ATOM     19  H   LIG d   1      -0.019  78.610 110.377  0.00  0.00    -0.090 HD
ATOM     20  H   LIG d   1       1.408  79.342 110.639  0.00  0.00    -0.090 HD
ATOM     21  H   LIG d   1       0.721  79.402 109.153  0.00  0.00    -0.090 HD
ENDBRANCH   5  18
BRANCH   3  22
ATOM     22  C   LIG d   1      -2.608  81.366 113.159  0.00  0.00     0.382 C 
ATOM     23  O   LIG d   1      -3.737  81.600 112.664  0.00  0.00    -0.241 OA
ATOM     24  O   LIG d   1      -2.520  81.034 114.356  0.00  0.00    -0.241 OA
ENDBRANCH   3  22
TORSDOF 7
ENDMDL
MODEL 6
REMARK VINA RESULT:      -5.9      2.873      5.172
REMARK  7 active torsions:
REMARK  status: ('A' for Active; 'I' for Inactive)
REMARK    1  A    between atoms: C_2  and  C_3 
REMARK    2  A    between atoms: C_3  and  O_6 
REMARK    3  A    between atoms: C_3  and  C_4 
REMARK    4  A    between atoms: C_7  and  O_6 
REMARK    5  A    between atoms: C_9  and  C_10 
REMARK    6  A    between atoms: N_15  and  C_14 
REMARK    7  A    between atoms: N_20  and  C_19 
REMARK       I    between atoms: C_22  and  N_20 
ROOT
ATOM      1  C   LIG d   1       1.917  82.816 111.711  0.00  0.00     0.161 C 
ATOM      2  C   LIG d   1       2.818  82.303 110.763  0.00  0.00     0.016 C 
ATOM      3  C   LIG d   1       2.554  81.154 109.981  0.00  0.00     0.038 C 
ATOM      4  C   LIG d   1       1.301  80.525 109.987  0.00  0.00     0.028 C 
ATOM      5  C   LIG d   1       0.539  80.704 111.296  0.00  0.00    -0.047 C 
ATOM      6  C   LIG d   1       0.500  82.208 111.652  0.00  0.00     0.091 C 
ENDROOT
BRANCH   1   7
ATOM      7  O   LIG d   1       1.851  84.251 111.596  0.00  0.00    -0.368 OA
BRANCH   7   8
ATOM      8  C   LIG d   1       2.424  84.821 110.393  0.00  0.00     0.119 C 
BRANCH   8   9
ATOM      9  C   LIG d   1       3.656  85.645 110.812  0.00  0.00     0.028 C 
ATOM     10  C   LIG d   1       3.298  86.782 111.785  0.00  0.00     0.006 C 
ENDBRANCH   8   9
BRANCH   8  11
ATOM     11  C   LIG d   1       1.467  85.824 109.741  0.00  0.00     0.028 C 
ATOM     12  C   LIG d   1       0.716  85.236 108.536  0.00  0.00     0.006 C 
ENDBRANCH   8  11
ENDBRANCH   7   8
ENDBRANCH   1   7
BRANCH   6  13
ATOM     13  N   LIG d   1      -0.155  82.464 112.961  0.00  0.00    -0.311 N 
ATOM     14  C   LIG d   1      -1.476  82.507 113.125  0.00  0.00     0.210 C 
ATOM     15  C   LIG d   1      -1.941  82.805 114.554  0.00  0.00     0.109 C 
ATOM     16  O   LIG d   1      -2.307  82.295 112.229  0.00  0.00    -0.276 OA
ATOM     17  H   LIG d   1       0.445  82.616 113.749  0.00  0.00     0.149 HD
ENDBRANCH   6  13
BRANCH   5  18
ATOM     18  N   LIG d   1      -0.802  80.117 111.116  0.00  0.00     0.381 N 
ATOM     19  H   LIG d   1      -0.739  79.297 110.546  0.00  0.00    -0.090 HD
ATOM     20  H   LIG d   1      -1.388  80.784 110.644  0.00  0.00    -0.090 HD
ATOM     21  H   LIG d   1      -1.195  79.886 112.001  0.00  0.00    -0.090 HD
ENDBRANCH   5  18
BRANCH   3  22
ATOM     22  C   LIG d   1       3.566  80.600 109.212  0.00  0.00     0.382 C 
ATOM     23  O   LIG d   1       4.383  81.346 108.619  0.00  0.00    -0.241 OA
ATOM     24  O   LIG d   1       3.645  79.366 109.066  0.00  0.00    -0.241 OA
ENDBRANCH   3  22
TORSDOF 7
ENDMDL
MODEL 7
REMARK VINA RESULT:      -5.8      2.928      5.480
REMARK  7 active torsions:
REMARK  status: ('A' for Active; 'I' for Inactive)
REMARK    1  A    between atoms: C_2  and  C_3 
REMARK    2  A    between atoms: C_3  and  O_6 
REMARK    3  A    between atoms: C_3  and  C_4 
REMARK    4  A    between atoms: C_7  and  O_6 
REMARK    5  A    between atoms: C_9  and  C_10 
REMARK    6  A    between atoms: N_15  and  C_14 
REMARK    7  A    between atoms: N_20  and  C_19 
REMARK       I    between atoms: C_22  and  N_20 
ROOT
ATOM      1  C   LIG d   1       0.014  82.845 111.011  0.00  0.00     0.161 C 
ATOM      2  C   LIG d   1       0.925  82.537 109.988  0.00  0.00     0.016 C 
ATOM      3  C   LIG d   1       1.131  81.227 109.496  0.00  0.00     0.038 C 
ATOM      4  C   LIG d   1       0.324  80.151 109.894  0.00  0.00     0.028 C 
ATOM      5  C   LIG d   1      -0.267  80.320 111.290  0.00  0.00    -0.047 C 
ATOM      6  C   LIG d   1      -0.955  81.701 111.380  0.00  0.00     0.091 C 
ENDROOT
BRANCH   1   7
ATOM      7  O   LIG d   1      -0.723  84.034 110.667  0.00  0.00    -0.368 OA
BRANCH   7   8
ATOM      8  C   LIG d   1      -0.364  85.238 111.389  0.00  0.00     0.119 C 
BRANCH   8   9
ATOM      9  C   LIG d   1       0.418  86.144 110.418  0.00  0.00     0.028 C 
ATOM     10  C   LIG d   1       0.032  85.902 108.949  0.00  0.00     0.006 C 
ENDBRANCH   8   9
BRANCH   8  11
ATOM     11  C   LIG d   1       0.609  84.933 112.532  0.00  0.00     0.028 C 
ATOM     12  C   LIG d   1       1.941  85.687 112.398  0.00  0.00     0.006 C 
ENDBRANCH   8  11
ENDBRANCH   7   8
ENDBRANCH   1   7
BRANCH   6  13
ATOM     13  N   LIG d   1      -1.486  81.983 112.739  0.00  0.00    -0.311 N 
ATOM     14  C   LIG d   1      -2.732  81.696 113.113  0.00  0.00     0.210 C 
ATOM     15  C   LIG d   1      -3.081  82.088 114.552  0.00  0.00     0.109 C 
ATOM     16  O   LIG d   1      -3.571  81.126 112.399  0.00  0.00    -0.276 OA
ATOM     17  H   LIG d   1      -0.863  82.416 113.391  0.00  0.00     0.149 HD
ENDBRANCH   6  13
BRANCH   5  18
ATOM     18  N   LIG d   1      -1.194  79.196 111.521  0.00  0.00     0.381 N 
ATOM     19  H   LIG d   1      -2.136  79.498 111.371  0.00  0.00    -0.090 HD
ATOM     20  H   LIG d   1      -1.107  78.895 112.476  0.00  0.00    -0.090 HD
ATOM     21  H   LIG d   1      -0.976  78.443 110.907  0.00  0.00    -0.090 HD
ENDBRANCH   5  18
BRANCH   3  22
ATOM     22  C   LIG d   1       2.181  80.976 108.626  0.00  0.00     0.382 C 
ATOM     23  O   LIG d   1       2.789  81.931 108.085  0.00  0.00    -0.241 OA
ATOM     24  O   LIG d   1       2.498  79.806 108.340  0.00  0.00    -0.241 OA
ENDBRANCH   3  22
TORSDOF 7
ENDMDL
MODEL 8
REMARK VINA RESULT:      -5.8      2.816      4.622
REMARK  7 active torsions:
REMARK  status: ('A' for Active; 'I' for Inactive)
REMARK    1  A    between atoms: C_2  and  C_3 
REMARK    2  A    between atoms: C_3  and  O_6 
REMARK    3  A    between atoms: C_3  and  C_4 
REMARK    4  A    between atoms: C_7  and  O_6 
REMARK    5  A    between atoms: C_9  and  C_10 
REMARK    6  A    between atoms: N_15  and  C_14 
REMARK    7  A    between atoms: N_20  and  C_19 
REMARK       I    between atoms: C_22  and  N_20 
ROOT
ATOM      1  C   LIG d   1       2.065  82.753 110.866  0.00  0.00     0.161 C 
ATOM      2  C   LIG d   1       2.469  81.709 110.017  0.00  0.00     0.016 C 
ATOM      3  C   LIG d   1       1.730  80.516 109.844  0.00  0.00     0.038 C 
ATOM      4  C   LIG d   1       0.452  80.349 110.397  0.00  0.00     0.028 C 
ATOM      5  C   LIG d   1       0.229  81.165 111.666  0.00  0.00    -0.047 C 
ATOM      6  C   LIG d   1       0.619  82.636 111.392  0.00  0.00     0.091 C 
ENDROOT
BRANCH   1   7
ATOM      7  O   LIG d   1       2.258  84.021 110.208  0.00  0.00    -0.368 OA
BRANCH   7   8
ATOM      8  C   LIG d   1       2.485  85.160 111.074  0.00  0.00     0.119 C 
BRANCH   8   9
ATOM      9  C   LIG d   1       1.773  86.371 110.442  0.00  0.00     0.028 C 
ATOM     10  C   LIG d   1       0.412  85.999 109.831  0.00  0.00     0.006 C 
ENDBRANCH   8   9
BRANCH   8  11
ATOM     11  C   LIG d   1       3.969  85.538 111.118  0.00  0.00     0.028 C 
ATOM     12  C   LIG d   1       4.233  86.821 111.923  0.00  0.00     0.006 C 
ENDBRANCH   8  11
ENDBRANCH   7   8
ENDBRANCH   1   7
BRANCH   6  13
ATOM     13  N   LIG d   1       0.511  83.486 112.606  0.00  0.00    -0.311 N 
ATOM     14  C   LIG d   1      -0.582  84.179 112.921  0.00  0.00     0.210 C 
ATOM     15  C   LIG d   1      -0.474  85.007 114.205  0.00  0.00     0.109 C 
ATOM     16  O   LIG d   1      -1.641  84.161 112.276  0.00  0.00    -0.276 OA
ATOM     17  H   LIG d   1       1.314  83.534 113.202  0.00  0.00     0.149 HD
ENDBRANCH   6  13
BRANCH   5  18
ATOM     18  N   LIG d   1      -1.184  81.004 112.057  0.00  0.00     0.381 N 
ATOM     19  H   LIG d   1      -1.249  80.886 113.049  0.00  0.00    -0.090 HD
ATOM     20  H   LIG d   1      -1.552  80.180 111.616  0.00  0.00    -0.090 HD
ATOM     21  H   LIG d   1      -1.708  81.803 111.776  0.00  0.00    -0.090 HD
ENDBRANCH   5  18
BRANCH   3  22
ATOM     22  C   LIG d   1       2.287  79.458 109.142  0.00  0.00     0.382 C 
ATOM     23  O   LIG d   1       3.533  79.307 109.121  0.00  0.00    -0.241 OA
ATOM     24  O   LIG d   1       1.564  78.679 108.494  0.00  0.00    -0.241 OA
ENDBRANCH   3  22
TORSDOF 7
ENDMDL
MODEL 9
REMARK VINA RESULT:      -5.7      1.837      2.666
REMARK  7 active torsions:
REMARK  status: ('A' for Active; 'I' for Inactive)
REMARK    1  A    between atoms: C_2  and  C_3 
REMARK    2  A    between atoms: C_3  and  O_6 
REMARK    3  A    between atoms: C_3  and  C_4 
REMARK    4  A    between atoms: C_7  and  O_6 
REMARK    5  A    between atoms: C_9  and  C_10 
REMARK    6  A    between atoms: N_15  and  C_14 
REMARK    7  A    between atoms: N_20  and  C_19 
REMARK       I    between atoms: C_22  and  N_20 
ROOT
ATOM      1  C   LIG d   1       1.784  82.492 112.089  0.00  0.00     0.161 C 
ATOM      2  C   LIG d   1       0.719  81.588 112.242  0.00  0.00     0.016 C 
ATOM      3  C   LIG d   1      -0.639  81.981 112.262  0.00  0.00     0.038 C 
ATOM      4  C   LIG d   1      -1.034  83.296 111.978  0.00  0.00     0.028 C 
ATOM      5  C   LIG d   1       0.029  84.335 112.318  0.00  0.00    -0.047 C 
ATOM      6  C   LIG d   1       1.367  83.916 111.666  0.00  0.00     0.091 C 
ENDROOT
BRANCH   1   7
ATOM      7  O   LIG d   1       2.750  81.957 111.162  0.00  0.00    -0.368 OA
BRANCH   7   8
ATOM      8  C   LIG d   1       2.312  81.832 109.787  0.00  0.00     0.119 C 
BRANCH   8   9
ATOM      9  C   LIG d   1       2.752  80.442 109.286  0.00  0.00     0.028 C 
ATOM     10  C   LIG d   1       1.570  79.469 109.145  0.00  0.00     0.006 C 
ENDBRANCH   8   9
BRANCH   8  11
ATOM     11  C   LIG d   1       3.031  82.836 108.880  0.00  0.00     0.028 C 
ATOM     12  C   LIG d   1       4.469  82.411 108.544  0.00  0.00     0.006 C 
ENDBRANCH   8  11
ENDBRANCH   7   8
ENDBRANCH   1   7
BRANCH   6  13
ATOM     13  N   LIG d   1       2.481  84.834 112.018  0.00  0.00    -0.311 N 
ATOM     14  C   LIG d   1       2.828  85.884 111.276  0.00  0.00     0.210 C 
ATOM     15  C   LIG d   1       4.018  86.688 111.809  0.00  0.00     0.109 C 
ATOM     16  O   LIG d   1       2.243  86.245 110.244  0.00  0.00    -0.276 OA
ATOM     17  H   LIG d   1       2.990  84.633 112.857  0.00  0.00     0.149 HD
ENDBRANCH   6  13
BRANCH   5  18
ATOM     18  N   LIG d   1      -0.460  85.644 111.844  0.00  0.00     0.381 N 
ATOM     19  H   LIG d   1      -0.415  85.682 110.845  0.00  0.00    -0.090 HD
ATOM     20  H   LIG d   1       0.134  86.366 112.214  0.00  0.00    -0.090 HD
ATOM     21  H   LIG d   1      -1.398  85.788 112.147  0.00  0.00    -0.090 HD
ENDBRANCH   5  18
BRANCH   3  22
ATOM     22  C   LIG d   1      -1.615  81.060 112.610  0.00  0.00     0.382 C 
ATOM     23  O   LIG d   1      -2.824  81.315 112.391  0.00  0.00    -0.241 OA
ATOM     24  O   LIG d   1      -1.306  79.996 113.179  0.00  0.00    -0.241 OA
ENDBRANCH   3  22
TORSDOF 7
ENDMDL
