MODEL 1
REMARK VINA RESULT:      -6.8      0.000      0.000
REMARK  7 active torsions:
REMARK  status: ('A' for Active; 'I' for Inactive)
REMARK    1  A    between atoms: C_2  and  C_3 
REMARK    2  A    between atoms: C_3  and  O_6 
REMARK    3  A    between atoms: C_3  and  C_4 
REMARK    4  A    between atoms: C_7  and  O_6 
REMARK    5  A    between atoms: C_9  and  C_10 
REMARK    6  A    between atoms: N_15  and  C_14 
REMARK    7  A    between atoms: N_20  and  C_19 
REMARK       I    between atoms: C_22  and  N_20 
ROOT
ATOM      1  C   LIG d   1       0.662  83.997 109.465  0.00  0.00     0.161 C 
ATOM      2  C   LIG d   1       0.353  85.293 109.909  0.00  0.00     0.016 C 
ATOM      3  C   LIG d   1      -0.344  85.558 111.111  0.00  0.00     0.038 C 
ATOM      4  C   LIG d   1      -0.647  84.544 112.031  0.00  0.00     0.028 C 
ATOM      5  C   LIG d   1      -0.802  83.170 111.389  0.00  0.00    -0.047 C 
ATOM      6  C   LIG d   1       0.437  82.884 110.510  0.00  0.00     0.091 C 
ENDROOT
BRANCH   1   7
ATOM      7  O   LIG d   1       2.018  83.959 108.976  0.00  0.00    -0.368 OA
BRANCH   7   8
ATOM      8  C   LIG d   1       3.053  83.823 109.980  0.00  0.00     0.119 C 
BRANCH   8   9
ATOM      9  C   LIG d   1       3.668  85.219 110.203  0.00  0.00     0.028 C 
ATOM     10  C   LIG d   1       3.582  85.671 111.671  0.00  0.00     0.006 C 
ENDBRANCH   8   9
BRANCH   8  11
ATOM     11  C   LIG d   1       4.206  82.948 109.478  0.00  0.00     0.028 C 
ATOM     12  C   LIG d   1       3.846  82.161 108.208  0.00  0.00     0.006 C 
ENDBRANCH   8  11
ENDBRANCH   7   8
ENDBRANCH   1   7
BRANCH   6  13
ATOM     13  N   LIG d   1       0.328  81.595 109.778  0.00  0.00    -0.311 N 
ATOM     14  C   LIG d   1       1.138  80.560 109.992  0.00  0.00     0.210 C 
ATOM     15  C   LIG d   1       0.866  79.334 109.115  0.00  0.00     0.109 C 
ATOM     16  O   LIG d   1       2.036  80.529 110.848  0.00  0.00    -0.276 OA
ATOM     17  H   LIG d   1      -0.393  81.523 109.087  0.00  0.00     0.149 HD
ENDBRANCH   6  13
BRANCH   5  18
ATOM     18  N   LIG d   1      -0.980  82.187 112.475  0.00  0.00     0.381 N 
ATOM     19  H   LIG d   1      -0.614  81.300 112.192  0.00  0.00    -0.090 HD
ATOM     20  H   LIG d   1      -1.962  82.080 112.658  0.00  0.00    -0.090 HD
ATOM     21  H   LIG d   1      -0.513  82.500 113.297  0.00  0.00    -0.090 HD
ENDBRANCH   5  18
BRANCH   3  22
ATOM     22  C   LIG d   1      -0.779  86.846 111.383  0.00  0.00     0.382 C 
ATOM     23  O   LIG d   1      -1.997  87.130 111.283  0.00  0.00    -0.241 OA
ATOM     24  O   LIG d   1       0.036  87.739 111.684  0.00  0.00    -0.241 OA
ENDBRANCH   3  22
TORSDOF 7
ENDMDL
MODEL 2
REMARK VINA RESULT:      -6.4      2.667      4.831
REMARK  7 active torsions:
REMARK  status: ('A' for Active; 'I' for Inactive)
REMARK    1  A    between atoms: C_2  and  C_3 
REMARK    2  A    between atoms: C_3  and  O_6 
REMARK    3  A    between atoms: C_3  and  C_4 
REMARK    4  A    between atoms: C_7  and  O_6 
REMARK    5  A    between atoms: C_9  and  C_10 
REMARK    6  A    between atoms: N_15  and  C_14 
REMARK    7  A    between atoms: N_20  and  C_19 
REMARK       I    between atoms: C_22  and  N_20 
ROOT
ATOM      1  C   LIG d   1       2.194  83.546 112.187  0.00  0.00     0.161 C 
ATOM      2  C   LIG d   1       1.186  82.575 112.068  0.00  0.00     0.016 C 
ATOM      3  C   LIG d   1      -0.181  82.890 111.894  0.00  0.00     0.038 C 
ATOM      4  C   LIG d   1      -0.617  84.205 111.674  0.00  0.00     0.028 C 
ATOM      5  C   LIG d   1       0.300  85.258 112.288  0.00  0.00    -0.047 C 
ATOM      6  C   LIG d   1       1.753  84.983 111.838  0.00  0.00     0.091 C 
ENDROOT
BRANCH   1   7
ATOM      7  O   LIG d   1       3.335  83.166 111.392  0.00  0.00    -0.368 OA
BRANCH   7   8
ATOM      8  C   LIG d   1       3.048  82.443 110.170  0.00  0.00     0.119 C 
BRANCH   8   9
ATOM      9  C   LIG d   1       4.169  81.406 109.970  0.00  0.00     0.028 C 
ATOM     10  C   LIG d   1       3.666  80.119 109.295  0.00  0.00     0.006 C 
ENDBRANCH   8   9
BRANCH   8  11
ATOM     11  C   LIG d   1       3.125  83.363 108.948  0.00  0.00     0.028 C 
ATOM     12  C   LIG d   1       1.769  83.533 108.243  0.00  0.00     0.006 C 
ENDBRANCH   8  11
ENDBRANCH   7   8
ENDBRANCH   1   7
BRANCH   6  13
ATOM     13  N   LIG d   1       2.726  85.917 112.462  0.00  0.00    -0.311 N 
ATOM     14  C   LIG d   1       3.080  87.079 111.916  0.00  0.00     0.210 C 
ATOM     15  C   LIG d   1       4.113  87.880 112.715  0.00  0.00     0.109 C 
ATOM     16  O   LIG d   1       2.612  87.537 110.863  0.00  0.00    -0.276 OA
ATOM     17  H   LIG d   1       3.131  85.638 113.334  0.00  0.00     0.149 HD
ENDBRANCH   6  13
BRANCH   5  18
ATOM     18  N   LIG d   1      -0.196  86.582 111.866  0.00  0.00     0.381 N 
ATOM     19  H   LIG d   1       0.415  87.297 112.207  0.00  0.00    -0.090 HD
ATOM     20  H   LIG d   1      -1.107  86.730 112.264  0.00  0.00    -0.090 HD
ATOM     21  H   LIG d   1      -0.248  86.625 110.873  0.00  0.00    -0.090 HD
ENDBRANCH   5  18
BRANCH   3  22
ATOM     22  C   LIG d   1      -1.134  81.886 111.979  0.00  0.00     0.382 C 
ATOM     23  O   LIG d   1      -0.862  80.728 111.582  0.00  0.00    -0.241 OA
ATOM     24  O   LIG d   1      -2.277  82.135 112.407  0.00  0.00    -0.241 OA
ENDBRANCH   3  22
TORSDOF 7
ENDMDL
MODEL 3
REMARK VINA RESULT:      -6.4      2.591      4.284
REMARK  7 active torsions:
REMARK  status: ('A' for Active; 'I' for Inactive)
REMARK    1  A    between atoms: C_2  and  C_3 
REMARK    2  A    between atoms: C_3  and  O_6 
REMARK    3  A    between atoms: C_3  and  C_4 
REMARK    4  A    between atoms: C_7  and  O_6 
REMARK    5  A    between atoms: C_9  and  C_10 
REMARK    6  A    between atoms: N_15  and  C_14 
REMARK    7  A    between atoms: N_20  and  C_19 
REMARK       I    between atoms: C_22  and  N_20 
ROOT
ATOM      1  C   LIG d   1       0.327  82.128 111.182  0.00  0.00     0.161 C 
ATOM      2  C   LIG d   1      -0.828  81.932 111.956  0.00  0.00     0.016 C 
ATOM      3  C   LIG d   1      -1.488  80.687 112.068  0.00  0.00     0.038 C 
ATOM      4  C   LIG d   1      -0.946  79.510 111.530  0.00  0.00     0.028 C 
ATOM      5  C   LIG d   1      -0.052  79.753 110.319  0.00  0.00    -0.047 C 
ATOM      6  C   LIG d   1       0.996  80.832 110.677  0.00  0.00     0.091 C 
ENDROOT
BRANCH   1   7
ATOM      7  O   LIG d   1       1.276  82.929 111.914  0.00  0.00    -0.368 OA
BRANCH   7   8
ATOM      8  C   LIG d   1       1.286  84.345 111.607  0.00  0.00     0.119 C 
BRANCH   8   9
ATOM      9  C   LIG d   1       0.719  84.514 110.185  0.00  0.00     0.028 C 
ATOM     10  C   LIG d   1      -0.419  85.547 110.126  0.00  0.00     0.006 C 
ENDBRANCH   8   9
BRANCH   8  11
ATOM     11  C   LIG d   1       2.716  84.890 111.540  0.00  0.00     0.028 C 
ATOM     12  C   LIG d   1       3.225  85.053 110.099  0.00  0.00     0.006 C 
ENDBRANCH   8  11
ENDBRANCH   7   8
ENDBRANCH   1   7
BRANCH   6  13
ATOM     13  N   LIG d   1       1.858  81.191 109.522  0.00  0.00    -0.311 N 
ATOM     14  C   LIG d   1       3.172  81.387 109.620  0.00  0.00     0.210 C 
ATOM     15  C   LIG d   1       3.869  81.769 108.310  0.00  0.00     0.109 C 
ATOM     16  O   LIG d   1       3.831  81.249 110.661  0.00  0.00    -0.276 OA
ATOM     17  H   LIG d   1       1.410  81.293 108.632  0.00  0.00     0.149 HD
ENDBRANCH   6  13
BRANCH   5  18
ATOM     18  N   LIG d   1       0.554  78.461 109.945  0.00  0.00     0.381 N 
ATOM     19  H   LIG d   1       0.162  78.140 109.082  0.00  0.00    -0.090 HD
ATOM     20  H   LIG d   1       0.342  77.785 110.658  0.00  0.00    -0.090 HD
ATOM     21  H   LIG d   1       1.541  78.561 109.854  0.00  0.00    -0.090 HD
ENDBRANCH   5  18
BRANCH   3  22
ATOM     22  C   LIG d   1      -2.725  80.618 112.691  0.00  0.00     0.382 C 
ATOM     23  O   LIG d   1      -3.080  79.559 113.264  0.00  0.00    -0.241 OA
ATOM     24  O   LIG d   1      -3.508  81.585 112.649  0.00  0.00    -0.241 OA
ENDBRANCH   3  22
TORSDOF 7
ENDMDL
MODEL 4
REMARK VINA RESULT:      -6.3      2.613      4.923
REMARK  7 active torsions:
REMARK  status: ('A' for Active; 'I' for Inactive)
REMARK    1  A    between atoms: C_2  and  C_3 
REMARK    2  A    between atoms: C_3  and  O_6 
REMARK    3  A    between atoms: C_3  and  C_4 
REMARK    4  A    between atoms: C_7  and  O_6 
REMARK    5  A    between atoms: C_9  and  C_10 
REMARK    6  A    between atoms: N_15  and  C_14 
REMARK    7  A    between atoms: N_20  and  C_19 
REMARK       I    between atoms: C_22  and  N_20 
ROOT
ATOM      1  C   LIG d   1       1.133  81.435 112.045  0.00  0.00     0.161 C 
ATOM      2  C   LIG d   1       2.289  81.977 111.460  0.00  0.00     0.016 C 
ATOM      3  C   LIG d   1       2.555  81.928 110.072  0.00  0.00     0.038 C 
ATOM      4  C   LIG d   1       1.605  81.462 109.151  0.00  0.00     0.028 C 
ATOM      5  C   LIG d   1       0.636  80.444 109.743  0.00  0.00    -0.047 C 
ATOM      6  C   LIG d   1       0.034  81.022 111.044  0.00  0.00     0.091 C 
ENDROOT
BRANCH   1   7
ATOM      7  O   LIG d   1       0.602  82.353 113.021  0.00  0.00    -0.368 OA
BRANCH   7   8
ATOM      8  C   LIG d   1       0.847  83.759 112.772  0.00  0.00     0.119 C 
BRANCH   8   9
ATOM      9  C   LIG d   1       1.286  84.396 114.105  0.00  0.00     0.028 C 
ATOM     10  C   LIG d   1       1.082  85.920 114.123  0.00  0.00     0.006 C 
ENDBRANCH   8   9
BRANCH   8  11
ATOM     11  C   LIG d   1      -0.442  84.488 112.380  0.00  0.00     0.028 C 
ATOM     12  C   LIG d   1      -0.574  84.691 110.862  0.00  0.00     0.006 C 
ENDBRANCH   8  11
ENDBRANCH   7   8
ENDBRANCH   1   7
BRANCH   6  13
ATOM     13  N   LIG d   1      -0.862  80.056 111.732  0.00  0.00    -0.311 N 
ATOM     14  C   LIG d   1      -1.988  80.411 112.348  0.00  0.00     0.210 C 
ATOM     15  C   LIG d   1      -2.753  79.261 113.011  0.00  0.00     0.109 C 
ATOM     16  O   LIG d   1      -2.444  81.564 112.381  0.00  0.00    -0.276 OA
ATOM     17  H   LIG d   1      -0.584  79.094 111.728  0.00  0.00     0.149 HD
ENDBRANCH   6  13
BRANCH   5  18
ATOM     18  N   LIG d   1      -0.382  80.148 108.717  0.00  0.00     0.381 N 
ATOM     19  H   LIG d   1      -0.158  79.289 108.255  0.00  0.00    -0.090 HD
ATOM     20  H   LIG d   1      -0.377  80.884 108.033  0.00  0.00    -0.090 HD
ATOM     21  H   LIG d   1      -1.282  80.083 109.138  0.00  0.00    -0.090 HD
ENDBRANCH   5  18
BRANCH   3  22
ATOM     22  C   LIG d   1       3.800  82.310 109.597  0.00  0.00     0.382 C 
ATOM     23  O   LIG d   1       4.712  82.614 110.403  0.00  0.00    -0.241 OA
ATOM     24  O   LIG d   1       4.009  82.398 108.372  0.00  0.00    -0.241 OA
ENDBRANCH   3  22
TORSDOF 7
ENDMDL
MODEL 5
REMARK VINA RESULT:      -5.9      2.060      4.206
REMARK  7 active torsions:
REMARK  status: ('A' for Active; 'I' for Inactive)
REMARK    1  A    between atoms: C_2  and  C_3 
REMARK    2  A    between atoms: C_3  and  O_6 
REMARK    3  A    between atoms: C_3  and  C_4 
REMARK    4  A    between atoms: C_7  and  O_6 
REMARK    5  A    between atoms: C_9  and  C_10 
REMARK    6  A    between atoms: N_15  and  C_14 
REMARK    7  A    between atoms: N_20  and  C_19 
REMARK       I    between atoms: C_22  and  N_20 
ROOT
ATOM      1  C   LIG d   1       0.371  82.765 111.209  0.00  0.00     0.161 C 
ATOM      2  C   LIG d   1      -0.517  83.765 111.638  0.00  0.00     0.016 C 
ATOM      3  C   LIG d   1      -0.279  85.147 111.455  0.00  0.00     0.038 C 
ATOM      4  C   LIG d   1       0.799  85.619 110.692  0.00  0.00     0.028 C 
ATOM      5  C   LIG d   1       1.990  84.667 110.671  0.00  0.00    -0.047 C 
ATOM      6  C   LIG d   1       1.498  83.256 110.276  0.00  0.00     0.091 C 
ENDROOT
BRANCH   1   7
ATOM      7  O   LIG d   1      -0.364  81.694 110.585  0.00  0.00    -0.368 OA
BRANCH   7   8
ATOM      8  C   LIG d   1      -0.088  80.359 111.077  0.00  0.00     0.119 C 
BRANCH   8   9
ATOM      9  C   LIG d   1      -0.191  79.394 109.880  0.00  0.00     0.028 C 
ATOM     10  C   LIG d   1       1.188  78.998 109.325  0.00  0.00     0.006 C 
ENDBRANCH   8   9
BRANCH   8  11
ATOM     11  C   LIG d   1      -1.162  79.896 112.065  0.00  0.00     0.028 C 
ATOM     12  C   LIG d   1      -1.732  78.511 111.721  0.00  0.00     0.006 C 
ENDBRANCH   8  11
ENDBRANCH   7   8
ENDBRANCH   1   7
BRANCH   6  13
ATOM     13  N   LIG d   1       2.586  82.245 110.314  0.00  0.00    -0.311 N 
ATOM     14  C   LIG d   1       3.294  81.890 109.243  0.00  0.00     0.210 C 
ATOM     15  C   LIG d   1       4.356  80.815 109.497  0.00  0.00     0.109 C 
ATOM     16  O   LIG d   1       3.166  82.386 108.114  0.00  0.00    -0.276 OA
ATOM     17  H   LIG d   1       2.779  81.815 111.197  0.00  0.00     0.149 HD
ENDBRANCH   6  13
BRANCH   5  18
ATOM     18  N   LIG d   1       2.984  85.217 109.731  0.00  0.00     0.381 N 
ATOM     19  H   LIG d   1       2.530  85.502 108.886  0.00  0.00    -0.090 HD
ATOM     20  H   LIG d   1       3.650  84.500 109.505  0.00  0.00    -0.090 HD
ATOM     21  H   LIG d   1       3.451  85.995 110.144  0.00  0.00    -0.090 HD
ENDBRANCH   5  18
BRANCH   3  22
ATOM     22  C   LIG d   1      -1.104  86.074 112.075  0.00  0.00     0.382 C 
ATOM     23  O   LIG d   1      -1.217  86.076 113.324  0.00  0.00    -0.241 OA
ATOM     24  O   LIG d   1      -1.770  86.879 111.397  0.00  0.00    -0.241 OA
ENDBRANCH   3  22
TORSDOF 7
ENDMDL
MODEL 6
REMARK VINA RESULT:      -5.8      2.365      4.823
REMARK  7 active torsions:
REMARK  status: ('A' for Active; 'I' for Inactive)
REMARK    1  A    between atoms: C_2  and  C_3 
REMARK    2  A    between atoms: C_3  and  O_6 
REMARK    3  A    between atoms: C_3  and  C_4 
REMARK    4  A    between atoms: C_7  and  O_6 
REMARK    5  A    between atoms: C_9  and  C_10 
REMARK    6  A    between atoms: N_15  and  C_14 
REMARK    7  A    between atoms: N_20  and  C_19 
REMARK       I    between atoms: C_22  and  N_20 
ROOT
ATOM      1  C   LIG d   1       0.570  82.413 110.939  0.00  0.00     0.161 C 
ATOM      2  C   LIG d   1       1.342  82.935 109.888  0.00  0.00     0.016 C 
ATOM      3  C   LIG d   1       1.901  82.139 108.862  0.00  0.00     0.038 C 
ATOM      4  C   LIG d   1       1.597  80.775 108.733  0.00  0.00     0.028 C 
ATOM      5  C   LIG d   1       1.233  80.108 110.056  0.00  0.00    -0.047 C 
ATOM      6  C   LIG d   1       0.135  80.943 110.753  0.00  0.00     0.091 C 
ENDROOT
BRANCH   1   7
ATOM      7  O   LIG d   1      -0.581  83.251 111.163  0.00  0.00    -0.368 OA
BRANCH   7   8
ATOM      8  C   LIG d   1      -0.537  84.092 112.342  0.00  0.00     0.119 C 
BRANCH   8   9
ATOM      9  C   LIG d   1      -0.441  85.554 111.863  0.00  0.00     0.028 C 
ATOM     10  C   LIG d   1      -1.014  85.747 110.449  0.00  0.00     0.006 C 
ENDBRANCH   8   9
BRANCH   8  11
ATOM     11  C   LIG d   1       0.738  83.847 113.154  0.00  0.00     0.028 C 
ATOM     12  C   LIG d   1       1.236  85.108 113.877  0.00  0.00     0.006 C 
ENDBRANCH   8  11
ENDBRANCH   7   8
ENDBRANCH   1   7
BRANCH   6  13
ATOM     13  N   LIG d   1      -0.219  80.407 112.093  0.00  0.00    -0.311 N 
ATOM     14  C   LIG d   1      -1.223  79.557 112.300  0.00  0.00     0.210 C 
ATOM     15  C   LIG d   1      -1.430  79.144 113.761  0.00  0.00     0.109 C 
ATOM     16  O   LIG d   1      -1.942  79.080 111.409  0.00  0.00    -0.276 OA
ATOM     17  H   LIG d   1       0.332  80.717 112.869  0.00  0.00     0.149 HD
ENDBRANCH   6  13
BRANCH   5  18
ATOM     18  N   LIG d   1       0.807  78.728 109.756  0.00  0.00     0.381 N 
ATOM     19  H   LIG d   1       1.569  78.098 109.908  0.00  0.00    -0.090 HD
ATOM     20  H   LIG d   1       0.541  78.673 108.789  0.00  0.00    -0.090 HD
ATOM     21  H   LIG d   1       0.037  78.476 110.336  0.00  0.00    -0.090 HD
ENDBRANCH   5  18
BRANCH   3  22
ATOM     22  C   LIG d   1       2.806  82.699 107.974  0.00  0.00     0.382 C 
ATOM     23  O   LIG d   1       2.406  83.159 106.877  0.00  0.00    -0.241 OA
ATOM     24  O   LIG d   1       4.024  82.709 108.236  0.00  0.00    -0.241 OA
ENDBRANCH   3  22
TORSDOF 7
ENDMDL
MODEL 7
REMARK VINA RESULT:      -5.8      2.176      2.809
REMARK  7 active torsions:
REMARK  status: ('A' for Active; 'I' for Inactive)
REMARK    1  A    between atoms: C_2  and  C_3 
REMARK    2  A    between atoms: C_3  and  O_6 
REMARK    3  A    between atoms: C_3  and  C_4 
REMARK    4  A    between atoms: C_7  and  O_6 
REMARK    5  A    between atoms: C_9  and  C_10 
REMARK    6  A    between atoms: N_15  and  C_14 
REMARK    7  A    between atoms: N_20  and  C_19 
REMARK       I    between atoms: C_22  and  N_20 
ROOT
ATOM      1  C   LIG d   1       0.854  83.226 110.699  0.00  0.00     0.161 C 
ATOM      2  C   LIG d   1       1.066  84.604 110.523  0.00  0.00     0.016 C 
ATOM      3  C   LIG d   1       1.353  85.489 111.588  0.00  0.00     0.038 C 
ATOM      4  C   LIG d   1       1.599  85.028 112.889  0.00  0.00     0.028 C 
ATOM      5  C   LIG d   1       0.900  83.711 113.208  0.00  0.00    -0.047 C 
ATOM      6  C   LIG d   1       1.228  82.688 112.096  0.00  0.00     0.091 C 
ENDROOT
BRANCH   1   7
ATOM      7  O   LIG d   1       1.552  82.490 109.675  0.00  0.00    -0.368 OA
BRANCH   7   8
ATOM      8  C   LIG d   1       2.814  83.050 109.235  0.00  0.00     0.119 C 
BRANCH   8   9
ATOM      9  C   LIG d   1       2.874  82.907 107.702  0.00  0.00     0.028 C 
ATOM     10  C   LIG d   1       1.685  83.588 107.002  0.00  0.00     0.006 C 
ENDBRANCH   8   9
BRANCH   8  11
ATOM     11  C   LIG d   1       3.999  82.238 109.765  0.00  0.00     0.028 C 
ATOM     12  C   LIG d   1       3.919  80.750 109.386  0.00  0.00     0.006 C 
ENDBRANCH   8  11
ENDBRANCH   7   8
ENDBRANCH   1   7
BRANCH   6  13
ATOM     13  N   LIG d   1       0.516  81.397 112.286  0.00  0.00    -0.311 N 
ATOM     14  C   LIG d   1      -0.811  81.287 112.299  0.00  0.00     0.210 C 
ATOM     15  C   LIG d   1      -1.340  79.868 112.529  0.00  0.00     0.109 C 
ATOM     16  O   LIG d   1      -1.601  82.225 112.110  0.00  0.00    -0.276 OA
ATOM     17  H   LIG d   1       1.080  80.580 112.415  0.00  0.00     0.149 HD
ENDBRANCH   6  13
BRANCH   5  18
ATOM     18  N   LIG d   1       1.352  83.278 114.543  0.00  0.00     0.381 N 
ATOM     19  H   LIG d   1       1.869  84.014 114.981  0.00  0.00    -0.090 HD
ATOM     20  H   LIG d   1       1.960  82.484 114.439  0.00  0.00    -0.090 HD
ATOM     21  H   LIG d   1       0.567  83.032 115.106  0.00  0.00    -0.090 HD
ENDBRANCH   5  18
BRANCH   3  22
ATOM     22  C   LIG d   1       1.358  86.857 111.361  0.00  0.00     0.382 C 
ATOM     23  O   LIG d   1       2.366  87.406 110.855  0.00  0.00    -0.241 OA
ATOM     24  O   LIG d   1       0.384  87.556 111.698  0.00  0.00    -0.241 OA
ENDBRANCH   3  22
TORSDOF 7
ENDMDL
MODEL 8
REMARK VINA RESULT:      -5.8      3.257      4.704
REMARK  7 active torsions:
REMARK  status: ('A' for Active; 'I' for Inactive)
REMARK    1  A    between atoms: C_2  and  C_3 
REMARK    2  A    between atoms: C_3  and  O_6 
REMARK    3  A    between atoms: C_3  and  C_4 
REMARK    4  A    between atoms: C_7  and  O_6 
REMARK    5  A    between atoms: C_9  and  C_10 
REMARK    6  A    between atoms: N_15  and  C_14 
REMARK    7  A    between atoms: N_20  and  C_19 
REMARK       I    between atoms: C_22  and  N_20 
ROOT
ATOM      1  C   LIG d   1       2.361  86.654 111.910  0.00  0.00     0.161 C 
ATOM      2  C   LIG d   1       2.376  88.025 112.214  0.00  0.00     0.016 C 
ATOM      3  C   LIG d   1       2.984  88.558 113.375  0.00  0.00     0.038 C 
ATOM      4  C   LIG d   1       3.753  87.766 114.239  0.00  0.00     0.028 C 
ATOM      5  C   LIG d   1       3.342  86.297 114.243  0.00  0.00    -0.047 C 
ATOM      6  C   LIG d   1       3.292  85.787 112.784  0.00  0.00     0.091 C 
ENDROOT
BRANCH   1   7
ATOM      7  O   LIG d   1       2.662  86.460 110.514  0.00  0.00    -0.368 OA
BRANCH   7   8
ATOM      8  C   LIG d   1       1.554  86.051 109.674  0.00  0.00     0.119 C 
BRANCH   8   9
ATOM      9  C   LIG d   1       0.258  86.273 110.478  0.00  0.00     0.028 C 
ATOM     10  C   LIG d   1      -0.679  85.054 110.429  0.00  0.00     0.006 C 
ENDBRANCH   8   9
BRANCH   8  11
ATOM     11  C   LIG d   1       1.599  84.548 109.384  0.00  0.00     0.028 C 
ATOM     12  C   LIG d   1       3.032  83.998 109.314  0.00  0.00     0.006 C 
ENDBRANCH   8  11
ENDBRANCH   7   8
ENDBRANCH   1   7
BRANCH   6  13
ATOM     13  N   LIG d   1       2.816  84.382 112.691  0.00  0.00    -0.311 N 
ATOM     14  C   LIG d   1       1.637  83.975 113.158  0.00  0.00     0.210 C 
ATOM     15  C   LIG d   1       1.352  82.480 112.978  0.00  0.00     0.109 C 
ATOM     16  O   LIG d   1       0.788  84.715 113.676  0.00  0.00    -0.276 OA
ATOM     17  H   LIG d   1       3.430  83.720 112.258  0.00  0.00     0.149 HD
ENDBRANCH   6  13
BRANCH   5  18
ATOM     18  N   LIG d   1       4.312  85.565 115.078  0.00  0.00     0.381 N 
ATOM     19  H   LIG d   1       4.724  86.187 115.745  0.00  0.00    -0.090 HD
ATOM     20  H   LIG d   1       5.043  85.205 114.489  0.00  0.00    -0.090 HD
ATOM     21  H   LIG d   1       3.857  84.815 115.551  0.00  0.00    -0.090 HD
ENDBRANCH   5  18
BRANCH   3  22
ATOM     22  C   LIG d   1       2.789  89.892 113.701  0.00  0.00     0.382 C 
ATOM     23  O   LIG d   1       2.084  90.198 114.693  0.00  0.00    -0.241 OA
ATOM     24  O   LIG d   1       3.274  90.793 112.991  0.00  0.00    -0.241 OA
ENDBRANCH   3  22
TORSDOF 7
ENDMDL
MODEL 9
REMARK VINA RESULT:      -5.4      3.247      4.629
REMARK  7 active torsions:
REMARK  status: ('A' for Active; 'I' for Inactive)
REMARK    1  A    between atoms: C_2  and  C_3 
REMARK    2  A    between atoms: C_3  and  O_6 
REMARK    3  A    between atoms: C_3  and  C_4 
REMARK    4  A    between atoms: C_7  and  O_6 
REMARK    5  A    between atoms: C_9  and  C_10 
REMARK    6  A    between atoms: N_15  and  C_14 
REMARK    7  A    between atoms: N_20  and  C_19 
REMARK       I    between atoms: C_22  and  N_20 
ROOT
ATOM      1  C   LIG d   1       3.691  85.556 112.239  0.00  0.00     0.161 C 
ATOM      2  C   LIG d   1       3.487  86.780 112.898  0.00  0.00     0.016 C 
ATOM      3  C   LIG d   1       2.563  87.756 112.458  0.00  0.00     0.038 C 
ATOM      4  C   LIG d   1       1.666  87.508 111.409  0.00  0.00     0.028 C 
ATOM      5  C   LIG d   1       2.181  86.488 110.400  0.00  0.00    -0.047 C 
ATOM      6  C   LIG d   1       2.643  85.222 111.157  0.00  0.00     0.091 C 
ENDROOT
BRANCH   1   7
ATOM      7  O   LIG d   1       3.773  84.489 113.205  0.00  0.00    -0.368 OA
BRANCH   7   8
ATOM      8  C   LIG d   1       2.977  84.653 114.404  0.00  0.00     0.119 C 
BRANCH   8   9
ATOM      9  C   LIG d   1       3.905  84.416 115.611  0.00  0.00     0.028 C 
ATOM     10  C   LIG d   1       4.259  85.720 116.345  0.00  0.00     0.006 C 
ENDBRANCH   8   9
BRANCH   8  11
ATOM     11  C   LIG d   1       1.895  83.574 114.507  0.00  0.00     0.028 C 
ATOM     12  C   LIG d   1       2.196  82.529 115.593  0.00  0.00     0.006 C 
ENDBRANCH   8  11
ENDBRANCH   7   8
ENDBRANCH   1   7
BRANCH   6  13
ATOM     13  N   LIG d   1       3.240  84.205 110.252  0.00  0.00    -0.311 N 
ATOM     14  C   LIG d   1       2.537  83.227 109.683  0.00  0.00     0.210 C 
ATOM     15  C   LIG d   1       3.350  82.275 108.801  0.00  0.00     0.109 C 
ATOM     16  O   LIG d   1       1.311  83.077 109.800  0.00  0.00    -0.276 OA
ATOM     17  H   LIG d   1       4.223  84.271 110.078  0.00  0.00     0.149 HD
ENDBRANCH   6  13
BRANCH   5  18
ATOM     18  N   LIG d   1       1.094  86.222 109.439  0.00  0.00     0.381 N 
ATOM     19  H   LIG d   1       1.076  86.939 108.741  0.00  0.00    -0.090 HD
ATOM     20  H   LIG d   1       0.217  86.237 109.929  0.00  0.00    -0.090 HD
ATOM     21  H   LIG d   1       1.228  85.333 109.010  0.00  0.00    -0.090 HD
ENDBRANCH   5  18
BRANCH   3  22
ATOM     22  C   LIG d   1       2.558  89.012 113.046  0.00  0.00     0.382 C 
ATOM     23  O   LIG d   1       3.293  89.243 114.036  0.00  0.00    -0.241 OA
ATOM     24  O   LIG d   1       1.795  89.903 112.627  0.00  0.00    -0.241 OA
ENDBRANCH   3  22
TORSDOF 7
ENDMDL
