MODEL 1
REMARK VINA RESULT:      -6.3      0.000      0.000
REMARK  7 active torsions:
REMARK  status: ('A' for Active; 'I' for Inactive)
REMARK    1  A    between atoms: C_2  and  C_3 
REMARK    2  A    between atoms: C_3  and  O_6 
REMARK    3  A    between atoms: C_3  and  C_4 
REMARK    4  A    between atoms: C_7  and  O_6 
REMARK    5  A    between atoms: C_9  and  C_10 
REMARK    6  A    between atoms: N_15  and  C_14 
REMARK    7  A    between atoms: N_20  and  C_19 
REMARK       I    between atoms: C_22  and  N_20 
ROOT
ATOM      1  C   LIG d   1      -3.319  76.224 115.367  0.00  0.00     0.161 C 
ATOM      2  C   LIG d   1      -3.656  76.893 114.178  0.00  0.00     0.016 C 
ATOM      3  C   LIG d   1      -2.701  77.492 113.325  0.00  0.00     0.038 C 
ATOM      4  C   LIG d   1      -1.322  77.332 113.527  0.00  0.00     0.028 C 
ATOM      5  C   LIG d   1      -0.947  77.096 114.986  0.00  0.00    -0.047 C 
ATOM      6  C   LIG d   1      -1.812  75.944 115.546  0.00  0.00     0.091 C 
ENDROOT
BRANCH   1   7
ATOM      7  O   LIG d   1      -4.072  75.000 115.469  0.00  0.00    -0.368 OA
BRANCH   7   8
ATOM      8  C   LIG d   1      -5.387  75.008 114.862  0.00  0.00     0.119 C 
BRANCH   8   9
ATOM      9  C   LIG d   1      -6.414  75.260 115.983  0.00  0.00     0.028 C 
ATOM     10  C   LIG d   1      -6.954  76.700 115.972  0.00  0.00     0.006 C 
ENDBRANCH   8   9
BRANCH   8  11
ATOM     11  C   LIG d   1      -5.744  73.634 114.286  0.00  0.00     0.028 C 
ATOM     12  C   LIG d   1      -6.526  72.758 115.278  0.00  0.00     0.006 C 
ENDBRANCH   8  11
ENDBRANCH   7   8
ENDBRANCH   1   7
BRANCH   6  13
ATOM     13  N   LIG d   1      -1.568  75.703 116.992  0.00  0.00    -0.311 N 
ATOM     14  C   LIG d   1      -1.466  74.487 117.526  0.00  0.00     0.210 C 
ATOM     15  C   LIG d   1      -1.234  74.463 119.040  0.00  0.00     0.109 C 
ATOM     16  O   LIG d   1      -1.514  73.427 116.885  0.00  0.00    -0.276 OA
ATOM     17  H   LIG d   1      -1.485  76.508 117.581  0.00  0.00     0.149 HD
ENDBRANCH   6  13
BRANCH   5  18
ATOM     18  N   LIG d   1       0.499  76.809 115.033  0.00  0.00     0.381 N 
ATOM     19  H   LIG d   1       0.663  75.853 114.786  0.00  0.00    -0.090 HD
ATOM     20  H   LIG d   1       0.828  76.953 115.972  0.00  0.00    -0.090 HD
ATOM     21  H   LIG d   1       0.987  77.410 114.407  0.00  0.00    -0.090 HD
ENDBRANCH   5  18
BRANCH   3  22
ATOM     22  C   LIG d   1      -3.124  78.296 112.277  0.00  0.00     0.382 C 
ATOM     23  O   LIG d   1      -3.292  77.802 111.136  0.00  0.00    -0.241 OA
ATOM     24  O   LIG d   1      -3.298  79.518 112.448  0.00  0.00    -0.241 OA
ENDBRANCH   3  22
TORSDOF 7
ENDMDL
MODEL 2
REMARK VINA RESULT:      -6.3      6.446      9.381
REMARK  7 active torsions:
REMARK  status: ('A' for Active; 'I' for Inactive)
REMARK    1  A    between atoms: C_2  and  C_3 
REMARK    2  A    between atoms: C_3  and  O_6 
REMARK    3  A    between atoms: C_3  and  C_4 
REMARK    4  A    between atoms: C_7  and  O_6 
REMARK    5  A    between atoms: C_9  and  C_10 
REMARK    6  A    between atoms: N_15  and  C_14 
REMARK    7  A    between atoms: N_20  and  C_19 
REMARK       I    between atoms: C_22  and  N_20 
ROOT
ATOM      1  C   LIG d   1       1.314  81.812 112.269  0.00  0.00     0.161 C 
ATOM      2  C   LIG d   1       2.438  82.249 111.549  0.00  0.00     0.016 C 
ATOM      3  C   LIG d   1       2.659  81.937 110.187  0.00  0.00     0.038 C 
ATOM      4  C   LIG d   1       1.689  81.289 109.408  0.00  0.00     0.028 C 
ATOM      5  C   LIG d   1       0.763  80.389 110.219  0.00  0.00    -0.047 C 
ATOM      6  C   LIG d   1       0.192  81.198 111.407  0.00  0.00     0.091 C 
ENDROOT
BRANCH   1   7
ATOM      7  O   LIG d   1       0.796  82.893 113.070  0.00  0.00    -0.368 OA
BRANCH   7   8
ATOM      8  C   LIG d   1       0.876  84.215 112.484  0.00  0.00     0.119 C 
BRANCH   8   9
ATOM      9  C   LIG d   1       1.269  85.196 113.605  0.00  0.00     0.028 C 
ATOM     10  C   LIG d   1       2.741  85.048 114.026  0.00  0.00     0.006 C 
ENDBRANCH   8   9
BRANCH   8  11
ATOM     11  C   LIG d   1      -0.494  84.690 111.991  0.00  0.00     0.028 C 
ATOM     12  C   LIG d   1      -0.615  84.674 110.459  0.00  0.00     0.006 C 
ENDBRANCH   8  11
ENDBRANCH   7   8
ENDBRANCH   1   7
BRANCH   6  13
ATOM     13  N   LIG d   1      -0.659  80.368 112.300  0.00  0.00    -0.311 N 
ATOM     14  C   LIG d   1      -1.908  80.692 112.631  0.00  0.00     0.210 C 
ATOM     15  C   LIG d   1      -2.601  79.709 113.580  0.00  0.00     0.109 C 
ATOM     16  O   LIG d   1      -2.519  81.683 112.203  0.00  0.00    -0.276 OA
ATOM     17  H   LIG d   1      -0.253  79.530 112.667  0.00  0.00     0.149 HD
ENDBRANCH   6  13
BRANCH   5  18
ATOM     18  N   LIG d   1      -0.281  79.886 109.307  0.00  0.00     0.381 N 
ATOM     19  H   LIG d   1       0.079  79.835 108.375  0.00  0.00    -0.090 HD
ATOM     20  H   LIG d   1      -1.054  80.529 109.311  0.00  0.00    -0.090 HD
ATOM     21  H   LIG d   1      -0.587  78.985 109.602  0.00  0.00    -0.090 HD
ENDBRANCH   5  18
BRANCH   3  22
ATOM     22  C   LIG d   1       3.879  82.240 109.602  0.00  0.00     0.382 C 
ATOM     23  O   LIG d   1       4.678  81.320 109.305  0.00  0.00    -0.241 OA
ATOM     24  O   LIG d   1       4.210  83.426 109.409  0.00  0.00    -0.241 OA
ENDBRANCH   3  22
TORSDOF 7
ENDMDL
MODEL 3
REMARK VINA RESULT:      -6.2      9.798     11.775
REMARK  7 active torsions:
REMARK  status: ('A' for Active; 'I' for Inactive)
REMARK    1  A    between atoms: C_2  and  C_3 
REMARK    2  A    between atoms: C_3  and  O_6 
REMARK    3  A    between atoms: C_3  and  C_4 
REMARK    4  A    between atoms: C_7  and  O_6 
REMARK    5  A    between atoms: C_9  and  C_10 
REMARK    6  A    between atoms: N_15  and  C_14 
REMARK    7  A    between atoms: N_20  and  C_19 
REMARK       I    between atoms: C_22  and  N_20 
ROOT
ATOM      1  C   LIG d   1       2.133  84.970 111.037  0.00  0.00     0.161 C 
ATOM      2  C   LIG d   1       1.088  85.821 111.435  0.00  0.00     0.016 C 
ATOM      3  C   LIG d   1      -0.273  85.438 111.430  0.00  0.00     0.038 C 
ATOM      4  C   LIG d   1      -0.670  84.118 111.169  0.00  0.00     0.028 C 
ATOM      5  C   LIG d   1       0.303  83.359 110.273  0.00  0.00    -0.047 C 
ATOM      6  C   LIG d   1       1.729  83.492 110.855  0.00  0.00     0.091 C 
ENDROOT
BRANCH   1   7
ATOM      7  O   LIG d   1       3.231  85.079 111.964  0.00  0.00    -0.368 OA
BRANCH   7   8
ATOM      8  C   LIG d   1       3.386  86.361 112.621  0.00  0.00     0.119 C 
BRANCH   8   9
ATOM      9  C   LIG d   1       4.523  87.115 111.905  0.00  0.00     0.028 C 
ATOM     10  C   LIG d   1       5.177  88.180 112.801  0.00  0.00     0.006 C 
ENDBRANCH   8   9
BRANCH   8  11
ATOM     11  C   LIG d   1       3.860  86.191 114.068  0.00  0.00     0.028 C 
ATOM     12  C   LIG d   1       2.725  85.794 115.025  0.00  0.00     0.006 C 
ENDBRANCH   8  11
ENDBRANCH   7   8
ENDBRANCH   1   7
BRANCH   6  13
ATOM     13  N   LIG d   1       2.755  82.849 109.993  0.00  0.00    -0.311 N 
ATOM     14  C   LIG d   1       3.632  81.952 110.442  0.00  0.00     0.210 C 
ATOM     15  C   LIG d   1       4.616  81.428 109.392  0.00  0.00     0.109 C 
ATOM     16  O   LIG d   1       3.666  81.517 111.603  0.00  0.00    -0.276 OA
ATOM     17  H   LIG d   1       2.778  83.121 109.030  0.00  0.00     0.149 HD
ENDBRANCH   6  13
BRANCH   5  18
ATOM     18  N   LIG d   1      -0.161  81.960 110.195  0.00  0.00     0.381 N 
ATOM     19  H   LIG d   1      -0.541  81.780 109.288  0.00  0.00    -0.090 HD
ATOM     20  H   LIG d   1      -0.887  81.821 110.875  0.00  0.00    -0.090 HD
ATOM     21  H   LIG d   1       0.597  81.339 110.376  0.00  0.00    -0.090 HD
ENDBRANCH   5  18
BRANCH   3  22
ATOM     22  C   LIG d   1      -1.256  86.390 111.651  0.00  0.00     0.382 C 
ATOM     23  O   LIG d   1      -1.901  86.388 112.727  0.00  0.00    -0.241 OA
ATOM     24  O   LIG d   1      -1.537  87.224 110.769  0.00  0.00    -0.241 OA
ENDBRANCH   3  22
TORSDOF 7
ENDMDL
MODEL 4
REMARK VINA RESULT:      -6.2      3.691      5.893
REMARK  7 active torsions:
REMARK  status: ('A' for Active; 'I' for Inactive)
REMARK    1  A    between atoms: C_2  and  C_3 
REMARK    2  A    between atoms: C_3  and  O_6 
REMARK    3  A    between atoms: C_3  and  C_4 
REMARK    4  A    between atoms: C_7  and  O_6 
REMARK    5  A    between atoms: C_9  and  C_10 
REMARK    6  A    between atoms: N_15  and  C_14 
REMARK    7  A    between atoms: N_20  and  C_19 
REMARK       I    between atoms: C_22  and  N_20 
ROOT
ATOM      1  C   LIG d   1      -7.354  76.253 117.277  0.00  0.00     0.161 C 
ATOM      2  C   LIG d   1      -8.611  76.780 117.615  0.00  0.00     0.016 C 
ATOM      3  C   LIG d   1      -8.834  78.151 117.882  0.00  0.00     0.038 C 
ATOM      4  C   LIG d   1      -7.837  79.117 117.680  0.00  0.00     0.028 C 
ATOM      5  C   LIG d   1      -6.422  78.568 117.828  0.00  0.00    -0.047 C 
ATOM      6  C   LIG d   1      -6.278  77.308 116.944  0.00  0.00     0.091 C 
ENDROOT
BRANCH   1   7
ATOM      7  O   LIG d   1      -7.492  75.318 116.189  0.00  0.00    -0.368 OA
BRANCH   7   8
ATOM      8  C   LIG d   1      -7.255  73.925 116.511  0.00  0.00     0.119 C 
BRANCH   8   9
ATOM      9  C   LIG d   1      -6.510  73.294 115.319  0.00  0.00     0.028 C 
ATOM     10  C   LIG d   1      -5.791  74.344 114.455  0.00  0.00     0.006 C 
ENDBRANCH   8   9
BRANCH   8  11
ATOM     11  C   LIG d   1      -8.570  73.149 116.625  0.00  0.00     0.028 C 
ATOM     12  C   LIG d   1      -8.392  71.639 116.400  0.00  0.00     0.006 C 
ENDBRANCH   8  11
ENDBRANCH   7   8
ENDBRANCH   1   7
BRANCH   6  13
ATOM     13  N   LIG d   1      -4.950  76.660 117.094  0.00  0.00    -0.311 N 
ATOM     14  C   LIG d   1      -3.920  76.901 116.284  0.00  0.00     0.210 C 
ATOM     15  C   LIG d   1      -2.647  76.111 116.604  0.00  0.00     0.109 C 
ATOM     16  O   LIG d   1      -3.930  77.719 115.352  0.00  0.00    -0.276 OA
ATOM     17  H   LIG d   1      -4.844  76.005 117.844  0.00  0.00     0.149 HD
ENDBRANCH   6  13
BRANCH   5  18
ATOM     18  N   LIG d   1      -5.485  79.645 117.457  0.00  0.00     0.381 N 
ATOM     19  H   LIG d   1      -5.727  80.010 116.557  0.00  0.00    -0.090 HD
ATOM     20  H   LIG d   1      -4.557  79.264 117.404  0.00  0.00    -0.090 HD
ATOM     21  H   LIG d   1      -5.516  80.373 118.137  0.00  0.00    -0.090 HD
ENDBRANCH   5  18
BRANCH   3  22
ATOM     22  C   LIG d   1     -10.055  78.561 118.395  0.00  0.00     0.382 C 
ATOM     23  O   LIG d   1     -10.935  77.712 118.674  0.00  0.00    -0.241 OA
ATOM     24  O   LIG d   1     -10.304  79.773 118.540  0.00  0.00    -0.241 OA
ENDBRANCH   3  22
TORSDOF 7
ENDMDL
MODEL 5
REMARK VINA RESULT:      -6.2      9.038     11.752
REMARK  7 active torsions:
REMARK  status: ('A' for Active; 'I' for Inactive)
REMARK    1  A    between atoms: C_2  and  C_3 
REMARK    2  A    between atoms: C_3  and  O_6 
REMARK    3  A    between atoms: C_3  and  C_4 
REMARK    4  A    between atoms: C_7  and  O_6 
REMARK    5  A    between atoms: C_9  and  C_10 
REMARK    6  A    between atoms: N_15  and  C_14 
REMARK    7  A    between atoms: N_20  and  C_19 
REMARK       I    between atoms: C_22  and  N_20 
ROOT
ATOM      1  C   LIG d   1       2.883  84.627 111.257  0.00  0.00     0.161 C 
ATOM      2  C   LIG d   1       3.161  85.918 111.735  0.00  0.00     0.016 C 
ATOM      3  C   LIG d   1       2.231  86.982 111.688  0.00  0.00     0.038 C 
ATOM      4  C   LIG d   1       0.899  86.785 111.295  0.00  0.00     0.028 C 
ATOM      5  C   LIG d   1       0.718  85.618 110.331  0.00  0.00    -0.047 C 
ATOM      6  C   LIG d   1       1.399  84.365 110.927  0.00  0.00     0.091 C 
ENDROOT
BRANCH   1   7
ATOM      7  O   LIG d   1       3.369  83.644 112.193  0.00  0.00    -0.368 OA
BRANCH   7   8
ATOM      8  C   LIG d   1       4.646  83.037 111.875  0.00  0.00     0.119 C 
BRANCH   8   9
ATOM      9  C   LIG d   1       4.718  82.888 110.343  0.00  0.00     0.028 C 
ATOM     10  C   LIG d   1       4.796  81.417 109.900  0.00  0.00     0.006 C 
ENDBRANCH   8   9
BRANCH   8  11
ATOM     11  C   LIG d   1       4.738  81.611 112.426  0.00  0.00     0.028 C 
ATOM     12  C   LIG d   1       4.276  81.507 113.889  0.00  0.00     0.006 C 
ENDBRANCH   8  11
ENDBRANCH   7   8
ENDBRANCH   1   7
BRANCH   6  13
ATOM     13  N   LIG d   1       1.342  83.198 110.009  0.00  0.00    -0.311 N 
ATOM     14  C   LIG d   1       1.060  81.960 110.412  0.00  0.00     0.210 C 
ATOM     15  C   LIG d   1       1.072  80.900 109.306  0.00  0.00     0.109 C 
ATOM     16  O   LIG d   1       0.769  81.645 111.576  0.00  0.00    -0.276 OA
ATOM     17  H   LIG d   1       1.534  83.369 109.041  0.00  0.00     0.149 HD
ENDBRANCH   6  13
BRANCH   5  18
ATOM     18  N   LIG d   1      -0.730  85.441 110.113  0.00  0.00     0.381 N 
ATOM     19  H   LIG d   1      -1.042  84.607 110.569  0.00  0.00    -0.090 HD
ATOM     20  H   LIG d   1      -0.901  85.343 109.127  0.00  0.00    -0.090 HD
ATOM     21  H   LIG d   1      -1.227  86.228 110.467  0.00  0.00    -0.090 HD
ENDBRANCH   5  18
BRANCH   3  22
ATOM     22  C   LIG d   1       2.643  88.269 112.000  0.00  0.00     0.382 C 
ATOM     23  O   LIG d   1       3.845  88.491 112.281  0.00  0.00    -0.241 OA
ATOM     24  O   LIG d   1       1.819  89.202 112.047  0.00  0.00    -0.241 OA
ENDBRANCH   3  22
TORSDOF 7
ENDMDL
MODEL 6
REMARK VINA RESULT:      -6.1      9.206     11.803
REMARK  7 active torsions:
REMARK  status: ('A' for Active; 'I' for Inactive)
REMARK    1  A    between atoms: C_2  and  C_3 
REMARK    2  A    between atoms: C_3  and  O_6 
REMARK    3  A    between atoms: C_3  and  C_4 
REMARK    4  A    between atoms: C_7  and  O_6 
REMARK    5  A    between atoms: C_9  and  C_10 
REMARK    6  A    between atoms: N_15  and  C_14 
REMARK    7  A    between atoms: N_20  and  C_19 
REMARK       I    between atoms: C_22  and  N_20 
ROOT
ATOM      1  C   LIG d   1       2.612  84.571 113.166  0.00  0.00     0.161 C 
ATOM      2  C   LIG d   1       1.558  83.743 112.743  0.00  0.00     0.016 C 
ATOM      3  C   LIG d   1       0.606  84.130 111.772  0.00  0.00     0.038 C 
ATOM      4  C   LIG d   1       0.733  85.322 111.044  0.00  0.00     0.028 C 
ATOM      5  C   LIG d   1       1.492  86.412 111.792  0.00  0.00    -0.047 C 
ATOM      6  C   LIG d   1       2.831  85.831 112.302  0.00  0.00     0.091 C 
ENDROOT
BRANCH   1   7
ATOM      7  O   LIG d   1       3.830  83.805 113.253  0.00  0.00    -0.368 OA
BRANCH   7   8
ATOM      8  C   LIG d   1       3.947  82.688 112.339  0.00  0.00     0.119 C 
BRANCH   8   9
ATOM      9  C   LIG d   1       4.598  81.524 113.111  0.00  0.00     0.028 C 
ATOM     10  C   LIG d   1       4.135  81.460 114.576  0.00  0.00     0.006 C 
ENDBRANCH   8   9
BRANCH   8  11
ATOM     11  C   LIG d   1       4.913  83.004 111.193  0.00  0.00     0.028 C 
ATOM     12  C   LIG d   1       4.192  83.267 109.862  0.00  0.00     0.006 C 
ENDBRANCH   8  11
ENDBRANCH   7   8
ENDBRANCH   1   7
BRANCH   6  13
ATOM     13  N   LIG d   1       3.599  86.807 113.118  0.00  0.00    -0.311 N 
ATOM     14  C   LIG d   1       4.602  87.538 112.635  0.00  0.00     0.210 C 
ATOM     15  C   LIG d   1       5.272  88.468 113.651  0.00  0.00     0.109 C 
ATOM     16  O   LIG d   1       4.980  87.527 111.454  0.00  0.00    -0.276 OA
ATOM     17  H   LIG d   1       3.338  86.902 114.080  0.00  0.00     0.149 HD
ENDBRANCH   6  13
BRANCH   5  18
ATOM     18  N   LIG d   1       1.670  87.547 110.868  0.00  0.00     0.381 N 
ATOM     19  H   LIG d   1       2.559  87.478 110.414  0.00  0.00    -0.090 HD
ATOM     20  H   LIG d   1       1.651  88.402 111.395  0.00  0.00    -0.090 HD
ATOM     21  H   LIG d   1       0.941  87.551 110.188  0.00  0.00    -0.090 HD
ENDBRANCH   5  18
BRANCH   3  22
ATOM     22  C   LIG d   1      -0.510  83.338 111.550  0.00  0.00     0.382 C 
ATOM     23  O   LIG d   1      -1.431  83.299 112.402  0.00  0.00    -0.241 OA
ATOM     24  O   LIG d   1      -0.588  82.628 110.530  0.00  0.00    -0.241 OA
ENDBRANCH   3  22
TORSDOF 7
ENDMDL
MODEL 7
REMARK VINA RESULT:      -6.0      1.383      4.857
REMARK  7 active torsions:
REMARK  status: ('A' for Active; 'I' for Inactive)
REMARK    1  A    between atoms: C_2  and  C_3 
REMARK    2  A    between atoms: C_3  and  O_6 
REMARK    3  A    between atoms: C_3  and  C_4 
REMARK    4  A    between atoms: C_7  and  O_6 
REMARK    5  A    between atoms: C_9  and  C_10 
REMARK    6  A    between atoms: N_15  and  C_14 
REMARK    7  A    between atoms: N_20  and  C_19 
REMARK       I    between atoms: C_22  and  N_20 
ROOT
ATOM      1  C   LIG d   1      -2.641  75.485 114.740  0.00  0.00     0.161 C 
ATOM      2  C   LIG d   1      -2.565  74.775 115.950  0.00  0.00     0.016 C 
ATOM      3  C   LIG d   1      -1.700  75.133 117.009  0.00  0.00     0.038 C 
ATOM      4  C   LIG d   1      -0.956  76.322 116.989  0.00  0.00     0.028 C 
ATOM      5  C   LIG d   1      -0.620  76.803 115.582  0.00  0.00    -0.047 C 
ATOM      6  C   LIG d   1      -1.919  76.849 114.744  0.00  0.00     0.091 C 
ENDROOT
BRANCH   1   7
ATOM      7  O   LIG d   1      -4.020  75.650 114.356  0.00  0.00    -0.368 OA
BRANCH   7   8
ATOM      8  C   LIG d   1      -5.004  75.068 115.247  0.00  0.00     0.119 C 
BRANCH   8   9
ATOM      9  C   LIG d   1      -5.795  74.020 114.441  0.00  0.00     0.028 C 
ATOM     10  C   LIG d   1      -6.534  73.020 115.346  0.00  0.00     0.006 C 
ENDBRANCH   8   9
BRANCH   8  11
ATOM     11  C   LIG d   1      -6.039  76.107 115.689  0.00  0.00     0.028 C 
ATOM     12  C   LIG d   1      -5.546  76.982 116.851  0.00  0.00     0.006 C 
ENDBRANCH   8  11
ENDBRANCH   7   8
ENDBRANCH   1   7
BRANCH   6  13
ATOM     13  N   LIG d   1      -1.668  77.229 113.329  0.00  0.00    -0.311 N 
ATOM     14  C   LIG d   1      -2.289  78.237 112.720  0.00  0.00     0.210 C 
ATOM     15  C   LIG d   1      -1.898  78.446 111.253  0.00  0.00     0.109 C 
ATOM     16  O   LIG d   1      -3.104  78.997 113.263  0.00  0.00    -0.276 OA
ATOM     17  H   LIG d   1      -0.998  76.684 112.823  0.00  0.00     0.149 HD
ENDBRANCH   6  13
BRANCH   5  18
ATOM     18  N   LIG d   1       0.035  78.119 115.705  0.00  0.00     0.381 N 
ATOM     19  H   LIG d   1       0.122  78.365 116.671  0.00  0.00    -0.090 HD
ATOM     20  H   LIG d   1      -0.538  78.811 115.254  0.00  0.00    -0.090 HD
ATOM     21  H   LIG d   1       0.934  78.094 115.278  0.00  0.00    -0.090 HD
ENDBRANCH   5  18
BRANCH   3  22
ATOM     22  C   LIG d   1      -1.542  74.275 118.087  0.00  0.00     0.382 C 
ATOM     23  O   LIG d   1      -1.832  73.060 117.969  0.00  0.00    -0.241 OA
ATOM     24  O   LIG d   1      -1.156  74.710 119.189  0.00  0.00    -0.241 OA
ENDBRANCH   3  22
TORSDOF 7
ENDMDL
MODEL 8
REMARK VINA RESULT:      -5.5     14.870     17.214
REMARK  7 active torsions:
REMARK  status: ('A' for Active; 'I' for Inactive)
REMARK    1  A    between atoms: C_2  and  C_3 
REMARK    2  A    between atoms: C_3  and  O_6 
REMARK    3  A    between atoms: C_3  and  C_4 
REMARK    4  A    between atoms: C_7  and  O_6 
REMARK    5  A    between atoms: C_9  and  C_10 
REMARK    6  A    between atoms: N_15  and  C_14 
REMARK    7  A    between atoms: N_20  and  C_19 
REMARK       I    between atoms: C_22  and  N_20 
ROOT
ATOM      1  C   LIG d   1     -16.299  65.928 116.110  0.00  0.00     0.161 C 
ATOM      2  C   LIG d   1     -15.797  67.099 115.518  0.00  0.00     0.016 C 
ATOM      3  C   LIG d   1     -15.731  67.297 114.119  0.00  0.00     0.038 C 
ATOM      4  C   LIG d   1     -16.307  66.393 113.215  0.00  0.00     0.028 C 
ATOM      5  C   LIG d   1     -16.372  64.965 113.745  0.00  0.00    -0.047 C 
ATOM      6  C   LIG d   1     -17.034  64.978 115.142  0.00  0.00     0.091 C 
ENDROOT
BRANCH   1   7
ATOM      7  O   LIG d   1     -17.152  66.270 117.220  0.00  0.00    -0.368 OA
BRANCH   7   8
ATOM      8  C   LIG d   1     -16.663  65.907 118.535  0.00  0.00     0.119 C 
BRANCH   8   9
ATOM      9  C   LIG d   1     -16.303  67.212 119.271  0.00  0.00     0.028 C 
ATOM     10  C   LIG d   1     -17.094  68.421 118.743  0.00  0.00     0.006 C 
ENDBRANCH   8   9
BRANCH   8  11
ATOM     11  C   LIG d   1     -15.354  65.118 118.444  0.00  0.00     0.028 C 
ATOM     12  C   LIG d   1     -15.460  63.714 119.060  0.00  0.00     0.006 C 
ENDBRANCH   8  11
ENDBRANCH   7   8
ENDBRANCH   1   7
BRANCH   6  13
ATOM     13  N   LIG d   1     -17.061  63.630 115.769  0.00  0.00    -0.311 N 
ATOM     14  C   LIG d   1     -18.084  62.787 115.649  0.00  0.00     0.210 C 
ATOM     15  C   LIG d   1     -17.916  61.457 116.391  0.00  0.00     0.109 C 
ATOM     16  O   LIG d   1     -19.101  63.000 114.972  0.00  0.00    -0.276 OA
ATOM     17  H   LIG d   1     -16.262  63.363 116.310  0.00  0.00     0.149 HD
ENDBRANCH   6  13
BRANCH   5  18
ATOM     18  N   LIG d   1     -17.117  64.157 112.760  0.00  0.00     0.381 N 
ATOM     19  H   LIG d   1     -16.593  63.337 112.529  0.00  0.00    -0.090 HD
ATOM     20  H   LIG d   1     -17.240  64.699 111.922  0.00  0.00    -0.090 HD
ATOM     21  H   LIG d   1     -18.005  63.900 113.131  0.00  0.00    -0.090 HD
ENDBRANCH   5  18
BRANCH   3  22
ATOM     22  C   LIG d   1     -15.048  68.392 113.612  0.00  0.00     0.382 C 
ATOM     23  O   LIG d   1     -14.602  69.269 114.391  0.00  0.00    -0.241 OA
ATOM     24  O   LIG d   1     -14.912  68.537 112.382  0.00  0.00    -0.241 OA
ENDBRANCH   3  22
TORSDOF 7
ENDMDL
MODEL 9
REMARK VINA RESULT:      -5.4      9.531     11.984
REMARK  7 active torsions:
REMARK  status: ('A' for Active; 'I' for Inactive)
REMARK    1  A    between atoms: C_2  and  C_3 
REMARK    2  A    between atoms: C_3  and  O_6 
REMARK    3  A    between atoms: C_3  and  C_4 
REMARK    4  A    between atoms: C_7  and  O_6 
REMARK    5  A    between atoms: C_9  and  C_10 
REMARK    6  A    between atoms: N_15  and  C_14 
REMARK    7  A    between atoms: N_20  and  C_19 
REMARK       I    between atoms: C_22  and  N_20 
ROOT
ATOM      1  C   LIG d   1       3.115  84.902 112.412  0.00  0.00     0.161 C 
ATOM      2  C   LIG d   1       3.427  86.152 112.971  0.00  0.00     0.016 C 
ATOM      3  C   LIG d   1       2.969  87.379 112.438  0.00  0.00     0.038 C 
ATOM      4  C   LIG d   1       2.038  87.430 111.390  0.00  0.00     0.028 C 
ATOM      5  C   LIG d   1       2.090  86.213 110.473  0.00  0.00    -0.047 C 
ATOM      6  C   LIG d   1       2.011  84.932 111.335  0.00  0.00     0.091 C 
ENDROOT
BRANCH   1   7
ATOM      7  O   LIG d   1       2.771  83.971 113.457  0.00  0.00    -0.368 OA
BRANCH   7   8
ATOM      8  C   LIG d   1       3.864  83.518 114.293  0.00  0.00     0.119 C 
BRANCH   8   9
ATOM      9  C   LIG d   1       4.081  82.020 114.000  0.00  0.00     0.028 C 
ATOM     10  C   LIG d   1       4.268  81.193 115.282  0.00  0.00     0.006 C 
ENDBRANCH   8   9
BRANCH   8  11
ATOM     11  C   LIG d   1       3.498  83.592 115.778  0.00  0.00     0.028 C 
ATOM     12  C   LIG d   1       2.155  84.296 116.026  0.00  0.00     0.006 C 
ENDBRANCH   8  11
ENDBRANCH   7   8
ENDBRANCH   1   7
BRANCH   6  13
ATOM     13  N   LIG d   1       2.140  83.694 110.523  0.00  0.00    -0.311 N 
ATOM     14  C   LIG d   1       1.097  82.972 110.116  0.00  0.00     0.210 C 
ATOM     15  C   LIG d   1       1.453  81.721 109.306  0.00  0.00     0.109 C 
ATOM     16  O   LIG d   1      -0.090  83.267 110.320  0.00  0.00    -0.276 OA
ATOM     17  H   LIG d   1       3.066  83.399 110.285  0.00  0.00     0.149 HD
ENDBRANCH   6  13
BRANCH   5  18
ATOM     18  N   LIG d   1       0.978  86.332 109.511  0.00  0.00     0.381 N 
ATOM     19  H   LIG d   1       0.111  86.410 110.003  0.00  0.00    -0.090 HD
ATOM     20  H   LIG d   1       0.946  85.501 108.946  0.00  0.00    -0.090 HD
ATOM     21  H   LIG d   1       1.113  87.131 108.931  0.00  0.00    -0.090 HD
ENDBRANCH   5  18
BRANCH   3  22
ATOM     22  C   LIG d   1       3.475  88.573 112.929  0.00  0.00     0.382 C 
ATOM     23  O   LIG d   1       4.600  88.979 112.551  0.00  0.00    -0.241 OA
ATOM     24  O   LIG d   1       2.840  89.226 113.778  0.00  0.00    -0.241 OA
ENDBRANCH   3  22
TORSDOF 7
ENDMDL
