MODEL 1
REMARK VINA RESULT:      -5.9      0.000      0.000
REMARK  7 active torsions:
REMARK  status: ('A' for Active; 'I' for Inactive)
REMARK    1  A    between atoms: C_2  and  C_3 
REMARK    2  A    between atoms: C_3  and  O_6 
REMARK    3  A    between atoms: C_3  and  C_4 
REMARK    4  A    between atoms: C_7  and  O_6 
REMARK    5  A    between atoms: C_9  and  C_10 
REMARK    6  A    between atoms: N_15  and  C_14 
REMARK    7  A    between atoms: N_20  and  C_19 
REMARK       I    between atoms: C_22  and  N_20 
ROOT
ATOM      1  C   LIG d   1     -15.289  67.033 115.759  0.00  0.00     0.161 C 
ATOM      2  C   LIG d   1     -14.951  68.026 114.825  0.00  0.00     0.016 C 
ATOM      3  C   LIG d   1     -15.039  67.840 113.426  0.00  0.00     0.038 C 
ATOM      4  C   LIG d   1     -15.620  66.693 112.865  0.00  0.00     0.028 C 
ATOM      5  C   LIG d   1     -15.508  65.461 113.757  0.00  0.00    -0.047 C 
ATOM      6  C   LIG d   1     -16.029  65.814 115.169  0.00  0.00     0.091 C 
ENDROOT
BRANCH   1   7
ATOM      7  O   LIG d   1     -16.056  67.613 116.833  0.00  0.00    -0.368 OA
BRANCH   7   8
ATOM      8  C   LIG d   1     -15.297  68.109 117.962  0.00  0.00     0.119 C 
BRANCH   8   9
ATOM      9  C   LIG d   1     -14.235  67.048 118.309  0.00  0.00     0.028 C 
ATOM     10  C   LIG d   1     -13.679  67.217 119.733  0.00  0.00     0.006 C 
ENDBRANCH   8   9
BRANCH   8  11
ATOM     11  C   LIG d   1     -16.173  68.230 119.213  0.00  0.00     0.028 C 
ATOM     12  C   LIG d   1     -17.427  67.342 119.150  0.00  0.00     0.006 C 
ENDBRANCH   8  11
ENDBRANCH   7   8
ENDBRANCH   1   7
BRANCH   6  13
ATOM     13  N   LIG d   1     -15.877  64.688 116.127  0.00  0.00    -0.311 N 
ATOM     14  C   LIG d   1     -16.872  64.233 116.887  0.00  0.00     0.210 C 
ATOM     15  C   LIG d   1     -16.496  63.078 117.820  0.00  0.00     0.109 C 
ATOM     16  O   LIG d   1     -18.037  64.655 116.853  0.00  0.00    -0.276 OA
ATOM     17  H   LIG d   1     -14.971  64.267 116.196  0.00  0.00     0.149 HD
ENDBRANCH   6  13
BRANCH   5  18
ATOM     18  N   LIG d   1     -16.272  64.375 113.114  0.00  0.00     0.381 N 
ATOM     19  H   LIG d   1     -15.704  63.554 113.047  0.00  0.00    -0.090 HD
ATOM     20  H   LIG d   1     -16.524  64.661 112.184  0.00  0.00    -0.090 HD
ATOM     21  H   LIG d   1     -17.094  64.177 113.642  0.00  0.00    -0.090 HD
ENDBRANCH   5  18
BRANCH   3  22
ATOM     22  C   LIG d   1     -14.507  68.794 112.571  0.00  0.00     0.382 C 
ATOM     23  O   LIG d   1     -14.779  68.760 111.347  0.00  0.00    -0.241 OA
ATOM     24  O   LIG d   1     -13.724  69.661 113.002  0.00  0.00    -0.241 OA
ENDBRANCH   3  22
TORSDOF 7
ENDMDL
MODEL 2
REMARK VINA RESULT:      -5.9     23.660     25.609
REMARK  7 active torsions:
REMARK  status: ('A' for Active; 'I' for Inactive)
REMARK    1  A    between atoms: C_2  and  C_3 
REMARK    2  A    between atoms: C_3  and  O_6 
REMARK    3  A    between atoms: C_3  and  C_4 
REMARK    4  A    between atoms: C_7  and  O_6 
REMARK    5  A    between atoms: C_9  and  C_10 
REMARK    6  A    between atoms: N_15  and  C_14 
REMARK    7  A    between atoms: N_20  and  C_19 
REMARK       I    between atoms: C_22  and  N_20 
ROOT
ATOM      1  C   LIG d   1       2.669  84.409 110.445  0.00  0.00     0.161 C 
ATOM      2  C   LIG d   1       1.687  85.373 110.729  0.00  0.00     0.016 C 
ATOM      3  C   LIG d   1       0.350  85.049 111.058  0.00  0.00     0.038 C 
ATOM      4  C   LIG d   1      -0.060  83.726 111.275  0.00  0.00     0.028 C 
ATOM      5  C   LIG d   1       0.770  82.701 110.508  0.00  0.00    -0.047 C 
ATOM      6  C   LIG d   1       2.268  82.959 110.786  0.00  0.00     0.091 C 
ENDROOT
BRANCH   1   7
ATOM      7  O   LIG d   1       3.901  84.758 111.108  0.00  0.00    -0.368 OA
BRANCH   7   8
ATOM      8  C   LIG d   1       3.772  85.525 112.330  0.00  0.00     0.119 C 
BRANCH   8   9
ATOM      9  C   LIG d   1       4.808  86.664 112.273  0.00  0.00     0.028 C 
ATOM     10  C   LIG d   1       4.650  87.660 113.434  0.00  0.00     0.006 C 
ENDBRANCH   8   9
BRANCH   8  11
ATOM     11  C   LIG d   1       4.156  84.689 113.555  0.00  0.00     0.028 C 
ATOM     12  C   LIG d   1       2.938  84.071 114.260  0.00  0.00     0.006 C 
ENDBRANCH   8  11
ENDBRANCH   7   8
ENDBRANCH   1   7
BRANCH   6  13
ATOM     13  N   LIG d   1       3.153  82.053 110.008  0.00  0.00    -0.311 N 
ATOM     14  C   LIG d   1       4.176  81.390 110.543  0.00  0.00     0.210 C 
ATOM     15  C   LIG d   1       4.972  80.526 109.560  0.00  0.00     0.109 C 
ATOM     16  O   LIG d   1       4.481  81.409 111.745  0.00  0.00    -0.276 OA
ATOM     17  H   LIG d   1       2.959  81.954 109.031  0.00  0.00     0.149 HD
ENDBRANCH   6  13
BRANCH   5  18
ATOM     18  N   LIG d   1       0.325  81.360 110.932  0.00  0.00     0.381 N 
ATOM     19  H   LIG d   1       0.256  81.326 111.930  0.00  0.00    -0.090 HD
ATOM     20  H   LIG d   1       1.008  80.683 110.640  0.00  0.00    -0.090 HD
ATOM     21  H   LIG d   1      -0.559  81.149 110.524  0.00  0.00    -0.090 HD
ENDBRANCH   5  18
BRANCH   3  22
ATOM     22  C   LIG d   1      -0.602  86.055 111.133  0.00  0.00     0.382 C 
ATOM     23  O   LIG d   1      -1.635  85.994 110.425  0.00  0.00    -0.241 OA
ATOM     24  O   LIG d   1      -0.419  87.044 111.868  0.00  0.00    -0.241 OA
ENDBRANCH   3  22
TORSDOF 7
ENDMDL
MODEL 3
REMARK VINA RESULT:      -5.6     20.926     23.352
REMARK  7 active torsions:
REMARK  status: ('A' for Active; 'I' for Inactive)
REMARK    1  A    between atoms: C_2  and  C_3 
REMARK    2  A    between atoms: C_3  and  O_6 
REMARK    3  A    between atoms: C_3  and  C_4 
REMARK    4  A    between atoms: C_7  and  O_6 
REMARK    5  A    between atoms: C_9  and  C_10 
REMARK    6  A    between atoms: N_15  and  C_14 
REMARK    7  A    between atoms: N_20  and  C_19 
REMARK       I    between atoms: C_22  and  N_20 
ROOT
ATOM      1  C   LIG d   1       0.579  81.874 111.260  0.00  0.00     0.161 C 
ATOM      2  C   LIG d   1       1.427  80.821 110.880  0.00  0.00     0.016 C 
ATOM      3  C   LIG d   1       2.748  81.014 110.415  0.00  0.00     0.038 C 
ATOM      4  C   LIG d   1       3.367  82.273 110.443  0.00  0.00     0.028 C 
ATOM      5  C   LIG d   1       2.384  83.434 110.343  0.00  0.00    -0.047 C 
ATOM      6  C   LIG d   1       1.274  83.245 111.402  0.00  0.00     0.091 C 
ENDROOT
BRANCH   1   7
ATOM      7  O   LIG d   1      -0.109  81.532 112.479  0.00  0.00    -0.368 OA
BRANCH   7   8
ATOM      8  C   LIG d   1      -0.288  80.117 112.735  0.00  0.00     0.119 C 
BRANCH   8   9
ATOM      9  C   LIG d   1      -1.769  79.783 112.475  0.00  0.00     0.028 C 
ATOM     10  C   LIG d   1      -2.713  80.908 112.934  0.00  0.00     0.006 C 
ENDBRANCH   8   9
BRANCH   8  11
ATOM     11  C   LIG d   1      -0.049  79.783 114.210  0.00  0.00     0.028 C 
ATOM     12  C   LIG d   1      -0.520  78.369 114.584  0.00  0.00     0.006 C 
ENDBRANCH   8  11
ENDBRANCH   7   8
ENDBRANCH   1   7
BRANCH   6  13
ATOM     13  N   LIG d   1       0.224  84.293 111.316  0.00  0.00    -0.311 N 
ATOM     14  C   LIG d   1       0.141  85.319 112.162  0.00  0.00     0.210 C 
ATOM     15  C   LIG d   1      -1.030  86.273 111.907  0.00  0.00     0.109 C 
ATOM     16  O   LIG d   1       0.945  85.547 113.078  0.00  0.00    -0.276 OA
ATOM     17  H   LIG d   1      -0.452  84.202 110.583  0.00  0.00     0.149 HD
ENDBRANCH   6  13
BRANCH   5  18
ATOM     18  N   LIG d   1       3.148  84.683 110.523  0.00  0.00     0.381 N 
ATOM     19  H   LIG d   1       2.684  85.434 110.052  0.00  0.00    -0.090 HD
ATOM     20  H   LIG d   1       4.058  84.568 110.114  0.00  0.00    -0.090 HD
ATOM     21  H   LIG d   1       3.235  84.892 111.493  0.00  0.00    -0.090 HD
ENDBRANCH   5  18
BRANCH   3  22
ATOM     22  C   LIG d   1       3.452  79.946 109.879  0.00  0.00     0.382 C 
ATOM     23  O   LIG d   1       2.866  78.860 109.652  0.00  0.00    -0.241 OA
ATOM     24  O   LIG d   1       4.674  80.041 109.661  0.00  0.00    -0.241 OA
ENDBRANCH   3  22
TORSDOF 7
ENDMDL
MODEL 4
REMARK VINA RESULT:      -5.5     24.549     26.824
REMARK  7 active torsions:
REMARK  status: ('A' for Active; 'I' for Inactive)
REMARK    1  A    between atoms: C_2  and  C_3 
REMARK    2  A    between atoms: C_3  and  O_6 
REMARK    3  A    between atoms: C_3  and  C_4 
REMARK    4  A    between atoms: C_7  and  O_6 
REMARK    5  A    between atoms: C_9  and  C_10 
REMARK    6  A    between atoms: N_15  and  C_14 
REMARK    7  A    between atoms: N_20  and  C_19 
REMARK       I    between atoms: C_22  and  N_20 
ROOT
ATOM      1  C   LIG d   1       1.920  85.887 114.394  0.00  0.00     0.161 C 
ATOM      2  C   LIG d   1       2.412  87.171 114.105  0.00  0.00     0.016 C 
ATOM      3  C   LIG d   1       3.729  87.586 114.407  0.00  0.00     0.038 C 
ATOM      4  C   LIG d   1       4.698  86.691 114.884  0.00  0.00     0.028 C 
ATOM      5  C   LIG d   1       4.108  85.518 115.661  0.00  0.00    -0.047 C 
ATOM      6  C   LIG d   1       2.995  84.862 114.812  0.00  0.00     0.091 C 
ENDROOT
BRANCH   1   7
ATOM      7  O   LIG d   1       1.164  85.390 113.272  0.00  0.00    -0.368 OA
BRANCH   7   8
ATOM      8  C   LIG d   1       1.080  86.267 112.121  0.00  0.00     0.119 C 
BRANCH   8   9
ATOM      9  C   LIG d   1      -0.412  86.434 111.775  0.00  0.00     0.028 C 
ATOM     10  C   LIG d   1      -0.812  85.658 110.509  0.00  0.00     0.006 C 
ENDBRANCH   8   9
BRANCH   8  11
ATOM     11  C   LIG d   1       1.714  85.624 110.884  0.00  0.00     0.028 C 
ATOM     12  C   LIG d   1       3.246  85.551 110.970  0.00  0.00     0.006 C 
ENDBRANCH   8  11
ENDBRANCH   7   8
ENDBRANCH   1   7
BRANCH   6  13
ATOM     13  N   LIG d   1       2.308  83.759 115.533  0.00  0.00    -0.311 N 
ATOM     14  C   LIG d   1       2.668  82.481 115.430  0.00  0.00     0.210 C 
ATOM     15  C   LIG d   1       1.814  81.502 116.242  0.00  0.00     0.109 C 
ATOM     16  O   LIG d   1       3.633  82.068 114.770  0.00  0.00    -0.276 OA
ATOM     17  H   LIG d   1       1.533  84.008 116.116  0.00  0.00     0.149 HD
ENDBRANCH   6  13
BRANCH   5  18
ATOM     18  N   LIG d   1       5.213  84.594 115.980  0.00  0.00     0.381 N 
ATOM     19  H   LIG d   1       5.967  84.734 115.337  0.00  0.00    -0.090 HD
ATOM     20  H   LIG d   1       4.885  83.649 115.881  0.00  0.00    -0.090 HD
ATOM     21  H   LIG d   1       5.528  84.748 116.912  0.00  0.00    -0.090 HD
ENDBRANCH   5  18
BRANCH   3  22
ATOM     22  C   LIG d   1       4.078  88.921 114.269  0.00  0.00     0.382 C 
ATOM     23  O   LIG d   1       4.330  89.389 113.133  0.00  0.00    -0.241 OA
ATOM     24  O   LIG d   1       4.186  89.652 115.272  0.00  0.00    -0.241 OA
ENDBRANCH   3  22
TORSDOF 7
ENDMDL
MODEL 5
REMARK VINA RESULT:      -5.5     24.273     26.712
REMARK  7 active torsions:
REMARK  status: ('A' for Active; 'I' for Inactive)
REMARK    1  A    between atoms: C_2  and  C_3 
REMARK    2  A    between atoms: C_3  and  O_6 
REMARK    3  A    between atoms: C_3  and  C_4 
REMARK    4  A    between atoms: C_7  and  O_6 
REMARK    5  A    between atoms: C_9  and  C_10 
REMARK    6  A    between atoms: N_15  and  C_14 
REMARK    7  A    between atoms: N_20  and  C_19 
REMARK       I    between atoms: C_22  and  N_20 
ROOT
ATOM      1  C   LIG d   1       2.411  85.849 112.517  0.00  0.00     0.161 C 
ATOM      2  C   LIG d   1       2.937  87.128 112.762  0.00  0.00     0.016 C 
ATOM      3  C   LIG d   1       3.923  87.389 113.741  0.00  0.00     0.038 C 
ATOM      4  C   LIG d   1       4.563  86.357 114.442  0.00  0.00     0.028 C 
ATOM      5  C   LIG d   1       3.708  85.102 114.587  0.00  0.00    -0.047 C 
ATOM      6  C   LIG d   1       3.177  84.694 113.194  0.00  0.00     0.091 C 
ENDROOT
BRANCH   1   7
ATOM      7  O   LIG d   1       2.318  85.623 111.096  0.00  0.00    -0.368 OA
BRANCH   7   8
ATOM      8  C   LIG d   1       1.006  85.796 110.507  0.00  0.00     0.119 C 
BRANCH   8   9
ATOM      9  C   LIG d   1      -0.036  85.453 111.590  0.00  0.00     0.028 C 
ATOM     10  C   LIG d   1      -1.164  86.495 111.671  0.00  0.00     0.006 C 
ENDBRANCH   8   9
BRANCH   8  11
ATOM     11  C   LIG d   1       0.764  84.790 109.378  0.00  0.00     0.028 C 
ATOM     12  C   LIG d   1       1.850  83.705 109.305  0.00  0.00     0.006 C 
ENDBRANCH   8  11
ENDBRANCH   7   8
ENDBRANCH   1   7
BRANCH   6  13
ATOM     13  N   LIG d   1       2.262  83.524 113.257  0.00  0.00    -0.311 N 
ATOM     14  C   LIG d   1       2.526  82.355 112.676  0.00  0.00     0.210 C 
ATOM     15  C   LIG d   1       1.441  81.288 112.847  0.00  0.00     0.109 C 
ATOM     16  O   LIG d   1       3.571  82.090 112.062  0.00  0.00    -0.276 OA
ATOM     17  H   LIG d   1       1.406  83.641 113.762  0.00  0.00     0.149 HD
ENDBRANCH   6  13
BRANCH   5  18
ATOM     18  N   LIG d   1       4.546  84.062 115.214  0.00  0.00     0.381 N 
ATOM     19  H   LIG d   1       4.312  83.978 116.183  0.00  0.00    -0.090 HD
ATOM     20  H   LIG d   1       5.510  84.336 115.145  0.00  0.00    -0.090 HD
ATOM     21  H   LIG d   1       4.407  83.190 114.755  0.00  0.00    -0.090 HD
ENDBRANCH   5  18
BRANCH   3  22
ATOM     22  C   LIG d   1       4.249  88.700 114.055  0.00  0.00     0.382 C 
ATOM     23  O   LIG d   1       4.330  89.055 115.256  0.00  0.00    -0.241 OA
ATOM     24  O   LIG d   1       4.420  89.542 113.154  0.00  0.00    -0.241 OA
ENDBRANCH   3  22
TORSDOF 7
ENDMDL
MODEL 6
REMARK VINA RESULT:      -5.5     24.754     26.982
REMARK  7 active torsions:
REMARK  status: ('A' for Active; 'I' for Inactive)
REMARK    1  A    between atoms: C_2  and  C_3 
REMARK    2  A    between atoms: C_3  and  O_6 
REMARK    3  A    between atoms: C_3  and  C_4 
REMARK    4  A    between atoms: C_7  and  O_6 
REMARK    5  A    between atoms: C_9  and  C_10 
REMARK    6  A    between atoms: N_15  and  C_14 
REMARK    7  A    between atoms: N_20  and  C_19 
REMARK       I    between atoms: C_22  and  N_20 
ROOT
ATOM      1  C   LIG d   1       4.232  85.383 112.070  0.00  0.00     0.161 C 
ATOM      2  C   LIG d   1       4.770  86.510 112.714  0.00  0.00     0.016 C 
ATOM      3  C   LIG d   1       4.003  87.643 113.070  0.00  0.00     0.038 C 
ATOM      4  C   LIG d   1       2.606  87.662 112.942  0.00  0.00     0.028 C 
ATOM      5  C   LIG d   1       2.087  86.751 111.835  0.00  0.00    -0.047 C 
ATOM      6  C   LIG d   1       2.690  85.340 112.022  0.00  0.00     0.091 C 
ENDROOT
BRANCH   1   7
ATOM      7  O   LIG d   1       4.748  84.181 112.676  0.00  0.00    -0.368 OA
BRANCH   7   8
ATOM      8  C   LIG d   1       3.942  83.604 113.733  0.00  0.00     0.119 C 
BRANCH   8   9
ATOM      9  C   LIG d   1       4.721  83.770 115.052  0.00  0.00     0.028 C 
ATOM     10  C   LIG d   1       4.128  84.870 115.949  0.00  0.00     0.006 C 
ENDBRANCH   8   9
BRANCH   8  11
ATOM     11  C   LIG d   1       3.779  82.092 113.546  0.00  0.00     0.028 C 
ATOM     12  C   LIG d   1       4.260  81.607 112.170  0.00  0.00     0.006 C 
ENDBRANCH   8  11
ENDBRANCH   7   8
ENDBRANCH   1   7
BRANCH   6  13
ATOM     13  N   LIG d   1       2.300  84.408 110.933  0.00  0.00    -0.311 N 
ATOM     14  C   LIG d   1       1.296  83.539 111.036  0.00  0.00     0.210 C 
ATOM     15  C   LIG d   1       1.074  82.657 109.803  0.00  0.00     0.109 C 
ATOM     16  O   LIG d   1       0.547  83.437 112.019  0.00  0.00    -0.276 OA
ATOM     17  H   LIG d   1       2.835  84.445 110.087  0.00  0.00     0.149 HD
ENDBRANCH   6  13
BRANCH   5  18
ATOM     18  N   LIG d   1       0.613  86.763 111.903  0.00  0.00     0.381 N 
ATOM     19  H   LIG d   1       0.248  87.397 111.221  0.00  0.00    -0.090 HD
ATOM     20  H   LIG d   1       0.332  87.083 112.813  0.00  0.00    -0.090 HD
ATOM     21  H   LIG d   1       0.257  85.847 111.739  0.00  0.00    -0.090 HD
ENDBRANCH   5  18
BRANCH   3  22
ATOM     22  C   LIG d   1       4.639  88.788 113.525  0.00  0.00     0.382 C 
ATOM     23  O   LIG d   1       4.044  89.565 114.311  0.00  0.00    -0.241 OA
ATOM     24  O   LIG d   1       5.782  89.076 113.126  0.00  0.00    -0.241 OA
ENDBRANCH   3  22
TORSDOF 7
ENDMDL
MODEL 7
REMARK VINA RESULT:      -5.3     13.390     15.551
REMARK  7 active torsions:
REMARK  status: ('A' for Active; 'I' for Inactive)
REMARK    1  A    between atoms: C_2  and  C_3 
REMARK    2  A    between atoms: C_3  and  O_6 
REMARK    3  A    between atoms: C_3  and  C_4 
REMARK    4  A    between atoms: C_7  and  O_6 
REMARK    5  A    between atoms: C_9  and  C_10 
REMARK    6  A    between atoms: N_15  and  C_14 
REMARK    7  A    between atoms: N_20  and  C_19 
REMARK       I    between atoms: C_22  and  N_20 
ROOT
ATOM      1  C   LIG d   1      -6.115  77.346 116.856  0.00  0.00     0.161 C 
ATOM      2  C   LIG d   1      -7.433  76.878 116.985  0.00  0.00     0.016 C 
ATOM      3  C   LIG d   1      -8.402  77.499 117.807  0.00  0.00     0.038 C 
ATOM      4  C   LIG d   1      -8.159  78.726 118.442  0.00  0.00     0.028 C 
ATOM      5  C   LIG d   1      -6.684  78.970 118.745  0.00  0.00    -0.047 C 
ATOM      6  C   LIG d   1      -5.863  78.746 117.455  0.00  0.00     0.091 C 
ENDROOT
BRANCH   1   7
ATOM      7  O   LIG d   1      -5.719  77.315 115.471  0.00  0.00    -0.368 OA
BRANCH   7   8
ATOM      8  C   LIG d   1      -4.747  76.303 115.108  0.00  0.00     0.119 C 
BRANCH   8   9
ATOM      9  C   LIG d   1      -5.476  75.246 114.255  0.00  0.00     0.028 C 
ATOM     10  C   LIG d   1      -6.081  74.119 115.108  0.00  0.00     0.006 C 
ENDBRANCH   8   9
BRANCH   8  11
ATOM     11  C   LIG d   1      -4.241  75.549 116.341  0.00  0.00     0.028 C 
ATOM     12  C   LIG d   1      -2.724  75.693 116.546  0.00  0.00     0.006 C 
ENDBRANCH   8  11
ENDBRANCH   7   8
ENDBRANCH   1   7
BRANCH   6  13
ATOM     13  N   LIG d   1      -4.401  78.881 117.682  0.00  0.00    -0.311 N 
ATOM     14  C   LIG d   1      -3.584  79.518 116.844  0.00  0.00     0.210 C 
ATOM     15  C   LIG d   1      -2.109  79.524 117.258  0.00  0.00     0.109 C 
ATOM     16  O   LIG d   1      -3.946  80.106 115.814  0.00  0.00    -0.276 OA
ATOM     17  H   LIG d   1      -4.027  78.460 118.510  0.00  0.00     0.149 HD
ENDBRANCH   6  13
BRANCH   5  18
ATOM     18  N   LIG d   1      -6.559  80.339 119.280  0.00  0.00     0.381 N 
ATOM     19  H   LIG d   1      -7.423  80.829 119.161  0.00  0.00    -0.090 HD
ATOM     20  H   LIG d   1      -5.847  80.825 118.764  0.00  0.00    -0.090 HD
ATOM     21  H   LIG d   1      -6.316  80.307 120.245  0.00  0.00    -0.090 HD
ENDBRANCH   5  18
BRANCH   3  22
ATOM     22  C   LIG d   1      -9.617  76.871 118.031  0.00  0.00     0.382 C 
ATOM     23  O   LIG d   1      -9.823  75.722 117.572  0.00  0.00    -0.241 OA
ATOM     24  O   LIG d   1     -10.527  77.456 118.650  0.00  0.00    -0.241 OA
ENDBRANCH   3  22
TORSDOF 7
ENDMDL
MODEL 8
REMARK VINA RESULT:      -5.1     13.043     15.150
REMARK  7 active torsions:
REMARK  status: ('A' for Active; 'I' for Inactive)
REMARK    1  A    between atoms: C_2  and  C_3 
REMARK    2  A    between atoms: C_3  and  O_6 
REMARK    3  A    between atoms: C_3  and  C_4 
REMARK    4  A    between atoms: C_7  and  O_6 
REMARK    5  A    between atoms: C_9  and  C_10 
REMARK    6  A    between atoms: N_15  and  C_14 
REMARK    7  A    between atoms: N_20  and  C_19 
REMARK       I    between atoms: C_22  and  N_20 
ROOT
ATOM      1  C   LIG d   1      -6.582  77.471 117.348  0.00  0.00     0.161 C 
ATOM      2  C   LIG d   1      -7.436  76.379 117.121  0.00  0.00     0.016 C 
ATOM      3  C   LIG d   1      -8.764  76.317 117.602  0.00  0.00     0.038 C 
ATOM      4  C   LIG d   1      -9.382  77.416 118.219  0.00  0.00     0.028 C 
ATOM      5  C   LIG d   1      -8.399  78.351 118.915  0.00  0.00    -0.047 C 
ATOM      6  C   LIG d   1      -7.274  78.725 117.923  0.00  0.00     0.091 C 
ENDROOT
BRANCH   1   7
ATOM      7  O   LIG d   1      -5.876  77.800 116.135  0.00  0.00    -0.368 OA
BRANCH   7   8
ATOM      8  C   LIG d   1      -4.492  77.378 116.069  0.00  0.00     0.119 C 
BRANCH   8   9
ATOM      9  C   LIG d   1      -4.454  76.033 115.318  0.00  0.00     0.028 C 
ATOM     10  C   LIG d   1      -5.217  76.083 113.984  0.00  0.00     0.006 C 
ENDBRANCH   8   9
BRANCH   8  11
ATOM     11  C   LIG d   1      -3.933  77.080 117.463  0.00  0.00     0.028 C 
ATOM     12  C   LIG d   1      -3.136  75.767 117.517  0.00  0.00     0.006 C 
ENDBRANCH   8  11
ENDBRANCH   7   8
ENDBRANCH   1   7
BRANCH   6  13
ATOM     13  N   LIG d   1      -6.224  79.571 118.549  0.00  0.00    -0.311 N 
ATOM     14  C   LIG d   1      -5.958  80.817 118.160  0.00  0.00     0.210 C 
ATOM     15  C   LIG d   1      -4.824  81.505 118.926  0.00  0.00     0.109 C 
ATOM     16  O   LIG d   1      -6.575  81.428 117.275  0.00  0.00    -0.276 OA
ATOM     17  H   LIG d   1      -5.696  79.164 119.296  0.00  0.00     0.149 HD
ENDBRANCH   6  13
BRANCH   5  18
ATOM     18  N   LIG d   1      -9.160  79.520 119.394  0.00  0.00     0.381 N 
ATOM     19  H   LIG d   1     -10.105  79.254 119.584  0.00  0.00    -0.090 HD
ATOM     20  H   LIG d   1      -9.168  80.220 118.673  0.00  0.00    -0.090 HD
ATOM     21  H   LIG d   1      -8.738  79.887 120.218  0.00  0.00    -0.090 HD
ENDBRANCH   5  18
BRANCH   3  22
ATOM     22  C   LIG d   1      -9.476  75.131 117.504  0.00  0.00     0.382 C 
ATOM     23  O   LIG d   1      -8.874  74.032 117.564  0.00  0.00    -0.241 OA
ATOM     24  O   LIG d   1     -10.706  75.147 117.312  0.00  0.00    -0.241 OA
ENDBRANCH   3  22
TORSDOF 7
ENDMDL
MODEL 9
REMARK VINA RESULT:      -5.1     14.970     16.757
REMARK  7 active torsions:
REMARK  status: ('A' for Active; 'I' for Inactive)
REMARK    1  A    between atoms: C_2  and  C_3 
REMARK    2  A    between atoms: C_3  and  O_6 
REMARK    3  A    between atoms: C_3  and  C_4 
REMARK    4  A    between atoms: C_7  and  O_6 
REMARK    5  A    between atoms: C_9  and  C_10 
REMARK    6  A    between atoms: N_15  and  C_14 
REMARK    7  A    between atoms: N_20  and  C_19 
REMARK       I    between atoms: C_22  and  N_20 
ROOT
ATOM      1  C   LIG d   1      -2.496  77.742 116.188  0.00  0.00     0.161 C 
ATOM      2  C   LIG d   1      -2.793  78.724 115.228  0.00  0.00     0.016 C 
ATOM      3  C   LIG d   1      -2.216  78.750 113.937  0.00  0.00     0.038 C 
ATOM      4  C   LIG d   1      -1.411  77.703 113.463  0.00  0.00     0.028 C 
ATOM      5  C   LIG d   1      -0.682  76.951 114.571  0.00  0.00    -0.047 C 
ATOM      6  C   LIG d   1      -1.706  76.530 115.650  0.00  0.00     0.091 C 
ENDROOT
BRANCH   1   7
ATOM      7  O   LIG d   1      -3.709  77.304 116.830  0.00  0.00    -0.368 OA
BRANCH   7   8
ATOM      8  C   LIG d   1      -4.901  77.296 116.005  0.00  0.00     0.119 C 
BRANCH   8   9
ATOM      9  C   LIG d   1      -6.070  77.794 116.876  0.00  0.00     0.028 C 
ATOM     10  C   LIG d   1      -7.251  76.809 116.891  0.00  0.00     0.006 C 
ENDBRANCH   8   9
BRANCH   8  11
ATOM     11  C   LIG d   1      -5.282  75.872 115.590  0.00  0.00     0.028 C 
ATOM     12  C   LIG d   1      -5.047  75.604 114.095  0.00  0.00     0.006 C 
ENDBRANCH   8  11
ENDBRANCH   7   8
ENDBRANCH   1   7
BRANCH   6  13
ATOM     13  N   LIG d   1      -1.063  75.862 116.812  0.00  0.00    -0.311 N 
ATOM     14  C   LIG d   1      -1.551  74.765 117.389  0.00  0.00     0.210 C 
ATOM     15  C   LIG d   1      -0.744  74.250 118.585  0.00  0.00     0.109 C 
ATOM     16  O   LIG d   1      -2.558  74.152 117.004  0.00  0.00    -0.276 OA
ATOM     17  H   LIG d   1      -0.224  76.275 117.169  0.00  0.00     0.149 HD
ENDBRANCH   6  13
BRANCH   5  18
ATOM     18  N   LIG d   1       0.008  75.804 113.951  0.00  0.00     0.381 N 
ATOM     19  H   LIG d   1      -0.609  75.341 113.314  0.00  0.00    -0.090 HD
ATOM     20  H   LIG d   1       0.266  75.152 114.671  0.00  0.00    -0.090 HD
ATOM     21  H   LIG d   1       0.823  76.116 113.469  0.00  0.00    -0.090 HD
ENDBRANCH   5  18
BRANCH   3  22
ATOM     22  C   LIG d   1      -2.411  79.853 113.120  0.00  0.00     0.382 C 
ATOM     23  O   LIG d   1      -3.219  80.750 113.460  0.00  0.00    -0.241 OA
ATOM     24  O   LIG d   1      -1.821  79.941 112.026  0.00  0.00    -0.241 OA
ENDBRANCH   3  22
TORSDOF 7
ENDMDL
