MODEL 1
REMARK VINA RESULT:      -6.1      0.000      0.000
REMARK  7 active torsions:
REMARK  status: ('A' for Active; 'I' for Inactive)
REMARK    1  A    between atoms: C_2  and  C_3 
REMARK    2  A    between atoms: C_3  and  O_6 
REMARK    3  A    between atoms: C_3  and  C_4 
REMARK    4  A    between atoms: C_7  and  O_6 
REMARK    5  A    between atoms: C_9  and  C_10 
REMARK    6  A    between atoms: N_15  and  C_14 
REMARK    7  A    between atoms: N_20  and  C_19 
REMARK       I    between atoms: C_22  and  N_20 
ROOT
ATOM      1  C   LIG d   1       0.974  81.058 110.759  0.00  0.00     0.161 C 
ATOM      2  C   LIG d   1       0.879  79.744 110.272  0.00  0.00     0.016 C 
ATOM      3  C   LIG d   1      -0.090  78.816 110.719  0.00  0.00     0.038 C 
ATOM      4  C   LIG d   1      -1.132  79.190 111.581  0.00  0.00     0.028 C 
ATOM      5  C   LIG d   1      -0.777  80.365 112.486  0.00  0.00    -0.047 C 
ATOM      6  C   LIG d   1      -0.222  81.517 111.618  0.00  0.00     0.091 C 
ENDROOT
BRANCH   1   7
ATOM      7  O   LIG d   1       1.185  81.971 109.664  0.00  0.00    -0.368 OA
BRANCH   7   8
ATOM      8  C   LIG d   1       2.532  82.479 109.508  0.00  0.00     0.119 C 
BRANCH   8   9
ATOM      9  C   LIG d   1       3.346  82.018 110.733  0.00  0.00     0.028 C 
ATOM     10  C   LIG d   1       4.637  81.281 110.336  0.00  0.00     0.006 C 
ENDBRANCH   8   9
BRANCH   8  11
ATOM     11  C   LIG d   1       2.560  84.010 109.556  0.00  0.00     0.028 C 
ATOM     12  C   LIG d   1       3.318  84.554 110.778  0.00  0.00     0.006 C 
ENDBRANCH   8  11
ENDBRANCH   7   8
ENDBRANCH   1   7
BRANCH   6  13
ATOM     13  N   LIG d   1       0.228  82.675 112.434  0.00  0.00    -0.311 N 
ATOM     14  C   LIG d   1      -0.156  83.929 112.202  0.00  0.00     0.210 C 
ATOM     15  C   LIG d   1       0.441  84.975 113.149  0.00  0.00     0.109 C 
ATOM     16  O   LIG d   1      -0.960  84.271 111.321  0.00  0.00    -0.276 OA
ATOM     17  H   LIG d   1       0.857  82.484 113.189  0.00  0.00     0.149 HD
ENDBRANCH   6  13
BRANCH   5  18
ATOM     18  N   LIG d   1      -1.994  80.736 113.232  0.00  0.00     0.381 N 
ATOM     19  H   LIG d   1      -2.289  81.654 112.963  0.00  0.00    -0.090 HD
ATOM     20  H   LIG d   1      -1.782  80.749 114.215  0.00  0.00    -0.090 HD
ATOM     21  H   LIG d   1      -2.720  80.079 113.050  0.00  0.00    -0.090 HD
ENDBRANCH   5  18
BRANCH   3  22
ATOM     22  C   LIG d   1       0.001  77.487 110.334  0.00  0.00     0.382 C 
ATOM     23  O   LIG d   1      -0.982  76.723 110.481  0.00  0.00    -0.241 OA
ATOM     24  O   LIG d   1       1.069  77.033 109.882  0.00  0.00    -0.241 OA
ENDBRANCH   3  22
TORSDOF 7
ENDMDL
MODEL 2
REMARK VINA RESULT:      -6.0      3.496      6.896
REMARK  7 active torsions:
REMARK  status: ('A' for Active; 'I' for Inactive)
REMARK    1  A    between atoms: C_2  and  C_3 
REMARK    2  A    between atoms: C_3  and  O_6 
REMARK    3  A    between atoms: C_3  and  C_4 
REMARK    4  A    between atoms: C_7  and  O_6 
REMARK    5  A    between atoms: C_9  and  C_10 
REMARK    6  A    between atoms: N_15  and  C_14 
REMARK    7  A    between atoms: N_20  and  C_19 
REMARK       I    between atoms: C_22  and  N_20 
ROOT
ATOM      1  C   LIG d   1       3.102  85.074 112.210  0.00  0.00     0.161 C 
ATOM      2  C   LIG d   1       3.688  86.321 112.484  0.00  0.00     0.016 C 
ATOM      3  C   LIG d   1       3.587  86.969 113.736  0.00  0.00     0.038 C 
ATOM      4  C   LIG d   1       3.017  86.340 114.853  0.00  0.00     0.028 C 
ATOM      5  C   LIG d   1       1.969  85.293 114.490  0.00  0.00    -0.047 C 
ATOM      6  C   LIG d   1       2.571  84.322 113.448  0.00  0.00     0.091 C 
ENDROOT
BRANCH   1   7
ATOM      7  O   LIG d   1       4.032  84.247 111.482  0.00  0.00    -0.368 OA
BRANCH   7   8
ATOM      8  C   LIG d   1       3.760  84.073 110.070  0.00  0.00     0.119 C 
BRANCH   8   9
ATOM      9  C   LIG d   1       2.297  84.491 109.825  0.00  0.00     0.028 C 
ATOM     10  C   LIG d   1       1.434  83.328 109.306  0.00  0.00     0.006 C 
ENDBRANCH   8   9
BRANCH   8  11
ATOM     11  C   LIG d   1       3.833  82.597 109.666  0.00  0.00     0.028 C 
ATOM     12  C   LIG d   1       4.945  81.833 110.401  0.00  0.00     0.006 C 
ENDBRANCH   8  11
ENDBRANCH   7   8
ENDBRANCH   1   7
BRANCH   6  13
ATOM     13  N   LIG d   1       1.585  83.316 112.975  0.00  0.00    -0.311 N 
ATOM     14  C   LIG d   1       1.846  82.012 112.899  0.00  0.00     0.210 C 
ATOM     15  C   LIG d   1       0.696  81.152 112.366  0.00  0.00     0.109 C 
ATOM     16  O   LIG d   1       2.910  81.483 113.253  0.00  0.00    -0.276 OA
ATOM     17  H   LIG d   1       0.685  83.655 112.697  0.00  0.00     0.149 HD
ENDBRANCH   6  13
BRANCH   5  18
ATOM     18  N   LIG d   1       1.559  84.621 115.737  0.00  0.00     0.381 N 
ATOM     19  H   LIG d   1       2.050  83.755 115.833  0.00  0.00    -0.090 HD
ATOM     20  H   LIG d   1       0.575  84.422 115.691  0.00  0.00    -0.090 HD
ATOM     21  H   LIG d   1       1.750  85.208 116.519  0.00  0.00    -0.090 HD
ENDBRANCH   5  18
BRANCH   3  22
ATOM     22  C   LIG d   1       4.025  88.278 113.870  0.00  0.00     0.382 C 
ATOM     23  O   LIG d   1       4.968  88.700 113.158  0.00  0.00    -0.241 OA
ATOM     24  O   LIG d   1       3.518  89.030 114.724  0.00  0.00    -0.241 OA
ENDBRANCH   3  22
TORSDOF 7
ENDMDL
MODEL 3
REMARK VINA RESULT:      -5.8      2.240      5.180
REMARK  7 active torsions:
REMARK  status: ('A' for Active; 'I' for Inactive)
REMARK    1  A    between atoms: C_2  and  C_3 
REMARK    2  A    between atoms: C_3  and  O_6 
REMARK    3  A    between atoms: C_3  and  C_4 
REMARK    4  A    between atoms: C_7  and  O_6 
REMARK    5  A    between atoms: C_9  and  C_10 
REMARK    6  A    between atoms: N_15  and  C_14 
REMARK    7  A    between atoms: N_20  and  C_19 
REMARK       I    between atoms: C_22  and  N_20 
ROOT
ATOM      1  C   LIG d   1       1.099  82.766 110.918  0.00  0.00     0.161 C 
ATOM      2  C   LIG d   1       1.771  83.983 110.717  0.00  0.00     0.016 C 
ATOM      3  C   LIG d   1       2.386  84.715 111.759  0.00  0.00     0.038 C 
ATOM      4  C   LIG d   1       2.501  84.199 113.058  0.00  0.00     0.028 C 
ATOM      5  C   LIG d   1       1.399  83.208 113.417  0.00  0.00    -0.047 C 
ATOM      6  C   LIG d   1       1.311  82.133 112.309  0.00  0.00     0.091 C 
ENDROOT
BRANCH   1   7
ATOM      7  O   LIG d   1       1.461  81.832 109.882  0.00  0.00    -0.368 OA
BRANCH   7   8
ATOM      8  C   LIG d   1       2.528  80.906 110.203  0.00  0.00     0.119 C 
BRANCH   8   9
ATOM      9  C   LIG d   1       3.795  81.389 109.469  0.00  0.00     0.028 C 
ATOM     10  C   LIG d   1       4.875  81.900 110.437  0.00  0.00     0.006 C 
ENDBRANCH   8   9
BRANCH   8  11
ATOM     11  C   LIG d   1       2.243  79.510 109.643  0.00  0.00     0.028 C 
ATOM     12  C   LIG d   1       0.752  79.140 109.698  0.00  0.00     0.006 C 
ENDBRANCH   8  11
ENDBRANCH   7   8
ENDBRANCH   1   7
BRANCH   6  13
ATOM     13  N   LIG d   1       0.201  81.172 112.540  0.00  0.00    -0.311 N 
ATOM     14  C   LIG d   1      -1.086  81.502 112.449  0.00  0.00     0.210 C 
ATOM     15  C   LIG d   1      -2.068  80.364 112.744  0.00  0.00     0.109 C 
ATOM     16  O   LIG d   1      -1.507  82.621 112.120  0.00  0.00    -0.276 OA
ATOM     17  H   LIG d   1       0.454  80.233 112.781  0.00  0.00     0.149 HD
ENDBRANCH   6  13
BRANCH   5  18
ATOM     18  N   LIG d   1       1.719  82.647 114.743  0.00  0.00     0.381 N 
ATOM     19  H   LIG d   1       0.877  82.522 115.270  0.00  0.00    -0.090 HD
ATOM     20  H   LIG d   1       2.307  83.294 115.237  0.00  0.00    -0.090 HD
ATOM     21  H   LIG d   1       2.187  81.773 114.640  0.00  0.00    -0.090 HD
ENDBRANCH   5  18
BRANCH   3  22
ATOM     22  C   LIG d   1       2.858  85.995 111.514  0.00  0.00     0.382 C 
ATOM     23  O   LIG d   1       2.050  86.938 111.336  0.00  0.00    -0.241 OA
ATOM     24  O   LIG d   1       4.082  86.211 111.425  0.00  0.00    -0.241 OA
ENDBRANCH   3  22
TORSDOF 7
ENDMDL
MODEL 4
REMARK VINA RESULT:      -5.8      2.469      4.553
REMARK  7 active torsions:
REMARK  status: ('A' for Active; 'I' for Inactive)
REMARK    1  A    between atoms: C_2  and  C_3 
REMARK    2  A    between atoms: C_3  and  O_6 
REMARK    3  A    between atoms: C_3  and  C_4 
REMARK    4  A    between atoms: C_7  and  O_6 
REMARK    5  A    between atoms: C_9  and  C_10 
REMARK    6  A    between atoms: N_15  and  C_14 
REMARK    7  A    between atoms: N_20  and  C_19 
REMARK       I    between atoms: C_22  and  N_20 
ROOT
ATOM      1  C   LIG d   1       1.039  82.009 112.279  0.00  0.00     0.161 C 
ATOM      2  C   LIG d   1       2.119  82.527 111.544  0.00  0.00     0.016 C 
ATOM      3  C   LIG d   1       2.423  82.128 110.222  0.00  0.00     0.038 C 
ATOM      4  C   LIG d   1       1.572  81.289 109.486  0.00  0.00     0.028 C 
ATOM      5  C   LIG d   1       0.746  80.349 110.358  0.00  0.00    -0.047 C 
ATOM      6  C   LIG d   1       0.036  81.176 111.454  0.00  0.00     0.091 C 
ENDROOT
BRANCH   1   7
ATOM      7  O   LIG d   1       0.358  83.078 112.966  0.00  0.00    -0.368 OA
BRANCH   7   8
ATOM      8  C   LIG d   1       0.656  84.420 112.509  0.00  0.00     0.119 C 
BRANCH   8   9
ATOM      9  C   LIG d   1       1.042  85.255 113.745  0.00  0.00     0.028 C 
ATOM     10  C   LIG d   1       2.417  85.927 113.593  0.00  0.00     0.006 C 
ENDBRANCH   8   9
BRANCH   8  11
ATOM     11  C   LIG d   1      -0.590  85.101 111.933  0.00  0.00     0.028 C 
ATOM     12  C   LIG d   1      -0.530  85.258 110.405  0.00  0.00     0.006 C 
ENDBRANCH   8  11
ENDBRANCH   7   8
ENDBRANCH   1   7
BRANCH   6  13
ATOM     13  N   LIG d   1      -0.727  80.323 112.403  0.00  0.00    -0.311 N 
ATOM     14  C   LIG d   1      -1.985  80.572 112.763  0.00  0.00     0.210 C 
ATOM     15  C   LIG d   1      -2.578  79.578 113.768  0.00  0.00     0.109 C 
ATOM     16  O   LIG d   1      -2.676  81.502 112.323  0.00  0.00    -0.276 OA
ATOM     17  H   LIG d   1      -0.252  79.529 112.785  0.00  0.00     0.149 HD
ENDBRANCH   6  13
BRANCH   5  18
ATOM     18  N   LIG d   1      -0.193  79.632 109.475  0.00  0.00     0.381 N 
ATOM     19  H   LIG d   1       0.060  79.783 108.519  0.00  0.00    -0.090 HD
ATOM     20  H   LIG d   1      -1.118  79.998 109.619  0.00  0.00    -0.090 HD
ATOM     21  H   LIG d   1      -0.177  78.657 109.681  0.00  0.00    -0.090 HD
ENDBRANCH   5  18
BRANCH   3  22
ATOM     22  C   LIG d   1       3.611  82.538 109.636  0.00  0.00     0.382 C 
ATOM     23  O   LIG d   1       3.803  83.754 109.395  0.00  0.00    -0.241 OA
ATOM     24  O   LIG d   1       4.473  81.703 109.305  0.00  0.00    -0.241 OA
ENDBRANCH   3  22
TORSDOF 7
ENDMDL
MODEL 5
REMARK VINA RESULT:      -5.6      3.711      6.951
REMARK  7 active torsions:
REMARK  status: ('A' for Active; 'I' for Inactive)
REMARK    1  A    between atoms: C_2  and  C_3 
REMARK    2  A    between atoms: C_3  and  O_6 
REMARK    3  A    between atoms: C_3  and  C_4 
REMARK    4  A    between atoms: C_7  and  O_6 
REMARK    5  A    between atoms: C_9  and  C_10 
REMARK    6  A    between atoms: N_15  and  C_14 
REMARK    7  A    between atoms: N_20  and  C_19 
REMARK       I    between atoms: C_22  and  N_20 
ROOT
ATOM      1  C   LIG d   1       2.642  85.232 112.268  0.00  0.00     0.161 C 
ATOM      2  C   LIG d   1       3.200  86.511 112.434  0.00  0.00     0.016 C 
ATOM      3  C   LIG d   1       3.794  86.950 113.640  0.00  0.00     0.038 C 
ATOM      4  C   LIG d   1       4.007  86.081 114.720  0.00  0.00     0.028 C 
ATOM      5  C   LIG d   1       3.008  84.930 114.778  0.00  0.00    -0.047 C 
ATOM      6  C   LIG d   1       2.965  84.234 113.399  0.00  0.00     0.091 C 
ENDROOT
BRANCH   1   7
ATOM      7  O   LIG d   1       3.037  84.689 110.992  0.00  0.00    -0.368 OA
BRANCH   7   8
ATOM      8  C   LIG d   1       2.005  83.999 110.246  0.00  0.00     0.119 C 
BRANCH   8   9
ATOM      9  C   LIG d   1       2.704  82.998 109.306  0.00  0.00     0.028 C 
ATOM     10  C   LIG d   1       4.085  82.567 109.829  0.00  0.00     0.006 C 
ENDBRANCH   8   9
BRANCH   8  11
ATOM     11  C   LIG d   1       1.247  84.960 109.324  0.00  0.00     0.028 C 
ATOM     12  C   LIG d   1      -0.178  85.258 109.817  0.00  0.00     0.006 C 
ENDBRANCH   8  11
ENDBRANCH   7   8
ENDBRANCH   1   7
BRANCH   6  13
ATOM     13  N   LIG d   1       1.951  83.149 113.344  0.00  0.00    -0.311 N 
ATOM     14  C   LIG d   1       2.260  81.865 113.170  0.00  0.00     0.210 C 
ATOM     15  C   LIG d   1       1.062  80.912 113.123  0.00  0.00     0.109 C 
ATOM     16  O   LIG d   1       3.415  81.421 113.082  0.00  0.00    -0.276 OA
ATOM     17  H   LIG d   1       0.991  83.416 113.437  0.00  0.00     0.149 HD
ENDBRANCH   6  13
BRANCH   5  18
ATOM     18  N   LIG d   1       3.430  84.029 115.868  0.00  0.00     0.381 N 
ATOM     19  H   LIG d   1       2.637  83.529 116.219  0.00  0.00    -0.090 HD
ATOM     20  H   LIG d   1       3.811  84.581 116.616  0.00  0.00    -0.090 HD
ATOM     21  H   LIG d   1       4.115  83.388 115.534  0.00  0.00    -0.090 HD
ENDBRANCH   5  18
BRANCH   3  22
ATOM     22  C   LIG d   1       4.146  88.283 113.787  0.00  0.00     0.382 C 
ATOM     23  O   LIG d   1       5.092  88.760 113.115  0.00  0.00    -0.241 OA
ATOM     24  O   LIG d   1       3.558  89.004 114.615  0.00  0.00    -0.241 OA
ENDBRANCH   3  22
TORSDOF 7
ENDMDL
MODEL 6
REMARK VINA RESULT:      -5.5      6.350      9.182
REMARK  7 active torsions:
REMARK  status: ('A' for Active; 'I' for Inactive)
REMARK    1  A    between atoms: C_2  and  C_3 
REMARK    2  A    between atoms: C_3  and  O_6 
REMARK    3  A    between atoms: C_3  and  C_4 
REMARK    4  A    between atoms: C_7  and  O_6 
REMARK    5  A    between atoms: C_9  and  C_10 
REMARK    6  A    between atoms: N_15  and  C_14 
REMARK    7  A    between atoms: N_20  and  C_19 
REMARK       I    between atoms: C_22  and  N_20 
ROOT
ATOM      1  C   LIG d   1      -3.122  75.718 115.517  0.00  0.00     0.161 C 
ATOM      2  C   LIG d   1      -2.913  75.017 116.717  0.00  0.00     0.016 C 
ATOM      3  C   LIG d   1      -1.654  74.918 117.351  0.00  0.00     0.038 C 
ATOM      4  C   LIG d   1      -0.540  75.644 116.905  0.00  0.00     0.028 C 
ATOM      5  C   LIG d   1      -0.581  75.961 115.414  0.00  0.00    -0.047 C 
ATOM      6  C   LIG d   1      -1.943  76.609 115.075  0.00  0.00     0.091 C 
ENDROOT
BRANCH   1   7
ATOM      7  O   LIG d   1      -4.331  76.497 115.611  0.00  0.00    -0.368 OA
BRANCH   7   8
ATOM      8  C   LIG d   1      -5.574  75.753 115.570  0.00  0.00     0.119 C 
BRANCH   8   9
ATOM      9  C   LIG d   1      -5.783  75.281 114.118  0.00  0.00     0.028 C 
ATOM     10  C   LIG d   1      -6.111  76.443 113.165  0.00  0.00     0.006 C 
ENDBRANCH   8   9
BRANCH   8  11
ATOM     11  C   LIG d   1      -6.773  76.653 115.880  0.00  0.00     0.028 C 
ATOM     12  C   LIG d   1      -6.552  77.532 117.122  0.00  0.00     0.006 C 
ENDBRANCH   8  11
ENDBRANCH   7   8
ENDBRANCH   1   7
BRANCH   6  13
ATOM     13  N   LIG d   1      -2.099  76.873 113.621  0.00  0.00    -0.311 N 
ATOM     14  C   LIG d   1      -2.622  77.996 113.132  0.00  0.00     0.210 C 
ATOM     15  C   LIG d   1      -2.710  78.057 111.604  0.00  0.00     0.109 C 
ATOM     16  O   LIG d   1      -2.993  78.961 113.818  0.00  0.00    -0.276 OA
ATOM     17  H   LIG d   1      -1.795  76.156 112.992  0.00  0.00     0.149 HD
ENDBRANCH   6  13
BRANCH   5  18
ATOM     18  N   LIG d   1       0.567  76.836 115.112  0.00  0.00     0.381 N 
ATOM     19  H   LIG d   1       0.482  77.693 115.621  0.00  0.00    -0.090 HD
ATOM     20  H   LIG d   1       0.564  77.051 114.131  0.00  0.00    -0.090 HD
ATOM     21  H   LIG d   1       1.418  76.379 115.356  0.00  0.00    -0.090 HD
ENDBRANCH   5  18
BRANCH   3  22
ATOM     22  C   LIG d   1      -1.490  74.052 118.422  0.00  0.00     0.382 C 
ATOM     23  O   LIG d   1      -0.731  73.059 118.315  0.00  0.00    -0.241 OA
ATOM     24  O   LIG d   1      -2.125  74.228 119.479  0.00  0.00    -0.241 OA
ENDBRANCH   3  22
TORSDOF 7
ENDMDL
MODEL 7
REMARK VINA RESULT:      -5.4      2.241      3.045
REMARK  7 active torsions:
REMARK  status: ('A' for Active; 'I' for Inactive)
REMARK    1  A    between atoms: C_2  and  C_3 
REMARK    2  A    between atoms: C_3  and  O_6 
REMARK    3  A    between atoms: C_3  and  C_4 
REMARK    4  A    between atoms: C_7  and  O_6 
REMARK    5  A    between atoms: C_9  and  C_10 
REMARK    6  A    between atoms: N_15  and  C_14 
REMARK    7  A    between atoms: N_20  and  C_19 
REMARK       I    between atoms: C_22  and  N_20 
ROOT
ATOM      1  C   LIG d   1       2.550  82.166 110.999  0.00  0.00     0.161 C 
ATOM      2  C   LIG d   1       1.954  81.223 110.145  0.00  0.00     0.016 C 
ATOM      3  C   LIG d   1       1.010  80.265 110.581  0.00  0.00     0.038 C 
ATOM      4  C   LIG d   1       0.482  80.283 111.880  0.00  0.00     0.028 C 
ATOM      5  C   LIG d   1       1.426  80.895 112.910  0.00  0.00    -0.047 C 
ATOM      6  C   LIG d   1       1.903  82.272 112.396  0.00  0.00     0.091 C 
ENDROOT
BRANCH   1   7
ATOM      7  O   LIG d   1       2.576  83.457 110.359  0.00  0.00    -0.368 OA
BRANCH   7   8
ATOM      8  C   LIG d   1       1.589  84.415 110.815  0.00  0.00     0.119 C 
BRANCH   8   9
ATOM      9  C   LIG d   1       0.663  84.728 109.624  0.00  0.00     0.028 C 
ATOM     10  C   LIG d   1      -0.673  85.349 110.067  0.00  0.00     0.006 C 
ENDBRANCH   8   9
BRANCH   8  11
ATOM     11  C   LIG d   1       2.239  85.751 111.186  0.00  0.00     0.028 C 
ATOM     12  C   LIG d   1       3.754  85.632 111.419  0.00  0.00     0.006 C 
ENDBRANCH   8  11
ENDBRANCH   7   8
ENDBRANCH   1   7
BRANCH   6  13
ATOM     13  N   LIG d   1       2.896  82.903 113.304  0.00  0.00    -0.311 N 
ATOM     14  C   LIG d   1       2.564  83.739 114.286  0.00  0.00     0.210 C 
ATOM     15  C   LIG d   1       3.744  84.292 115.092  0.00  0.00     0.109 C 
ATOM     16  O   LIG d   1       1.402  84.050 114.588  0.00  0.00    -0.276 OA
ATOM     17  H   LIG d   1       3.860  82.681 113.151  0.00  0.00     0.149 HD
ENDBRANCH   6  13
BRANCH   5  18
ATOM     18  N   LIG d   1       0.697  80.976 114.190  0.00  0.00     0.381 N 
ATOM     19  H   LIG d   1      -0.184  81.430 114.050  0.00  0.00    -0.090 HD
ATOM     20  H   LIG d   1       1.236  81.525 114.836  0.00  0.00    -0.090 HD
ATOM     21  H   LIG d   1       0.553  80.062 114.559  0.00  0.00    -0.090 HD
ENDBRANCH   5  18
BRANCH   3  22
ATOM     22  C   LIG d   1       0.615  79.250 109.723  0.00  0.00     0.382 C 
ATOM     23  O   LIG d   1       1.455  78.411 109.315  0.00  0.00    -0.241 OA
ATOM     24  O   LIG d   1      -0.561  79.187 109.317  0.00  0.00    -0.241 OA
ENDBRANCH   3  22
TORSDOF 7
ENDMDL
MODEL 8
REMARK VINA RESULT:      -5.3      5.171      8.606
REMARK  7 active torsions:
REMARK  status: ('A' for Active; 'I' for Inactive)
REMARK    1  A    between atoms: C_2  and  C_3 
REMARK    2  A    between atoms: C_3  and  O_6 
REMARK    3  A    between atoms: C_3  and  C_4 
REMARK    4  A    between atoms: C_7  and  O_6 
REMARK    5  A    between atoms: C_9  and  C_10 
REMARK    6  A    between atoms: N_15  and  C_14 
REMARK    7  A    between atoms: N_20  and  C_19 
REMARK       I    between atoms: C_22  and  N_20 
ROOT
ATOM      1  C   LIG d   1      -3.006  76.818 114.062  0.00  0.00     0.161 C 
ATOM      2  C   LIG d   1      -2.747  77.494 112.858  0.00  0.00     0.016 C 
ATOM      3  C   LIG d   1      -1.444  77.711 112.353  0.00  0.00     0.038 C 
ATOM      4  C   LIG d   1      -0.313  77.132 112.945  0.00  0.00     0.028 C 
ATOM      5  C   LIG d   1      -0.479  76.868 114.438  0.00  0.00    -0.047 C 
ATOM      6  C   LIG d   1      -1.791  76.083 114.666  0.00  0.00     0.091 C 
ENDROOT
BRANCH   1   7
ATOM      7  O   LIG d   1      -4.106  75.905 113.883  0.00  0.00    -0.368 OA
BRANCH   7   8
ATOM      8  C   LIG d   1      -5.423  76.424 114.194  0.00  0.00     0.119 C 
BRANCH   8   9
ATOM      9  C   LIG d   1      -5.937  75.669 115.435  0.00  0.00     0.028 C 
ATOM     10  C   LIG d   1      -6.874  76.530 116.299  0.00  0.00     0.006 C 
ENDBRANCH   8   9
BRANCH   8  11
ATOM     11  C   LIG d   1      -6.425  76.104 113.081  0.00  0.00     0.028 C 
ATOM     12  C   LIG d   1      -6.383  77.123 111.930  0.00  0.00     0.006 C 
ENDBRANCH   8  11
ENDBRANCH   7   8
ENDBRANCH   1   7
BRANCH   6  13
ATOM     13  N   LIG d   1      -2.073  75.856 116.107  0.00  0.00    -0.311 N 
ATOM     14  C   LIG d   1      -1.606  74.812 116.790  0.00  0.00     0.210 C 
ATOM     15  C   LIG d   1      -2.032  74.758 118.260  0.00  0.00     0.109 C 
ATOM     16  O   LIG d   1      -0.851  73.944 116.326  0.00  0.00    -0.276 OA
ATOM     17  H   LIG d   1      -2.652  76.529 116.570  0.00  0.00     0.149 HD
ENDBRANCH   6  13
BRANCH   5  18
ATOM     18  N   LIG d   1       0.718  76.138 114.898  0.00  0.00     0.381 N 
ATOM     19  H   LIG d   1       1.537  76.536 114.483  0.00  0.00    -0.090 HD
ATOM     20  H   LIG d   1       0.649  75.181 114.602  0.00  0.00    -0.090 HD
ATOM     21  H   LIG d   1       0.784  76.183 115.891  0.00  0.00    -0.090 HD
ENDBRANCH   5  18
BRANCH   3  22
ATOM     22  C   LIG d   1      -1.261  78.550 111.264  0.00  0.00     0.382 C 
ATOM     23  O   LIG d   1      -1.160  79.789 111.436  0.00  0.00    -0.241 OA
ATOM     24  O   LIG d   1      -1.239  78.088 110.107  0.00  0.00    -0.241 OA
ENDBRANCH   3  22
TORSDOF 7
ENDMDL
MODEL 9
REMARK VINA RESULT:      -5.2      5.765      9.135
REMARK  7 active torsions:
REMARK  status: ('A' for Active; 'I' for Inactive)
REMARK    1  A    between atoms: C_2  and  C_3 
REMARK    2  A    between atoms: C_3  and  O_6 
REMARK    3  A    between atoms: C_3  and  C_4 
REMARK    4  A    between atoms: C_7  and  O_6 
REMARK    5  A    between atoms: C_9  and  C_10 
REMARK    6  A    between atoms: N_15  and  C_14 
REMARK    7  A    between atoms: N_20  and  C_19 
REMARK       I    between atoms: C_22  and  N_20 
ROOT
ATOM      1  C   LIG d   1      -2.684  77.305 116.072  0.00  0.00     0.161 C 
ATOM      2  C   LIG d   1      -2.982  78.267 115.093  0.00  0.00     0.016 C 
ATOM      3  C   LIG d   1      -2.132  78.556 114.001  0.00  0.00     0.038 C 
ATOM      4  C   LIG d   1      -0.988  77.791 113.730  0.00  0.00     0.028 C 
ATOM      5  C   LIG d   1      -0.384  77.143 114.971  0.00  0.00    -0.047 C 
ATOM      6  C   LIG d   1      -1.495  76.383 115.731  0.00  0.00     0.091 C 
ENDROOT
BRANCH   1   7
ATOM      7  O   LIG d   1      -3.859  76.522 116.361  0.00  0.00    -0.368 OA
BRANCH   7   8
ATOM      8  C   LIG d   1      -4.938  76.612 115.398  0.00  0.00     0.119 C 
BRANCH   8   9
ATOM      9  C   LIG d   1      -6.253  76.758 116.188  0.00  0.00     0.028 C 
ATOM     10  C   LIG d   1      -6.125  77.743 117.362  0.00  0.00     0.006 C 
ENDBRANCH   8   9
BRANCH   8  11
ATOM     11  C   LIG d   1      -5.085  75.311 114.603  0.00  0.00     0.028 C 
ATOM     12  C   LIG d   1      -6.128  74.358 115.207  0.00  0.00     0.006 C 
ENDBRANCH   8  11
ENDBRANCH   7   8
ENDBRANCH   1   7
BRANCH   6  13
ATOM     13  N   LIG d   1      -1.007  75.790 117.004  0.00  0.00    -0.311 N 
ATOM     14  C   LIG d   1      -0.510  74.557 117.095  0.00  0.00     0.210 C 
ATOM     15  C   LIG d   1      -0.083  74.135 118.504  0.00  0.00     0.109 C 
ATOM     16  O   LIG d   1      -0.353  73.786 116.137  0.00  0.00    -0.276 OA
ATOM     17  H   LIG d   1      -1.069  76.359 117.825  0.00  0.00     0.149 HD
ENDBRANCH   6  13
BRANCH   5  18
ATOM     18  N   LIG d   1       0.716  76.267 114.526  0.00  0.00     0.381 N 
ATOM     19  H   LIG d   1       1.531  76.439 115.080  0.00  0.00    -0.090 HD
ATOM     20  H   LIG d   1       0.934  76.480 113.569  0.00  0.00    -0.090 HD
ATOM     21  H   LIG d   1       0.445  75.311 114.608  0.00  0.00    -0.090 HD
ENDBRANCH   5  18
BRANCH   3  22
ATOM     22  C   LIG d   1      -2.401  79.648 113.190  0.00  0.00     0.382 C 
ATOM     23  O   LIG d   1      -1.975  79.673 112.010  0.00  0.00    -0.241 OA
ATOM     24  O   LIG d   1      -3.028  80.627 113.636  0.00  0.00    -0.241 OA
ENDBRANCH   3  22
TORSDOF 7
ENDMDL
