MODEL 1
REMARK VINA RESULT:      -6.3      0.000      0.000
REMARK  7 active torsions:
REMARK  status: ('A' for Active; 'I' for Inactive)
REMARK    1  A    between atoms: C_2  and  C_3 
REMARK    2  A    between atoms: C_3  and  O_6 
REMARK    3  A    between atoms: C_3  and  C_4 
REMARK    4  A    between atoms: C_7  and  O_6 
REMARK    5  A    between atoms: C_9  and  C_10 
REMARK    6  A    between atoms: N_15  and  C_14 
REMARK    7  A    between atoms: N_20  and  C_19 
REMARK       I    between atoms: C_22  and  N_20 
ROOT
ATOM      1  C   LIG d   1       3.518  85.480 112.171  0.00  0.00     0.161 C 
ATOM      2  C   LIG d   1       4.334  86.620 112.081  0.00  0.00     0.016 C 
ATOM      3  C   LIG d   1       4.471  87.564 113.124  0.00  0.00     0.038 C 
ATOM      4  C   LIG d   1       3.915  87.350 114.395  0.00  0.00     0.028 C 
ATOM      5  C   LIG d   1       2.673  86.466 114.372  0.00  0.00    -0.047 C 
ATOM      6  C   LIG d   1       2.992  85.172 113.589  0.00  0.00     0.091 C 
ENDROOT
BRANCH   1   7
ATOM      7  O   LIG d   1       4.214  84.337 111.636  0.00  0.00    -0.368 OA
BRANCH   7   8
ATOM      8  C   LIG d   1       3.499  83.563 110.642  0.00  0.00     0.119 C 
BRANCH   8   9
ATOM      9  C   LIG d   1       4.535  83.050 109.622  0.00  0.00     0.028 C 
ATOM     10  C   LIG d   1       4.358  81.555 109.308  0.00  0.00     0.006 C 
ENDBRANCH   8   9
BRANCH   8  11
ATOM     11  C   LIG d   1       2.538  84.442 109.837  0.00  0.00     0.028 C 
ATOM     12  C   LIG d   1       1.126  83.845 109.737  0.00  0.00     0.006 C 
ENDBRANCH   8  11
ENDBRANCH   7   8
ENDBRANCH   1   7
BRANCH   6  13
ATOM     13  N   LIG d   1       1.805  84.289 113.446  0.00  0.00    -0.311 N 
ATOM     14  C   LIG d   1       1.758  83.043 113.914  0.00  0.00     0.210 C 
ATOM     15  C   LIG d   1       0.447  82.299 113.642  0.00  0.00     0.109 C 
ATOM     16  O   LIG d   1       2.666  82.494 114.557  0.00  0.00    -0.276 OA
ATOM     17  H   LIG d   1       1.012  84.665 112.965  0.00  0.00     0.149 HD
ENDBRANCH   6  13
BRANCH   5  18
ATOM     18  N   LIG d   1       2.279  86.214 115.771  0.00  0.00     0.381 N 
ATOM     19  H   LIG d   1       1.679  85.415 115.815  0.00  0.00    -0.090 HD
ATOM     20  H   LIG d   1       1.771  87.010 116.114  0.00  0.00    -0.090 HD
ATOM     21  H   LIG d   1       3.089  86.061 116.330  0.00  0.00    -0.090 HD
ENDBRANCH   5  18
BRANCH   3  22
ATOM     22  C   LIG d   1       5.138  88.756 112.889  0.00  0.00     0.382 C 
ATOM     23  O   LIG d   1       4.528  89.847 112.995  0.00  0.00    -0.241 OA
ATOM     24  O   LIG d   1       6.331  88.752 112.530  0.00  0.00    -0.241 OA
ENDBRANCH   3  22
TORSDOF 7
ENDMDL
MODEL 2
REMARK VINA RESULT:      -6.2      0.397      1.652
REMARK  7 active torsions:
REMARK  status: ('A' for Active; 'I' for Inactive)
REMARK    1  A    between atoms: C_2  and  C_3 
REMARK    2  A    between atoms: C_3  and  O_6 
REMARK    3  A    between atoms: C_3  and  C_4 
REMARK    4  A    between atoms: C_7  and  O_6 
REMARK    5  A    between atoms: C_9  and  C_10 
REMARK    6  A    between atoms: N_15  and  C_14 
REMARK    7  A    between atoms: N_20  and  C_19 
REMARK       I    between atoms: C_22  and  N_20 
ROOT
ATOM      1  C   LIG d   1       3.376  85.438 112.035  0.00  0.00     0.161 C 
ATOM      2  C   LIG d   1       4.190  86.582 111.970  0.00  0.00     0.016 C 
ATOM      3  C   LIG d   1       4.363  87.476 113.051  0.00  0.00     0.038 C 
ATOM      4  C   LIG d   1       3.849  87.205 114.328  0.00  0.00     0.028 C 
ATOM      5  C   LIG d   1       2.605  86.323 114.305  0.00  0.00    -0.047 C 
ATOM      6  C   LIG d   1       2.896  85.066 113.453  0.00  0.00     0.091 C 
ENDROOT
BRANCH   1   7
ATOM      7  O   LIG d   1       4.053  84.321 111.426  0.00  0.00    -0.368 OA
BRANCH   7   8
ATOM      8  C   LIG d   1       3.753  84.079 110.029  0.00  0.00     0.119 C 
BRANCH   8   9
ATOM      9  C   LIG d   1       2.311  83.541 109.952  0.00  0.00     0.028 C 
ATOM     10  C   LIG d   1       1.344  84.547 109.305  0.00  0.00     0.006 C 
ENDBRANCH   8   9
BRANCH   8  11
ATOM     11  C   LIG d   1       4.633  82.964 109.456  0.00  0.00     0.028 C 
ATOM     12  C   LIG d   1       4.093  81.559 109.767  0.00  0.00     0.006 C 
ENDBRANCH   8  11
ENDBRANCH   7   8
ENDBRANCH   1   7
BRANCH   6  13
ATOM     13  N   LIG d   1       1.704  84.190 113.310  0.00  0.00    -0.311 N 
ATOM     14  C   LIG d   1       1.633  82.960 113.816  0.00  0.00     0.210 C 
ATOM     15  C   LIG d   1       0.321  82.221 113.535  0.00  0.00     0.109 C 
ATOM     16  O   LIG d   1       2.519  82.424 114.499  0.00  0.00    -0.276 OA
ATOM     17  H   LIG d   1       0.927  84.558 112.797  0.00  0.00     0.149 HD
ENDBRANCH   6  13
BRANCH   5  18
ATOM     18  N   LIG d   1       2.257  86.006 115.703  0.00  0.00     0.381 N 
ATOM     19  H   LIG d   1       1.383  86.432 115.939  0.00  0.00    -0.090 HD
ATOM     20  H   LIG d   1       2.965  86.384 116.307  0.00  0.00    -0.090 HD
ATOM     21  H   LIG d   1       2.198  85.019 115.825  0.00  0.00    -0.090 HD
ENDBRANCH   5  18
BRANCH   3  22
ATOM     22  C   LIG d   1       5.023  88.679 112.849  0.00  0.00     0.382 C 
ATOM     23  O   LIG d   1       6.216  88.681 112.460  0.00  0.00    -0.241 OA
ATOM     24  O   LIG d   1       4.456  89.760 113.093  0.00  0.00    -0.241 OA
ENDBRANCH   3  22
TORSDOF 7
ENDMDL
MODEL 3
REMARK VINA RESULT:      -6.0      3.226      6.743
REMARK  7 active torsions:
REMARK  status: ('A' for Active; 'I' for Inactive)
REMARK    1  A    between atoms: C_2  and  C_3 
REMARK    2  A    between atoms: C_3  and  O_6 
REMARK    3  A    between atoms: C_3  and  C_4 
REMARK    4  A    between atoms: C_7  and  O_6 
REMARK    5  A    between atoms: C_9  and  C_10 
REMARK    6  A    between atoms: N_15  and  C_14 
REMARK    7  A    between atoms: N_20  and  C_19 
REMARK       I    between atoms: C_22  and  N_20 
ROOT
ATOM      1  C   LIG d   1       1.120  83.043 111.148  0.00  0.00     0.161 C 
ATOM      2  C   LIG d   1       0.644  81.767 110.805  0.00  0.00     0.016 C 
ATOM      3  C   LIG d   1       1.441  80.782 110.178  0.00  0.00     0.038 C 
ATOM      4  C   LIG d   1       2.820  80.955 109.987  0.00  0.00     0.028 C 
ATOM      5  C   LIG d   1       3.234  82.417 109.857  0.00  0.00    -0.047 C 
ATOM      6  C   LIG d   1       2.650  83.212 111.047  0.00  0.00     0.091 C 
ENDROOT
BRANCH   1   7
ATOM      7  O   LIG d   1       0.662  83.397 112.468  0.00  0.00    -0.368 OA
BRANCH   7   8
ATOM      8  C   LIG d   1      -0.496  84.265 112.530  0.00  0.00     0.119 C 
BRANCH   8   9
ATOM      9  C   LIG d   1      -0.697  84.870 111.127  0.00  0.00     0.028 C 
ATOM     10  C   LIG d   1      -0.549  86.400 111.120  0.00  0.00     0.006 C 
ENDBRANCH   8   9
BRANCH   8  11
ATOM     11  C   LIG d   1      -0.248  85.460 113.455  0.00  0.00     0.028 C 
ATOM     12  C   LIG d   1       1.010  85.292 114.321  0.00  0.00     0.006 C 
ENDBRANCH   8  11
ENDBRANCH   7   8
ENDBRANCH   1   7
BRANCH   6  13
ATOM     13  N   LIG d   1       2.937  84.667 110.953  0.00  0.00    -0.311 N 
ATOM     14  C   LIG d   1       3.707  85.320 111.822  0.00  0.00     0.210 C 
ATOM     15  C   LIG d   1       3.857  86.821 111.553  0.00  0.00     0.109 C 
ATOM     16  O   LIG d   1       4.306  84.793 112.771  0.00  0.00    -0.276 OA
ATOM     17  H   LIG d   1       2.516  85.167 110.195  0.00  0.00     0.149 HD
ENDBRANCH   6  13
BRANCH   5  18
ATOM     18  N   LIG d   1       4.707  82.460 109.800  0.00  0.00     0.381 N 
ATOM     19  H   LIG d   1       5.091  81.860 110.503  0.00  0.00    -0.090 HD
ATOM     20  H   LIG d   1       5.013  83.399 109.987  0.00  0.00    -0.090 HD
ATOM     21  H   LIG d   1       5.023  82.173 108.900  0.00  0.00    -0.090 HD
ENDBRANCH   5  18
BRANCH   3  22
ATOM     22  C   LIG d   1       0.851  79.622 109.699  0.00  0.00     0.382 C 
ATOM     23  O   LIG d   1       1.521  78.565 109.618  0.00  0.00    -0.241 OA
ATOM     24  O   LIG d   1      -0.331  79.631 109.306  0.00  0.00    -0.241 OA
ENDBRANCH   3  22
TORSDOF 7
ENDMDL
MODEL 4
REMARK VINA RESULT:      -5.8      2.624      5.866
REMARK  7 active torsions:
REMARK  status: ('A' for Active; 'I' for Inactive)
REMARK    1  A    between atoms: C_2  and  C_3 
REMARK    2  A    between atoms: C_3  and  O_6 
REMARK    3  A    between atoms: C_3  and  C_4 
REMARK    4  A    between atoms: C_7  and  O_6 
REMARK    5  A    between atoms: C_9  and  C_10 
REMARK    6  A    between atoms: N_15  and  C_14 
REMARK    7  A    between atoms: N_20  and  C_19 
REMARK       I    between atoms: C_22  and  N_20 
ROOT
ATOM      1  C   LIG d   1       1.809  82.588 112.491  0.00  0.00     0.161 C 
ATOM      2  C   LIG d   1       0.689  81.765 112.699  0.00  0.00     0.016 C 
ATOM      3  C   LIG d   1      -0.643  82.239 112.660  0.00  0.00     0.038 C 
ATOM      4  C   LIG d   1      -0.953  83.547 112.258  0.00  0.00     0.028 C 
ATOM      5  C   LIG d   1       0.167  84.546 112.530  0.00  0.00    -0.047 C 
ATOM      6  C   LIG d   1       1.485  83.993 111.941  0.00  0.00     0.091 C 
ENDROOT
BRANCH   1   7
ATOM      7  O   LIG d   1       2.753  81.919 111.631  0.00  0.00    -0.368 OA
BRANCH   7   8
ATOM      8  C   LIG d   1       2.338  81.725 110.257  0.00  0.00     0.119 C 
BRANCH   8   9
ATOM      9  C   LIG d   1       2.724  80.289 109.855  0.00  0.00     0.028 C 
ATOM     10  C   LIG d   1       1.538  79.314 109.949  0.00  0.00     0.006 C 
ENDBRANCH   8   9
BRANCH   8  11
ATOM     11  C   LIG d   1       3.119  82.636 109.305  0.00  0.00     0.028 C 
ATOM     12  C   LIG d   1       4.589  82.809 109.717  0.00  0.00     0.006 C 
ENDBRANCH   8  11
ENDBRANCH   7   8
ENDBRANCH   1   7
BRANCH   6  13
ATOM     13  N   LIG d   1       2.649  84.870 112.236  0.00  0.00    -0.311 N 
ATOM     14  C   LIG d   1       3.061  85.840 111.422  0.00  0.00     0.210 C 
ATOM     15  C   LIG d   1       4.292  86.612 111.907  0.00  0.00     0.109 C 
ATOM     16  O   LIG d   1       2.504  86.156 110.360  0.00  0.00    -0.276 OA
ATOM     17  H   LIG d   1       3.140  84.703 113.093  0.00  0.00     0.149 HD
ENDBRANCH   6  13
BRANCH   5  18
ATOM     18  N   LIG d   1      -0.234  85.836 111.938  0.00  0.00     0.381 N 
ATOM     19  H   LIG d   1      -0.348  86.519 112.661  0.00  0.00    -0.090 HD
ATOM     20  H   LIG d   1      -1.117  85.720 111.472  0.00  0.00    -0.090 HD
ATOM     21  H   LIG d   1       0.456  86.142 111.288  0.00  0.00    -0.090 HD
ENDBRANCH   5  18
BRANCH   3  22
ATOM     22  C   LIG d   1      -1.679  81.411 113.065  0.00  0.00     0.382 C 
ATOM     23  O   LIG d   1      -1.440  80.225 113.396  0.00  0.00    -0.241 OA
ATOM     24  O   LIG d   1      -2.854  81.822 113.061  0.00  0.00    -0.241 OA
ENDBRANCH   3  22
TORSDOF 7
ENDMDL
MODEL 5
REMARK VINA RESULT:      -5.8     12.267     14.494
REMARK  7 active torsions:
REMARK  status: ('A' for Active; 'I' for Inactive)
REMARK    1  A    between atoms: C_2  and  C_3 
REMARK    2  A    between atoms: C_3  and  O_6 
REMARK    3  A    between atoms: C_3  and  C_4 
REMARK    4  A    between atoms: C_7  and  O_6 
REMARK    5  A    between atoms: C_9  and  C_10 
REMARK    6  A    between atoms: N_15  and  C_14 
REMARK    7  A    between atoms: N_20  and  C_19 
REMARK       I    between atoms: C_22  and  N_20 
ROOT
ATOM      1  C   LIG d   1      -5.951  75.815 116.447  0.00  0.00     0.161 C 
ATOM      2  C   LIG d   1      -4.859  74.999 116.109  0.00  0.00     0.016 C 
ATOM      3  C   LIG d   1      -3.517  75.337 116.396  0.00  0.00     0.038 C 
ATOM      4  C   LIG d   1      -3.184  76.452 117.180  0.00  0.00     0.028 C 
ATOM      5  C   LIG d   1      -4.218  77.571 117.111  0.00  0.00    -0.047 C 
ATOM      6  C   LIG d   1      -5.617  76.981 117.401  0.00  0.00     0.091 C 
ENDROOT
BRANCH   1   7
ATOM      7  O   LIG d   1      -7.013  75.008 116.994  0.00  0.00    -0.368 OA
BRANCH   7   8
ATOM      8  C   LIG d   1      -8.054  74.611 116.068  0.00  0.00     0.119 C 
BRANCH   8   9
ATOM      9  C   LIG d   1      -9.246  75.565 116.274  0.00  0.00     0.028 C 
ATOM     10  C   LIG d   1      -9.589  75.763 117.760  0.00  0.00     0.006 C 
ENDBRANCH   8   9
BRANCH   8  11
ATOM     11  C   LIG d   1      -8.590  73.215 116.398  0.00  0.00     0.028 C 
ATOM     12  C   LIG d   1      -7.499  72.133 116.362  0.00  0.00     0.006 C 
ENDBRANCH   8  11
ENDBRANCH   7   8
ENDBRANCH   1   7
BRANCH   6  13
ATOM     13  N   LIG d   1      -6.697  77.993 117.270  0.00  0.00    -0.311 N 
ATOM     14  C   LIG d   1      -7.381  78.473 118.307  0.00  0.00     0.210 C 
ATOM     15  C   LIG d   1      -8.466  79.494 117.950  0.00  0.00     0.109 C 
ATOM     16  O   LIG d   1      -7.170  78.175 119.493  0.00  0.00    -0.276 OA
ATOM     17  H   LIG d   1      -6.913  78.314 116.347  0.00  0.00     0.149 HD
ENDBRANCH   6  13
BRANCH   5  18
ATOM     18  N   LIG d   1      -3.817  78.609 118.079  0.00  0.00     0.381 N 
ATOM     19  H   LIG d   1      -4.630  79.041 118.470  0.00  0.00    -0.090 HD
ATOM     20  H   LIG d   1      -3.286  79.314 117.598  0.00  0.00    -0.090 HD
ATOM     21  H   LIG d   1      -3.266  78.205 118.804  0.00  0.00    -0.090 HD
ENDBRANCH   5  18
BRANCH   3  22
ATOM     22  C   LIG d   1      -2.487  74.577 115.862  0.00  0.00     0.382 C 
ATOM     23  O   LIG d   1      -2.388  74.441 114.619  0.00  0.00    -0.241 OA
ATOM     24  O   LIG d   1      -1.682  73.990 116.609  0.00  0.00    -0.241 OA
ENDBRANCH   3  22
TORSDOF 7
ENDMDL
MODEL 6
REMARK VINA RESULT:      -5.7      2.194      2.758
REMARK  7 active torsions:
REMARK  status: ('A' for Active; 'I' for Inactive)
REMARK    1  A    between atoms: C_2  and  C_3 
REMARK    2  A    between atoms: C_3  and  O_6 
REMARK    3  A    between atoms: C_3  and  C_4 
REMARK    4  A    between atoms: C_7  and  O_6 
REMARK    5  A    between atoms: C_9  and  C_10 
REMARK    6  A    between atoms: N_15  and  C_14 
REMARK    7  A    between atoms: N_20  and  C_19 
REMARK       I    between atoms: C_22  and  N_20 
ROOT
ATOM      1  C   LIG d   1       0.665  84.782 111.055  0.00  0.00     0.161 C 
ATOM      2  C   LIG d   1       1.608  85.811 110.894  0.00  0.00     0.016 C 
ATOM      3  C   LIG d   1       2.343  86.368 111.965  0.00  0.00     0.038 C 
ATOM      4  C   LIG d   1       2.294  85.827 113.259  0.00  0.00     0.028 C 
ATOM      5  C   LIG d   1       0.980  85.118 113.569  0.00  0.00    -0.047 C 
ATOM      6  C   LIG d   1       0.679  84.104 112.441  0.00  0.00     0.091 C 
ENDROOT
BRANCH   1   7
ATOM      7  O   LIG d   1       0.831  83.799 110.015  0.00  0.00    -0.368 OA
BRANCH   7   8
ATOM      8  C   LIG d   1       1.795  82.750 110.278  0.00  0.00     0.119 C 
BRANCH   8   9
ATOM      9  C   LIG d   1       2.973  82.950 109.305  0.00  0.00     0.028 C 
ATOM     10  C   LIG d   1       4.309  83.163 110.038  0.00  0.00     0.006 C 
ENDBRANCH   8   9
BRANCH   8  11
ATOM     11  C   LIG d   1       1.222  81.370 109.942  0.00  0.00     0.028 C 
ATOM     12  C   LIG d   1       1.984  80.225 110.628  0.00  0.00     0.006 C 
ENDBRANCH   8  11
ENDBRANCH   7   8
ENDBRANCH   1   7
BRANCH   6  13
ATOM     13  N   LIG d   1      -0.632  83.427 112.624  0.00  0.00    -0.311 N 
ATOM     14  C   LIG d   1      -0.760  82.207 113.142  0.00  0.00     0.210 C 
ATOM     15  C   LIG d   1      -2.199  81.687 113.223  0.00  0.00     0.109 C 
ATOM     16  O   LIG d   1       0.178  81.519 113.572  0.00  0.00    -0.276 OA
ATOM     17  H   LIG d   1      -1.448  83.926 112.330  0.00  0.00     0.149 HD
ENDBRANCH   6  13
BRANCH   5  18
ATOM     18  N   LIG d   1       1.117  84.485 114.894  0.00  0.00     0.381 N 
ATOM     19  H   LIG d   1       0.227  84.455 115.349  0.00  0.00    -0.090 HD
ATOM     20  H   LIG d   1       1.740  85.039 115.456  0.00  0.00    -0.090 HD
ATOM     21  H   LIG d   1       1.479  83.562 114.795  0.00  0.00    -0.090 HD
ENDBRANCH   5  18
BRANCH   3  22
ATOM     22  C   LIG d   1       3.109  87.505 111.755  0.00  0.00     0.382 C 
ATOM     23  O   LIG d   1       2.551  88.622 111.628  0.00  0.00    -0.241 OA
ATOM     24  O   LIG d   1       4.347  87.422 111.648  0.00  0.00    -0.241 OA
ENDBRANCH   3  22
TORSDOF 7
ENDMDL
MODEL 7
REMARK VINA RESULT:      -5.6     11.861     14.580
REMARK  7 active torsions:
REMARK  status: ('A' for Active; 'I' for Inactive)
REMARK    1  A    between atoms: C_2  and  C_3 
REMARK    2  A    between atoms: C_3  and  O_6 
REMARK    3  A    between atoms: C_3  and  C_4 
REMARK    4  A    between atoms: C_7  and  O_6 
REMARK    5  A    between atoms: C_9  and  C_10 
REMARK    6  A    between atoms: N_15  and  C_14 
REMARK    7  A    between atoms: N_20  and  C_19 
REMARK       I    between atoms: C_22  and  N_20 
ROOT
ATOM      1  C   LIG d   1      -7.444  77.056 117.591  0.00  0.00     0.161 C 
ATOM      2  C   LIG d   1      -8.628  77.775 117.824  0.00  0.00     0.016 C 
ATOM      3  C   LIG d   1      -8.675  79.184 117.931  0.00  0.00     0.038 C 
ATOM      4  C   LIG d   1      -7.557  79.986 117.660  0.00  0.00     0.028 C 
ATOM      5  C   LIG d   1      -6.229  79.281 117.916  0.00  0.00    -0.047 C 
ATOM      6  C   LIG d   1      -6.233  77.921 117.181  0.00  0.00     0.091 C 
ENDROOT
BRANCH   1   7
ATOM      7  O   LIG d   1      -7.681  76.029 116.608  0.00  0.00    -0.368 OA
BRANCH   7   8
ATOM      8  C   LIG d   1      -7.856  74.685 117.120  0.00  0.00     0.119 C 
BRANCH   8   9
ATOM      9  C   LIG d   1      -6.719  73.819 116.544  0.00  0.00     0.028 C 
ATOM     10  C   LIG d   1      -6.094  74.435 115.282  0.00  0.00     0.006 C 
ENDBRANCH   8   9
BRANCH   8  11
ATOM     11  C   LIG d   1      -9.151  74.054 116.598  0.00  0.00     0.028 C 
ATOM     12  C   LIG d   1      -9.131  72.518 116.658  0.00  0.00     0.006 C 
ENDBRANCH   8  11
ENDBRANCH   7   8
ENDBRANCH   1   7
BRANCH   6  13
ATOM     13  N   LIG d   1      -5.004  77.129 117.448  0.00  0.00    -0.311 N 
ATOM     14  C   LIG d   1      -3.940  77.134 116.647  0.00  0.00     0.210 C 
ATOM     15  C   LIG d   1      -2.787  76.231 117.097  0.00  0.00     0.109 C 
ATOM     16  O   LIG d   1      -3.829  77.826 115.624  0.00  0.00    -0.276 OA
ATOM     17  H   LIG d   1      -4.996  76.563 118.274  0.00  0.00     0.149 HD
ENDBRANCH   6  13
BRANCH   5  18
ATOM     18  N   LIG d   1      -5.152  80.180 117.462  0.00  0.00     0.381 N 
ATOM     19  H   LIG d   1      -5.175  80.260 116.465  0.00  0.00    -0.090 HD
ATOM     20  H   LIG d   1      -4.266  79.786 117.727  0.00  0.00    -0.090 HD
ATOM     21  H   LIG d   1      -5.261  81.079 117.877  0.00  0.00    -0.090 HD
ENDBRANCH   5  18
BRANCH   3  22
ATOM     22  C   LIG d   1      -9.842  79.802 118.353  0.00  0.00     0.382 C 
ATOM     23  O   LIG d   1     -10.865  79.115 118.591  0.00  0.00    -0.241 OA
ATOM     24  O   LIG d   1      -9.899  81.042 118.456  0.00  0.00    -0.241 OA
ENDBRANCH   3  22
TORSDOF 7
ENDMDL
MODEL 8
REMARK VINA RESULT:      -5.5      2.098      5.075
REMARK  7 active torsions:
REMARK  status: ('A' for Active; 'I' for Inactive)
REMARK    1  A    between atoms: C_2  and  C_3 
REMARK    2  A    between atoms: C_3  and  O_6 
REMARK    3  A    between atoms: C_3  and  C_4 
REMARK    4  A    between atoms: C_7  and  O_6 
REMARK    5  A    between atoms: C_9  and  C_10 
REMARK    6  A    between atoms: N_15  and  C_14 
REMARK    7  A    between atoms: N_20  and  C_19 
REMARK       I    between atoms: C_22  and  N_20 
ROOT
ATOM      1  C   LIG d   1       2.275  84.009 112.681  0.00  0.00     0.161 C 
ATOM      2  C   LIG d   1       1.228  83.081 112.559  0.00  0.00     0.016 C 
ATOM      3  C   LIG d   1      -0.036  83.249 113.170  0.00  0.00     0.038 C 
ATOM      4  C   LIG d   1      -0.391  84.438 113.825  0.00  0.00     0.028 C 
ATOM      5  C   LIG d   1       0.803  85.190 114.404  0.00  0.00    -0.047 C 
ATOM      6  C   LIG d   1       1.870  85.364 113.299  0.00  0.00     0.091 C 
ENDROOT
BRANCH   1   7
ATOM      7  O   LIG d   1       2.901  84.210 111.399  0.00  0.00    -0.368 OA
BRANCH   7   8
ATOM      8  C   LIG d   1       2.105  83.865 110.239  0.00  0.00     0.119 C 
BRANCH   8   9
ATOM      9  C   LIG d   1       2.989  83.014 109.306  0.00  0.00     0.028 C 
ATOM     10  C   LIG d   1       4.474  83.059 109.704  0.00  0.00     0.006 C 
ENDBRANCH   8   9
BRANCH   8  11
ATOM     11  C   LIG d   1       1.736  85.109 109.425  0.00  0.00     0.028 C 
ATOM     12  C   LIG d   1       0.390  85.719 109.847  0.00  0.00     0.006 C 
ENDBRANCH   8  11
ENDBRANCH   7   8
ENDBRANCH   1   7
BRANCH   6  13
ATOM     13  N   LIG d   1       3.107  86.016 113.803  0.00  0.00    -0.311 N 
ATOM     14  C   LIG d   1       3.485  87.242 113.448  0.00  0.00     0.210 C 
ATOM     15  C   LIG d   1       4.803  87.717 114.068  0.00  0.00     0.109 C 
ATOM     16  O   LIG d   1       2.838  87.995 112.704  0.00  0.00    -0.276 OA
ATOM     17  H   LIG d   1       3.675  85.488 114.436  0.00  0.00     0.149 HD
ENDBRANCH   6  13
BRANCH   5  18
ATOM     18  N   LIG d   1       0.306  86.473 114.935  0.00  0.00     0.381 N 
ATOM     19  H   LIG d   1      -0.579  86.690 114.523  0.00  0.00    -0.090 HD
ATOM     20  H   LIG d   1       0.955  87.200 114.689  0.00  0.00    -0.090 HD
ATOM     21  H   LIG d   1       0.215  86.420 115.926  0.00  0.00    -0.090 HD
ENDBRANCH   5  18
BRANCH   3  22
ATOM     22  C   LIG d   1      -0.947  82.203 113.163  0.00  0.00     0.382 C 
ATOM     23  O   LIG d   1      -1.997  82.291 112.482  0.00  0.00    -0.241 OA
ATOM     24  O   LIG d   1      -0.754  81.192 113.865  0.00  0.00    -0.241 OA
ENDBRANCH   3  22
TORSDOF 7
ENDMDL
MODEL 9
REMARK VINA RESULT:      -5.4      3.822      4.818
REMARK  7 active torsions:
REMARK  status: ('A' for Active; 'I' for Inactive)
REMARK    1  A    between atoms: C_2  and  C_3 
REMARK    2  A    between atoms: C_3  and  O_6 
REMARK    3  A    between atoms: C_3  and  C_4 
REMARK    4  A    between atoms: C_7  and  O_6 
REMARK    5  A    between atoms: C_9  and  C_10 
REMARK    6  A    between atoms: N_15  and  C_14 
REMARK    7  A    between atoms: N_20  and  C_19 
REMARK       I    between atoms: C_22  and  N_20 
ROOT
ATOM      1  C   LIG d   1      -0.837  82.783 112.141  0.00  0.00     0.161 C 
ATOM      2  C   LIG d   1      -0.705  83.985 111.428  0.00  0.00     0.016 C 
ATOM      3  C   LIG d   1      -0.438  85.230 112.043  0.00  0.00     0.038 C 
ATOM      4  C   LIG d   1      -0.132  85.332 113.409  0.00  0.00     0.028 C 
ATOM      5  C   LIG d   1      -0.750  84.221 114.252  0.00  0.00    -0.047 C 
ATOM      6  C   LIG d   1      -0.397  82.855 113.619  0.00  0.00     0.091 C 
ENDROOT
BRANCH   1   7
ATOM      7  O   LIG d   1      -0.128  81.729 111.459  0.00  0.00    -0.368 OA
BRANCH   7   8
ATOM      8  C   LIG d   1       0.919  82.151 110.550  0.00  0.00     0.119 C 
BRANCH   8   9
ATOM      9  C   LIG d   1       0.888  81.202 109.337  0.00  0.00     0.028 C 
ATOM     10  C   LIG d   1       0.475  79.771 109.721  0.00  0.00     0.006 C 
ENDBRANCH   8   9
BRANCH   8  11
ATOM     11  C   LIG d   1       2.306  81.966 111.174  0.00  0.00     0.028 C 
ATOM     12  C   LIG d   1       3.441  82.059 110.142  0.00  0.00     0.006 C 
ENDBRANCH   8  11
ENDBRANCH   7   8
ENDBRANCH   1   7
BRANCH   6  13
ATOM     13  N   LIG d   1      -1.032  81.718 114.334  0.00  0.00    -0.311 N 
ATOM     14  C   LIG d   1      -2.343  81.484 114.321  0.00  0.00     0.210 C 
ATOM     15  C   LIG d   1      -2.792  80.270 115.140  0.00  0.00     0.109 C 
ATOM     16  O   LIG d   1      -3.174  82.148 113.682  0.00  0.00    -0.276 OA
ATOM     17  H   LIG d   1      -0.428  81.110 114.852  0.00  0.00     0.149 HD
ENDBRANCH   6  13
BRANCH   5  18
ATOM     18  N   LIG d   1      -0.239  84.369 115.628  0.00  0.00     0.381 N 
ATOM     19  H   LIG d   1      -0.298  85.328 115.909  0.00  0.00    -0.090 HD
ATOM     20  H   LIG d   1       0.727  84.094 115.647  0.00  0.00    -0.090 HD
ATOM     21  H   LIG d   1      -0.767  83.799 116.251  0.00  0.00    -0.090 HD
ENDBRANCH   5  18
BRANCH   3  22
ATOM     22  C   LIG d   1      -0.514  86.396 111.297  0.00  0.00     0.382 C 
ATOM     23  O   LIG d   1       0.498  87.128 111.173  0.00  0.00    -0.241 OA
ATOM     24  O   LIG d   1      -1.592  86.748 110.783  0.00  0.00    -0.241 OA
ENDBRANCH   3  22
TORSDOF 7
ENDMDL
