MODEL 1
REMARK VINA RESULT:      -6.2      0.000      0.000
REMARK  7 active torsions:
REMARK  status: ('A' for Active; 'I' for Inactive)
REMARK    1  A    between atoms: C_2  and  C_3 
REMARK    2  A    between atoms: C_3  and  O_6 
REMARK    3  A    between atoms: C_3  and  C_4 
REMARK    4  A    between atoms: C_7  and  O_6 
REMARK    5  A    between atoms: C_9  and  C_10 
REMARK    6  A    between atoms: N_15  and  C_14 
REMARK    7  A    between atoms: N_20  and  C_19 
REMARK       I    between atoms: C_22  and  N_20 
ROOT
ATOM      1  C   LIG d   1       2.628  86.507 112.398  0.00  0.00     0.161 C 
ATOM      2  C   LIG d   1       3.111  87.806 112.631  0.00  0.00     0.016 C 
ATOM      3  C   LIG d   1       4.045  88.119 113.644  0.00  0.00     0.038 C 
ATOM      4  C   LIG d   1       4.679  87.123 114.401  0.00  0.00     0.028 C 
ATOM      5  C   LIG d   1       3.851  85.851 114.544  0.00  0.00    -0.047 C 
ATOM      6  C   LIG d   1       3.392  85.391 113.141  0.00  0.00     0.091 C 
ENDROOT
BRANCH   1   7
ATOM      7  O   LIG d   1       2.604  86.241 110.982  0.00  0.00    -0.368 OA
BRANCH   7   8
ATOM      8  C   LIG d   1       1.323  86.401 110.325  0.00  0.00     0.119 C 
BRANCH   8   9
ATOM      9  C   LIG d   1       0.229  86.226 111.395  0.00  0.00     0.028 C 
ATOM     10  C   LIG d   1      -0.995  87.121 111.136  0.00  0.00     0.006 C 
ENDBRANCH   8   9
BRANCH   8  11
ATOM     11  C   LIG d   1       1.076  85.285 109.306  0.00  0.00     0.028 C 
ATOM     12  C   LIG d   1       1.990  84.069 109.521  0.00  0.00     0.006 C 
ENDBRANCH   8  11
ENDBRANCH   7   8
ENDBRANCH   1   7
BRANCH   6  13
ATOM     13  N   LIG d   1       2.505  84.200 113.197  0.00  0.00    -0.311 N 
ATOM     14  C   LIG d   1       2.872  82.992 112.773  0.00  0.00     0.210 C 
ATOM     15  C   LIG d   1       1.799  81.907 112.902  0.00  0.00     0.109 C 
ATOM     16  O   LIG d   1       3.997  82.709 112.332  0.00  0.00    -0.276 OA
ATOM     17  H   LIG d   1       1.585  84.333 113.569  0.00  0.00     0.149 HD
ENDBRANCH   6  13
BRANCH   5  18
ATOM     18  N   LIG d   1       4.685  84.850 115.235  0.00  0.00     0.381 N 
ATOM     19  H   LIG d   1       5.366  85.312 115.805  0.00  0.00    -0.090 HD
ATOM     20  H   LIG d   1       5.169  84.300 114.548  0.00  0.00    -0.090 HD
ATOM     21  H   LIG d   1       4.114  84.261 115.801  0.00  0.00    -0.090 HD
ENDBRANCH   5  18
BRANCH   3  22
ATOM     22  C   LIG d   1       4.325  89.446 113.936  0.00  0.00     0.382 C 
ATOM     23  O   LIG d   1       4.464  89.809 115.128  0.00  0.00    -0.241 OA
ATOM     24  O   LIG d   1       4.395  90.291 113.024  0.00  0.00    -0.241 OA
ENDBRANCH   3  22
TORSDOF 7
ENDMDL
MODEL 2
REMARK VINA RESULT:      -6.0      2.757      5.039
REMARK  7 active torsions:
REMARK  status: ('A' for Active; 'I' for Inactive)
REMARK    1  A    between atoms: C_2  and  C_3 
REMARK    2  A    between atoms: C_3  and  O_6 
REMARK    3  A    between atoms: C_3  and  C_4 
REMARK    4  A    between atoms: C_7  and  O_6 
REMARK    5  A    between atoms: C_9  and  C_10 
REMARK    6  A    between atoms: N_15  and  C_14 
REMARK    7  A    between atoms: N_20  and  C_19 
REMARK       I    between atoms: C_22  and  N_20 
ROOT
ATOM      1  C   LIG d   1       2.879  84.912 110.732  0.00  0.00     0.161 C 
ATOM      2  C   LIG d   1       1.951  85.947 110.930  0.00  0.00     0.016 C 
ATOM      3  C   LIG d   1       0.552  85.770 110.816  0.00  0.00     0.038 C 
ATOM      4  C   LIG d   1      -0.023  84.503 110.643  0.00  0.00     0.028 C 
ATOM      5  C   LIG d   1       0.895  83.512 109.936  0.00  0.00    -0.047 C 
ATOM      6  C   LIG d   1       2.265  83.498 110.652  0.00  0.00     0.091 C 
ENDROOT
BRANCH   1   7
ATOM      7  O   LIG d   1       3.892  84.961 111.757  0.00  0.00    -0.368 OA
BRANCH   7   8
ATOM      8  C   LIG d   1       3.518  85.623 112.990  0.00  0.00     0.119 C 
BRANCH   8   9
ATOM      9  C   LIG d   1       4.700  86.520 113.409  0.00  0.00     0.028 C 
ATOM     10  C   LIG d   1       4.711  87.863 112.661  0.00  0.00     0.006 C 
ENDBRANCH   8   9
BRANCH   8  11
ATOM     11  C   LIG d   1       3.346  84.618 114.133  0.00  0.00     0.028 C 
ATOM     12  C   LIG d   1       3.213  85.295 115.506  0.00  0.00     0.006 C 
ENDBRANCH   8  11
ENDBRANCH   7   8
ENDBRANCH   1   7
BRANCH   6  13
ATOM     13  N   LIG d   1       3.251  82.617 109.973  0.00  0.00    -0.311 N 
ATOM     14  C   LIG d   1       3.427  81.335 110.289  0.00  0.00     0.210 C 
ATOM     15  C   LIG d   1       4.509  80.613 109.479  0.00  0.00     0.109 C 
ATOM     16  O   LIG d   1       2.768  80.719 111.140  0.00  0.00    -0.276 OA
ATOM     17  H   LIG d   1       3.806  83.028 109.249  0.00  0.00     0.149 HD
ENDBRANCH   6  13
BRANCH   5  18
ATOM     18  N   LIG d   1       0.225  82.198 109.945  0.00  0.00     0.381 N 
ATOM     19  H   LIG d   1       0.824  81.515 110.364  0.00  0.00    -0.090 HD
ATOM     20  H   LIG d   1       0.043  81.919 108.997  0.00  0.00    -0.090 HD
ATOM     21  H   LIG d   1      -0.631  82.256 110.452  0.00  0.00    -0.090 HD
ENDBRANCH   5  18
BRANCH   3  22
ATOM     22  C   LIG d   1      -0.284  86.876 110.835  0.00  0.00     0.382 C 
ATOM     23  O   LIG d   1      -1.468  86.774 110.432  0.00  0.00    -0.241 OA
ATOM     24  O   LIG d   1       0.144  87.985 111.207  0.00  0.00    -0.241 OA
ENDBRANCH   3  22
TORSDOF 7
ENDMDL
MODEL 3
REMARK VINA RESULT:      -5.8      1.733      1.987
REMARK  7 active torsions:
REMARK  status: ('A' for Active; 'I' for Inactive)
REMARK    1  A    between atoms: C_2  and  C_3 
REMARK    2  A    between atoms: C_3  and  O_6 
REMARK    3  A    between atoms: C_3  and  C_4 
REMARK    4  A    between atoms: C_7  and  O_6 
REMARK    5  A    between atoms: C_9  and  C_10 
REMARK    6  A    between atoms: N_15  and  C_14 
REMARK    7  A    between atoms: N_20  and  C_19 
REMARK       I    between atoms: C_22  and  N_20 
ROOT
ATOM      1  C   LIG d   1       2.210  86.781 114.229  0.00  0.00     0.161 C 
ATOM      2  C   LIG d   1       2.745  88.043 113.925  0.00  0.00     0.016 C 
ATOM      3  C   LIG d   1       4.006  88.485 114.387  0.00  0.00     0.038 C 
ATOM      4  C   LIG d   1       4.889  87.631 115.064  0.00  0.00     0.028 C 
ATOM      5  C   LIG d   1       4.186  86.513 115.827  0.00  0.00    -0.047 C 
ATOM      6  C   LIG d   1       3.206  85.793 114.872  0.00  0.00     0.091 C 
ENDROOT
BRANCH   1   7
ATOM      7  O   LIG d   1       1.624  86.201 113.046  0.00  0.00    -0.368 OA
BRANCH   7   8
ATOM      8  C   LIG d   1       2.065  86.752 111.781  0.00  0.00     0.119 C 
BRANCH   8   9
ATOM      9  C   LIG d   1       0.807  87.109 110.966  0.00  0.00     0.028 C 
ATOM     10  C   LIG d   1      -0.478  86.543 111.594  0.00  0.00     0.006 C 
ENDBRANCH   8   9
BRANCH   8  11
ATOM     11  C   LIG d   1       2.806  85.703 110.945  0.00  0.00     0.028 C 
ATOM     12  C   LIG d   1       2.641  84.278 111.496  0.00  0.00     0.006 C 
ENDBRANCH   8  11
ENDBRANCH   7   8
ENDBRANCH   1   7
BRANCH   6  13
ATOM     13  N   LIG d   1       2.414  84.741 115.561  0.00  0.00    -0.311 N 
ATOM     14  C   LIG d   1       2.785  83.463 115.616  0.00  0.00     0.210 C 
ATOM     15  C   LIG d   1       1.815  82.539 116.358  0.00  0.00     0.109 C 
ATOM     16  O   LIG d   1       3.842  83.012 115.148  0.00  0.00    -0.276 OA
ATOM     17  H   LIG d   1       1.558  85.024 115.995  0.00  0.00     0.149 HD
ENDBRANCH   6  13
BRANCH   5  18
ATOM     18  N   LIG d   1       5.226  85.620 116.369  0.00  0.00     0.381 N 
ATOM     19  H   LIG d   1       4.809  84.769 116.688  0.00  0.00    -0.090 HD
ATOM     20  H   LIG d   1       5.665  86.070 117.153  0.00  0.00    -0.090 HD
ATOM     21  H   LIG d   1       5.906  85.422 115.667  0.00  0.00    -0.090 HD
ENDBRANCH   5  18
BRANCH   3  22
ATOM     22  C   LIG d   1       4.379  89.809 114.208  0.00  0.00     0.382 C 
ATOM     23  O   LIG d   1       4.435  90.293 113.052  0.00  0.00    -0.241 OA
ATOM     24  O   LIG d   1       4.702  90.512 115.184  0.00  0.00    -0.241 OA
ENDBRANCH   3  22
TORSDOF 7
ENDMDL
MODEL 4
REMARK VINA RESULT:      -5.8      2.317      5.644
REMARK  7 active torsions:
REMARK  status: ('A' for Active; 'I' for Inactive)
REMARK    1  A    between atoms: C_2  and  C_3 
REMARK    2  A    between atoms: C_3  and  O_6 
REMARK    3  A    between atoms: C_3  and  C_4 
REMARK    4  A    between atoms: C_7  and  O_6 
REMARK    5  A    between atoms: C_9  and  C_10 
REMARK    6  A    between atoms: N_15  and  C_14 
REMARK    7  A    between atoms: N_20  and  C_19 
REMARK       I    between atoms: C_22  and  N_20 
ROOT
ATOM      1  C   LIG d   1       2.995  83.643 111.174  0.00  0.00     0.161 C 
ATOM      2  C   LIG d   1       2.335  82.730 110.334  0.00  0.00     0.016 C 
ATOM      3  C   LIG d   1       1.498  81.697 110.813  0.00  0.00     0.038 C 
ATOM      4  C   LIG d   1       1.142  81.599 112.166  0.00  0.00     0.028 C 
ATOM      5  C   LIG d   1       2.183  82.188 113.111  0.00  0.00    -0.047 C 
ATOM      6  C   LIG d   1       2.530  83.620 112.645  0.00  0.00     0.091 C 
ENDROOT
BRANCH   1   7
ATOM      7  O   LIG d   1       2.883  84.974 110.634  0.00  0.00    -0.368 OA
BRANCH   7   8
ATOM      8  C   LIG d   1       1.662  85.688 110.947  0.00  0.00     0.119 C 
BRANCH   8   9
ATOM      9  C   LIG d   1       0.795  85.704 109.673  0.00  0.00     0.028 C 
ATOM     10  C   LIG d   1      -0.626  86.230 109.937  0.00  0.00     0.006 C 
ENDBRANCH   8   9
BRANCH   8  11
ATOM     11  C   LIG d   1       1.944  87.160 111.265  0.00  0.00     0.028 C 
ATOM     12  C   LIG d   1       3.331  87.380 111.889  0.00  0.00     0.006 C 
ENDBRANCH   8  11
ENDBRANCH   7   8
ENDBRANCH   1   7
BRANCH   6  13
ATOM     13  N   LIG d   1       3.604  84.239 113.466  0.00  0.00    -0.311 N 
ATOM     14  C   LIG d   1       3.365  85.024 114.515  0.00  0.00     0.210 C 
ATOM     15  C   LIG d   1       4.615  85.573 115.209  0.00  0.00     0.109 C 
ATOM     16  O   LIG d   1       2.237  85.291 114.956  0.00  0.00    -0.276 OA
ATOM     17  H   LIG d   1       4.550  84.049 113.197  0.00  0.00     0.149 HD
ENDBRANCH   6  13
BRANCH   5  18
ATOM     18  N   LIG d   1       1.623  82.143 114.475  0.00  0.00     0.381 N 
ATOM     19  H   LIG d   1       1.906  82.957 114.984  0.00  0.00    -0.090 HD
ATOM     20  H   LIG d   1       1.984  81.334 114.949  0.00  0.00    -0.090 HD
ATOM     21  H   LIG d   1       0.629  82.098 114.434  0.00  0.00    -0.090 HD
ENDBRANCH   5  18
BRANCH   3  22
ATOM     22  C   LIG d   1       1.040  80.723 109.939  0.00  0.00     0.382 C 
ATOM     23  O   LIG d   1      -0.192  80.521 109.815  0.00  0.00    -0.241 OA
ATOM     24  O   LIG d   1       1.844  80.014 109.305  0.00  0.00    -0.241 OA
ENDBRANCH   3  22
TORSDOF 7
ENDMDL
MODEL 5
REMARK VINA RESULT:      -5.8      2.221      4.972
REMARK  7 active torsions:
REMARK  status: ('A' for Active; 'I' for Inactive)
REMARK    1  A    between atoms: C_2  and  C_3 
REMARK    2  A    between atoms: C_3  and  O_6 
REMARK    3  A    between atoms: C_3  and  C_4 
REMARK    4  A    between atoms: C_7  and  O_6 
REMARK    5  A    between atoms: C_9  and  C_10 
REMARK    6  A    between atoms: N_15  and  C_14 
REMARK    7  A    between atoms: N_20  and  C_19 
REMARK       I    between atoms: C_22  and  N_20 
ROOT
ATOM      1  C   LIG d   1       2.317  86.676 114.400  0.00  0.00     0.161 C 
ATOM      2  C   LIG d   1       3.307  86.210 115.281  0.00  0.00     0.016 C 
ATOM      3  C   LIG d   1       4.108  85.074 115.020  0.00  0.00     0.038 C 
ATOM      4  C   LIG d   1       4.076  84.412 113.784  0.00  0.00     0.028 C 
ATOM      5  C   LIG d   1       2.738  84.540 113.063  0.00  0.00    -0.047 C 
ATOM      6  C   LIG d   1       2.344  86.033 112.998  0.00  0.00     0.091 C 
ENDROOT
BRANCH   1   7
ATOM      7  O   LIG d   1       2.393  88.111 114.295  0.00  0.00    -0.368 OA
BRANCH   7   8
ATOM      8  C   LIG d   1       3.682  88.704 114.588  0.00  0.00     0.119 C 
BRANCH   8   9
ATOM      9  C   LIG d   1       3.428  89.973 115.425  0.00  0.00     0.028 C 
ATOM     10  C   LIG d   1       4.733  90.628 115.909  0.00  0.00     0.006 C 
ENDBRANCH   8   9
BRANCH   8  11
ATOM     11  C   LIG d   1       4.375  89.191 113.313  0.00  0.00     0.028 C 
ATOM     12  C   LIG d   1       5.317  88.139 112.707  0.00  0.00     0.006 C 
ENDBRANCH   8  11
ENDBRANCH   7   8
ENDBRANCH   1   7
BRANCH   6  13
ATOM     13  N   LIG d   1       1.007  86.240 112.382  0.00  0.00    -0.311 N 
ATOM     14  C   LIG d   1       0.816  86.923 111.255  0.00  0.00     0.210 C 
ATOM     15  C   LIG d   1      -0.644  87.033 110.805  0.00  0.00     0.109 C 
ATOM     16  O   LIG d   1       1.721  87.420 110.568  0.00  0.00    -0.276 OA
ATOM     17  H   LIG d   1       0.220  85.843 112.857  0.00  0.00     0.149 HD
ENDBRANCH   6  13
BRANCH   5  18
ATOM     18  N   LIG d   1       2.889  83.923 111.731  0.00  0.00     0.381 N 
ATOM     19  H   LIG d   1       3.653  83.277 111.741  0.00  0.00    -0.090 HD
ATOM     20  H   LIG d   1       3.093  84.643 111.061  0.00  0.00    -0.090 HD
ATOM     21  H   LIG d   1       2.049  83.451 111.477  0.00  0.00    -0.090 HD
ENDBRANCH   5  18
BRANCH   3  22
ATOM     22  C   LIG d   1       4.925  84.566 116.018  0.00  0.00     0.382 C 
ATOM     23  O   LIG d   1       5.362  85.324 116.917  0.00  0.00    -0.241 OA
ATOM     24  O   LIG d   1       5.267  83.368 116.006  0.00  0.00    -0.241 OA
ENDBRANCH   3  22
TORSDOF 7
ENDMDL
MODEL 6
REMARK VINA RESULT:      -5.7      3.444      6.046
REMARK  7 active torsions:
REMARK  status: ('A' for Active; 'I' for Inactive)
REMARK    1  A    between atoms: C_2  and  C_3 
REMARK    2  A    between atoms: C_3  and  O_6 
REMARK    3  A    between atoms: C_3  and  C_4 
REMARK    4  A    between atoms: C_7  and  O_6 
REMARK    5  A    between atoms: C_9  and  C_10 
REMARK    6  A    between atoms: N_15  and  C_14 
REMARK    7  A    between atoms: N_20  and  C_19 
REMARK       I    between atoms: C_22  and  N_20 
ROOT
ATOM      1  C   LIG d   1       1.435  83.023 111.418  0.00  0.00     0.161 C 
ATOM      2  C   LIG d   1       2.719  82.781 110.901  0.00  0.00     0.016 C 
ATOM      3  C   LIG d   1       2.994  81.786 109.935  0.00  0.00     0.038 C 
ATOM      4  C   LIG d   1       1.972  81.060 109.306  0.00  0.00     0.028 C 
ATOM      5  C   LIG d   1       0.716  80.919 110.159  0.00  0.00    -0.047 C 
ATOM      6  C   LIG d   1       0.290  82.317 110.662  0.00  0.00     0.091 C 
ENDROOT
BRANCH   1   7
ATOM      7  O   LIG d   1       1.194  84.442 111.482  0.00  0.00    -0.368 OA
BRANCH   7   8
ATOM      8  C   LIG d   1       1.839  85.245 110.462  0.00  0.00     0.119 C 
BRANCH   8   9
ATOM      9  C   LIG d   1       2.448  86.477 111.160  0.00  0.00     0.028 C 
ATOM     10  C   LIG d   1       3.334  86.095 112.358  0.00  0.00     0.006 C 
ENDBRANCH   8   9
BRANCH   8  11
ATOM     11  C   LIG d   1       0.819  85.806 109.467  0.00  0.00     0.028 C 
ATOM     12  C   LIG d   1      -0.572  86.008 110.088  0.00  0.00     0.006 C 
ENDBRANCH   8  11
ENDBRANCH   7   8
ENDBRANCH   1   7
BRANCH   6  13
ATOM     13  N   LIG d   1      -0.882  82.259 111.574  0.00  0.00    -0.311 N 
ATOM     14  C   LIG d   1      -1.056  81.303 112.484  0.00  0.00     0.210 C 
ATOM     15  C   LIG d   1      -2.343  81.420 113.307  0.00  0.00     0.109 C 
ATOM     16  O   LIG d   1      -0.251  80.387 112.710  0.00  0.00    -0.276 OA
ATOM     17  H   LIG d   1      -1.569  82.981 111.480  0.00  0.00     0.149 HD
ENDBRANCH   6  13
BRANCH   5  18
ATOM     18  N   LIG d   1      -0.314  80.264 109.331  0.00  0.00     0.381 N 
ATOM     19  H   LIG d   1      -0.520  79.357 109.701  0.00  0.00    -0.090 HD
ATOM     20  H   LIG d   1       0.042  80.151 108.398  0.00  0.00    -0.090 HD
ATOM     21  H   LIG d   1      -1.141  80.818 109.314  0.00  0.00    -0.090 HD
ENDBRANCH   5  18
BRANCH   3  22
ATOM     22  C   LIG d   1       4.309  81.479 109.620  0.00  0.00     0.382 C 
ATOM     23  O   LIG d   1       5.171  82.390 109.571  0.00  0.00    -0.241 OA
ATOM     24  O   LIG d   1       4.636  80.311 109.340  0.00  0.00    -0.241 OA
ENDBRANCH   3  22
TORSDOF 7
ENDMDL
MODEL 7
REMARK VINA RESULT:      -5.7      2.391      4.612
REMARK  7 active torsions:
REMARK  status: ('A' for Active; 'I' for Inactive)
REMARK    1  A    between atoms: C_2  and  C_3 
REMARK    2  A    between atoms: C_3  and  O_6 
REMARK    3  A    between atoms: C_3  and  C_4 
REMARK    4  A    between atoms: C_7  and  O_6 
REMARK    5  A    between atoms: C_9  and  C_10 
REMARK    6  A    between atoms: N_15  and  C_14 
REMARK    7  A    between atoms: N_20  and  C_19 
REMARK       I    between atoms: C_22  and  N_20 
ROOT
ATOM      1  C   LIG d   1       3.068  84.924 112.991  0.00  0.00     0.161 C 
ATOM      2  C   LIG d   1       3.719  86.145 113.233  0.00  0.00     0.016 C 
ATOM      3  C   LIG d   1       3.483  87.316 112.476  0.00  0.00     0.038 C 
ATOM      4  C   LIG d   1       2.462  87.386 111.517  0.00  0.00     0.028 C 
ATOM      5  C   LIG d   1       2.125  86.037 110.892  0.00  0.00    -0.047 C 
ATOM      6  C   LIG d   1       1.871  85.011 112.021  0.00  0.00     0.091 C 
ENDROOT
BRANCH   1   7
ATOM      7  O   LIG d   1       2.659  84.333 114.240  0.00  0.00    -0.368 OA
BRANCH   7   8
ATOM      8  C   LIG d   1       3.359  84.792 115.422  0.00  0.00     0.119 C 
BRANCH   8   9
ATOM      9  C   LIG d   1       4.308  83.662 115.866  0.00  0.00     0.028 C 
ATOM     10  C   LIG d   1       5.549  84.193 116.604  0.00  0.00     0.006 C 
ENDBRANCH   8   9
BRANCH   8  11
ATOM     11  C   LIG d   1       2.397  84.997 116.595  0.00  0.00     0.028 C 
ATOM     12  C   LIG d   1       1.745  83.688 117.068  0.00  0.00     0.006 C 
ENDBRANCH   8  11
ENDBRANCH   7   8
ENDBRANCH   1   7
BRANCH   6  13
ATOM     13  N   LIG d   1       1.616  83.644 111.497  0.00  0.00    -0.311 N 
ATOM     14  C   LIG d   1       0.395  83.149 111.302  0.00  0.00     0.210 C 
ATOM     15  C   LIG d   1       0.357  81.711 110.775  0.00  0.00     0.109 C 
ATOM     16  O   LIG d   1      -0.659  83.775 111.485  0.00  0.00    -0.276 OA
ATOM     17  H   LIG d   1       2.416  83.077 111.292  0.00  0.00     0.149 HD
ENDBRANCH   6  13
BRANCH   5  18
ATOM     18  N   LIG d   1       0.955  86.232 110.015  0.00  0.00     0.381 N 
ATOM     19  H   LIG d   1       1.232  86.716 109.184  0.00  0.00    -0.090 HD
ATOM     20  H   LIG d   1       0.277  86.795 110.497  0.00  0.00    -0.090 HD
ATOM     21  H   LIG d   1       0.557  85.350 109.776  0.00  0.00    -0.090 HD
ENDBRANCH   5  18
BRANCH   3  22
ATOM     22  C   LIG d   1       4.301  88.423 112.650  0.00  0.00     0.382 C 
ATOM     23  O   LIG d   1       5.540  88.319 112.480  0.00  0.00    -0.241 OA
ATOM     24  O   LIG d   1       3.821  89.512 113.017  0.00  0.00    -0.241 OA
ENDBRANCH   3  22
TORSDOF 7
ENDMDL
MODEL 8
REMARK VINA RESULT:      -5.5     24.900     27.638
REMARK  7 active torsions:
REMARK  status: ('A' for Active; 'I' for Inactive)
REMARK    1  A    between atoms: C_2  and  C_3 
REMARK    2  A    between atoms: C_3  and  O_6 
REMARK    3  A    between atoms: C_3  and  C_4 
REMARK    4  A    between atoms: C_7  and  O_6 
REMARK    5  A    between atoms: C_9  and  C_10 
REMARK    6  A    between atoms: N_15  and  C_14 
REMARK    7  A    between atoms: N_20  and  C_19 
REMARK       I    between atoms: C_22  and  N_20 
ROOT
ATOM      1  C   LIG d   1     -15.032  66.466 116.035  0.00  0.00     0.161 C 
ATOM      2  C   LIG d   1     -14.732  67.623 115.295  0.00  0.00     0.016 C 
ATOM      3  C   LIG d   1     -14.985  67.747 113.910  0.00  0.00     0.038 C 
ATOM      4  C   LIG d   1     -15.699  66.774 113.196  0.00  0.00     0.028 C 
ATOM      5  C   LIG d   1     -15.574  65.374 113.789  0.00  0.00    -0.047 C 
ATOM      6  C   LIG d   1     -15.912  65.437 115.296  0.00  0.00     0.091 C 
ENDROOT
BRANCH   1   7
ATOM      7  O   LIG d   1     -15.636  66.833 117.291  0.00  0.00    -0.368 OA
BRANCH   7   8
ATOM      8  C   LIG d   1     -14.815  66.652 118.470  0.00  0.00     0.119 C 
BRANCH   8   9
ATOM      9  C   LIG d   1     -15.313  65.385 119.192  0.00  0.00     0.028 C 
ATOM     10  C   LIG d   1     -14.245  64.279 119.239  0.00  0.00     0.006 C 
ENDBRANCH   8   9
BRANCH   8  11
ATOM     11  C   LIG d   1     -15.017  67.794 119.471  0.00  0.00     0.028 C 
ATOM     12  C   LIG d   1     -16.252  68.653 119.153  0.00  0.00     0.006 C 
ENDBRANCH   8  11
ENDBRANCH   7   8
ENDBRANCH   1   7
BRANCH   6  13
ATOM     13  N   LIG d   1     -15.733  64.125 115.972  0.00  0.00    -0.311 N 
ATOM     14  C   LIG d   1     -16.735  63.282 116.214  0.00  0.00     0.210 C 
ATOM     15  C   LIG d   1     -16.335  61.993 116.939  0.00  0.00     0.109 C 
ATOM     16  O   LIG d   1     -17.912  63.464 115.868  0.00  0.00    -0.276 OA
ATOM     17  H   LIG d   1     -14.804  63.883 116.259  0.00  0.00     0.149 HD
ENDBRANCH   6  13
BRANCH   5  18
ATOM     18  N   LIG d   1     -16.475  64.486 113.031  0.00  0.00     0.381 N 
ATOM     19  H   LIG d   1     -16.401  63.551 113.379  0.00  0.00    -0.090 HD
ATOM     20  H   LIG d   1     -16.195  64.487 112.066  0.00  0.00    -0.090 HD
ATOM     21  H   LIG d   1     -17.416  64.805 113.111  0.00  0.00    -0.090 HD
ENDBRANCH   5  18
BRANCH   3  22
ATOM     22  C   LIG d   1     -14.487  68.840 113.216  0.00  0.00     0.382 C 
ATOM     23  O   LIG d   1     -13.553  69.520 113.705  0.00  0.00    -0.241 OA
ATOM     24  O   LIG d   1     -14.989  69.179 112.128  0.00  0.00    -0.241 OA
ENDBRANCH   3  22
TORSDOF 7
ENDMDL
MODEL 9
REMARK VINA RESULT:      -5.5      2.321      4.438
REMARK  7 active torsions:
REMARK  status: ('A' for Active; 'I' for Inactive)
REMARK    1  A    between atoms: C_2  and  C_3 
REMARK    2  A    between atoms: C_3  and  O_6 
REMARK    3  A    between atoms: C_3  and  C_4 
REMARK    4  A    between atoms: C_7  and  O_6 
REMARK    5  A    between atoms: C_9  and  C_10 
REMARK    6  A    between atoms: N_15  and  C_14 
REMARK    7  A    between atoms: N_20  and  C_19 
REMARK       I    between atoms: C_22  and  N_20 
ROOT
ATOM      1  C   LIG d   1       4.032  84.319 112.383  0.00  0.00     0.161 C 
ATOM      2  C   LIG d   1       3.835  85.663 112.742  0.00  0.00     0.016 C 
ATOM      3  C   LIG d   1       2.989  86.543 112.029  0.00  0.00     0.038 C 
ATOM      4  C   LIG d   1       2.161  86.095 110.989  0.00  0.00     0.028 C 
ATOM      5  C   LIG d   1       2.703  84.864 110.270  0.00  0.00    -0.047 C 
ATOM      6  C   LIG d   1       3.052  83.784 111.319  0.00  0.00     0.091 C 
ENDROOT
BRANCH   1   7
ATOM      7  O   LIG d   1       3.997  83.488 113.560  0.00  0.00    -0.368 OA
BRANCH   7   8
ATOM      8  C   LIG d   1       2.715  83.383 114.228  0.00  0.00     0.119 C 
BRANCH   8   9
ATOM      9  C   LIG d   1       2.957  83.610 115.732  0.00  0.00     0.028 C 
ATOM     10  C   LIG d   1       4.453  83.643 116.088  0.00  0.00     0.006 C 
ENDBRANCH   8   9
BRANCH   8  11
ATOM     11  C   LIG d   1       2.144  81.966 114.118  0.00  0.00     0.028 C 
ATOM     12  C   LIG d   1       1.395  81.526 115.386  0.00  0.00     0.006 C 
ENDBRANCH   8  11
ENDBRANCH   7   8
ENDBRANCH   1   7
BRANCH   6  13
ATOM     13  N   LIG d   1       3.668  82.578 110.706  0.00  0.00    -0.311 N 
ATOM     14  C   LIG d   1       2.971  81.501 110.346  0.00  0.00     0.210 C 
ATOM     15  C   LIG d   1       3.803  80.361 109.752  0.00  0.00     0.109 C 
ATOM     16  O   LIG d   1       1.738  81.395 110.432  0.00  0.00    -0.276 OA
ATOM     17  H   LIG d   1       4.660  82.591 110.571  0.00  0.00     0.149 HD
ENDBRANCH   6  13
BRANCH   5  18
ATOM     18  N   LIG d   1       1.678  84.424 109.305  0.00  0.00     0.381 N 
ATOM     19  H   LIG d   1       1.855  84.836 108.411  0.00  0.00    -0.090 HD
ATOM     20  H   LIG d   1       0.777  84.737 109.623  0.00  0.00    -0.090 HD
ATOM     21  H   LIG d   1       1.685  83.431 109.229  0.00  0.00    -0.090 HD
ENDBRANCH   5  18
BRANCH   3  22
ATOM     22  C   LIG d   1       2.997  87.897 112.329  0.00  0.00     0.382 C 
ATOM     23  O   LIG d   1       3.842  88.356 113.134  0.00  0.00    -0.241 OA
ATOM     24  O   LIG d   1       2.141  88.657 111.837  0.00  0.00    -0.241 OA
ENDBRANCH   3  22
TORSDOF 7
ENDMDL
