MODEL 1
REMARK VINA RESULT:      -5.9      0.000      0.000
REMARK  7 active torsions:
REMARK  status: ('A' for Active; 'I' for Inactive)
REMARK    1  A    between atoms: C_2  and  C_3 
REMARK    2  A    between atoms: C_3  and  O_6 
REMARK    3  A    between atoms: C_3  and  C_4 
REMARK    4  A    between atoms: C_7  and  O_6 
REMARK    5  A    between atoms: C_9  and  C_10 
REMARK    6  A    between atoms: N_15  and  C_14 
REMARK    7  A    between atoms: N_20  and  C_19 
REMARK       I    between atoms: C_22  and  N_20 
ROOT
ATOM      1  C   LIG d   1     -14.568  67.050 115.638  0.00  0.00     0.161 C 
ATOM      2  C   LIG d   1     -14.386  68.025 114.644  0.00  0.00     0.016 C 
ATOM      3  C   LIG d   1     -14.689  67.811 113.279  0.00  0.00     0.038 C 
ATOM      4  C   LIG d   1     -15.340  66.650 112.837  0.00  0.00     0.028 C 
ATOM      5  C   LIG d   1     -15.082  65.436 113.724  0.00  0.00    -0.047 C 
ATOM      6  C   LIG d   1     -15.380  65.816 115.193  0.00  0.00     0.091 C 
ENDROOT
BRANCH   1   7
ATOM      7  O   LIG d   1     -15.164  67.648 116.806  0.00  0.00    -0.368 OA
BRANCH   7   8
ATOM      8  C   LIG d   1     -14.475  67.422 118.060  0.00  0.00     0.119 C 
BRANCH   8   9
ATOM      9  C   LIG d   1     -15.286  68.122 119.167  0.00  0.00     0.028 C 
ATOM     10  C   LIG d   1     -16.736  68.407 118.741  0.00  0.00     0.006 C 
ENDBRANCH   8   9
BRANCH   8  11
ATOM     11  C   LIG d   1     -13.102  68.102 118.072  0.00  0.00     0.028 C 
ATOM     12  C   LIG d   1     -12.648  68.502 119.485  0.00  0.00     0.006 C 
ENDBRANCH   8  11
ENDBRANCH   7   8
ENDBRANCH   1   7
BRANCH   6  13
ATOM     13  N   LIG d   1     -15.073  64.710 116.138  0.00  0.00    -0.311 N 
ATOM     14  C   LIG d   1     -15.987  63.848 116.579  0.00  0.00     0.210 C 
ATOM     15  C   LIG d   1     -15.463  62.797 117.563  0.00  0.00     0.109 C 
ATOM     16  O   LIG d   1     -17.176  63.834 116.224  0.00  0.00    -0.276 OA
ATOM     17  H   LIG d   1     -14.126  64.629 116.453  0.00  0.00     0.149 HD
ENDBRANCH   6  13
BRANCH   5  18
ATOM     18  N   LIG d   1     -15.928  64.334 113.229  0.00  0.00     0.381 N 
ATOM     19  H   LIG d   1     -15.527  63.947 112.398  0.00  0.00    -0.090 HD
ATOM     20  H   LIG d   1     -16.836  64.699 113.000  0.00  0.00    -0.090 HD
ATOM     21  H   LIG d   1     -16.011  63.628 113.927  0.00  0.00    -0.090 HD
ENDBRANCH   5  18
BRANCH   3  22
ATOM     22  C   LIG d   1     -14.303  68.750 112.334  0.00  0.00     0.382 C 
ATOM     23  O   LIG d   1     -15.150  69.543 111.856  0.00  0.00    -0.241 OA
ATOM     24  O   LIG d   1     -13.128  68.784 111.921  0.00  0.00    -0.241 OA
ENDBRANCH   3  22
TORSDOF 7
ENDMDL
MODEL 2
REMARK VINA RESULT:      -5.9     13.182     15.461
REMARK  7 active torsions:
REMARK  status: ('A' for Active; 'I' for Inactive)
REMARK    1  A    between atoms: C_2  and  C_3 
REMARK    2  A    between atoms: C_3  and  O_6 
REMARK    3  A    between atoms: C_3  and  C_4 
REMARK    4  A    between atoms: C_7  and  O_6 
REMARK    5  A    between atoms: C_9  and  C_10 
REMARK    6  A    between atoms: N_15  and  C_14 
REMARK    7  A    between atoms: N_20  and  C_19 
REMARK       I    between atoms: C_22  and  N_20 
ROOT
ATOM      1  C   LIG d   1      -2.684  73.771 116.252  0.00  0.00     0.161 C 
ATOM      2  C   LIG d   1      -3.104  74.654 117.261  0.00  0.00     0.016 C 
ATOM      3  C   LIG d   1      -2.268  75.644 117.826  0.00  0.00     0.038 C 
ATOM      4  C   LIG d   1      -0.992  75.919 117.312  0.00  0.00     0.028 C 
ATOM      5  C   LIG d   1      -0.342  74.720 116.631  0.00  0.00    -0.047 C 
ATOM      6  C   LIG d   1      -1.332  74.130 115.600  0.00  0.00     0.091 C 
ENDROOT
BRANCH   1   7
ATOM      7  O   LIG d   1      -3.710  73.656 115.246  0.00  0.00    -0.368 OA
BRANCH   7   8
ATOM      8  C   LIG d   1      -5.011  74.186 115.598  0.00  0.00     0.119 C 
BRANCH   8   9
ATOM      9  C   LIG d   1      -6.021  73.024 115.520  0.00  0.00     0.028 C 
ATOM     10  C   LIG d   1      -6.371  72.457 116.906  0.00  0.00     0.006 C 
ENDBRANCH   8   9
BRANCH   8  11
ATOM     11  C   LIG d   1      -5.493  75.212 114.568  0.00  0.00     0.028 C 
ATOM     12  C   LIG d   1      -6.680  76.048 115.070  0.00  0.00     0.006 C 
ENDBRANCH   8  11
ENDBRANCH   7   8
ENDBRANCH   1   7
BRANCH   6  13
ATOM     13  N   LIG d   1      -0.807  72.902 114.949  0.00  0.00    -0.311 N 
ATOM     14  C   LIG d   1      -0.196  72.904 113.765  0.00  0.00     0.210 C 
ATOM     15  C   LIG d   1       0.250  71.526 113.265  0.00  0.00     0.109 C 
ATOM     16  O   LIG d   1       0.048  73.920 113.097  0.00  0.00    -0.276 OA
ATOM     17  H   LIG d   1      -0.934  72.036 115.436  0.00  0.00     0.149 HD
ENDBRANCH   6  13
BRANCH   5  18
ATOM     18  N   LIG d   1       0.919  75.183 116.021  0.00  0.00     0.381 N 
ATOM     19  H   LIG d   1       1.514  74.400 115.836  0.00  0.00    -0.090 HD
ATOM     20  H   LIG d   1       1.390  75.790 116.669  0.00  0.00    -0.090 HD
ATOM     21  H   LIG d   1       0.729  75.672 115.174  0.00  0.00    -0.090 HD
ENDBRANCH   5  18
BRANCH   3  22
ATOM     22  C   LIG d   1      -2.692  76.343 118.946  0.00  0.00     0.382 C 
ATOM     23  O   LIG d   1      -1.968  77.246 119.432  0.00  0.00    -0.241 OA
ATOM     24  O   LIG d   1      -3.768  76.054 119.502  0.00  0.00    -0.241 OA
ENDBRANCH   3  22
TORSDOF 7
ENDMDL
MODEL 3
REMARK VINA RESULT:      -5.9      0.661      1.787
REMARK  7 active torsions:
REMARK  status: ('A' for Active; 'I' for Inactive)
REMARK    1  A    between atoms: C_2  and  C_3 
REMARK    2  A    between atoms: C_3  and  O_6 
REMARK    3  A    between atoms: C_3  and  C_4 
REMARK    4  A    between atoms: C_7  and  O_6 
REMARK    5  A    between atoms: C_9  and  C_10 
REMARK    6  A    between atoms: N_15  and  C_14 
REMARK    7  A    between atoms: N_20  and  C_19 
REMARK       I    between atoms: C_22  and  N_20 
ROOT
ATOM      1  C   LIG d   1     -14.872  66.707 115.994  0.00  0.00     0.161 C 
ATOM      2  C   LIG d   1     -14.636  67.802 115.145  0.00  0.00     0.016 C 
ATOM      3  C   LIG d   1     -14.805  67.750 113.743  0.00  0.00     0.038 C 
ATOM      4  C   LIG d   1     -15.372  66.637 113.105  0.00  0.00     0.028 C 
ATOM      5  C   LIG d   1     -15.153  65.330 113.860  0.00  0.00    -0.047 C 
ATOM      6  C   LIG d   1     -15.597  65.518 115.328  0.00  0.00     0.091 C 
ENDROOT
BRANCH   1   7
ATOM      7  O   LIG d   1     -15.593  67.142 117.164  0.00  0.00    -0.368 OA
BRANCH   7   8
ATOM      8  C   LIG d   1     -14.930  68.131 117.989  0.00  0.00     0.119 C 
BRANCH   8   9
ATOM      9  C   LIG d   1     -13.828  67.406 118.785  0.00  0.00     0.028 C 
ATOM     10  C   LIG d   1     -12.684  68.348 119.196  0.00  0.00     0.006 C 
ENDBRANCH   8   9
BRANCH   8  11
ATOM     11  C   LIG d   1     -15.881  68.704 119.044  0.00  0.00     0.028 C 
ATOM     12  C   LIG d   1     -17.308  68.146 118.926  0.00  0.00     0.006 C 
ENDBRANCH   8  11
ENDBRANCH   7   8
ENDBRANCH   1   7
BRANCH   6  13
ATOM     13  N   LIG d   1     -15.338  64.312 116.158  0.00  0.00    -0.311 N 
ATOM     14  C   LIG d   1     -16.303  63.598 116.735  0.00  0.00     0.210 C 
ATOM     15  C   LIG d   1     -15.817  62.405 117.563  0.00  0.00     0.109 C 
ATOM     16  O   LIG d   1     -17.517  63.821 116.612  0.00  0.00    -0.276 OA
ATOM     17  H   LIG d   1     -14.382  64.042 116.284  0.00  0.00     0.149 HD
ENDBRANCH   6  13
BRANCH   5  18
ATOM     18  N   LIG d   1     -15.911  64.277 113.157  0.00  0.00     0.381 N 
ATOM     19  H   LIG d   1     -16.032  63.487 113.760  0.00  0.00    -0.090 HD
ATOM     20  H   LIG d   1     -15.387  63.982 112.352  0.00  0.00    -0.090 HD
ATOM     21  H   LIG d   1     -16.799  64.627 112.875  0.00  0.00    -0.090 HD
ENDBRANCH   5  18
BRANCH   3  22
ATOM     22  C   LIG d   1     -14.369  68.807 112.958  0.00  0.00     0.382 C 
ATOM     23  O   LIG d   1     -13.273  69.364 113.211  0.00  0.00    -0.241 OA
ATOM     24  O   LIG d   1     -15.077  69.239 112.029  0.00  0.00    -0.241 OA
ENDBRANCH   3  22
TORSDOF 7
ENDMDL
MODEL 4
REMARK VINA RESULT:      -5.8     10.890     13.191
REMARK  7 active torsions:
REMARK  status: ('A' for Active; 'I' for Inactive)
REMARK    1  A    between atoms: C_2  and  C_3 
REMARK    2  A    between atoms: C_3  and  O_6 
REMARK    3  A    between atoms: C_3  and  C_4 
REMARK    4  A    between atoms: C_7  and  O_6 
REMARK    5  A    between atoms: C_9  and  C_10 
REMARK    6  A    between atoms: N_15  and  C_14 
REMARK    7  A    between atoms: N_20  and  C_19 
REMARK       I    between atoms: C_22  and  N_20 
ROOT
ATOM      1  C   LIG d   1      -6.791  75.396 116.787  0.00  0.00     0.161 C 
ATOM      2  C   LIG d   1      -7.656  74.295 116.669  0.00  0.00     0.016 C 
ATOM      3  C   LIG d   1      -7.205  72.969 116.477  0.00  0.00     0.038 C 
ATOM      4  C   LIG d   1      -5.845  72.632 116.540  0.00  0.00     0.028 C 
ATOM      5  C   LIG d   1      -4.918  73.778 116.153  0.00  0.00    -0.047 C 
ATOM      6  C   LIG d   1      -5.303  75.033 116.970  0.00  0.00     0.091 C 
ENDROOT
BRANCH   1   7
ATOM      7  O   LIG d   1      -7.233  76.252 117.859  0.00  0.00    -0.368 OA
BRANCH   7   8
ATOM      8  C   LIG d   1      -7.648  77.588 117.478  0.00  0.00     0.119 C 
BRANCH   8   9
ATOM      9  C   LIG d   1      -6.856  78.584 118.348  0.00  0.00     0.028 C 
ATOM     10  C   LIG d   1      -6.318  79.773 117.535  0.00  0.00     0.006 C 
ENDBRANCH   8   9
BRANCH   8  11
ATOM     11  C   LIG d   1      -9.121  77.832 117.821  0.00  0.00     0.028 C 
ATOM     12  C   LIG d   1      -9.338  78.187 119.300  0.00  0.00     0.006 C 
ENDBRANCH   8  11
ENDBRANCH   7   8
ENDBRANCH   1   7
BRANCH   6  13
ATOM     13  N   LIG d   1      -4.499  76.224 116.592  0.00  0.00    -0.311 N 
ATOM     14  C   LIG d   1      -3.727  76.890 117.450  0.00  0.00     0.210 C 
ATOM     15  C   LIG d   1      -2.999  78.101 116.858  0.00  0.00     0.109 C 
ATOM     16  O   LIG d   1      -3.551  76.574 118.636  0.00  0.00    -0.276 OA
ATOM     17  H   LIG d   1      -4.558  76.531 115.641  0.00  0.00     0.149 HD
ENDBRANCH   6  13
BRANCH   5  18
ATOM     18  N   LIG d   1      -3.533  73.333 116.396  0.00  0.00     0.381 N 
ATOM     19  H   LIG d   1      -3.044  73.256 115.527  0.00  0.00    -0.090 HD
ATOM     20  H   LIG d   1      -3.554  72.425 116.827  0.00  0.00    -0.090 HD
ATOM     21  H   LIG d   1      -3.066  73.980 116.993  0.00  0.00    -0.090 HD
ENDBRANCH   5  18
BRANCH   3  22
ATOM     22  C   LIG d   1      -8.119  71.970 116.177  0.00  0.00     0.382 C 
ATOM     23  O   LIG d   1      -7.728  70.901 115.649  0.00  0.00    -0.241 OA
ATOM     24  O   LIG d   1      -9.334  72.142 116.387  0.00  0.00    -0.241 OA
ENDBRANCH   3  22
TORSDOF 7
ENDMDL
MODEL 5
REMARK VINA RESULT:      -5.6     22.719     24.642
REMARK  7 active torsions:
REMARK  status: ('A' for Active; 'I' for Inactive)
REMARK    1  A    between atoms: C_2  and  C_3 
REMARK    2  A    between atoms: C_3  and  O_6 
REMARK    3  A    between atoms: C_3  and  C_4 
REMARK    4  A    between atoms: C_7  and  O_6 
REMARK    5  A    between atoms: C_9  and  C_10 
REMARK    6  A    between atoms: N_15  and  C_14 
REMARK    7  A    between atoms: N_20  and  C_19 
REMARK       I    between atoms: C_22  and  N_20 
ROOT
ATOM      1  C   LIG d   1       2.210  84.123 113.150  0.00  0.00     0.161 C 
ATOM      2  C   LIG d   1       2.721  85.428 113.250  0.00  0.00     0.016 C 
ATOM      3  C   LIG d   1       2.621  86.384 112.213  0.00  0.00     0.038 C 
ATOM      4  C   LIG d   1       1.865  86.147 111.056  0.00  0.00     0.028 C 
ATOM      5  C   LIG d   1       1.758  84.669 110.695  0.00  0.00    -0.047 C 
ATOM      6  C   LIG d   1       1.285  83.882 111.938  0.00  0.00     0.091 C 
ENDROOT
BRANCH   1   7
ATOM      7  O   LIG d   1       1.537  83.767 114.373  0.00  0.00    -0.368 OA
BRANCH   7   8
ATOM      8  C   LIG d   1       2.292  83.957 115.595  0.00  0.00     0.119 C 
BRANCH   8   9
ATOM      9  C   LIG d   1       2.344  82.599 116.322  0.00  0.00     0.028 C 
ATOM     10  C   LIG d   1       1.474  82.579 117.591  0.00  0.00     0.006 C 
ENDBRANCH   8   9
BRANCH   8  11
ATOM     11  C   LIG d   1       1.568  84.904 116.556  0.00  0.00     0.028 C 
ATOM     12  C   LIG d   1       2.356  86.196 116.826  0.00  0.00     0.006 C 
ENDBRANCH   8  11
ENDBRANCH   7   8
ENDBRANCH   1   7
BRANCH   6  13
ATOM     13  N   LIG d   1       1.235  82.417 111.696  0.00  0.00    -0.311 N 
ATOM     14  C   LIG d   1       0.131  81.774 111.319  0.00  0.00     0.210 C 
ATOM     15  C   LIG d   1       0.292  80.260 111.143  0.00  0.00     0.109 C 
ATOM     16  O   LIG d   1      -0.959  82.317 111.082  0.00  0.00    -0.276 OA
ATOM     17  H   LIG d   1       2.082  81.902 111.834  0.00  0.00     0.149 HD
ENDBRANCH   6  13
BRANCH   5  18
ATOM     18  N   LIG d   1       0.832  84.556 109.552  0.00  0.00     0.381 N 
ATOM     19  H   LIG d   1       1.346  84.356 108.718  0.00  0.00    -0.090 HD
ATOM     20  H   LIG d   1       0.359  85.434 109.428  0.00  0.00    -0.090 HD
ATOM     21  H   LIG d   1       0.167  83.833 109.723  0.00  0.00    -0.090 HD
ENDBRANCH   5  18
BRANCH   3  22
ATOM     22  C   LIG d   1       3.316  87.580 112.313  0.00  0.00     0.382 C 
ATOM     23  O   LIG d   1       2.728  88.616 112.707  0.00  0.00    -0.241 OA
ATOM     24  O   LIG d   1       4.512  87.646 111.971  0.00  0.00    -0.241 OA
ENDBRANCH   3  22
TORSDOF 7
ENDMDL
MODEL 6
REMARK VINA RESULT:      -5.6     11.776     14.247
REMARK  7 active torsions:
REMARK  status: ('A' for Active; 'I' for Inactive)
REMARK    1  A    between atoms: C_2  and  C_3 
REMARK    2  A    between atoms: C_3  and  O_6 
REMARK    3  A    between atoms: C_3  and  C_4 
REMARK    4  A    between atoms: C_7  and  O_6 
REMARK    5  A    between atoms: C_9  and  C_10 
REMARK    6  A    between atoms: N_15  and  C_14 
REMARK    7  A    between atoms: N_20  and  C_19 
REMARK       I    between atoms: C_22  and  N_20 
ROOT
ATOM      1  C   LIG d   1      -4.307  74.519 116.491  0.00  0.00     0.161 C 
ATOM      2  C   LIG d   1      -4.909  73.273 116.249  0.00  0.00     0.016 C 
ATOM      3  C   LIG d   1      -6.290  73.029 116.428  0.00  0.00     0.038 C 
ATOM      4  C   LIG d   1      -7.195  74.061 116.717  0.00  0.00     0.028 C 
ATOM      5  C   LIG d   1      -6.561  75.231 117.463  0.00  0.00    -0.047 C 
ATOM      6  C   LIG d   1      -5.296  75.686 116.700  0.00  0.00     0.091 C 
ENDROOT
BRANCH   1   7
ATOM      7  O   LIG d   1      -3.384  74.830 115.429  0.00  0.00    -0.368 OA
BRANCH   7   8
ATOM      8  C   LIG d   1      -1.998  74.995 115.817  0.00  0.00     0.119 C 
BRANCH   8   9
ATOM      9  C   LIG d   1      -1.355  75.988 114.830  0.00  0.00     0.028 C 
ATOM     10  C   LIG d   1      -1.670  77.451 115.181  0.00  0.00     0.006 C 
ENDBRANCH   8   9
BRANCH   8  11
ATOM     11  C   LIG d   1      -1.213  73.690 115.649  0.00  0.00     0.028 C 
ATOM     12  C   LIG d   1      -0.778  73.079 116.990  0.00  0.00     0.006 C 
ENDBRANCH   8  11
ENDBRANCH   7   8
ENDBRANCH   1   7
BRANCH   6  13
ATOM     13  N   LIG d   1      -4.567  76.771 117.406  0.00  0.00    -0.311 N 
ATOM     14  C   LIG d   1      -4.819  78.066 117.219  0.00  0.00     0.210 C 
ATOM     15  C   LIG d   1      -3.940  79.020 118.033  0.00  0.00     0.109 C 
ATOM     16  O   LIG d   1      -5.710  78.513 116.481  0.00  0.00    -0.276 OA
ATOM     17  H   LIG d   1      -3.849  76.497 118.047  0.00  0.00     0.149 HD
ENDBRANCH   6  13
BRANCH   5  18
ATOM     18  N   LIG d   1      -7.580  76.291 117.577  0.00  0.00     0.381 N 
ATOM     19  H   LIG d   1      -8.181  76.271 116.778  0.00  0.00    -0.090 HD
ATOM     20  H   LIG d   1      -7.118  77.184 117.602  0.00  0.00    -0.090 HD
ATOM     21  H   LIG d   1      -8.114  76.162 118.408  0.00  0.00    -0.090 HD
ENDBRANCH   5  18
BRANCH   3  22
ATOM     22  C   LIG d   1      -6.773  71.731 116.356  0.00  0.00     0.382 C 
ATOM     23  O   LIG d   1      -6.839  71.028 117.393  0.00  0.00    -0.241 OA
ATOM     24  O   LIG d   1      -7.103  71.239 115.260  0.00  0.00    -0.241 OA
ENDBRANCH   3  22
TORSDOF 7
ENDMDL
MODEL 7
REMARK VINA RESULT:      -5.5     26.395     28.577
REMARK  7 active torsions:
REMARK  status: ('A' for Active; 'I' for Inactive)
REMARK    1  A    between atoms: C_2  and  C_3 
REMARK    2  A    between atoms: C_3  and  O_6 
REMARK    3  A    between atoms: C_3  and  C_4 
REMARK    4  A    between atoms: C_7  and  O_6 
REMARK    5  A    between atoms: C_9  and  C_10 
REMARK    6  A    between atoms: N_15  and  C_14 
REMARK    7  A    between atoms: N_20  and  C_19 
REMARK       I    between atoms: C_22  and  N_20 
ROOT
ATOM      1  C   LIG d   1       3.011  88.315 115.134  0.00  0.00     0.161 C 
ATOM      2  C   LIG d   1       3.156  89.229 116.191  0.00  0.00     0.016 C 
ATOM      3  C   LIG d   1       4.209  90.170 116.267  0.00  0.00     0.038 C 
ATOM      4  C   LIG d   1       5.109  90.362 115.209  0.00  0.00     0.028 C 
ATOM      5  C   LIG d   1       5.304  89.121 114.346  0.00  0.00    -0.047 C 
ATOM      6  C   LIG d   1       3.919  88.585 113.916  0.00  0.00     0.091 C 
ENDROOT
BRANCH   1   7
ATOM      7  O   LIG d   1       1.630  88.255 114.726  0.00  0.00    -0.368 OA
BRANCH   7   8
ATOM      8  C   LIG d   1       0.891  87.081 115.145  0.00  0.00     0.119 C 
BRANCH   8   9
ATOM      9  C   LIG d   1       0.042  87.480 116.367  0.00  0.00     0.028 C 
ATOM     10  C   LIG d   1       0.473  86.744 117.647  0.00  0.00     0.006 C 
ENDBRANCH   8   9
BRANCH   8  11
ATOM     11  C   LIG d   1       1.832  85.981 115.646  0.00  0.00     0.028 C 
ATOM     12  C   LIG d   1       1.874  84.762 114.711  0.00  0.00     0.006 C 
ENDBRANCH   8  11
ENDBRANCH   7   8
ENDBRANCH   1   7
BRANCH   6  13
ATOM     13  N   LIG d   1       4.016  87.322 113.138  0.00  0.00    -0.311 N 
ATOM     14  C   LIG d   1       3.259  87.057 112.075  0.00  0.00     0.210 C 
ATOM     15  C   LIG d   1       3.506  85.689 111.431  0.00  0.00     0.109 C 
ATOM     16  O   LIG d   1       2.430  87.837 111.584  0.00  0.00    -0.276 OA
ATOM     17  H   LIG d   1       4.685  86.646 113.449  0.00  0.00     0.149 HD
ENDBRANCH   6  13
BRANCH   5  18
ATOM     18  N   LIG d   1       6.156  89.501 113.203  0.00  0.00     0.381 N 
ATOM     19  H   LIG d   1       6.133  88.781 112.509  0.00  0.00    -0.090 HD
ATOM     20  H   LIG d   1       7.104  89.600 113.523  0.00  0.00    -0.090 HD
ATOM     21  H   LIG d   1       5.839  90.361 112.812  0.00  0.00    -0.090 HD
ENDBRANCH   5  18
BRANCH   3  22
ATOM     22  C   LIG d   1       4.393  90.902 117.430  0.00  0.00     0.382 C 
ATOM     23  O   LIG d   1       4.661  90.314 118.505  0.00  0.00    -0.241 OA
ATOM     24  O   LIG d   1       4.250  92.140 117.426  0.00  0.00    -0.241 OA
ENDBRANCH   3  22
TORSDOF 7
ENDMDL
MODEL 8
REMARK VINA RESULT:      -5.5     23.146     25.323
REMARK  7 active torsions:
REMARK  status: ('A' for Active; 'I' for Inactive)
REMARK    1  A    between atoms: C_2  and  C_3 
REMARK    2  A    between atoms: C_3  and  O_6 
REMARK    3  A    between atoms: C_3  and  C_4 
REMARK    4  A    between atoms: C_7  and  O_6 
REMARK    5  A    between atoms: C_9  and  C_10 
REMARK    6  A    between atoms: N_15  and  C_14 
REMARK    7  A    between atoms: N_20  and  C_19 
REMARK       I    between atoms: C_22  and  N_20 
ROOT
ATOM      1  C   LIG d   1       1.845  84.521 113.523  0.00  0.00     0.161 C 
ATOM      2  C   LIG d   1       1.108  83.451 112.987  0.00  0.00     0.016 C 
ATOM      3  C   LIG d   1       0.553  83.463 111.687  0.00  0.00     0.038 C 
ATOM      4  C   LIG d   1       0.827  84.491 110.773  0.00  0.00     0.028 C 
ATOM      5  C   LIG d   1       1.147  85.825 111.440  0.00  0.00    -0.047 C 
ATOM      6  C   LIG d   1       2.249  85.604 112.501  0.00  0.00     0.091 C 
ENDROOT
BRANCH   1   7
ATOM      7  O   LIG d   1       3.010  84.017 114.206  0.00  0.00    -0.368 OA
BRANCH   7   8
ATOM      8  C   LIG d   1       3.047  84.223 115.640  0.00  0.00     0.119 C 
BRANCH   8   9
ATOM      9  C   LIG d   1       4.511  84.507 116.029  0.00  0.00     0.028 C 
ATOM     10  C   LIG d   1       4.759  85.993 116.335  0.00  0.00     0.006 C 
ENDBRANCH   8   9
BRANCH   8  11
ATOM     11  C   LIG d   1       2.667  82.946 116.395  0.00  0.00     0.028 C 
ATOM     12  C   LIG d   1       1.507  83.160 117.381  0.00  0.00     0.006 C 
ENDBRANCH   8  11
ENDBRANCH   7   8
ENDBRANCH   1   7
BRANCH   6  13
ATOM     13  N   LIG d   1       2.562  86.843 113.259  0.00  0.00    -0.311 N 
ATOM     14  C   LIG d   1       3.526  87.693 112.909  0.00  0.00     0.210 C 
ATOM     15  C   LIG d   1       3.695  88.898 113.840  0.00  0.00     0.109 C 
ATOM     16  O   LIG d   1       4.236  87.580 111.898  0.00  0.00    -0.276 OA
ATOM     17  H   LIG d   1       2.014  87.029 114.076  0.00  0.00     0.149 HD
ENDBRANCH   6  13
BRANCH   5  18
ATOM     18  N   LIG d   1       1.547  86.769 110.379  0.00  0.00     0.381 N 
ATOM     19  H   LIG d   1       2.068  86.286 109.674  0.00  0.00    -0.090 HD
ATOM     20  H   LIG d   1       2.139  87.476 110.779  0.00  0.00    -0.090 HD
ATOM     21  H   LIG d   1       0.740  87.190 109.975  0.00  0.00    -0.090 HD
ENDBRANCH   5  18
BRANCH   3  22
ATOM     22  C   LIG d   1      -0.320  82.457 111.304  0.00  0.00     0.382 C 
ATOM     23  O   LIG d   1      -1.419  82.321 111.894  0.00  0.00    -0.241 OA
ATOM     24  O   LIG d   1      -0.004  81.655 110.404  0.00  0.00    -0.241 OA
ENDBRANCH   3  22
TORSDOF 7
ENDMDL
MODEL 9
REMARK VINA RESULT:      -5.4     26.659     28.781
REMARK  7 active torsions:
REMARK  status: ('A' for Active; 'I' for Inactive)
REMARK    1  A    between atoms: C_2  and  C_3 
REMARK    2  A    between atoms: C_3  and  O_6 
REMARK    3  A    between atoms: C_3  and  C_4 
REMARK    4  A    between atoms: C_7  and  O_6 
REMARK    5  A    between atoms: C_9  and  C_10 
REMARK    6  A    between atoms: N_15  and  C_14 
REMARK    7  A    between atoms: N_20  and  C_19 
REMARK       I    between atoms: C_22  and  N_20 
ROOT
ATOM      1  C   LIG d   1       2.780  88.700 114.955  0.00  0.00     0.161 C 
ATOM      2  C   LIG d   1       2.596  87.712 113.974  0.00  0.00     0.016 C 
ATOM      3  C   LIG d   1       3.518  87.474 112.928  0.00  0.00     0.038 C 
ATOM      4  C   LIG d   1       4.767  88.110 112.881  0.00  0.00     0.028 C 
ATOM      5  C   LIG d   1       4.778  89.474 113.563  0.00  0.00    -0.047 C 
ATOM      6  C   LIG d   1       4.189  89.329 114.985  0.00  0.00     0.091 C 
ENDROOT
BRANCH   1   7
ATOM      7  O   LIG d   1       2.441  88.170 116.252  0.00  0.00    -0.368 OA
BRANCH   7   8
ATOM      8  C   LIG d   1       1.255  88.721 116.876  0.00  0.00     0.119 C 
BRANCH   8   9
ATOM      9  C   LIG d   1       0.151  87.649 116.799  0.00  0.00     0.028 C 
ATOM     10  C   LIG d   1      -1.059  87.989 117.686  0.00  0.00     0.006 C 
ENDBRANCH   8   9
BRANCH   8  11
ATOM     11  C   LIG d   1       0.715  89.917 116.086  0.00  0.00     0.028 C 
ATOM     12  C   LIG d   1       0.693  91.214 116.910  0.00  0.00     0.006 C 
ENDBRANCH   8  11
ENDBRANCH   7   8
ENDBRANCH   1   7
BRANCH   6  13
ATOM     13  N   LIG d   1       4.085  90.633 115.691  0.00  0.00    -0.311 N 
ATOM     14  C   LIG d   1       4.473  90.816 116.952  0.00  0.00     0.210 C 
ATOM     15  C   LIG d   1       4.260  92.233 117.494  0.00  0.00     0.109 C 
ATOM     16  O   LIG d   1       5.002  89.948 117.663  0.00  0.00    -0.276 OA
ATOM     17  H   LIG d   1       3.696  91.399 115.178  0.00  0.00     0.149 HD
ENDBRANCH   6  13
BRANCH   5  18
ATOM     18  N   LIG d   1       6.170  89.962 113.561  0.00  0.00     0.381 N 
ATOM     19  H   LIG d   1       6.799  89.190 113.465  0.00  0.00    -0.090 HD
ATOM     20  H   LIG d   1       6.357  90.414 114.439  0.00  0.00    -0.090 HD
ATOM     21  H   LIG d   1       6.305  90.605 112.812  0.00  0.00    -0.090 HD
ENDBRANCH   5  18
BRANCH   3  22
ATOM     22  C   LIG d   1       3.175  86.618 111.893  0.00  0.00     0.382 C 
ATOM     23  O   LIG d   1       3.688  85.474 111.828  0.00  0.00    -0.241 OA
ATOM     24  O   LIG d   1       2.394  86.990 110.997  0.00  0.00    -0.241 OA
ENDBRANCH   3  22
TORSDOF 7
ENDMDL
