MODEL 1
REMARK VINA RESULT:      -6.1      0.000      0.000
REMARK  7 active torsions:
REMARK  status: ('A' for Active; 'I' for Inactive)
REMARK    1  A    between atoms: C_2  and  C_3 
REMARK    2  A    between atoms: C_3  and  O_6 
REMARK    3  A    between atoms: C_3  and  C_4 
REMARK    4  A    between atoms: C_7  and  O_6 
REMARK    5  A    between atoms: C_9  and  C_10 
REMARK    6  A    between atoms: N_15  and  C_14 
REMARK    7  A    between atoms: N_20  and  C_19 
REMARK       I    between atoms: C_22  and  N_20 
ROOT
ATOM      1  C   LIG d   1       2.610  86.280 111.698  0.00  0.00     0.161 C 
ATOM      2  C   LIG d   1       3.464  87.395 111.697  0.00  0.00     0.016 C 
ATOM      3  C   LIG d   1       4.233  87.787 112.817  0.00  0.00     0.038 C 
ATOM      4  C   LIG d   1       4.315  86.996 113.973  0.00  0.00     0.028 C 
ATOM      5  C   LIG d   1       3.081  86.132 114.205  0.00  0.00    -0.047 C 
ATOM      6  C   LIG d   1       2.771  85.342 112.913  0.00  0.00     0.091 C 
ENDROOT
BRANCH   1   7
ATOM      7  O   LIG d   1       2.769  85.541 110.470  0.00  0.00    -0.368 OA
BRANCH   7   8
ATOM      8  C   LIG d   1       1.604  85.471 109.613  0.00  0.00     0.119 C 
BRANCH   8   9
ATOM      9  C   LIG d   1       0.463  86.229 110.319  0.00  0.00     0.028 C 
ATOM     10  C   LIG d   1      -0.903  85.552 110.120  0.00  0.00     0.006 C 
ENDBRANCH   8   9
BRANCH   8  11
ATOM     11  C   LIG d   1       1.104  84.031 109.467  0.00  0.00     0.028 C 
ATOM     12  C   LIG d   1       2.223  82.992 109.647  0.00  0.00     0.006 C 
ENDBRANCH   8  11
ENDBRANCH   7   8
ENDBRANCH   1   7
BRANCH   6  13
ATOM     13  N   LIG d   1       1.529  84.534 113.026  0.00  0.00    -0.311 N 
ATOM     14  C   LIG d   1       1.523  83.239 113.335  0.00  0.00     0.210 C 
ATOM     15  C   LIG d   1       0.135  82.591 113.380  0.00  0.00     0.109 C 
ATOM     16  O   LIG d   1       2.532  82.572 113.609  0.00  0.00    -0.276 OA
ATOM     17  H   LIG d   1       0.662  85.003 112.850  0.00  0.00     0.149 HD
ENDBRANCH   6  13
BRANCH   5  18
ATOM     18  N   LIG d   1       3.358  85.260 115.363  0.00  0.00     0.381 N 
ATOM     19  H   LIG d   1       3.790  84.413 115.053  0.00  0.00    -0.090 HD
ATOM     20  H   LIG d   1       2.489  85.026 115.809  0.00  0.00    -0.090 HD
ATOM     21  H   LIG d   1       3.955  85.730 116.007  0.00  0.00    -0.090 HD
ENDBRANCH   5  18
BRANCH   3  22
ATOM     22  C   LIG d   1       4.899  89.003 112.802  0.00  0.00     0.382 C 
ATOM     23  O   LIG d   1       6.149  89.034 112.911  0.00  0.00    -0.241 OA
ATOM     24  O   LIG d   1       4.263  90.071 112.724  0.00  0.00    -0.241 OA
ENDBRANCH   3  22
TORSDOF 7
ENDMDL
MODEL 2
REMARK VINA RESULT:      -5.8      2.082      3.971
REMARK  7 active torsions:
REMARK  status: ('A' for Active; 'I' for Inactive)
REMARK    1  A    between atoms: C_2  and  C_3 
REMARK    2  A    between atoms: C_3  and  O_6 
REMARK    3  A    between atoms: C_3  and  C_4 
REMARK    4  A    between atoms: C_7  and  O_6 
REMARK    5  A    between atoms: C_9  and  C_10 
REMARK    6  A    between atoms: N_15  and  C_14 
REMARK    7  A    between atoms: N_20  and  C_19 
REMARK       I    between atoms: C_22  and  N_20 
ROOT
ATOM      1  C   LIG d   1       3.495  84.630 112.287  0.00  0.00     0.161 C 
ATOM      2  C   LIG d   1       4.028  85.891 112.605  0.00  0.00     0.016 C 
ATOM      3  C   LIG d   1       3.616  87.090 111.979  0.00  0.00     0.038 C 
ATOM      4  C   LIG d   1       2.528  87.129 111.094  0.00  0.00     0.028 C 
ATOM      5  C   LIG d   1       2.292  85.810 110.366  0.00  0.00    -0.047 C 
ATOM      6  C   LIG d   1       2.229  84.667 111.405  0.00  0.00     0.091 C 
ENDROOT
BRANCH   1   7
ATOM      7  O   LIG d   1       3.240  83.889 113.497  0.00  0.00    -0.368 OA
BRANCH   7   8
ATOM      8  C   LIG d   1       2.127  84.347 114.303  0.00  0.00     0.119 C 
BRANCH   8   9
ATOM      9  C   LIG d   1       2.686  84.737 115.686  0.00  0.00     0.028 C 
ATOM     10  C   LIG d   1       4.060  84.104 115.962  0.00  0.00     0.006 C 
ENDBRANCH   8   9
BRANCH   8  11
ATOM     11  C   LIG d   1       1.131  83.215 114.573  0.00  0.00     0.028 C 
ATOM     12  C   LIG d   1       1.647  81.845 114.107  0.00  0.00     0.006 C 
ENDBRANCH   8  11
ENDBRANCH   7   8
ENDBRANCH   1   7
BRANCH   6  13
ATOM     13  N   LIG d   1       2.085  83.331 110.770  0.00  0.00    -0.311 N 
ATOM     14  C   LIG d   1       0.914  82.716 110.614  0.00  0.00     0.210 C 
ATOM     15  C   LIG d   1       0.991  81.336 109.953  0.00  0.00     0.109 C 
ATOM     16  O   LIG d   1      -0.185  83.197 110.930  0.00  0.00    -0.276 OA
ATOM     17  H   LIG d   1       2.923  82.882 110.456  0.00  0.00     0.149 HD
ENDBRANCH   6  13
BRANCH   5  18
ATOM     18  N   LIG d   1       1.050  85.948 109.583  0.00  0.00     0.381 N 
ATOM     19  H   LIG d   1       1.168  86.651 108.881  0.00  0.00    -0.090 HD
ATOM     20  H   LIG d   1       0.309  86.238 110.198  0.00  0.00    -0.090 HD
ATOM     21  H   LIG d   1       0.816  85.079 109.157  0.00  0.00    -0.090 HD
ENDBRANCH   5  18
BRANCH   3  22
ATOM     22  C   LIG d   1       4.322  88.261 112.206  0.00  0.00     0.382 C 
ATOM     23  O   LIG d   1       3.708  89.315 112.502  0.00  0.00    -0.241 OA
ATOM     24  O   LIG d   1       5.560  88.288 112.076  0.00  0.00    -0.241 OA
ENDBRANCH   3  22
TORSDOF 7
ENDMDL
MODEL 3
REMARK VINA RESULT:      -5.7      2.355      5.501
REMARK  7 active torsions:
REMARK  status: ('A' for Active; 'I' for Inactive)
REMARK    1  A    between atoms: C_2  and  C_3 
REMARK    2  A    between atoms: C_3  and  O_6 
REMARK    3  A    between atoms: C_3  and  C_4 
REMARK    4  A    between atoms: C_7  and  O_6 
REMARK    5  A    between atoms: C_9  and  C_10 
REMARK    6  A    between atoms: N_15  and  C_14 
REMARK    7  A    between atoms: N_20  and  C_19 
REMARK       I    between atoms: C_22  and  N_20 
ROOT
ATOM      1  C   LIG d   1       2.806  83.435 111.306  0.00  0.00     0.161 C 
ATOM      2  C   LIG d   1       2.265  82.461 110.449  0.00  0.00     0.016 C 
ATOM      3  C   LIG d   1       1.274  81.536 110.849  0.00  0.00     0.038 C 
ATOM      4  C   LIG d   1       0.642  81.621 112.099  0.00  0.00     0.028 C 
ATOM      5  C   LIG d   1       1.509  82.269 113.173  0.00  0.00    -0.047 C 
ATOM      6  C   LIG d   1       2.050  83.614 112.639  0.00  0.00     0.091 C 
ENDROOT
BRANCH   1   7
ATOM      7  O   LIG d   1       2.905  84.694 110.612  0.00  0.00    -0.368 OA
BRANCH   7   8
ATOM      8  C   LIG d   1       1.873  85.667 110.906  0.00  0.00     0.119 C 
BRANCH   8   9
ATOM      9  C   LIG d   1       0.983  85.791 109.653  0.00  0.00     0.028 C 
ATOM     10  C   LIG d   1      -0.498  85.507 109.955  0.00  0.00     0.006 C 
ENDBRANCH   8   9
BRANCH   8  11
ATOM     11  C   LIG d   1       2.466  87.062 111.121  0.00  0.00     0.028 C 
ATOM     12  C   LIG d   1       3.949  87.023 111.525  0.00  0.00     0.006 C 
ENDBRANCH   8  11
ENDBRANCH   7   8
ENDBRANCH   1   7
BRANCH   6  13
ATOM     13  N   LIG d   1       2.976  84.274 113.596  0.00  0.00    -0.311 N 
ATOM     14  C   LIG d   1       2.594  85.217 114.455  0.00  0.00     0.210 C 
ATOM     15  C   LIG d   1       3.712  85.779 115.339  0.00  0.00     0.109 C 
ATOM     16  O   LIG d   1       1.428  85.618 114.592  0.00  0.00    -0.276 OA
ATOM     17  H   LIG d   1       3.935  83.986 113.574  0.00  0.00     0.149 HD
ENDBRANCH   6  13
BRANCH   5  18
ATOM     18  N   LIG d   1       0.681  82.418 114.385  0.00  0.00     0.381 N 
ATOM     19  H   LIG d   1       0.033  81.659 114.448  0.00  0.00    -0.090 HD
ATOM     20  H   LIG d   1       0.159  83.274 114.317  0.00  0.00    -0.090 HD
ATOM     21  H   LIG d   1       1.261  82.438 115.194  0.00  0.00    -0.090 HD
ENDBRANCH   5  18
BRANCH   3  22
ATOM     22  C   LIG d   1       0.933  80.488 110.009  0.00  0.00     0.382 C 
ATOM     23  O   LIG d   1      -0.247  80.060 109.987  0.00  0.00    -0.241 OA
ATOM     24  O   LIG d   1       1.799  79.934 109.306  0.00  0.00    -0.241 OA
ENDBRANCH   3  22
TORSDOF 7
ENDMDL
MODEL 4
REMARK VINA RESULT:      -5.6      1.646      2.096
REMARK  7 active torsions:
REMARK  status: ('A' for Active; 'I' for Inactive)
REMARK    1  A    between atoms: C_2  and  C_3 
REMARK    2  A    between atoms: C_3  and  O_6 
REMARK    3  A    between atoms: C_3  and  C_4 
REMARK    4  A    between atoms: C_7  and  O_6 
REMARK    5  A    between atoms: C_9  and  C_10 
REMARK    6  A    between atoms: N_15  and  C_14 
REMARK    7  A    between atoms: N_20  and  C_19 
REMARK       I    between atoms: C_22  and  N_20 
ROOT
ATOM      1  C   LIG d   1       2.598  85.872 113.269  0.00  0.00     0.161 C 
ATOM      2  C   LIG d   1       3.229  86.980 112.678  0.00  0.00     0.016 C 
ATOM      3  C   LIG d   1       4.340  87.641 113.251  0.00  0.00     0.038 C 
ATOM      4  C   LIG d   1       4.994  87.142 114.387  0.00  0.00     0.028 C 
ATOM      5  C   LIG d   1       4.086  86.322 115.297  0.00  0.00    -0.047 C 
ATOM      6  C   LIG d   1       3.367  85.246 114.452  0.00  0.00     0.091 C 
ENDROOT
BRANCH   1   7
ATOM      7  O   LIG d   1       2.322  84.874 112.267  0.00  0.00    -0.368 OA
BRANCH   7   8
ATOM      8  C   LIG d   1       3.089  84.972 111.041  0.00  0.00     0.119 C 
BRANCH   8   9
ATOM      9  C   LIG d   1       2.128  84.689 109.870  0.00  0.00     0.028 C 
ATOM     10  C   LIG d   1       1.063  85.786 109.706  0.00  0.00     0.006 C 
ENDBRANCH   8   9
BRANCH   8  11
ATOM     11  C   LIG d   1       4.157  83.878 110.963  0.00  0.00     0.028 C 
ATOM     12  C   LIG d   1       4.094  83.076 109.654  0.00  0.00     0.006 C 
ENDBRANCH   8  11
ENDBRANCH   7   8
ENDBRANCH   1   7
BRANCH   6  13
ATOM     13  N   LIG d   1       2.396  84.454 115.250  0.00  0.00    -0.311 N 
ATOM     14  C   LIG d   1       2.696  83.291 115.827  0.00  0.00     0.210 C 
ATOM     15  C   LIG d   1       1.543  82.629 116.587  0.00  0.00     0.109 C 
ATOM     16  O   LIG d   1       3.818  82.762 115.808  0.00  0.00    -0.276 OA
ATOM     17  H   LIG d   1       1.470  84.825 115.343  0.00  0.00     0.149 HD
ENDBRANCH   6  13
BRANCH   5  18
ATOM     18  N   LIG d   1       4.926  85.750 116.366  0.00  0.00     0.381 N 
ATOM     19  H   LIG d   1       4.816  84.756 116.389  0.00  0.00    -0.090 HD
ATOM     20  H   LIG d   1       4.625  86.121 117.250  0.00  0.00    -0.090 HD
ATOM     21  H   LIG d   1       5.883  85.982 116.209  0.00  0.00    -0.090 HD
ENDBRANCH   5  18
BRANCH   3  22
ATOM     22  C   LIG d   1       4.782  88.837 112.708  0.00  0.00     0.382 C 
ATOM     23  O   LIG d   1       4.039  89.848 112.729  0.00  0.00    -0.241 OA
ATOM     24  O   LIG d   1       5.897  88.907 112.157  0.00  0.00    -0.241 OA
ENDBRANCH   3  22
TORSDOF 7
ENDMDL
MODEL 5
REMARK VINA RESULT:      -5.4      9.387     11.930
REMARK  7 active torsions:
REMARK  status: ('A' for Active; 'I' for Inactive)
REMARK    1  A    between atoms: C_2  and  C_3 
REMARK    2  A    between atoms: C_3  and  O_6 
REMARK    3  A    between atoms: C_3  and  C_4 
REMARK    4  A    between atoms: C_7  and  O_6 
REMARK    5  A    between atoms: C_9  and  C_10 
REMARK    6  A    between atoms: N_15  and  C_14 
REMARK    7  A    between atoms: N_20  and  C_19 
REMARK       I    between atoms: C_22  and  N_20 
ROOT
ATOM      1  C   LIG d   1      -2.927  77.025 116.773  0.00  0.00     0.161 C 
ATOM      2  C   LIG d   1      -3.163  77.770 115.605  0.00  0.00     0.016 C 
ATOM      3  C   LIG d   1      -2.335  77.707 114.461  0.00  0.00     0.038 C 
ATOM      4  C   LIG d   1      -1.293  76.774 114.351  0.00  0.00     0.028 C 
ATOM      5  C   LIG d   1      -0.708  76.357 115.696  0.00  0.00    -0.047 C 
ATOM      6  C   LIG d   1      -1.859  75.920 116.630  0.00  0.00     0.091 C 
ENDROOT
BRANCH   1   7
ATOM      7  O   LIG d   1      -4.165  76.466 117.254  0.00  0.00    -0.368 OA
BRANCH   7   8
ATOM      8  C   LIG d   1      -5.328  76.679 116.418  0.00  0.00     0.119 C 
BRANCH   8   9
ATOM      9  C   LIG d   1      -6.452  77.227 117.319  0.00  0.00     0.028 C 
ATOM     10  C   LIG d   1      -6.168  78.658 117.807  0.00  0.00     0.006 C 
ENDBRANCH   8   9
BRANCH   8  11
ATOM     11  C   LIG d   1      -5.864  75.357 115.861  0.00  0.00     0.028 C 
ATOM     12  C   LIG d   1      -5.312  75.032 114.464  0.00  0.00     0.006 C 
ENDBRANCH   8  11
ENDBRANCH   7   8
ENDBRANCH   1   7
BRANCH   6  13
ATOM     13  N   LIG d   1      -1.382  75.577 117.995  0.00  0.00    -0.311 N 
ATOM     14  C   LIG d   1      -0.930  74.370 118.332  0.00  0.00     0.210 C 
ATOM     15  C   LIG d   1      -0.507  74.223 119.796  0.00  0.00     0.109 C 
ATOM     16  O   LIG d   1      -0.810  73.416 117.548  0.00  0.00    -0.276 OA
ATOM     17  H   LIG d   1      -1.416  76.301 118.686  0.00  0.00     0.149 HD
ENDBRANCH   6  13
BRANCH   5  18
ATOM     18  N   LIG d   1       0.271  75.283 115.443  0.00  0.00     0.381 N 
ATOM     19  H   LIG d   1       1.058  75.391 116.052  0.00  0.00    -0.090 HD
ATOM     20  H   LIG d   1       0.595  75.355 114.494  0.00  0.00    -0.090 HD
ATOM     21  H   LIG d   1      -0.153  74.394 115.590  0.00  0.00    -0.090 HD
ENDBRANCH   5  18
BRANCH   3  22
ATOM     22  C   LIG d   1      -2.521  78.611 113.427  0.00  0.00     0.382 C 
ATOM     23  O   LIG d   1      -1.921  79.713 113.441  0.00  0.00    -0.241 OA
ATOM     24  O   LIG d   1      -3.316  78.358 112.502  0.00  0.00    -0.241 OA
ENDBRANCH   3  22
TORSDOF 7
ENDMDL
MODEL 6
REMARK VINA RESULT:      -5.3      1.621      5.011
REMARK  7 active torsions:
REMARK  status: ('A' for Active; 'I' for Inactive)
REMARK    1  A    between atoms: C_2  and  C_3 
REMARK    2  A    between atoms: C_3  and  O_6 
REMARK    3  A    between atoms: C_3  and  C_4 
REMARK    4  A    between atoms: C_7  and  O_6 
REMARK    5  A    between atoms: C_9  and  C_10 
REMARK    6  A    between atoms: N_15  and  C_14 
REMARK    7  A    between atoms: N_20  and  C_19 
REMARK       I    between atoms: C_22  and  N_20 
ROOT
ATOM      1  C   LIG d   1       3.258  84.877 112.501  0.00  0.00     0.161 C 
ATOM      2  C   LIG d   1       2.408  83.844 112.930  0.00  0.00     0.016 C 
ATOM      3  C   LIG d   1       1.674  83.892 114.138  0.00  0.00     0.038 C 
ATOM      4  C   LIG d   1       1.624  85.049 114.930  0.00  0.00     0.028 C 
ATOM      5  C   LIG d   1       2.863  85.928 114.796  0.00  0.00    -0.047 C 
ATOM      6  C   LIG d   1       3.131  86.193 113.297  0.00  0.00     0.091 C 
ENDROOT
BRANCH   1   7
ATOM      7  O   LIG d   1       3.060  85.120 111.094  0.00  0.00    -0.368 OA
BRANCH   7   8
ATOM      8  C   LIG d   1       1.994  84.370 110.462  0.00  0.00     0.119 C 
BRANCH   8   9
ATOM      9  C   LIG d   1       2.618  83.564 109.306  0.00  0.00     0.028 C 
ATOM     10  C   LIG d   1       3.928  82.870 109.715  0.00  0.00     0.006 C 
ENDBRANCH   8   9
BRANCH   8  11
ATOM     11  C   LIG d   1       0.973  85.301 109.802  0.00  0.00     0.028 C 
ATOM     12  C   LIG d   1      -0.334  85.416 110.603  0.00  0.00     0.006 C 
ENDBRANCH   8  11
ENDBRANCH   7   8
ENDBRANCH   1   7
BRANCH   6  13
ATOM     13  N   LIG d   1       4.374  86.976 113.072  0.00  0.00    -0.311 N 
ATOM     14  C   LIG d   1       4.396  88.304 112.973  0.00  0.00     0.210 C 
ATOM     15  C   LIG d   1       5.780  88.911 112.722  0.00  0.00     0.109 C 
ATOM     16  O   LIG d   1       3.405  89.039 113.101  0.00  0.00    -0.276 OA
ATOM     17  H   LIG d   1       5.229  86.461 112.988  0.00  0.00     0.149 HD
ENDBRANCH   6  13
BRANCH   5  18
ATOM     18  N   LIG d   1       2.619  87.163 115.566  0.00  0.00     0.381 N 
ATOM     19  H   LIG d   1       3.252  87.211 116.339  0.00  0.00    -0.090 HD
ATOM     20  H   LIG d   1       1.681  87.140 115.927  0.00  0.00    -0.090 HD
ATOM     21  H   LIG d   1       2.738  87.959 114.979  0.00  0.00    -0.090 HD
ENDBRANCH   5  18
BRANCH   3  22
ATOM     22  C   LIG d   1       1.011  82.759 114.585  0.00  0.00     0.382 C 
ATOM     23  O   LIG d   1       0.309  82.089 113.789  0.00  0.00    -0.241 OA
ATOM     24  O   LIG d   1       1.070  82.424 115.783  0.00  0.00    -0.241 OA
ENDBRANCH   3  22
TORSDOF 7
ENDMDL
MODEL 7
REMARK VINA RESULT:      -5.2     25.632     28.006
REMARK  7 active torsions:
REMARK  status: ('A' for Active; 'I' for Inactive)
REMARK    1  A    between atoms: C_2  and  C_3 
REMARK    2  A    between atoms: C_3  and  O_6 
REMARK    3  A    between atoms: C_3  and  C_4 
REMARK    4  A    between atoms: C_7  and  O_6 
REMARK    5  A    between atoms: C_9  and  C_10 
REMARK    6  A    between atoms: N_15  and  C_14 
REMARK    7  A    between atoms: N_20  and  C_19 
REMARK       I    between atoms: C_22  and  N_20 
ROOT
ATOM      1  C   LIG d   1     -25.731  85.448 114.056  0.00  0.00     0.161 C 
ATOM      2  C   LIG d   1     -24.726  86.422 114.180  0.00  0.00     0.016 C 
ATOM      3  C   LIG d   1     -23.382  86.207 113.798  0.00  0.00     0.038 C 
ATOM      4  C   LIG d   1     -22.980  85.045 113.122  0.00  0.00     0.028 C 
ATOM      5  C   LIG d   1     -23.852  83.833 113.429  0.00  0.00    -0.047 C 
ATOM      6  C   LIG d   1     -25.335  84.214 113.217  0.00  0.00     0.091 C 
ENDROOT
BRANCH   1   7
ATOM      7  O   LIG d   1     -26.930  86.048 113.529  0.00  0.00    -0.368 OA
BRANCH   7   8
ATOM      8  C   LIG d   1     -26.758  87.297 112.815  0.00  0.00     0.119 C 
BRANCH   8   9
ATOM      9  C   LIG d   1     -27.768  88.305 113.397  0.00  0.00     0.028 C 
ATOM     10  C   LIG d   1     -27.682  89.681 112.716  0.00  0.00     0.006 C 
ENDBRANCH   8   9
BRANCH   8  11
ATOM     11  C   LIG d   1     -27.136  87.151 111.338  0.00  0.00     0.028 C 
ATOM     12  C   LIG d   1     -25.936  87.334 110.396  0.00  0.00     0.006 C 
ENDBRANCH   8  11
ENDBRANCH   7   8
ENDBRANCH   1   7
BRANCH   6  13
ATOM     13  N   LIG d   1     -26.262  83.110 113.578  0.00  0.00    -0.311 N 
ATOM     14  C   LIG d   1     -26.674  82.187 112.711  0.00  0.00     0.210 C 
ATOM     15  C   LIG d   1     -27.644  81.149 113.284  0.00  0.00     0.109 C 
ATOM     16  O   LIG d   1     -26.304  82.110 111.529  0.00  0.00    -0.276 OA
ATOM     17  H   LIG d   1     -26.587  83.077 114.524  0.00  0.00     0.149 HD
ENDBRANCH   6  13
BRANCH   5  18
ATOM     18  N   LIG d   1     -23.408  82.731 112.555  0.00  0.00     0.381 N 
ATOM     19  H   LIG d   1     -22.528  82.378 112.875  0.00  0.00    -0.090 HD
ATOM     20  H   LIG d   1     -23.285  83.085 111.623  0.00  0.00    -0.090 HD
ATOM     21  H   LIG d   1     -24.086  82.001 112.555  0.00  0.00    -0.090 HD
ENDBRANCH   5  18
BRANCH   3  22
ATOM     22  C   LIG d   1     -22.415  87.144 114.130  0.00  0.00     0.382 C 
ATOM     23  O   LIG d   1     -21.326  87.168 113.507  0.00  0.00    -0.241 OA
ATOM     24  O   LIG d   1     -22.600  87.937 115.072  0.00  0.00    -0.241 OA
ENDBRANCH   3  22
TORSDOF 7
ENDMDL
MODEL 8
REMARK VINA RESULT:      -5.0      2.407      5.366
REMARK  7 active torsions:
REMARK  status: ('A' for Active; 'I' for Inactive)
REMARK    1  A    between atoms: C_2  and  C_3 
REMARK    2  A    between atoms: C_3  and  O_6 
REMARK    3  A    between atoms: C_3  and  C_4 
REMARK    4  A    between atoms: C_7  and  O_6 
REMARK    5  A    between atoms: C_9  and  C_10 
REMARK    6  A    between atoms: N_15  and  C_14 
REMARK    7  A    between atoms: N_20  and  C_19 
REMARK       I    between atoms: C_22  and  N_20 
ROOT
ATOM      1  C   LIG d   1       2.359  85.019 113.613  0.00  0.00     0.161 C 
ATOM      2  C   LIG d   1       2.057  83.647 113.578  0.00  0.00     0.016 C 
ATOM      3  C   LIG d   1       1.761  82.886 114.731  0.00  0.00     0.038 C 
ATOM      4  C   LIG d   1       1.598  83.481 115.991  0.00  0.00     0.028 C 
ATOM      5  C   LIG d   1       2.388  84.775 116.157  0.00  0.00    -0.047 C 
ATOM      6  C   LIG d   1       2.077  85.708 114.965  0.00  0.00     0.091 C 
ENDROOT
BRANCH   1   7
ATOM      7  O   LIG d   1       1.666  85.700 112.549  0.00  0.00    -0.368 OA
BRANCH   7   8
ATOM      8  C   LIG d   1       2.452  86.010 111.372  0.00  0.00     0.119 C 
BRANCH   8   9
ATOM      9  C   LIG d   1       3.066  87.407 111.580  0.00  0.00     0.028 C 
ATOM     10  C   LIG d   1       4.588  87.352 111.799  0.00  0.00     0.006 C 
ENDBRANCH   8   9
BRANCH   8  11
ATOM     11  C   LIG d   1       1.566  86.137 110.129  0.00  0.00     0.028 C 
ATOM     12  C   LIG d   1       0.075  85.925 110.435  0.00  0.00     0.006 C 
ENDBRANCH   8  11
ENDBRANCH   7   8
ENDBRANCH   1   7
BRANCH   6  13
ATOM     13  N   LIG d   1       2.873  86.963 115.004  0.00  0.00    -0.311 N 
ATOM     14  C   LIG d   1       2.407  88.112 115.491  0.00  0.00     0.210 C 
ATOM     15  C   LIG d   1       3.386  89.288 115.419  0.00  0.00     0.109 C 
ATOM     16  O   LIG d   1       1.288  88.260 116.005  0.00  0.00    -0.276 OA
ATOM     17  H   LIG d   1       3.804  86.924 114.636  0.00  0.00     0.149 HD
ENDBRANCH   6  13
BRANCH   5  18
ATOM     18  N   LIG d   1       2.019  85.358 117.460  0.00  0.00     0.381 N 
ATOM     19  H   LIG d   1       1.023  85.407 117.540  0.00  0.00    -0.090 HD
ATOM     20  H   LIG d   1       2.385  86.293 117.513  0.00  0.00    -0.090 HD
ATOM     21  H   LIG d   1       2.392  84.805 118.200  0.00  0.00    -0.090 HD
ENDBRANCH   5  18
BRANCH   3  22
ATOM     22  C   LIG d   1       1.664  81.506 114.637  0.00  0.00     0.382 C 
ATOM     23  O   LIG d   1       0.619  80.980 114.185  0.00  0.00    -0.241 OA
ATOM     24  O   LIG d   1       2.592  80.778 115.040  0.00  0.00    -0.241 OA
ENDBRANCH   3  22
TORSDOF 7
ENDMDL
MODEL 9
REMARK VINA RESULT:      -5.0      3.959      6.414
REMARK  7 active torsions:
REMARK  status: ('A' for Active; 'I' for Inactive)
REMARK    1  A    between atoms: C_2  and  C_3 
REMARK    2  A    between atoms: C_3  and  O_6 
REMARK    3  A    between atoms: C_3  and  C_4 
REMARK    4  A    between atoms: C_7  and  O_6 
REMARK    5  A    between atoms: C_9  and  C_10 
REMARK    6  A    between atoms: N_15  and  C_14 
REMARK    7  A    between atoms: N_20  and  C_19 
REMARK       I    between atoms: C_22  and  N_20 
ROOT
ATOM      1  C   LIG d   1       0.522  81.738 112.387  0.00  0.00     0.161 C 
ATOM      2  C   LIG d   1       0.975  80.974 113.475  0.00  0.00     0.016 C 
ATOM      3  C   LIG d   1       1.456  81.541 114.678  0.00  0.00     0.038 C 
ATOM      4  C   LIG d   1       1.374  82.919 114.932  0.00  0.00     0.028 C 
ATOM      5  C   LIG d   1       1.392  83.770 113.667  0.00  0.00    -0.047 C 
ATOM      6  C   LIG d   1       0.322  83.238 112.688  0.00  0.00     0.091 C 
ENDROOT
BRANCH   1   7
ATOM      7  O   LIG d   1      -0.691  81.166 111.860  0.00  0.00    -0.368 OA
BRANCH   7   8
ATOM      8  C   LIG d   1      -0.966  79.794 112.238  0.00  0.00     0.119 C 
BRANCH   8   9
ATOM      9  C   LIG d   1      -0.945  78.947 110.951  0.00  0.00     0.028 C 
ATOM     10  C   LIG d   1      -2.012  77.840 110.959  0.00  0.00     0.006 C 
ENDBRANCH   8   9
BRANCH   8  11
ATOM     11  C   LIG d   1      -2.383  79.643 112.799  0.00  0.00     0.028 C 
ATOM     12  C   LIG d   1      -3.096  80.992 112.987  0.00  0.00     0.006 C 
ENDBRANCH   8  11
ENDBRANCH   7   8
ENDBRANCH   1   7
BRANCH   6  13
ATOM     13  N   LIG d   1       0.330  83.962 111.390  0.00  0.00    -0.311 N 
ATOM     14  C   LIG d   1      -0.499  84.965 111.105  0.00  0.00     0.210 C 
ATOM     15  C   LIG d   1      -0.336  85.560 109.703  0.00  0.00     0.109 C 
ATOM     16  O   LIG d   1      -1.331  85.440 111.893  0.00  0.00    -0.276 OA
ATOM     17  H   LIG d   1       0.995  83.662 110.705  0.00  0.00     0.149 HD
ENDBRANCH   6  13
BRANCH   5  18
ATOM     18  N   LIG d   1       1.162  85.171 114.070  0.00  0.00     0.381 N 
ATOM     19  H   LIG d   1       0.609  85.636 113.377  0.00  0.00    -0.090 HD
ATOM     20  H   LIG d   1       2.048  85.640 114.133  0.00  0.00    -0.090 HD
ATOM     21  H   LIG d   1       0.699  85.201 114.951  0.00  0.00    -0.090 HD
ENDBRANCH   5  18
BRANCH   3  22
ATOM     22  C   LIG d   1       2.063  80.732 115.625  0.00  0.00     0.382 C 
ATOM     23  O   LIG d   1       1.365  80.141 116.485  0.00  0.00    -0.241 OA
ATOM     24  O   LIG d   1       3.303  80.619 115.660  0.00  0.00    -0.241 OA
ENDBRANCH   3  22
TORSDOF 7
ENDMDL
