MODEL 1
REMARK VINA RESULT:      -6.1      0.000      0.000
REMARK  7 active torsions:
REMARK  status: ('A' for Active; 'I' for Inactive)
REMARK    1  A    between atoms: C_2  and  C_3 
REMARK    2  A    between atoms: C_3  and  O_6 
REMARK    3  A    between atoms: C_3  and  C_4 
REMARK    4  A    between atoms: C_7  and  O_6 
REMARK    5  A    between atoms: C_9  and  C_10 
REMARK    6  A    between atoms: N_15  and  C_14 
REMARK    7  A    between atoms: N_20  and  C_19 
REMARK       I    between atoms: C_22  and  N_20 
ROOT
ATOM      1  C   LIG d   1      -0.213  83.541 112.525  0.00  0.00     0.161 C 
ATOM      2  C   LIG d   1       0.686  84.447 111.938  0.00  0.00     0.016 C 
ATOM      3  C   LIG d   1       1.213  84.287 110.636  0.00  0.00     0.038 C 
ATOM      4  C   LIG d   1       0.757  83.282 109.770  0.00  0.00     0.028 C 
ATOM      5  C   LIG d   1       0.226  82.051 110.496  0.00  0.00    -0.047 C 
ATOM      6  C   LIG d   1      -0.807  82.499 111.555  0.00  0.00     0.091 C 
ENDROOT
BRANCH   1   7
ATOM      7  O   LIG d   1      -1.266  84.262 113.194  0.00  0.00    -0.368 OA
BRANCH   7   8
ATOM      8  C   LIG d   1      -1.056  84.539 114.600  0.00  0.00     0.119 C 
BRANCH   8   9
ATOM      9  C   LIG d   1      -2.199  83.861 115.381  0.00  0.00     0.028 C 
ATOM     10  C   LIG d   1      -1.713  82.656 116.203  0.00  0.00     0.006 C 
ENDBRANCH   8   9
BRANCH   8  11
ATOM     11  C   LIG d   1      -1.192  86.035 114.899  0.00  0.00     0.028 C 
ATOM     12  C   LIG d   1       0.103  86.652 115.453  0.00  0.00     0.006 C 
ENDBRANCH   8  11
ENDBRANCH   7   8
ENDBRANCH   1   7
BRANCH   6  13
ATOM     13  N   LIG d   1      -1.314  81.364 112.369  0.00  0.00    -0.311 N 
ATOM     14  C   LIG d   1      -2.591  81.229 112.724  0.00  0.00     0.210 C 
ATOM     15  C   LIG d   1      -2.896  79.996 113.581  0.00  0.00     0.109 C 
ATOM     16  O   LIG d   1      -3.504  81.995 112.384  0.00  0.00    -0.276 OA
ATOM     17  H   LIG d   1      -0.646  80.678 112.661  0.00  0.00     0.149 HD
ENDBRANCH   6  13
BRANCH   5  18
ATOM     18  N   LIG d   1      -0.342  81.144 109.481  0.00  0.00     0.381 N 
ATOM     19  H   LIG d   1       0.280  81.078 108.700  0.00  0.00    -0.090 HD
ATOM     20  H   LIG d   1      -1.215  81.524 109.158  0.00  0.00    -0.090 HD
ATOM     21  H   LIG d   1      -0.490  80.241 109.874  0.00  0.00    -0.090 HD
ENDBRANCH   5  18
BRANCH   3  22
ATOM     22  C   LIG d   1       2.238  85.114 110.202  0.00  0.00     0.382 C 
ATOM     23  O   LIG d   1       3.310  84.617 109.781  0.00  0.00    -0.241 OA
ATOM     24  O   LIG d   1       2.121  86.352 110.269  0.00  0.00    -0.241 OA
ENDBRANCH   3  22
TORSDOF 7
ENDMDL
MODEL 2
REMARK VINA RESULT:      -5.9      8.287     12.165
REMARK  7 active torsions:
REMARK  status: ('A' for Active; 'I' for Inactive)
REMARK    1  A    between atoms: C_2  and  C_3 
REMARK    2  A    between atoms: C_3  and  O_6 
REMARK    3  A    between atoms: C_3  and  C_4 
REMARK    4  A    between atoms: C_7  and  O_6 
REMARK    5  A    between atoms: C_9  and  C_10 
REMARK    6  A    between atoms: N_15  and  C_14 
REMARK    7  A    between atoms: N_20  and  C_19 
REMARK       I    between atoms: C_22  and  N_20 
ROOT
ATOM      1  C   LIG d   1      -7.375  76.606 117.487  0.00  0.00     0.161 C 
ATOM      2  C   LIG d   1      -8.685  76.870 117.919  0.00  0.00     0.016 C 
ATOM      3  C   LIG d   1      -9.156  78.167 118.228  0.00  0.00     0.038 C 
ATOM      4  C   LIG d   1      -8.387  79.314 117.978  0.00  0.00     0.028 C 
ATOM      5  C   LIG d   1      -6.885  79.057 118.019  0.00  0.00    -0.047 C 
ATOM      6  C   LIG d   1      -6.556  77.856 117.102  0.00  0.00     0.091 C 
ENDROOT
BRANCH   1   7
ATOM      7  O   LIG d   1      -7.402  75.668 116.392  0.00  0.00    -0.368 OA
BRANCH   7   8
ATOM      8  C   LIG d   1      -6.820  74.367 116.653  0.00  0.00     0.119 C 
BRANCH   8   9
ATOM      9  C   LIG d   1      -6.216  73.857 115.331  0.00  0.00     0.028 C 
ATOM     10  C   LIG d   1      -5.614  74.991 114.484  0.00  0.00     0.006 C 
ENDBRANCH   8   9
BRANCH   8  11
ATOM     11  C   LIG d   1      -7.893  73.342 117.031  0.00  0.00     0.028 C 
ATOM     12  C   LIG d   1      -7.981  72.177 116.033  0.00  0.00     0.006 C 
ENDBRANCH   8  11
ENDBRANCH   7   8
ENDBRANCH   1   7
BRANCH   6  13
ATOM     13  N   LIG d   1      -5.118  77.484 117.149  0.00  0.00    -0.311 N 
ATOM     14  C   LIG d   1      -4.206  77.975 116.312  0.00  0.00     0.210 C 
ATOM     15  C   LIG d   1      -2.784  77.444 116.521  0.00  0.00     0.109 C 
ATOM     16  O   LIG d   1      -4.433  78.825 115.438  0.00  0.00    -0.276 OA
ATOM     17  H   LIG d   1      -4.841  76.823 117.848  0.00  0.00     0.149 HD
ENDBRANCH   6  13
BRANCH   5  18
ATOM     18  N   LIG d   1      -6.208  80.301 117.606  0.00  0.00     0.381 N 
ATOM     19  H   LIG d   1      -5.837  80.195 116.683  0.00  0.00    -0.090 HD
ATOM     20  H   LIG d   1      -5.444  80.479 118.235  0.00  0.00    -0.090 HD
ATOM     21  H   LIG d   1      -6.850  81.062 117.629  0.00  0.00    -0.090 HD
ENDBRANCH   5  18
BRANCH   3  22
ATOM     22  C   LIG d   1     -10.395  78.324 118.830  0.00  0.00     0.382 C 
ATOM     23  O   LIG d   1     -10.604  79.299 119.591  0.00  0.00    -0.241 OA
ATOM     24  O   LIG d   1     -11.293  77.478 118.657  0.00  0.00    -0.241 OA
ENDBRANCH   3  22
TORSDOF 7
ENDMDL
MODEL 3
REMARK VINA RESULT:      -5.9      1.829      5.211
REMARK  7 active torsions:
REMARK  status: ('A' for Active; 'I' for Inactive)
REMARK    1  A    between atoms: C_2  and  C_3 
REMARK    2  A    between atoms: C_3  and  O_6 
REMARK    3  A    between atoms: C_3  and  C_4 
REMARK    4  A    between atoms: C_7  and  O_6 
REMARK    5  A    between atoms: C_9  and  C_10 
REMARK    6  A    between atoms: N_15  and  C_14 
REMARK    7  A    between atoms: N_20  and  C_19 
REMARK       I    between atoms: C_22  and  N_20 
ROOT
ATOM      1  C   LIG d   1      -0.932  82.372 112.045  0.00  0.00     0.161 C 
ATOM      2  C   LIG d   1      -1.893  81.541 112.644  0.00  0.00     0.016 C 
ATOM      3  C   LIG d   1      -2.080  80.186 112.289  0.00  0.00     0.038 C 
ATOM      4  C   LIG d   1      -1.210  79.523 111.410  0.00  0.00     0.028 C 
ATOM      5  C   LIG d   1      -0.541  80.453 110.404  0.00  0.00    -0.047 C 
ATOM      6  C   LIG d   1       0.100  81.637 111.164  0.00  0.00     0.091 C 
ENDROOT
BRANCH   1   7
ATOM      7  O   LIG d   1      -0.262  83.152 113.056  0.00  0.00    -0.368 OA
BRANCH   7   8
ATOM      8  C   LIG d   1      -0.796  84.477 113.297  0.00  0.00     0.119 C 
BRANCH   8   9
ATOM      9  C   LIG d   1       0.083  85.479 112.525  0.00  0.00     0.028 C 
ATOM     10  C   LIG d   1      -0.625  86.045 111.283  0.00  0.00     0.006 C 
ENDBRANCH   8   9
BRANCH   8  11
ATOM     11  C   LIG d   1      -0.662  84.872 114.771  0.00  0.00     0.028 C 
ATOM     12  C   LIG d   1      -0.831  83.679 115.725  0.00  0.00     0.006 C 
ENDBRANCH   8  11
ENDBRANCH   7   8
ENDBRANCH   1   7
BRANCH   6  13
ATOM     13  N   LIG d   1       0.704  82.639 110.247  0.00  0.00    -0.311 N 
ATOM     14  C   LIG d   1       1.969  83.045 110.336  0.00  0.00     0.210 C 
ATOM     15  C   LIG d   1       2.384  84.099 109.305  0.00  0.00     0.109 C 
ATOM     16  O   LIG d   1       2.796  82.608 111.150  0.00  0.00    -0.276 OA
ATOM     17  H   LIG d   1       0.111  83.022 109.537  0.00  0.00     0.149 HD
ENDBRANCH   6  13
BRANCH   5  18
ATOM     18  N   LIG d   1       0.439  79.656 109.643  0.00  0.00     0.381 N 
ATOM     19  H   LIG d   1      -0.026  79.152 108.915  0.00  0.00    -0.090 HD
ATOM     20  H   LIG d   1       0.868  78.991 110.263  0.00  0.00    -0.090 HD
ATOM     21  H   LIG d   1       1.134  80.253 109.252  0.00  0.00    -0.090 HD
ENDBRANCH   5  18
BRANCH   3  22
ATOM     22  C   LIG d   1      -3.171  79.489 112.785  0.00  0.00     0.382 C 
ATOM     23  O   LIG d   1      -3.540  79.664 113.972  0.00  0.00    -0.241 OA
ATOM     24  O   LIG d   1      -3.765  78.656 112.075  0.00  0.00    -0.241 OA
ENDBRANCH   3  22
TORSDOF 7
ENDMDL
MODEL 4
REMARK VINA RESULT:      -5.8      2.464      3.600
REMARK  7 active torsions:
REMARK  status: ('A' for Active; 'I' for Inactive)
REMARK    1  A    between atoms: C_2  and  C_3 
REMARK    2  A    between atoms: C_3  and  O_6 
REMARK    3  A    between atoms: C_3  and  C_4 
REMARK    4  A    between atoms: C_7  and  O_6 
REMARK    5  A    between atoms: C_9  and  C_10 
REMARK    6  A    between atoms: N_15  and  C_14 
REMARK    7  A    between atoms: N_20  and  C_19 
REMARK       I    between atoms: C_22  and  N_20 
ROOT
ATOM      1  C   LIG d   1       2.217  84.500 112.707  0.00  0.00     0.161 C 
ATOM      2  C   LIG d   1       2.803  85.735 113.030  0.00  0.00     0.016 C 
ATOM      3  C   LIG d   1       2.661  86.895 112.235  0.00  0.00     0.038 C 
ATOM      4  C   LIG d   1       1.794  86.937 111.133  0.00  0.00     0.028 C 
ATOM      5  C   LIG d   1       1.577  85.577 110.480  0.00  0.00    -0.047 C 
ATOM      6  C   LIG d   1       1.177  84.555 111.569  0.00  0.00     0.091 C 
ENDROOT
BRANCH   1   7
ATOM      7  O   LIG d   1       1.637  83.910 113.888  0.00  0.00    -0.368 OA
BRANCH   7   8
ATOM      8  C   LIG d   1       0.299  84.349 114.227  0.00  0.00     0.119 C 
BRANCH   8   9
ATOM      9  C   LIG d   1       0.382  85.090 115.576  0.00  0.00     0.028 C 
ATOM     10  C   LIG d   1       0.167  86.605 115.426  0.00  0.00     0.006 C 
ENDBRANCH   8   9
BRANCH   8  11
ATOM     11  C   LIG d   1      -0.631  83.157 114.477  0.00  0.00     0.028 C 
ATOM     12  C   LIG d   1      -1.953  83.563 115.148  0.00  0.00     0.006 C 
ENDBRANCH   8  11
ENDBRANCH   7   8
ENDBRANCH   1   7
BRANCH   6  13
ATOM     13  N   LIG d   1       1.028  83.179 111.028  0.00  0.00    -0.311 N 
ATOM     14  C   LIG d   1      -0.147  82.642 110.703  0.00  0.00     0.210 C 
ATOM     15  C   LIG d   1      -0.078  81.203 110.183  0.00  0.00     0.109 C 
ATOM     16  O   LIG d   1      -1.236  83.232 110.766  0.00  0.00    -0.276 OA
ATOM     17  H   LIG d   1       1.864  82.640 110.916  0.00  0.00     0.149 HD
ENDBRANCH   6  13
BRANCH   5  18
ATOM     18  N   LIG d   1       0.548  85.742 109.436  0.00  0.00     0.381 N 
ATOM     19  H   LIG d   1       0.659  85.034 108.737  0.00  0.00    -0.090 HD
ATOM     20  H   LIG d   1       0.670  86.638 108.999  0.00  0.00    -0.090 HD
ATOM     21  H   LIG d   1      -0.360  85.681 109.840  0.00  0.00    -0.090 HD
ENDBRANCH   5  18
BRANCH   3  22
ATOM     22  C   LIG d   1       3.424  88.019 112.516  0.00  0.00     0.382 C 
ATOM     23  O   LIG d   1       2.866  89.132 112.669  0.00  0.00    -0.241 OA
ATOM     24  O   LIG d   1       4.665  87.941 112.574  0.00  0.00    -0.241 OA
ENDBRANCH   3  22
TORSDOF 7
ENDMDL
MODEL 5
REMARK VINA RESULT:      -5.6      6.239      9.000
REMARK  7 active torsions:
REMARK  status: ('A' for Active; 'I' for Inactive)
REMARK    1  A    between atoms: C_2  and  C_3 
REMARK    2  A    between atoms: C_3  and  O_6 
REMARK    3  A    between atoms: C_3  and  C_4 
REMARK    4  A    between atoms: C_7  and  O_6 
REMARK    5  A    between atoms: C_9  and  C_10 
REMARK    6  A    between atoms: N_15  and  C_14 
REMARK    7  A    between atoms: N_20  and  C_19 
REMARK       I    between atoms: C_22  and  N_20 
ROOT
ATOM      1  C   LIG d   1      -3.387  77.244 116.436  0.00  0.00     0.161 C 
ATOM      2  C   LIG d   1      -3.664  77.992 115.280  0.00  0.00     0.016 C 
ATOM      3  C   LIG d   1      -2.785  78.071 114.175  0.00  0.00     0.038 C 
ATOM      4  C   LIG d   1      -1.630  77.280 114.089  0.00  0.00     0.028 C 
ATOM      5  C   LIG d   1      -1.056  76.895 115.448  0.00  0.00    -0.047 C 
ATOM      6  C   LIG d   1      -2.183  76.287 116.314  0.00  0.00     0.091 C 
ENDROOT
BRANCH   1   7
ATOM      7  O   LIG d   1      -4.564  76.519 116.843  0.00  0.00    -0.368 OA
BRANCH   7   8
ATOM      8  C   LIG d   1      -5.598  76.369 115.839  0.00  0.00     0.119 C 
BRANCH   8   9
ATOM      9  C   LIG d   1      -6.958  76.478 116.556  0.00  0.00     0.028 C 
ATOM     10  C   LIG d   1      -7.810  75.207 116.397  0.00  0.00     0.006 C 
ENDBRANCH   8   9
BRANCH   8  11
ATOM     11  C   LIG d   1      -5.577  74.967 115.223  0.00  0.00     0.028 C 
ATOM     12  C   LIG d   1      -5.037  74.957 113.784  0.00  0.00     0.006 C 
ENDBRANCH   8  11
ENDBRANCH   7   8
ENDBRANCH   1   7
BRANCH   6  13
ATOM     13  N   LIG d   1      -1.727  75.960 117.690  0.00  0.00    -0.311 N 
ATOM     14  C   LIG d   1      -1.189  74.789 118.026  0.00  0.00     0.210 C 
ATOM     15  C   LIG d   1      -0.805  74.652 119.502  0.00  0.00     0.109 C 
ATOM     16  O   LIG d   1      -0.963  73.861 117.234  0.00  0.00    -0.276 OA
ATOM     17  H   LIG d   1      -1.844  76.667 118.389  0.00  0.00     0.149 HD
ENDBRANCH   6  13
BRANCH   5  18
ATOM     18  N   LIG d   1       0.061  75.961 115.213  0.00  0.00     0.381 N 
ATOM     19  H   LIG d   1      -0.071  75.488 114.341  0.00  0.00    -0.090 HD
ATOM     20  H   LIG d   1       0.070  75.274 115.946  0.00  0.00    -0.090 HD
ATOM     21  H   LIG d   1       0.924  76.458 115.202  0.00  0.00    -0.090 HD
ENDBRANCH   5  18
BRANCH   3  22
ATOM     22  C   LIG d   1      -3.039  78.979 113.158  0.00  0.00     0.382 C 
ATOM     23  O   LIG d   1      -3.764  78.648 112.189  0.00  0.00    -0.241 OA
ATOM     24  O   LIG d   1      -2.517  80.110 113.176  0.00  0.00    -0.241 OA
ENDBRANCH   3  22
TORSDOF 7
ENDMDL
MODEL 6
REMARK VINA RESULT:      -5.6      8.696     10.741
REMARK  7 active torsions:
REMARK  status: ('A' for Active; 'I' for Inactive)
REMARK    1  A    between atoms: C_2  and  C_3 
REMARK    2  A    between atoms: C_3  and  O_6 
REMARK    3  A    between atoms: C_3  and  C_4 
REMARK    4  A    between atoms: C_7  and  O_6 
REMARK    5  A    between atoms: C_9  and  C_10 
REMARK    6  A    between atoms: N_15  and  C_14 
REMARK    7  A    between atoms: N_20  and  C_19 
REMARK       I    between atoms: C_22  and  N_20 
ROOT
ATOM      1  C   LIG d   1      -6.093  75.790 116.269  0.00  0.00     0.161 C 
ATOM      2  C   LIG d   1      -5.280  76.455 115.335  0.00  0.00     0.016 C 
ATOM      3  C   LIG d   1      -4.677  75.810 114.230  0.00  0.00     0.038 C 
ATOM      4  C   LIG d   1      -4.971  74.479 113.898  0.00  0.00     0.028 C 
ATOM      5  C   LIG d   1      -5.386  73.633 115.097  0.00  0.00    -0.047 C 
ATOM      6  C   LIG d   1      -6.514  74.363 115.860  0.00  0.00     0.091 C 
ENDROOT
BRANCH   1   7
ATOM      7  O   LIG d   1      -7.255  76.591 116.562  0.00  0.00    -0.368 OA
BRANCH   7   8
ATOM      8  C   LIG d   1      -7.213  77.346 117.798  0.00  0.00     0.119 C 
BRANCH   8   9
ATOM      9  C   LIG d   1      -8.600  77.229 118.459  0.00  0.00     0.028 C 
ATOM     10  C   LIG d   1      -8.769  75.913 119.238  0.00  0.00     0.006 C 
ENDBRANCH   8   9
BRANCH   8  11
ATOM     11  C   LIG d   1      -7.016  78.841 117.532  0.00  0.00     0.028 C 
ATOM     12  C   LIG d   1      -8.221  79.688 117.970  0.00  0.00     0.006 C 
ENDBRANCH   8  11
ENDBRANCH   7   8
ENDBRANCH   1   7
BRANCH   6  13
ATOM     13  N   LIG d   1      -6.921  73.644 117.095  0.00  0.00    -0.311 N 
ATOM     14  C   LIG d   1      -7.822  72.663 117.109  0.00  0.00     0.210 C 
ATOM     15  C   LIG d   1      -8.111  72.069 118.491  0.00  0.00     0.109 C 
ATOM     16  O   LIG d   1      -8.387  72.207 116.103  0.00  0.00    -0.276 OA
ATOM     17  H   LIG d   1      -6.489  73.929 117.952  0.00  0.00     0.149 HD
ENDBRANCH   6  13
BRANCH   5  18
ATOM     18  N   LIG d   1      -5.794  72.310 114.588  0.00  0.00     0.381 N 
ATOM     19  H   LIG d   1      -6.362  71.846 115.269  0.00  0.00    -0.090 HD
ATOM     20  H   LIG d   1      -4.972  71.753 114.431  0.00  0.00    -0.090 HD
ATOM     21  H   LIG d   1      -6.302  72.413 113.737  0.00  0.00    -0.090 HD
ENDBRANCH   5  18
BRANCH   3  22
ATOM     22  C   LIG d   1      -3.738  76.487 113.468  0.00  0.00     0.382 C 
ATOM     23  O   LIG d   1      -2.570  76.040 113.369  0.00  0.00    -0.241 OA
ATOM     24  O   LIG d   1      -4.032  77.564 112.914  0.00  0.00    -0.241 OA
ENDBRANCH   3  22
TORSDOF 7
ENDMDL
MODEL 7
REMARK VINA RESULT:      -5.5      2.247      5.339
REMARK  7 active torsions:
REMARK  status: ('A' for Active; 'I' for Inactive)
REMARK    1  A    between atoms: C_2  and  C_3 
REMARK    2  A    between atoms: C_3  and  O_6 
REMARK    3  A    between atoms: C_3  and  C_4 
REMARK    4  A    between atoms: C_7  and  O_6 
REMARK    5  A    between atoms: C_9  and  C_10 
REMARK    6  A    between atoms: N_15  and  C_14 
REMARK    7  A    between atoms: N_20  and  C_19 
REMARK       I    between atoms: C_22  and  N_20 
ROOT
ATOM      1  C   LIG d   1      -1.172  82.172 111.803  0.00  0.00     0.161 C 
ATOM      2  C   LIG d   1      -2.016  82.556 112.859  0.00  0.00     0.016 C 
ATOM      3  C   LIG d   1      -1.687  82.376 114.222  0.00  0.00     0.038 C 
ATOM      4  C   LIG d   1      -0.418  81.935 114.627  0.00  0.00     0.028 C 
ATOM      5  C   LIG d   1       0.279  81.062 113.589  0.00  0.00    -0.047 C 
ATOM      6  C   LIG d   1       0.262  81.792 112.226  0.00  0.00     0.091 C 
ENDROOT
BRANCH   1   7
ATOM      7  O   LIG d   1      -1.141  83.208 110.801  0.00  0.00    -0.368 OA
BRANCH   7   8
ATOM      8  C   LIG d   1      -0.070  84.177 110.920  0.00  0.00     0.119 C 
BRANCH   8   9
ATOM      9  C   LIG d   1      -0.710  85.534 111.270  0.00  0.00     0.028 C 
ATOM     10  C   LIG d   1      -0.562  85.886 112.760  0.00  0.00     0.006 C 
ENDBRANCH   8   9
BRANCH   8  11
ATOM     11  C   LIG d   1       0.635  84.395 109.578  0.00  0.00     0.028 C 
ATOM     12  C   LIG d   1       2.032  85.015 109.733  0.00  0.00     0.006 C 
ENDBRANCH   8  11
ENDBRANCH   7   8
ENDBRANCH   1   7
BRANCH   6  13
ATOM     13  N   LIG d   1       0.850  80.971 111.136  0.00  0.00    -0.311 N 
ATOM     14  C   LIG d   1       2.097  81.123 110.695  0.00  0.00     0.210 C 
ATOM     15  C   LIG d   1       2.497  80.187 109.550  0.00  0.00     0.109 C 
ATOM     16  O   LIG d   1       2.921  81.922 111.165  0.00  0.00    -0.276 OA
ATOM     17  H   LIG d   1       0.261  80.277 110.719  0.00  0.00     0.149 HD
ENDBRANCH   6  13
BRANCH   5  18
ATOM     18  N   LIG d   1       1.643  80.788 114.081  0.00  0.00     0.381 N 
ATOM     19  H   LIG d   1       2.314  81.104 113.410  0.00  0.00    -0.090 HD
ATOM     20  H   LIG d   1       1.754  79.796 114.195  0.00  0.00    -0.090 HD
ATOM     21  H   LIG d   1       1.790  81.249 114.952  0.00  0.00    -0.090 HD
ENDBRANCH   5  18
BRANCH   3  22
ATOM     22  C   LIG d   1      -2.648  82.601 115.196  0.00  0.00     0.382 C 
ATOM     23  O   LIG d   1      -2.332  82.558 116.410  0.00  0.00    -0.241 OA
ATOM     24  O   LIG d   1      -3.835  82.802 114.878  0.00  0.00    -0.241 OA
ENDBRANCH   3  22
TORSDOF 7
ENDMDL
MODEL 8
REMARK VINA RESULT:      -5.4      8.931     11.243
REMARK  7 active torsions:
REMARK  status: ('A' for Active; 'I' for Inactive)
REMARK    1  A    between atoms: C_2  and  C_3 
REMARK    2  A    between atoms: C_3  and  O_6 
REMARK    3  A    between atoms: C_3  and  C_4 
REMARK    4  A    between atoms: C_7  and  O_6 
REMARK    5  A    between atoms: C_9  and  C_10 
REMARK    6  A    between atoms: N_15  and  C_14 
REMARK    7  A    between atoms: N_20  and  C_19 
REMARK       I    between atoms: C_22  and  N_20 
ROOT
ATOM      1  C   LIG d   1      -6.386  76.875 116.691  0.00  0.00     0.161 C 
ATOM      2  C   LIG d   1      -6.240  78.238 116.998  0.00  0.00     0.016 C 
ATOM      3  C   LIG d   1      -7.190  78.975 117.741  0.00  0.00     0.038 C 
ATOM      4  C   LIG d   1      -8.286  78.358 118.362  0.00  0.00     0.028 C 
ATOM      5  C   LIG d   1      -8.742  77.083 117.659  0.00  0.00    -0.047 C 
ATOM      6  C   LIG d   1      -7.520  76.159 117.454  0.00  0.00     0.091 C 
ENDROOT
BRANCH   1   7
ATOM      7  O   LIG d   1      -5.134  76.191 116.897  0.00  0.00    -0.368 OA
BRANCH   7   8
ATOM      8  C   LIG d   1      -4.281  76.059 115.733  0.00  0.00     0.119 C 
BRANCH   8   9
ATOM      9  C   LIG d   1      -4.911  74.992 114.816  0.00  0.00     0.028 C 
ATOM     10  C   LIG d   1      -5.098  75.494 113.375  0.00  0.00     0.006 C 
ENDBRANCH   8   9
BRANCH   8  11
ATOM     11  C   LIG d   1      -2.904  75.507 116.112  0.00  0.00     0.028 C 
ATOM     12  C   LIG d   1      -1.768  76.113 115.273  0.00  0.00     0.006 C 
ENDBRANCH   8  11
ENDBRANCH   7   8
ENDBRANCH   1   7
BRANCH   6  13
ATOM     13  N   LIG d   1      -7.862  74.926 116.698  0.00  0.00    -0.311 N 
ATOM     14  C   LIG d   1      -7.884  73.712 117.245  0.00  0.00     0.210 C 
ATOM     15  C   LIG d   1      -8.243  72.575 116.283  0.00  0.00     0.109 C 
ATOM     16  O   LIG d   1      -7.671  73.473 118.443  0.00  0.00    -0.276 OA
ATOM     17  H   LIG d   1      -8.079  75.033 115.726  0.00  0.00     0.149 HD
ENDBRANCH   6  13
BRANCH   5  18
ATOM     18  N   LIG d   1      -9.798  76.471 118.486  0.00  0.00     0.381 N 
ATOM     19  H   LIG d   1      -9.842  75.488 118.306  0.00  0.00    -0.090 HD
ATOM     20  H   LIG d   1     -10.683  76.877 118.237  0.00  0.00    -0.090 HD
ATOM     21  H   LIG d   1      -9.611  76.631 119.451  0.00  0.00    -0.090 HD
ENDBRANCH   5  18
BRANCH   3  22
ATOM     22  C   LIG d   1      -7.070  80.353 117.836  0.00  0.00     0.382 C 
ATOM     23  O   LIG d   1      -7.315  80.930 118.923  0.00  0.00    -0.241 OA
ATOM     24  O   LIG d   1      -6.762  81.031 116.837  0.00  0.00    -0.241 OA
ENDBRANCH   3  22
TORSDOF 7
ENDMDL
MODEL 9
REMARK VINA RESULT:      -5.4      2.266      4.749
REMARK  7 active torsions:
REMARK  status: ('A' for Active; 'I' for Inactive)
REMARK    1  A    between atoms: C_2  and  C_3 
REMARK    2  A    between atoms: C_3  and  O_6 
REMARK    3  A    between atoms: C_3  and  C_4 
REMARK    4  A    between atoms: C_7  and  O_6 
REMARK    5  A    between atoms: C_9  and  C_10 
REMARK    6  A    between atoms: N_15  and  C_14 
REMARK    7  A    between atoms: N_20  and  C_19 
REMARK       I    between atoms: C_22  and  N_20 
ROOT
ATOM      1  C   LIG d   1       0.479  84.684 111.148  0.00  0.00     0.161 C 
ATOM      2  C   LIG d   1       1.463  85.682 111.063  0.00  0.00     0.016 C 
ATOM      3  C   LIG d   1       2.028  86.317 112.193  0.00  0.00     0.038 C 
ATOM      4  C   LIG d   1       1.753  85.886 113.500  0.00  0.00     0.028 C 
ATOM      5  C   LIG d   1       0.387  85.223 113.644  0.00  0.00    -0.047 C 
ATOM      6  C   LIG d   1       0.247  84.123 112.566  0.00  0.00     0.091 C 
ENDROOT
BRANCH   1   7
ATOM      7  O   LIG d   1       0.786  83.616 110.231  0.00  0.00    -0.368 OA
BRANCH   7   8
ATOM      8  C   LIG d   1       1.869  82.735 110.618  0.00  0.00     0.119 C 
BRANCH   8   9
ATOM      9  C   LIG d   1       2.904  82.745 109.477  0.00  0.00     0.028 C 
ATOM     10  C   LIG d   1       4.188  83.502 109.856  0.00  0.00     0.006 C 
ENDBRANCH   8   9
BRANCH   8  11
ATOM     11  C   LIG d   1       1.395  81.282 110.723  0.00  0.00     0.028 C 
ATOM     12  C   LIG d   1       0.057  81.038 110.007  0.00  0.00     0.006 C 
ENDBRANCH   8  11
ENDBRANCH   7   8
ENDBRANCH   1   7
BRANCH   6  13
ATOM     13  N   LIG d   1      -1.094  83.482 112.583  0.00  0.00    -0.311 N 
ATOM     14  C   LIG d   1      -1.350  82.335 113.210  0.00  0.00     0.210 C 
ATOM     15  C   LIG d   1      -2.793  81.838 113.085  0.00  0.00     0.109 C 
ATOM     16  O   LIG d   1      -0.527  81.699 113.886  0.00  0.00    -0.276 OA
ATOM     17  H   LIG d   1      -1.828  83.946 112.086  0.00  0.00     0.149 HD
ENDBRANCH   6  13
BRANCH   5  18
ATOM     18  N   LIG d   1       0.288  84.700 115.020  0.00  0.00     0.381 N 
ATOM     19  H   LIG d   1      -0.015  83.747 114.999  0.00  0.00    -0.090 HD
ATOM     20  H   LIG d   1      -0.395  85.238 115.524  0.00  0.00    -0.090 HD
ATOM     21  H   LIG d   1       1.173  84.765 115.473  0.00  0.00    -0.090 HD
ENDBRANCH   5  18
BRANCH   3  22
ATOM     22  C   LIG d   1       2.849  87.421 112.023  0.00  0.00     0.382 C 
ATOM     23  O   LIG d   1       2.369  88.578 112.109  0.00  0.00    -0.241 OA
ATOM     24  O   LIG d   1       4.053  87.276 111.741  0.00  0.00    -0.241 OA
ENDBRANCH   3  22
TORSDOF 7
ENDMDL
