MODEL 1
REMARK VINA RESULT:      -6.1      0.000      0.000
REMARK  7 active torsions:
REMARK  status: ('A' for Active; 'I' for Inactive)
REMARK    1  A    between atoms: C_2  and  C_3 
REMARK    2  A    between atoms: C_3  and  O_6 
REMARK    3  A    between atoms: C_3  and  C_4 
REMARK    4  A    between atoms: C_7  and  O_6 
REMARK    5  A    between atoms: C_9  and  C_10 
REMARK    6  A    between atoms: N_15  and  C_14 
REMARK    7  A    between atoms: N_20  and  C_19 
REMARK       I    between atoms: C_22  and  N_20 
ROOT
ATOM      1  C   LIG d   1       0.451  82.559 111.711  0.00  0.00     0.161 C 
ATOM      2  C   LIG d   1      -0.760  82.230 112.342  0.00  0.00     0.016 C 
ATOM      3  C   LIG d   1      -1.267  80.912 112.415  0.00  0.00     0.038 C 
ATOM      4  C   LIG d   1      -0.517  79.805 111.989  0.00  0.00     0.028 C 
ATOM      5  C   LIG d   1       0.487  80.140 110.891  0.00  0.00    -0.047 C 
ATOM      6  C   LIG d   1       1.336  81.351 111.339  0.00  0.00     0.091 C 
ENDROOT
BRANCH   1   7
ATOM      7  O   LIG d   1       1.190  83.489 112.527  0.00  0.00    -0.368 OA
BRANCH   7   8
ATOM      8  C   LIG d   1       0.981  84.894 112.241  0.00  0.00     0.119 C 
BRANCH   8   9
ATOM      9  C   LIG d   1       0.756  85.029 110.723  0.00  0.00     0.028 C 
ATOM     10  C   LIG d   1      -0.482  85.877 110.387  0.00  0.00     0.006 C 
ENDBRANCH   8   9
BRANCH   8  11
ATOM     11  C   LIG d   1       2.239  85.716 112.539  0.00  0.00     0.028 C 
ATOM     12  C   LIG d   1       3.269  85.663 111.400  0.00  0.00     0.006 C 
ENDBRANCH   8  11
ENDBRANCH   7   8
ENDBRANCH   1   7
BRANCH   6  13
ATOM     13  N   LIG d   1       2.286  81.797 110.287  0.00  0.00    -0.311 N 
ATOM     14  C   LIG d   1       3.568  82.072 110.526  0.00  0.00     0.210 C 
ATOM     15  C   LIG d   1       4.368  82.535 109.305  0.00  0.00     0.109 C 
ATOM     16  O   LIG d   1       4.125  81.945 111.627  0.00  0.00    -0.276 OA
ATOM     17  H   LIG d   1       1.926  81.896 109.359  0.00  0.00     0.149 HD
ENDBRANCH   6  13
BRANCH   5  18
ATOM     18  N   LIG d   1       1.292  78.930 110.640  0.00  0.00     0.381 N 
ATOM     19  H   LIG d   1       0.741  78.113 110.813  0.00  0.00    -0.090 HD
ATOM     20  H   LIG d   1       2.073  78.922 111.273  0.00  0.00    -0.090 HD
ATOM     21  H   LIG d   1       1.618  78.926 109.699  0.00  0.00    -0.090 HD
ENDBRANCH   5  18
BRANCH   3  22
ATOM     22  C   LIG d   1      -2.554  80.695 112.881  0.00  0.00     0.382 C 
ATOM     23  O   LIG d   1      -3.470  81.503 112.593  0.00  0.00    -0.241 OA
ATOM     24  O   LIG d   1      -2.803  79.726 113.623  0.00  0.00    -0.241 OA
ENDBRANCH   3  22
TORSDOF 7
ENDMDL
MODEL 2
REMARK VINA RESULT:      -5.9      3.652      6.389
REMARK  7 active torsions:
REMARK  status: ('A' for Active; 'I' for Inactive)
REMARK    1  A    between atoms: C_2  and  C_3 
REMARK    2  A    between atoms: C_3  and  O_6 
REMARK    3  A    between atoms: C_3  and  C_4 
REMARK    4  A    between atoms: C_7  and  O_6 
REMARK    5  A    between atoms: C_9  and  C_10 
REMARK    6  A    between atoms: N_15  and  C_14 
REMARK    7  A    between atoms: N_20  and  C_19 
REMARK       I    between atoms: C_22  and  N_20 
ROOT
ATOM      1  C   LIG d   1       2.924  85.806 112.092  0.00  0.00     0.161 C 
ATOM      2  C   LIG d   1       3.276  87.150 112.299  0.00  0.00     0.016 C 
ATOM      3  C   LIG d   1       4.048  87.591 113.399  0.00  0.00     0.038 C 
ATOM      4  C   LIG d   1       4.652  86.691 114.289  0.00  0.00     0.028 C 
ATOM      5  C   LIG d   1       3.909  85.365 114.408  0.00  0.00    -0.047 C 
ATOM      6  C   LIG d   1       3.668  84.796 112.991  0.00  0.00     0.091 C 
ENDROOT
BRANCH   1   7
ATOM      7  O   LIG d   1       3.101  85.464 110.703  0.00  0.00    -0.368 OA
BRANCH   7   8
ATOM      8  C   LIG d   1       1.894  85.157 109.963  0.00  0.00     0.119 C 
BRANCH   8   9
ATOM      9  C   LIG d   1       0.712  85.244 110.949  0.00  0.00     0.028 C 
ATOM     10  C   LIG d   1      -0.527  85.904 110.323  0.00  0.00     0.006 C 
ENDBRANCH   8   9
BRANCH   8  11
ATOM     11  C   LIG d   1       1.899  83.709 109.464  0.00  0.00     0.028 C 
ATOM     12  C   LIG d   1       3.312  83.109 109.393  0.00  0.00     0.006 C 
ENDBRANCH   8  11
ENDBRANCH   7   8
ENDBRANCH   1   7
BRANCH   6  13
ATOM     13  N   LIG d   1       2.871  83.542 113.012  0.00  0.00    -0.311 N 
ATOM     14  C   LIG d   1       3.417  82.327 112.990  0.00  0.00     0.210 C 
ATOM     15  C   LIG d   1       2.415  81.168 112.998  0.00  0.00     0.109 C 
ATOM     16  O   LIG d   1       4.636  82.099 112.998  0.00  0.00    -0.276 OA
ATOM     17  H   LIG d   1       1.875  83.634 113.038  0.00  0.00     0.149 HD
ENDBRANCH   6  13
BRANCH   5  18
ATOM     18  N   LIG d   1       4.720  84.474 115.259  0.00  0.00     0.381 N 
ATOM     19  H   LIG d   1       5.241  85.017 115.918  0.00  0.00    -0.090 HD
ATOM     20  H   LIG d   1       5.370  83.974 114.679  0.00  0.00    -0.090 HD
ATOM     21  H   LIG d   1       4.129  83.831 115.739  0.00  0.00    -0.090 HD
ENDBRANCH   5  18
BRANCH   3  22
ATOM     22  C   LIG d   1       4.189  88.950 113.638  0.00  0.00     0.382 C 
ATOM     23  O   LIG d   1       3.977  89.409 114.786  0.00  0.00    -0.241 OA
ATOM     24  O   LIG d   1       4.482  89.728 112.711  0.00  0.00    -0.241 OA
ENDBRANCH   3  22
TORSDOF 7
ENDMDL
MODEL 3
REMARK VINA RESULT:      -5.9      6.400      9.884
REMARK  7 active torsions:
REMARK  status: ('A' for Active; 'I' for Inactive)
REMARK    1  A    between atoms: C_2  and  C_3 
REMARK    2  A    between atoms: C_3  and  O_6 
REMARK    3  A    between atoms: C_3  and  C_4 
REMARK    4  A    between atoms: C_7  and  O_6 
REMARK    5  A    between atoms: C_9  and  C_10 
REMARK    6  A    between atoms: N_15  and  C_14 
REMARK    7  A    between atoms: N_20  and  C_19 
REMARK       I    between atoms: C_22  and  N_20 
ROOT
ATOM      1  C   LIG d   1      -3.715  76.124 115.255  0.00  0.00     0.161 C 
ATOM      2  C   LIG d   1      -3.862  76.855 114.064  0.00  0.00     0.016 C 
ATOM      3  C   LIG d   1      -2.774  77.408 113.351  0.00  0.00     0.038 C 
ATOM      4  C   LIG d   1      -1.443  77.137 113.702  0.00  0.00     0.028 C 
ATOM      5  C   LIG d   1      -1.259  76.824 115.183  0.00  0.00    -0.047 C 
ATOM      6  C   LIG d   1      -2.264  75.723 115.592  0.00  0.00     0.091 C 
ENDROOT
BRANCH   1   7
ATOM      7  O   LIG d   1      -4.561  74.958 115.220  0.00  0.00    -0.368 OA
BRANCH   7   8
ATOM      8  C   LIG d   1      -5.986  75.201 115.320  0.00  0.00     0.119 C 
BRANCH   8   9
ATOM      9  C   LIG d   1      -6.195  76.299 116.381  0.00  0.00     0.028 C 
ATOM     10  C   LIG d   1      -7.674  76.467 116.768  0.00  0.00     0.006 C 
ENDBRANCH   8   9
BRANCH   8  11
ATOM     11  C   LIG d   1      -6.725  73.972 115.857  0.00  0.00     0.028 C 
ATOM     12  C   LIG d   1      -6.322  72.674 115.140  0.00  0.00     0.006 C 
ENDBRANCH   8  11
ENDBRANCH   7   8
ENDBRANCH   1   7
BRANCH   6  13
ATOM     13  N   LIG d   1      -2.208  75.417 117.045  0.00  0.00    -0.311 N 
ATOM     14  C   LIG d   1      -1.485  74.422 117.558  0.00  0.00     0.210 C 
ATOM     15  C   LIG d   1      -1.585  74.267 119.079  0.00  0.00     0.109 C 
ATOM     16  O   LIG d   1      -0.746  73.674 116.901  0.00  0.00    -0.276 OA
ATOM     17  H   LIG d   1      -2.753  75.995 117.655  0.00  0.00     0.149 HD
ENDBRANCH   6  13
BRANCH   5  18
ATOM     18  N   LIG d   1       0.148  76.427 115.383  0.00  0.00     0.381 N 
ATOM     19  H   LIG d   1       0.526  76.906 116.176  0.00  0.00    -0.090 HD
ATOM     20  H   LIG d   1       0.679  76.691 114.572  0.00  0.00    -0.090 HD
ATOM     21  H   LIG d   1       0.207  75.442 115.521  0.00  0.00    -0.090 HD
ENDBRANCH   5  18
BRANCH   3  22
ATOM     22  C   LIG d   1      -3.013  78.276 112.297  0.00  0.00     0.382 C 
ATOM     23  O   LIG d   1      -3.155  77.826 111.134  0.00  0.00    -0.241 OA
ATOM     24  O   LIG d   1      -3.045  79.507 112.486  0.00  0.00    -0.241 OA
ENDBRANCH   3  22
TORSDOF 7
ENDMDL
MODEL 4
REMARK VINA RESULT:      -5.8      3.748      6.588
REMARK  7 active torsions:
REMARK  status: ('A' for Active; 'I' for Inactive)
REMARK    1  A    between atoms: C_2  and  C_3 
REMARK    2  A    between atoms: C_3  and  O_6 
REMARK    3  A    between atoms: C_3  and  C_4 
REMARK    4  A    between atoms: C_7  and  O_6 
REMARK    5  A    between atoms: C_9  and  C_10 
REMARK    6  A    between atoms: N_15  and  C_14 
REMARK    7  A    between atoms: N_20  and  C_19 
REMARK       I    between atoms: C_22  and  N_20 
ROOT
ATOM      1  C   LIG d   1       2.944  85.714 112.318  0.00  0.00     0.161 C 
ATOM      2  C   LIG d   1       3.294  87.069 112.442  0.00  0.00     0.016 C 
ATOM      3  C   LIG d   1       4.076  87.576 113.504  0.00  0.00     0.038 C 
ATOM      4  C   LIG d   1       4.693  86.732 114.440  0.00  0.00     0.028 C 
ATOM      5  C   LIG d   1       3.955  85.414 114.645  0.00  0.00    -0.047 C 
ATOM      6  C   LIG d   1       3.700  84.761 113.267  0.00  0.00     0.091 C 
ENDROOT
BRANCH   1   7
ATOM      7  O   LIG d   1       3.107  85.291 110.949  0.00  0.00    -0.368 OA
BRANCH   7   8
ATOM      8  C   LIG d   1       2.005  84.544 110.378  0.00  0.00     0.119 C 
BRANCH   8   9
ATOM      9  C   LIG d   1       2.598  83.546 109.364  0.00  0.00     0.028 C 
ATOM     10  C   LIG d   1       3.990  83.043 109.782  0.00  0.00     0.006 C 
ENDBRANCH   8   9
BRANCH   8  11
ATOM     11  C   LIG d   1       1.082  85.452 109.560  0.00  0.00     0.028 C 
ATOM     12  C   LIG d   1      -0.241  85.760 110.279  0.00  0.00     0.006 C 
ENDBRANCH   8  11
ENDBRANCH   7   8
ENDBRANCH   1   7
BRANCH   6  13
ATOM     13  N   LIG d   1       2.908  83.508 113.371  0.00  0.00    -0.311 N 
ATOM     14  C   LIG d   1       3.457  82.295 113.405  0.00  0.00     0.210 C 
ATOM     15  C   LIG d   1       2.459  81.136 113.494  0.00  0.00     0.109 C 
ATOM     16  O   LIG d   1       4.677  82.070 113.402  0.00  0.00    -0.276 OA
ATOM     17  H   LIG d   1       1.912  83.600 113.410  0.00  0.00     0.149 HD
ENDBRANCH   6  13
BRANCH   5  18
ATOM     18  N   LIG d   1       4.778  84.576 115.538  0.00  0.00     0.381 N 
ATOM     19  H   LIG d   1       4.592  84.814 116.492  0.00  0.00    -0.090 HD
ATOM     20  H   LIG d   1       5.748  84.758 115.351  0.00  0.00    -0.090 HD
ATOM     21  H   LIG d   1       4.577  83.613 115.383  0.00  0.00    -0.090 HD
ENDBRANCH   5  18
BRANCH   3  22
ATOM     22  C   LIG d   1       4.216  88.947 113.662  0.00  0.00     0.382 C 
ATOM     23  O   LIG d   1       4.021  89.472 114.785  0.00  0.00    -0.241 OA
ATOM     24  O   LIG d   1       4.490  89.670 112.686  0.00  0.00    -0.241 OA
ENDBRANCH   3  22
TORSDOF 7
ENDMDL
MODEL 5
REMARK VINA RESULT:      -5.8      2.287      5.259
REMARK  7 active torsions:
REMARK  status: ('A' for Active; 'I' for Inactive)
REMARK    1  A    between atoms: C_2  and  C_3 
REMARK    2  A    between atoms: C_3  and  O_6 
REMARK    3  A    between atoms: C_3  and  C_4 
REMARK    4  A    between atoms: C_7  and  O_6 
REMARK    5  A    between atoms: C_9  and  C_10 
REMARK    6  A    between atoms: N_15  and  C_14 
REMARK    7  A    between atoms: N_20  and  C_19 
REMARK       I    between atoms: C_22  and  N_20 
ROOT
ATOM      1  C   LIG d   1       0.348  81.310 110.524  0.00  0.00     0.161 C 
ATOM      2  C   LIG d   1       0.972  80.067 110.329  0.00  0.00     0.016 C 
ATOM      3  C   LIG d   1       2.352  79.923 110.058  0.00  0.00     0.038 C 
ATOM      4  C   LIG d   1       3.236  81.011 110.114  0.00  0.00     0.028 C 
ATOM      5  C   LIG d   1       2.570  82.349 109.808  0.00  0.00    -0.047 C 
ATOM      6  C   LIG d   1       1.315  82.500 110.699  0.00  0.00     0.091 C 
ENDROOT
BRANCH   1   7
ATOM      7  O   LIG d   1      -0.557  81.233 111.643  0.00  0.00    -0.368 OA
BRANCH   7   8
ATOM      8  C   LIG d   1      -0.618  79.956 112.326  0.00  0.00     0.119 C 
BRANCH   8   9
ATOM      9  C   LIG d   1      -2.088  79.494 112.313  0.00  0.00     0.028 C 
ATOM     10  C   LIG d   1      -2.338  78.360 111.305  0.00  0.00     0.006 C 
ENDBRANCH   8   9
BRANCH   8  11
ATOM     11  C   LIG d   1      -0.251  80.098 113.806  0.00  0.00     0.028 C 
ATOM     12  C   LIG d   1       1.194  80.577 114.018  0.00  0.00     0.006 C 
ENDBRANCH   8  11
ENDBRANCH   7   8
ENDBRANCH   1   7
BRANCH   6  13
ATOM     13  N   LIG d   1       0.557  83.743 110.404  0.00  0.00    -0.311 N 
ATOM     14  C   LIG d   1       0.165  84.603 111.343  0.00  0.00     0.210 C 
ATOM     15  C   LIG d   1      -0.622  85.811 110.825  0.00  0.00     0.109 C 
ATOM     16  O   LIG d   1       0.421  84.495 112.551  0.00  0.00    -0.276 OA
ATOM     17  H   LIG d   1       0.333  83.925 109.445  0.00  0.00     0.149 HD
ENDBRANCH   6  13
BRANCH   5  18
ATOM     18  N   LIG d   1       3.571  83.408 110.037  0.00  0.00     0.381 N 
ATOM     19  H   LIG d   1       3.237  84.275 109.667  0.00  0.00    -0.090 HD
ATOM     20  H   LIG d   1       4.418  83.164 109.553  0.00  0.00    -0.090 HD
ATOM     21  H   LIG d   1       3.753  83.501 111.012  0.00  0.00    -0.090 HD
ENDBRANCH   5  18
BRANCH   3  22
ATOM     22  C   LIG d   1       2.854  78.685 109.688  0.00  0.00     0.382 C 
ATOM     23  O   LIG d   1       2.072  77.724 109.494  0.00  0.00    -0.241 OA
ATOM     24  O   LIG d   1       4.083  78.506 109.588  0.00  0.00    -0.241 OA
ENDBRANCH   3  22
TORSDOF 7
ENDMDL
MODEL 6
REMARK VINA RESULT:      -5.6      3.487      5.725
REMARK  7 active torsions:
REMARK  status: ('A' for Active; 'I' for Inactive)
REMARK    1  A    between atoms: C_2  and  C_3 
REMARK    2  A    between atoms: C_3  and  O_6 
REMARK    3  A    between atoms: C_3  and  C_4 
REMARK    4  A    between atoms: C_7  and  O_6 
REMARK    5  A    between atoms: C_9  and  C_10 
REMARK    6  A    between atoms: N_15  and  C_14 
REMARK    7  A    between atoms: N_20  and  C_19 
REMARK       I    between atoms: C_22  and  N_20 
ROOT
ATOM      1  C   LIG d   1       4.392  83.976 111.996  0.00  0.00     0.161 C 
ATOM      2  C   LIG d   1       4.192  85.304 112.410  0.00  0.00     0.016 C 
ATOM      3  C   LIG d   1       3.167  86.133 111.897  0.00  0.00     0.038 C 
ATOM      4  C   LIG d   1       2.173  85.639 111.040  0.00  0.00     0.028 C 
ATOM      5  C   LIG d   1       2.630  84.447 110.206  0.00  0.00    -0.047 C 
ATOM      6  C   LIG d   1       3.249  83.385 111.144  0.00  0.00     0.091 C 
ENDROOT
BRANCH   1   7
ATOM      7  O   LIG d   1       4.646  83.140 113.142  0.00  0.00    -0.368 OA
BRANCH   7   8
ATOM      8  C   LIG d   1       3.481  82.709 113.887  0.00  0.00     0.119 C 
BRANCH   8   9
ATOM      9  C   LIG d   1       3.626  83.245 115.325  0.00  0.00     0.028 C 
ATOM     10  C   LIG d   1       2.668  84.412 115.615  0.00  0.00     0.006 C 
ENDBRANCH   8   9
BRANCH   8  11
ATOM     11  C   LIG d   1       3.442  81.184 114.025  0.00  0.00     0.028 C 
ATOM     12  C   LIG d   1       4.653  80.623 114.787  0.00  0.00     0.006 C 
ENDBRANCH   8  11
ENDBRANCH   7   8
ENDBRANCH   1   7
BRANCH   6  13
ATOM     13  N   LIG d   1       3.798  82.222 110.400  0.00  0.00    -0.311 N 
ATOM     14  C   LIG d   1       3.135  81.079 110.233  0.00  0.00     0.210 C 
ATOM     15  C   LIG d   1       3.892  80.001 109.451  0.00  0.00     0.109 C 
ATOM     16  O   LIG d   1       1.980  80.867 110.631  0.00  0.00    -0.276 OA
ATOM     17  H   LIG d   1       4.718  82.319 110.016  0.00  0.00     0.149 HD
ENDBRANCH   6  13
BRANCH   5  18
ATOM     18  N   LIG d   1       1.458  83.948 109.462  0.00  0.00     0.381 N 
ATOM     19  H   LIG d   1       0.725  83.714 110.102  0.00  0.00    -0.090 HD
ATOM     20  H   LIG d   1       1.719  83.115 108.964  0.00  0.00    -0.090 HD
ATOM     21  H   LIG d   1       1.141  84.641 108.820  0.00  0.00    -0.090 HD
ENDBRANCH   5  18
BRANCH   3  22
ATOM     22  C   LIG d   1       3.155  87.483 112.211  0.00  0.00     0.382 C 
ATOM     23  O   LIG d   1       4.063  87.969 112.927  0.00  0.00    -0.241 OA
ATOM     24  O   LIG d   1       2.222  88.213 111.824  0.00  0.00    -0.241 OA
ENDBRANCH   3  22
TORSDOF 7
ENDMDL
MODEL 7
REMARK VINA RESULT:      -5.4     20.388     24.150
REMARK  7 active torsions:
REMARK  status: ('A' for Active; 'I' for Inactive)
REMARK    1  A    between atoms: C_2  and  C_3 
REMARK    2  A    between atoms: C_3  and  O_6 
REMARK    3  A    between atoms: C_3  and  C_4 
REMARK    4  A    between atoms: C_7  and  O_6 
REMARK    5  A    between atoms: C_9  and  C_10 
REMARK    6  A    between atoms: N_15  and  C_14 
REMARK    7  A    between atoms: N_20  and  C_19 
REMARK       I    between atoms: C_22  and  N_20 
ROOT
ATOM      1  C   LIG d   1     -16.018  66.209 114.259  0.00  0.00     0.161 C 
ATOM      2  C   LIG d   1     -15.411  66.963 113.241  0.00  0.00     0.016 C 
ATOM      3  C   LIG d   1     -14.774  68.205 113.467  0.00  0.00     0.038 C 
ATOM      4  C   LIG d   1     -14.568  68.708 114.761  0.00  0.00     0.028 C 
ATOM      5  C   LIG d   1     -15.605  68.228 115.770  0.00  0.00    -0.047 C 
ATOM      6  C   LIG d   1     -15.706  66.688 115.693  0.00  0.00     0.091 C 
ENDROOT
BRANCH   1   7
ATOM      7  O   LIG d   1     -15.673  64.818 114.109  0.00  0.00    -0.368 OA
BRANCH   7   8
ATOM      8  C   LIG d   1     -16.718  63.953 113.602  0.00  0.00     0.119 C 
BRANCH   8   9
ATOM      9  C   LIG d   1     -18.036  64.751 113.633  0.00  0.00     0.028 C 
ATOM     10  C   LIG d   1     -18.791  64.689 112.295  0.00  0.00     0.006 C 
ENDBRANCH   8   9
BRANCH   8  11
ATOM     11  C   LIG d   1     -16.948  62.755 114.528  0.00  0.00     0.028 C 
ATOM     12  C   LIG d   1     -18.331  62.776 115.197  0.00  0.00     0.006 C 
ENDBRANCH   8  11
ENDBRANCH   7   8
ENDBRANCH   1   7
BRANCH   6  13
ATOM     13  N   LIG d   1     -16.759  66.143 116.588  0.00  0.00    -0.311 N 
ATOM     14  C   LIG d   1     -16.543  65.160 117.461  0.00  0.00     0.210 C 
ATOM     15  C   LIG d   1     -17.771  64.735 118.273  0.00  0.00     0.109 C 
ATOM     16  O   LIG d   1     -15.444  64.623 117.663  0.00  0.00    -0.276 OA
ATOM     17  H   LIG d   1     -17.674  66.543 116.513  0.00  0.00     0.149 HD
ENDBRANCH   6  13
BRANCH   5  18
ATOM     18  N   LIG d   1     -15.192  68.715 117.100  0.00  0.00     0.381 N 
ATOM     19  H   LIG d   1     -14.407  69.329 117.007  0.00  0.00    -0.090 HD
ATOM     20  H   LIG d   1     -14.913  67.930 117.661  0.00  0.00    -0.090 HD
ATOM     21  H   LIG d   1     -15.948  69.194 117.538  0.00  0.00    -0.090 HD
ENDBRANCH   5  18
BRANCH   3  22
ATOM     22  C   LIG d   1     -14.371  68.977 112.388  0.00  0.00     0.382 C 
ATOM     23  O   LIG d   1     -14.824  68.739 111.243  0.00  0.00    -0.241 OA
ATOM     24  O   LIG d   1     -13.526  69.880 112.538  0.00  0.00    -0.241 OA
ENDBRANCH   3  22
TORSDOF 7
ENDMDL
MODEL 8
REMARK VINA RESULT:      -5.3      4.084      6.606
REMARK  7 active torsions:
REMARK  status: ('A' for Active; 'I' for Inactive)
REMARK    1  A    between atoms: C_2  and  C_3 
REMARK    2  A    between atoms: C_3  and  O_6 
REMARK    3  A    between atoms: C_3  and  C_4 
REMARK    4  A    between atoms: C_7  and  O_6 
REMARK    5  A    between atoms: C_9  and  C_10 
REMARK    6  A    between atoms: N_15  and  C_14 
REMARK    7  A    between atoms: N_20  and  C_19 
REMARK       I    between atoms: C_22  and  N_20 
ROOT
ATOM      1  C   LIG d   1       3.844  84.334 112.791  0.00  0.00     0.161 C 
ATOM      2  C   LIG d   1       3.734  85.645 112.297  0.00  0.00     0.016 C 
ATOM      3  C   LIG d   1       3.791  86.794 113.119  0.00  0.00     0.038 C 
ATOM      4  C   LIG d   1       4.116  86.715 114.482  0.00  0.00     0.028 C 
ATOM      5  C   LIG d   1       3.736  85.383 115.119  0.00  0.00    -0.047 C 
ATOM      6  C   LIG d   1       4.310  84.233 114.259  0.00  0.00     0.091 C 
ENDROOT
BRANCH   1   7
ATOM      7  O   LIG d   1       4.710  83.561 111.937  0.00  0.00    -0.368 OA
BRANCH   7   8
ATOM      8  C   LIG d   1       4.063  82.563 111.109  0.00  0.00     0.119 C 
BRANCH   8   9
ATOM      9  C   LIG d   1       3.943  83.147 109.688  0.00  0.00     0.028 C 
ATOM     10  C   LIG d   1       2.501  83.555 109.342  0.00  0.00     0.006 C 
ENDBRANCH   8   9
BRANCH   8  11
ATOM     11  C   LIG d   1       2.623  82.308 111.566  0.00  0.00     0.028 C 
ATOM     12  C   LIG d   1       2.413  80.886 112.108  0.00  0.00     0.006 C 
ENDBRANCH   8  11
ENDBRANCH   7   8
ENDBRANCH   1   7
BRANCH   6  13
ATOM     13  N   LIG d   1       3.913  82.894 114.766  0.00  0.00    -0.311 N 
ATOM     14  C   LIG d   1       4.690  82.146 115.548  0.00  0.00     0.210 C 
ATOM     15  C   LIG d   1       4.097  80.789 115.941  0.00  0.00     0.109 C 
ATOM     16  O   LIG d   1       5.799  82.492 115.980  0.00  0.00    -0.276 OA
ATOM     17  H   LIG d   1       3.014  82.549 114.489  0.00  0.00     0.149 HD
ENDBRANCH   6  13
BRANCH   5  18
ATOM     18  N   LIG d   1       4.255  85.385 116.500  0.00  0.00     0.381 N 
ATOM     19  H   LIG d   1       3.638  85.905 117.092  0.00  0.00    -0.090 HD
ATOM     20  H   LIG d   1       5.153  85.834 116.509  0.00  0.00    -0.090 HD
ATOM     21  H   LIG d   1       4.339  84.451 116.835  0.00  0.00    -0.090 HD
ENDBRANCH   5  18
BRANCH   3  22
ATOM     22  C   LIG d   1       3.483  88.036 112.586  0.00  0.00     0.382 C 
ATOM     23  O   LIG d   1       2.424  88.192 111.932  0.00  0.00    -0.241 OA
ATOM     24  O   LIG d   1       4.271  88.992 112.714  0.00  0.00    -0.241 OA
ENDBRANCH   3  22
TORSDOF 7
ENDMDL
MODEL 9
REMARK VINA RESULT:      -5.3      2.962      6.009
REMARK  7 active torsions:
REMARK  status: ('A' for Active; 'I' for Inactive)
REMARK    1  A    between atoms: C_2  and  C_3 
REMARK    2  A    between atoms: C_3  and  O_6 
REMARK    3  A    between atoms: C_3  and  C_4 
REMARK    4  A    between atoms: C_7  and  O_6 
REMARK    5  A    between atoms: C_9  and  C_10 
REMARK    6  A    between atoms: N_15  and  C_14 
REMARK    7  A    between atoms: N_20  and  C_19 
REMARK       I    between atoms: C_22  and  N_20 
ROOT
ATOM      1  C   LIG d   1       2.706  84.002 112.469  0.00  0.00     0.161 C 
ATOM      2  C   LIG d   1       3.187  85.251 112.895  0.00  0.00     0.016 C 
ATOM      3  C   LIG d   1       2.884  86.466 112.238  0.00  0.00     0.038 C 
ATOM      4  C   LIG d   1       1.952  86.531 111.191  0.00  0.00     0.028 C 
ATOM      5  C   LIG d   1       1.831  85.230 110.406  0.00  0.00    -0.047 C 
ATOM      6  C   LIG d   1       1.599  84.066 111.397  0.00  0.00     0.091 C 
ENDROOT
BRANCH   1   7
ATOM      7  O   LIG d   1       2.259  83.237 113.606  0.00  0.00    -0.368 OA
BRANCH   7   8
ATOM      8  C   LIG d   1       2.939  81.978 113.834  0.00  0.00     0.119 C 
BRANCH   8   9
ATOM      9  C   LIG d   1       2.020  81.109 114.715  0.00  0.00     0.028 C 
ATOM     10  C   LIG d   1       0.902  80.430 113.907  0.00  0.00     0.006 C 
ENDBRANCH   8   9
BRANCH   8  11
ATOM     11  C   LIG d   1       4.218  82.175 114.653  0.00  0.00     0.028 C 
ATOM     12  C   LIG d   1       4.739  80.867 115.269  0.00  0.00     0.006 C 
ENDBRANCH   8  11
ENDBRANCH   7   8
ENDBRANCH   1   7
BRANCH   6  13
ATOM     13  N   LIG d   1       1.553  82.745 110.718  0.00  0.00    -0.311 N 
ATOM     14  C   LIG d   1       0.477  81.960 110.713  0.00  0.00     0.210 C 
ATOM     15  C   LIG d   1       0.649  80.631 109.971  0.00  0.00     0.109 C 
ATOM     16  O   LIG d   1      -0.615  82.253 111.224  0.00  0.00    -0.276 OA
ATOM     17  H   LIG d   1       2.385  82.442 110.251  0.00  0.00     0.149 HD
ENDBRANCH   6  13
BRANCH   5  18
ATOM     18  N   LIG d   1       0.730  85.394 109.438  0.00  0.00     0.381 N 
ATOM     19  H   LIG d   1       0.479  86.360 109.371  0.00  0.00    -0.090 HD
ATOM     20  H   LIG d   1      -0.071  84.883 109.767  0.00  0.00    -0.090 HD
ATOM     21  H   LIG d   1       1.007  85.052 108.545  0.00  0.00    -0.090 HD
ENDBRANCH   5  18
BRANCH   3  22
ATOM     22  C   LIG d   1       3.549  87.628 112.601  0.00  0.00     0.382 C 
ATOM     23  O   LIG d   1       4.782  87.735 112.395  0.00  0.00    -0.241 OA
ATOM     24  O   LIG d   1       2.940  88.552 113.172  0.00  0.00    -0.241 OA
ENDBRANCH   3  22
TORSDOF 7
ENDMDL
