MODEL 1
REMARK VINA RESULT:      -6.4      0.000      0.000
REMARK  7 active torsions:
REMARK  status: ('A' for Active; 'I' for Inactive)
REMARK    1  A    between atoms: C_2  and  C_3 
REMARK    2  A    between atoms: C_3  and  O_6 
REMARK    3  A    between atoms: C_3  and  C_4 
REMARK    4  A    between atoms: C_7  and  O_6 
REMARK    5  A    between atoms: C_9  and  C_10 
REMARK    6  A    between atoms: N_15  and  C_14 
REMARK    7  A    between atoms: N_20  and  C_19 
REMARK       I    between atoms: C_22  and  N_20 
ROOT
ATOM      1  C   LIG d   1       0.147  82.475 111.851  0.00  0.00     0.161 C 
ATOM      2  C   LIG d   1      -1.074  82.087 112.427  0.00  0.00     0.016 C 
ATOM      3  C   LIG d   1      -1.709  80.855 112.148  0.00  0.00     0.038 C 
ATOM      4  C   LIG d   1      -1.087  79.856 111.385  0.00  0.00     0.028 C 
ATOM      5  C   LIG d   1      -0.084  80.402 110.375  0.00  0.00    -0.047 C 
ATOM      6  C   LIG d   1       0.895  81.352 111.103  0.00  0.00     0.091 C 
ENDROOT
BRANCH   1   7
ATOM      7  O   LIG d   1       0.998  83.060 112.856  0.00  0.00    -0.368 OA
BRANCH   7   8
ATOM      8  C   LIG d   1       1.187  84.494 112.776  0.00  0.00     0.119 C 
BRANCH   8   9
ATOM      9  C   LIG d   1       2.696  84.753 112.605  0.00  0.00     0.028 C 
ATOM     10  C   LIG d   1       2.998  85.730 111.456  0.00  0.00     0.006 C 
ENDBRANCH   8   9
BRANCH   8  11
ATOM     11  C   LIG d   1       0.804  85.182 114.089  0.00  0.00     0.028 C 
ATOM     12  C   LIG d   1      -0.717  85.312 114.272  0.00  0.00     0.006 C 
ENDBRANCH   8  11
ENDBRANCH   7   8
ENDBRANCH   1   7
BRANCH   6  13
ATOM     13  N   LIG d   1       1.858  81.995 110.172  0.00  0.00    -0.311 N 
ATOM     14  C   LIG d   1       3.174  82.020 110.380  0.00  0.00     0.210 C 
ATOM     15  C   LIG d   1       3.984  82.753 109.306  0.00  0.00     0.109 C 
ATOM     16  O   LIG d   1       3.749  81.477 111.335  0.00  0.00    -0.276 OA
ATOM     17  H   LIG d   1       1.480  82.433 109.355  0.00  0.00     0.149 HD
ENDBRANCH   6  13
BRANCH   5  18
ATOM     18  N   LIG d   1       0.589  79.249 109.747  0.00  0.00     0.381 N 
ATOM     19  H   LIG d   1       1.578  79.320 109.882  0.00  0.00    -0.090 HD
ATOM     20  H   LIG d   1       0.403  79.262 108.760  0.00  0.00    -0.090 HD
ATOM     21  H   LIG d   1       0.252  78.400 110.145  0.00  0.00    -0.090 HD
ENDBRANCH   5  18
BRANCH   3  22
ATOM     22  C   LIG d   1      -3.000  80.629 112.603  0.00  0.00     0.382 C 
ATOM     23  O   LIG d   1      -3.378  79.461 112.860  0.00  0.00    -0.241 OA
ATOM     24  O   LIG d   1      -3.804  81.573 112.717  0.00  0.00    -0.241 OA
ENDBRANCH   3  22
TORSDOF 7
ENDMDL
MODEL 2
REMARK VINA RESULT:      -5.8      3.814      7.300
REMARK  7 active torsions:
REMARK  status: ('A' for Active; 'I' for Inactive)
REMARK    1  A    between atoms: C_2  and  C_3 
REMARK    2  A    between atoms: C_3  and  O_6 
REMARK    3  A    between atoms: C_3  and  C_4 
REMARK    4  A    between atoms: C_7  and  O_6 
REMARK    5  A    between atoms: C_9  and  C_10 
REMARK    6  A    between atoms: N_15  and  C_14 
REMARK    7  A    between atoms: N_20  and  C_19 
REMARK       I    between atoms: C_22  and  N_20 
ROOT
ATOM      1  C   LIG d   1       2.464  86.304 112.107  0.00  0.00     0.161 C 
ATOM      2  C   LIG d   1       3.386  87.364 112.064  0.00  0.00     0.016 C 
ATOM      3  C   LIG d   1       3.785  88.094 113.207  0.00  0.00     0.038 C 
ATOM      4  C   LIG d   1       3.403  87.713 114.501  0.00  0.00     0.028 C 
ATOM      5  C   LIG d   1       2.075  86.963 114.545  0.00  0.00    -0.047 C 
ATOM      6  C   LIG d   1       2.121  85.802 113.525  0.00  0.00     0.091 C 
ENDROOT
BRANCH   1   7
ATOM      7  O   LIG d   1       2.935  85.214 111.290  0.00  0.00    -0.368 OA
BRANCH   7   8
ATOM      8  C   LIG d   1       2.203  84.974 110.063  0.00  0.00     0.119 C 
BRANCH   8   9
ATOM      9  C   LIG d   1       1.040  85.984 110.013  0.00  0.00     0.028 C 
ATOM     10  C   LIG d   1      -0.331  85.295 109.916  0.00  0.00     0.006 C 
ENDBRANCH   8   9
BRANCH   8  11
ATOM     11  C   LIG d   1       1.541  83.593 110.069  0.00  0.00     0.028 C 
ATOM     12  C   LIG d   1       2.500  82.475 110.509  0.00  0.00     0.006 C 
ENDBRANCH   8  11
ENDBRANCH   7   8
ENDBRANCH   1   7
BRANCH   6  13
ATOM     13  N   LIG d   1       0.831  85.069 113.443  0.00  0.00    -0.311 N 
ATOM     14  C   LIG d   1       0.722  83.755 113.632  0.00  0.00     0.210 C 
ATOM     15  C   LIG d   1      -0.697  83.196 113.482  0.00  0.00     0.109 C 
ATOM     16  O   LIG d   1       1.659  83.004 113.942  0.00  0.00    -0.276 OA
ATOM     17  H   LIG d   1       0.014  85.606 113.226  0.00  0.00     0.149 HD
ENDBRANCH   6  13
BRANCH   5  18
ATOM     18  N   LIG d   1       1.866  86.507 115.931  0.00  0.00     0.381 N 
ATOM     19  H   LIG d   1       1.911  85.508 115.970  0.00  0.00    -0.090 HD
ATOM     20  H   LIG d   1       0.952  86.793 116.234  0.00  0.00    -0.090 HD
ATOM     21  H   LIG d   1       2.560  86.901 116.528  0.00  0.00    -0.090 HD
ENDBRANCH   5  18
BRANCH   3  22
ATOM     22  C   LIG d   1       4.546  89.244 113.056  0.00  0.00     0.382 C 
ATOM     23  O   LIG d   1       5.765  89.157 112.773  0.00  0.00    -0.241 OA
ATOM     24  O   LIG d   1       4.038  90.366 113.244  0.00  0.00    -0.241 OA
ENDBRANCH   3  22
TORSDOF 7
ENDMDL
MODEL 3
REMARK VINA RESULT:      -5.7      2.874      4.780
REMARK  7 active torsions:
REMARK  status: ('A' for Active; 'I' for Inactive)
REMARK    1  A    between atoms: C_2  and  C_3 
REMARK    2  A    between atoms: C_3  and  O_6 
REMARK    3  A    between atoms: C_3  and  C_4 
REMARK    4  A    between atoms: C_7  and  O_6 
REMARK    5  A    between atoms: C_9  and  C_10 
REMARK    6  A    between atoms: N_15  and  C_14 
REMARK    7  A    between atoms: N_20  and  C_19 
REMARK       I    between atoms: C_22  and  N_20 
ROOT
ATOM      1  C   LIG d   1       2.142  83.652 113.388  0.00  0.00     0.161 C 
ATOM      2  C   LIG d   1       1.185  82.731 112.931  0.00  0.00     0.016 C 
ATOM      3  C   LIG d   1      -0.209  82.951 113.014  0.00  0.00     0.038 C 
ATOM      4  C   LIG d   1      -0.742  84.182 113.424  0.00  0.00     0.028 C 
ATOM      5  C   LIG d   1       0.174  84.954 114.368  0.00  0.00    -0.047 C 
ATOM      6  C   LIG d   1       1.582  85.047 113.737  0.00  0.00     0.091 C 
ENDROOT
BRANCH   1   7
ATOM      7  O   LIG d   1       3.209  83.767 112.425  0.00  0.00    -0.368 OA
BRANCH   7   8
ATOM      8  C   LIG d   1       2.815  83.733 111.031  0.00  0.00     0.119 C 
BRANCH   8   9
ATOM      9  C   LIG d   1       3.859  82.887 110.276  0.00  0.00     0.028 C 
ATOM     10  C   LIG d   1       3.619  81.377 110.439  0.00  0.00     0.006 C 
ENDBRANCH   8   9
BRANCH   8  11
ATOM     11  C   LIG d   1       2.887  85.125 110.397  0.00  0.00     0.028 C 
ATOM     12  C   LIG d   1       1.500  85.745 110.162  0.00  0.00     0.006 C 
ENDBRANCH   8  11
ENDBRANCH   7   8
ENDBRANCH   1   7
BRANCH   6  13
ATOM     13  N   LIG d   1       2.562  85.714 114.633  0.00  0.00    -0.311 N 
ATOM     14  C   LIG d   1       3.118  86.894 114.362  0.00  0.00     0.210 C 
ATOM     15  C   LIG d   1       4.118  87.393 115.409  0.00  0.00     0.109 C 
ATOM     16  O   LIG d   1       2.854  87.589 113.369  0.00  0.00    -0.276 OA
ATOM     17  H   LIG d   1       2.809  85.235 115.476  0.00  0.00     0.149 HD
ENDBRANCH   6  13
BRANCH   5  18
ATOM     18  N   LIG d   1      -0.442  86.273 114.606  0.00  0.00     0.381 N 
ATOM     19  H   LIG d   1      -0.880  86.598 113.768  0.00  0.00    -0.090 HD
ATOM     20  H   LIG d   1       0.278  86.927 114.860  0.00  0.00    -0.090 HD
ATOM     21  H   LIG d   1      -1.115  86.208 115.338  0.00  0.00    -0.090 HD
ENDBRANCH   5  18
BRANCH   3  22
ATOM     22  C   LIG d   1      -1.086  81.918 112.721  0.00  0.00     0.382 C 
ATOM     23  O   LIG d   1      -2.024  82.103 111.908  0.00  0.00    -0.241 OA
ATOM     24  O   LIG d   1      -0.978  80.816 113.292  0.00  0.00    -0.241 OA
ENDBRANCH   3  22
TORSDOF 7
ENDMDL
MODEL 4
REMARK VINA RESULT:      -5.5      3.078      5.017
REMARK  7 active torsions:
REMARK  status: ('A' for Active; 'I' for Inactive)
REMARK    1  A    between atoms: C_2  and  C_3 
REMARK    2  A    between atoms: C_3  and  O_6 
REMARK    3  A    between atoms: C_3  and  C_4 
REMARK    4  A    between atoms: C_7  and  O_6 
REMARK    5  A    between atoms: C_9  and  C_10 
REMARK    6  A    between atoms: N_15  and  C_14 
REMARK    7  A    between atoms: N_20  and  C_19 
REMARK       I    between atoms: C_22  and  N_20 
ROOT
ATOM      1  C   LIG d   1       0.313  83.012 112.181  0.00  0.00     0.161 C 
ATOM      2  C   LIG d   1      -0.206  83.977 111.302  0.00  0.00     0.016 C 
ATOM      3  C   LIG d   1      -0.652  85.252 111.721  0.00  0.00     0.038 C 
ATOM      4  C   LIG d   1      -0.468  85.706 113.035  0.00  0.00     0.028 C 
ATOM      5  C   LIG d   1      -0.411  84.581 114.063  0.00  0.00    -0.047 C 
ATOM      6  C   LIG d   1       0.624  83.531 113.600  0.00  0.00     0.091 C 
ENDROOT
BRANCH   1   7
ATOM      7  O   LIG d   1       1.484  82.403 111.602  0.00  0.00    -0.368 OA
BRANCH   7   8
ATOM      8  C   LIG d   1       2.189  83.192 110.613  0.00  0.00     0.119 C 
BRANCH   8   9
ATOM      9  C   LIG d   1       2.822  82.212 109.605  0.00  0.00     0.028 C 
ATOM     10  C   LIG d   1       4.352  82.133 109.746  0.00  0.00     0.006 C 
ENDBRANCH   8   9
BRANCH   8  11
ATOM     11  C   LIG d   1       3.366  83.947 111.238  0.00  0.00     0.028 C 
ATOM     12  C   LIG d   1       3.184  85.473 111.197  0.00  0.00     0.006 C 
ENDBRANCH   8  11
ENDBRANCH   7   8
ENDBRANCH   1   7
BRANCH   6  13
ATOM     13  N   LIG d   1       0.682  82.354 114.507  0.00  0.00    -0.311 N 
ATOM     14  C   LIG d   1       1.793  81.959 115.125  0.00  0.00     0.210 C 
ATOM     15  C   LIG d   1       1.638  80.711 115.999  0.00  0.00     0.109 C 
ATOM     16  O   LIG d   1       2.885  82.543 115.059  0.00  0.00    -0.276 OA
ATOM     17  H   LIG d   1      -0.167  81.841 114.642  0.00  0.00     0.149 HD
ENDBRANCH   6  13
BRANCH   5  18
ATOM     18  N   LIG d   1      -0.079  85.185 115.367  0.00  0.00     0.381 N 
ATOM     19  H   LIG d   1       0.249  86.121 115.233  0.00  0.00    -0.090 HD
ATOM     20  H   LIG d   1       0.657  84.651 115.795  0.00  0.00    -0.090 HD
ATOM     21  H   LIG d   1      -0.883  85.189 115.956  0.00  0.00    -0.090 HD
ENDBRANCH   5  18
BRANCH   3  22
ATOM     22  C   LIG d   1      -1.327  86.071 110.829  0.00  0.00     0.382 C 
ATOM     23  O   LIG d   1      -2.112  86.952 111.257  0.00  0.00    -0.241 OA
ATOM     24  O   LIG d   1      -1.195  85.912 109.600  0.00  0.00    -0.241 OA
ENDBRANCH   3  22
TORSDOF 7
ENDMDL
MODEL 5
REMARK VINA RESULT:      -5.4      3.478      6.906
REMARK  7 active torsions:
REMARK  status: ('A' for Active; 'I' for Inactive)
REMARK    1  A    between atoms: C_2  and  C_3 
REMARK    2  A    between atoms: C_3  and  O_6 
REMARK    3  A    between atoms: C_3  and  C_4 
REMARK    4  A    between atoms: C_7  and  O_6 
REMARK    5  A    between atoms: C_9  and  C_10 
REMARK    6  A    between atoms: N_15  and  C_14 
REMARK    7  A    between atoms: N_20  and  C_19 
REMARK       I    between atoms: C_22  and  N_20 
ROOT
ATOM      1  C   LIG d   1       2.830  85.382 112.232  0.00  0.00     0.161 C 
ATOM      2  C   LIG d   1       3.461  86.634 112.136  0.00  0.00     0.016 C 
ATOM      3  C   LIG d   1       3.518  87.560 113.202  0.00  0.00     0.038 C 
ATOM      4  C   LIG d   1       3.077  87.233 114.493  0.00  0.00     0.028 C 
ATOM      5  C   LIG d   1       1.980  86.174 114.508  0.00  0.00    -0.047 C 
ATOM      6  C   LIG d   1       2.440  84.963 113.665  0.00  0.00     0.091 C 
ENDROOT
BRANCH   1   7
ATOM      7  O   LIG d   1       3.656  84.370 111.622  0.00  0.00    -0.368 OA
BRANCH   7   8
ATOM      8  C   LIG d   1       2.991  83.483 110.689  0.00  0.00     0.119 C 
BRANCH   8   9
ATOM      9  C   LIG d   1       4.084  82.752 109.886  0.00  0.00     0.028 C 
ATOM     10  C   LIG d   1       3.981  81.223 110.010  0.00  0.00     0.006 C 
ENDBRANCH   8   9
BRANCH   8  11
ATOM     11  C   LIG d   1       2.182  84.268 109.652  0.00  0.00     0.028 C 
ATOM     12  C   LIG d   1       0.670  84.014 109.760  0.00  0.00     0.006 C 
ENDBRANCH   8  11
ENDBRANCH   7   8
ENDBRANCH   1   7
BRANCH   6  13
ATOM     13  N   LIG d   1       1.392  83.915 113.558  0.00  0.00    -0.311 N 
ATOM     14  C   LIG d   1       1.563  82.661 113.973  0.00  0.00     0.210 C 
ATOM     15  C   LIG d   1       0.362  81.737 113.751  0.00  0.00     0.109 C 
ATOM     16  O   LIG d   1       2.584  82.235 114.534  0.00  0.00    -0.276 OA
ATOM     17  H   LIG d   1       0.520  84.183 113.144  0.00  0.00     0.149 HD
ENDBRANCH   6  13
BRANCH   5  18
ATOM     18  N   LIG d   1       1.712  85.830 115.917  0.00  0.00     0.381 N 
ATOM     19  H   LIG d   1       1.598  86.666 116.454  0.00  0.00    -0.090 HD
ATOM     20  H   LIG d   1       2.500  85.325 116.284  0.00  0.00    -0.090 HD
ATOM     21  H   LIG d   1       0.890  85.270 115.981  0.00  0.00    -0.090 HD
ENDBRANCH   5  18
BRANCH   3  22
ATOM     22  C   LIG d   1       3.986  88.845 112.971  0.00  0.00     0.382 C 
ATOM     23  O   LIG d   1       3.236  89.831 113.173  0.00  0.00    -0.241 OA
ATOM     24  O   LIG d   1       5.133  89.029 112.523  0.00  0.00    -0.241 OA
ENDBRANCH   3  22
TORSDOF 7
ENDMDL
MODEL 6
REMARK VINA RESULT:      -5.4      5.685      9.087
REMARK  7 active torsions:
REMARK  status: ('A' for Active; 'I' for Inactive)
REMARK    1  A    between atoms: C_2  and  C_3 
REMARK    2  A    between atoms: C_3  and  O_6 
REMARK    3  A    between atoms: C_3  and  C_4 
REMARK    4  A    between atoms: C_7  and  O_6 
REMARK    5  A    between atoms: C_9  and  C_10 
REMARK    6  A    between atoms: N_15  and  C_14 
REMARK    7  A    between atoms: N_20  and  C_19 
REMARK       I    between atoms: C_22  and  N_20 
ROOT
ATOM      1  C   LIG d   1      -3.243  76.277 114.796  0.00  0.00     0.161 C 
ATOM      2  C   LIG d   1      -3.465  77.257 113.815  0.00  0.00     0.016 C 
ATOM      3  C   LIG d   1      -2.426  77.859 113.067  0.00  0.00     0.038 C 
ATOM      4  C   LIG d   1      -1.100  77.410 113.145  0.00  0.00     0.028 C 
ATOM      5  C   LIG d   1      -0.755  76.771 114.486  0.00  0.00    -0.047 C 
ATOM      6  C   LIG d   1      -1.814  75.694 114.817  0.00  0.00     0.091 C 
ENDROOT
BRANCH   1   7
ATOM      7  O   LIG d   1      -4.213  75.220 114.659  0.00  0.00    -0.368 OA
BRANCH   7   8
ATOM      8  C   LIG d   1      -5.154  75.073 115.751  0.00  0.00     0.119 C 
BRANCH   8   9
ATOM      9  C   LIG d   1      -5.788  73.674 115.630  0.00  0.00     0.028 C 
ATOM     10  C   LIG d   1      -7.034  73.516 116.517  0.00  0.00     0.006 C 
ENDBRANCH   8   9
BRANCH   8  11
ATOM     11  C   LIG d   1      -6.318  76.059 115.620  0.00  0.00     0.028 C 
ATOM     12  C   LIG d   1      -6.270  77.180 116.670  0.00  0.00     0.006 C 
ENDBRANCH   8  11
ENDBRANCH   7   8
ENDBRANCH   1   7
BRANCH   6  13
ATOM     13  N   LIG d   1      -1.599  75.078 116.152  0.00  0.00    -0.311 N 
ATOM     14  C   LIG d   1      -1.634  75.767 117.291  0.00  0.00     0.210 C 
ATOM     15  C   LIG d   1      -1.366  74.942 118.554  0.00  0.00     0.109 C 
ATOM     16  O   LIG d   1      -1.893  76.977 117.379  0.00  0.00    -0.276 OA
ATOM     17  H   LIG d   1      -1.412  74.095 116.176  0.00  0.00     0.149 HD
ENDBRANCH   6  13
BRANCH   5  18
ATOM     18  N   LIG d   1       0.612  76.225 114.381  0.00  0.00     0.381 N 
ATOM     19  H   LIG d   1       0.863  75.773 115.238  0.00  0.00    -0.090 HD
ATOM     20  H   LIG d   1       1.253  76.982 114.224  0.00  0.00    -0.090 HD
ATOM     21  H   LIG d   1       0.662  75.575 113.628  0.00  0.00    -0.090 HD
ENDBRANCH   5  18
BRANCH   3  22
ATOM     22  C   LIG d   1      -2.705  78.951 112.259  0.00  0.00     0.382 C 
ATOM     23  O   LIG d   1      -2.160  79.054 111.134  0.00  0.00    -0.241 OA
ATOM     24  O   LIG d   1      -3.461  79.857 112.660  0.00  0.00    -0.241 OA
ENDBRANCH   3  22
TORSDOF 7
ENDMDL
MODEL 7
REMARK VINA RESULT:      -5.4      8.976     11.410
REMARK  7 active torsions:
REMARK  status: ('A' for Active; 'I' for Inactive)
REMARK    1  A    between atoms: C_2  and  C_3 
REMARK    2  A    between atoms: C_3  and  O_6 
REMARK    3  A    between atoms: C_3  and  C_4 
REMARK    4  A    between atoms: C_7  and  O_6 
REMARK    5  A    between atoms: C_9  and  C_10 
REMARK    6  A    between atoms: N_15  and  C_14 
REMARK    7  A    between atoms: N_20  and  C_19 
REMARK       I    between atoms: C_22  and  N_20 
ROOT
ATOM      1  C   LIG d   1      -5.162  76.382 115.793  0.00  0.00     0.161 C 
ATOM      2  C   LIG d   1      -3.967  75.686 115.547  0.00  0.00     0.016 C 
ATOM      3  C   LIG d   1      -2.844  75.742 116.405  0.00  0.00     0.038 C 
ATOM      4  C   LIG d   1      -2.895  76.381 117.653  0.00  0.00     0.028 C 
ATOM      5  C   LIG d   1      -3.911  77.517 117.710  0.00  0.00    -0.047 C 
ATOM      6  C   LIG d   1      -5.275  76.996 117.204  0.00  0.00     0.091 C 
ENDROOT
BRANCH   1   7
ATOM      7  O   LIG d   1      -6.290  75.525 115.527  0.00  0.00    -0.368 OA
BRANCH   7   8
ATOM      8  C   LIG d   1      -6.560  74.502 116.518  0.00  0.00     0.119 C 
BRANCH   8   9
ATOM      9  C   LIG d   1      -6.339  73.135 115.843  0.00  0.00     0.028 C 
ATOM     10  C   LIG d   1      -7.023  71.987 116.604  0.00  0.00     0.006 C 
ENDBRANCH   8   9
BRANCH   8  11
ATOM     11  C   LIG d   1      -8.032  74.511 116.941  0.00  0.00     0.028 C 
ATOM     12  C   LIG d   1      -8.228  74.943 118.403  0.00  0.00     0.006 C 
ENDBRANCH   8  11
ENDBRANCH   7   8
ENDBRANCH   1   7
BRANCH   6  13
ATOM     13  N   LIG d   1      -6.306  78.066 117.148  0.00  0.00    -0.311 N 
ATOM     14  C   LIG d   1      -7.052  78.420 118.192  0.00  0.00     0.210 C 
ATOM     15  C   LIG d   1      -8.068  79.532 117.914  0.00  0.00     0.109 C 
ATOM     16  O   LIG d   1      -6.948  77.941 119.332  0.00  0.00    -0.276 OA
ATOM     17  H   LIG d   1      -6.435  78.529 116.270  0.00  0.00     0.149 HD
ENDBRANCH   6  13
BRANCH   5  18
ATOM     18  N   LIG d   1      -3.958  78.004 119.102  0.00  0.00     0.381 N 
ATOM     19  H   LIG d   1      -3.033  78.221 119.416  0.00  0.00    -0.090 HD
ATOM     20  H   LIG d   1      -4.327  77.276 119.688  0.00  0.00    -0.090 HD
ATOM     21  H   LIG d   1      -4.536  78.813 119.161  0.00  0.00    -0.090 HD
ENDBRANCH   5  18
BRANCH   3  22
ATOM     22  C   LIG d   1      -1.641  75.186 115.999  0.00  0.00     0.382 C 
ATOM     23  O   LIG d   1      -1.015  74.416 116.767  0.00  0.00    -0.241 OA
ATOM     24  O   LIG d   1      -1.152  75.479 114.891  0.00  0.00    -0.241 OA
ENDBRANCH   3  22
TORSDOF 7
ENDMDL
MODEL 8
REMARK VINA RESULT:      -5.3      1.951      2.947
REMARK  7 active torsions:
REMARK  status: ('A' for Active; 'I' for Inactive)
REMARK    1  A    between atoms: C_2  and  C_3 
REMARK    2  A    between atoms: C_3  and  O_6 
REMARK    3  A    between atoms: C_3  and  C_4 
REMARK    4  A    between atoms: C_7  and  O_6 
REMARK    5  A    between atoms: C_9  and  C_10 
REMARK    6  A    between atoms: N_15  and  C_14 
REMARK    7  A    between atoms: N_20  and  C_19 
REMARK       I    between atoms: C_22  and  N_20 
ROOT
ATOM      1  C   LIG d   1      -0.116  83.779 113.236  0.00  0.00     0.161 C 
ATOM      2  C   LIG d   1      -1.119  82.806 113.382  0.00  0.00     0.016 C 
ATOM      3  C   LIG d   1      -1.309  81.742 112.471  0.00  0.00     0.038 C 
ATOM      4  C   LIG d   1      -0.407  81.490 111.427  0.00  0.00     0.028 C 
ATOM      5  C   LIG d   1       0.326  82.737 110.945  0.00  0.00    -0.047 C 
ATOM      6  C   LIG d   1       0.946  83.457 112.164  0.00  0.00     0.091 C 
ENDROOT
BRANCH   1   7
ATOM      7  O   LIG d   1       0.515  84.026 114.508  0.00  0.00    -0.368 OA
BRANCH   7   8
ATOM      8  C   LIG d   1       1.705  83.250 114.790  0.00  0.00     0.119 C 
BRANCH   8   9
ATOM      9  C   LIG d   1       1.380  82.318 115.974  0.00  0.00     0.028 C 
ATOM     10  C   LIG d   1       1.217  80.852 115.539  0.00  0.00     0.006 C 
ENDBRANCH   8   9
BRANCH   8  11
ATOM     11  C   LIG d   1       2.849  84.143 115.279  0.00  0.00     0.028 C 
ATOM     12  C   LIG d   1       2.505  85.639 115.220  0.00  0.00     0.006 C 
ENDBRANCH   8  11
ENDBRANCH   7   8
ENDBRANCH   1   7
BRANCH   6  13
ATOM     13  N   LIG d   1       1.611  84.733 111.791  0.00  0.00    -0.311 N 
ATOM     14  C   LIG d   1       2.926  84.851 111.615  0.00  0.00     0.210 C 
ATOM     15  C   LIG d   1       3.406  86.260 111.254  0.00  0.00     0.109 C 
ATOM     16  O   LIG d   1       3.736  83.916 111.693  0.00  0.00    -0.276 OA
ATOM     17  H   LIG d   1       1.024  85.537 111.677  0.00  0.00     0.149 HD
ENDBRANCH   6  13
BRANCH   5  18
ATOM     18  N   LIG d   1       1.331  82.309 109.953  0.00  0.00     0.381 N 
ATOM     19  H   LIG d   1       1.927  83.078 109.722  0.00  0.00    -0.090 HD
ATOM     20  H   LIG d   1       0.857  82.015 109.117  0.00  0.00    -0.090 HD
ATOM     21  H   LIG d   1       1.872  81.557 110.319  0.00  0.00    -0.090 HD
ENDBRANCH   5  18
BRANCH   3  22
ATOM     22  C   LIG d   1      -2.434  80.939 112.577  0.00  0.00     0.382 C 
ATOM     23  O   LIG d   1      -3.574  81.461 112.630  0.00  0.00    -0.241 OA
ATOM     24  O   LIG d   1      -2.322  79.702 112.666  0.00  0.00    -0.241 OA
ENDBRANCH   3  22
TORSDOF 7
ENDMDL
MODEL 9
REMARK VINA RESULT:      -5.3      2.706      6.247
REMARK  7 active torsions:
REMARK  status: ('A' for Active; 'I' for Inactive)
REMARK    1  A    between atoms: C_2  and  C_3 
REMARK    2  A    between atoms: C_3  and  O_6 
REMARK    3  A    between atoms: C_3  and  C_4 
REMARK    4  A    between atoms: C_7  and  O_6 
REMARK    5  A    between atoms: C_9  and  C_10 
REMARK    6  A    between atoms: N_15  and  C_14 
REMARK    7  A    between atoms: N_20  and  C_19 
REMARK       I    between atoms: C_22  and  N_20 
ROOT
ATOM      1  C   LIG d   1       1.916  84.040 111.938  0.00  0.00     0.161 C 
ATOM      2  C   LIG d   1       2.797  85.129 111.834  0.00  0.00     0.016 C 
ATOM      3  C   LIG d   1       2.575  86.373 112.469  0.00  0.00     0.038 C 
ATOM      4  C   LIG d   1       1.525  86.564 113.379  0.00  0.00     0.028 C 
ATOM      5  C   LIG d   1       0.328  85.654 113.123  0.00  0.00    -0.047 C 
ATOM      6  C   LIG d   1       0.822  84.193 113.016  0.00  0.00     0.091 C 
ENDROOT
BRANCH   1   7
ATOM      7  O   LIG d   1       2.662  82.826 112.151  0.00  0.00    -0.368 OA
BRANCH   7   8
ATOM      8  C   LIG d   1       2.681  81.887 111.047  0.00  0.00     0.119 C 
BRANCH   8   9
ATOM      9  C   LIG d   1       4.019  82.071 110.305  0.00  0.00     0.028 C 
ATOM     10  C   LIG d   1       4.351  80.882 109.389  0.00  0.00     0.006 C 
ENDBRANCH   8   9
BRANCH   8  11
ATOM     11  C   LIG d   1       1.597  82.217 110.017  0.00  0.00     0.028 C 
ATOM     12  C   LIG d   1       0.656  81.034 109.741  0.00  0.00     0.006 C 
ENDBRANCH   8  11
ENDBRANCH   7   8
ENDBRANCH   1   7
BRANCH   6  13
ATOM     13  N   LIG d   1      -0.274  83.247 112.683  0.00  0.00    -0.311 N 
ATOM     14  C   LIG d   1      -0.407  82.049 113.250  0.00  0.00     0.210 C 
ATOM     15  C   LIG d   1      -1.595  81.224 112.747  0.00  0.00     0.109 C 
ATOM     16  O   LIG d   1       0.329  81.605 114.145  0.00  0.00    -0.276 OA
ATOM     17  H   LIG d   1      -0.934  83.540 111.989  0.00  0.00     0.149 HD
ENDBRANCH   6  13
BRANCH   5  18
ATOM     18  N   LIG d   1      -0.632  85.860 114.224  0.00  0.00     0.381 N 
ATOM     19  H   LIG d   1      -0.139  85.960 115.089  0.00  0.00    -0.090 HD
ATOM     20  H   LIG d   1      -1.228  85.054 114.291  0.00  0.00    -0.090 HD
ATOM     21  H   LIG d   1      -1.180  86.674 114.050  0.00  0.00    -0.090 HD
ENDBRANCH   5  18
BRANCH   3  22
ATOM     22  C   LIG d   1       3.387  87.455 112.163  0.00  0.00     0.382 C 
ATOM     23  O   LIG d   1       4.310  87.328 111.323  0.00  0.00    -0.241 OA
ATOM     24  O   LIG d   1       3.236  88.543 112.750  0.00  0.00    -0.241 OA
ENDBRANCH   3  22
TORSDOF 7
ENDMDL
