MODEL 1
REMARK VINA RESULT:      -6.0      0.000      0.000
REMARK  7 active torsions:
REMARK  status: ('A' for Active; 'I' for Inactive)
REMARK    1  A    between atoms: C_2  and  C_3 
REMARK    2  A    between atoms: C_3  and  O_6 
REMARK    3  A    between atoms: C_3  and  C_4 
REMARK    4  A    between atoms: C_7  and  O_6 
REMARK    5  A    between atoms: C_9  and  C_10 
REMARK    6  A    between atoms: N_15  and  C_14 
REMARK    7  A    between atoms: N_20  and  C_19 
REMARK       I    between atoms: C_22  and  N_20 
ROOT
ATOM      1  C   LIG d   1       1.339  82.987 109.885  0.00  0.00     0.161 C 
ATOM      2  C   LIG d   1       1.574  84.363 110.042  0.00  0.00     0.016 C 
ATOM      3  C   LIG d   1       0.917  85.160 111.007  0.00  0.00     0.038 C 
ATOM      4  C   LIG d   1       0.085  84.600 111.989  0.00  0.00     0.028 C 
ATOM      5  C   LIG d   1      -0.572  83.294 111.554  0.00  0.00    -0.047 C 
ATOM      6  C   LIG d   1       0.519  82.338 111.020  0.00  0.00     0.091 C 
ENDROOT
BRANCH   1   7
ATOM      7  O   LIG d   1       2.592  82.294 109.713  0.00  0.00    -0.368 OA
BRANCH   7   8
ATOM      8  C   LIG d   1       3.766  82.962 110.236  0.00  0.00     0.119 C 
BRANCH   8   9
ATOM      9  C   LIG d   1       4.946  82.621 109.305  0.00  0.00     0.028 C 
ATOM     10  C   LIG d   1       5.528  81.225 109.582  0.00  0.00     0.006 C 
ENDBRANCH   8   9
BRANCH   8  11
ATOM     11  C   LIG d   1       4.159  82.405 111.608  0.00  0.00     0.028 C 
ATOM     12  C   LIG d   1       3.993  83.433 112.738  0.00  0.00     0.006 C 
ENDBRANCH   8  11
ENDBRANCH   7   8
ENDBRANCH   1   7
BRANCH   6  13
ATOM     13  N   LIG d   1      -0.048  81.068 110.495  0.00  0.00    -0.311 N 
ATOM     14  C   LIG d   1      -0.234  79.983 111.244  0.00  0.00     0.210 C 
ATOM     15  C   LIG d   1      -0.812  78.775 110.501  0.00  0.00     0.109 C 
ATOM     16  O   LIG d   1      -0.005  79.916 112.461  0.00  0.00    -0.276 OA
ATOM     17  H   LIG d   1      -0.291  81.044 109.524  0.00  0.00     0.149 HD
ENDBRANCH   6  13
BRANCH   5  18
ATOM     18  N   LIG d   1      -1.298  82.751 112.717  0.00  0.00     0.381 N 
ATOM     19  H   LIG d   1      -0.686  82.706 113.507  0.00  0.00    -0.090 HD
ATOM     20  H   LIG d   1      -1.605  81.819 112.502  0.00  0.00    -0.090 HD
ATOM     21  H   LIG d   1      -2.082  83.328 112.929  0.00  0.00    -0.090 HD
ENDBRANCH   5  18
BRANCH   3  22
ATOM     22  C   LIG d   1       1.057  86.539 110.971  0.00  0.00     0.382 C 
ATOM     23  O   LIG d   1       2.159  87.048 110.655  0.00  0.00    -0.241 OA
ATOM     24  O   LIG d   1       0.109  87.279 111.294  0.00  0.00    -0.241 OA
ENDBRANCH   3  22
TORSDOF 7
ENDMDL
MODEL 2
REMARK VINA RESULT:      -5.8      3.086      5.246
REMARK  7 active torsions:
REMARK  status: ('A' for Active; 'I' for Inactive)
REMARK    1  A    between atoms: C_2  and  C_3 
REMARK    2  A    between atoms: C_3  and  O_6 
REMARK    3  A    between atoms: C_3  and  C_4 
REMARK    4  A    between atoms: C_7  and  O_6 
REMARK    5  A    between atoms: C_9  and  C_10 
REMARK    6  A    between atoms: N_15  and  C_14 
REMARK    7  A    between atoms: N_20  and  C_19 
REMARK       I    between atoms: C_22  and  N_20 
ROOT
ATOM      1  C   LIG d   1       2.522  84.669 112.312  0.00  0.00     0.161 C 
ATOM      2  C   LIG d   1       1.325  84.290 111.682  0.00  0.00     0.016 C 
ATOM      3  C   LIG d   1       0.417  85.215 111.118  0.00  0.00     0.038 C 
ATOM      4  C   LIG d   1       0.719  86.580 111.010  0.00  0.00     0.028 C 
ATOM      5  C   LIG d   1       1.686  87.072 112.082  0.00  0.00    -0.047 C 
ATOM      6  C   LIG d   1       2.923  86.145 112.106  0.00  0.00     0.091 C 
ENDROOT
BRANCH   1   7
ATOM      7  O   LIG d   1       3.591  83.797 111.894  0.00  0.00    -0.368 OA
BRANCH   7   8
ATOM      8  C   LIG d   1       3.370  83.060 110.666  0.00  0.00     0.119 C 
BRANCH   8   9
ATOM      9  C   LIG d   1       3.541  81.563 110.988  0.00  0.00     0.028 C 
ATOM     10  C   LIG d   1       2.251  80.760 110.747  0.00  0.00     0.006 C 
ENDBRANCH   8   9
BRANCH   8  11
ATOM     11  C   LIG d   1       4.446  83.377 109.624  0.00  0.00     0.028 C 
ATOM     12  C   LIG d   1       5.345  82.170 109.310  0.00  0.00     0.006 C 
ENDBRANCH   8  11
ENDBRANCH   7   8
ENDBRANCH   1   7
BRANCH   6  13
ATOM     13  N   LIG d   1       3.881  86.505 113.184  0.00  0.00    -0.311 N 
ATOM     14  C   LIG d   1       4.888  87.360 113.013  0.00  0.00     0.210 C 
ATOM     15  C   LIG d   1       5.769  87.575 114.248  0.00  0.00     0.109 C 
ATOM     16  O   LIG d   1       5.116  87.985 111.967  0.00  0.00    -0.276 OA
ATOM     17  H   LIG d   1       3.751  86.068 114.075  0.00  0.00     0.149 HD
ENDBRANCH   6  13
BRANCH   5  18
ATOM     18  N   LIG d   1       2.022  88.474 111.770  0.00  0.00     0.381 N 
ATOM     19  H   LIG d   1       2.779  88.504 111.117  0.00  0.00    -0.090 HD
ATOM     20  H   LIG d   1       2.315  88.934 112.614  0.00  0.00    -0.090 HD
ATOM     21  H   LIG d   1       1.227  88.938 111.389  0.00  0.00    -0.090 HD
ENDBRANCH   5  18
BRANCH   3  22
ATOM     22  C   LIG d   1      -0.828  84.780 110.688  0.00  0.00     0.382 C 
ATOM     23  O   LIG d   1      -1.166  83.584 110.855  0.00  0.00    -0.241 OA
ATOM     24  O   LIG d   1      -1.600  85.559 110.097  0.00  0.00    -0.241 OA
ENDBRANCH   3  22
TORSDOF 7
ENDMDL
MODEL 3
REMARK VINA RESULT:      -5.8      1.711      2.451
REMARK  7 active torsions:
REMARK  status: ('A' for Active; 'I' for Inactive)
REMARK    1  A    between atoms: C_2  and  C_3 
REMARK    2  A    between atoms: C_3  and  O_6 
REMARK    3  A    between atoms: C_3  and  C_4 
REMARK    4  A    between atoms: C_7  and  O_6 
REMARK    5  A    between atoms: C_9  and  C_10 
REMARK    6  A    between atoms: N_15  and  C_14 
REMARK    7  A    between atoms: N_20  and  C_19 
REMARK       I    between atoms: C_22  and  N_20 
ROOT
ATOM      1  C   LIG d   1       2.541  83.991 111.115  0.00  0.00     0.161 C 
ATOM      2  C   LIG d   1       2.904  85.280 111.538  0.00  0.00     0.016 C 
ATOM      3  C   LIG d   1       2.029  86.389 111.492  0.00  0.00     0.038 C 
ATOM      4  C   LIG d   1       0.674  86.251 111.157  0.00  0.00     0.028 C 
ATOM      5  C   LIG d   1       0.394  85.065 110.241  0.00  0.00    -0.047 C 
ATOM      6  C   LIG d   1       1.033  83.797 110.851  0.00  0.00     0.091 C 
ENDROOT
BRANCH   1   7
ATOM      7  O   LIG d   1       3.013  83.014 112.063  0.00  0.00    -0.368 OA
BRANCH   7   8
ATOM      8  C   LIG d   1       3.892  81.989 111.538  0.00  0.00     0.119 C 
BRANCH   8   9
ATOM      9  C   LIG d   1       5.173  81.994 112.396  0.00  0.00     0.028 C 
ATOM     10  C   LIG d   1       4.924  82.519 113.820  0.00  0.00     0.006 C 
ENDBRANCH   8   9
BRANCH   8  11
ATOM     11  C   LIG d   1       4.354  82.325 110.118  0.00  0.00     0.028 C 
ATOM     12  C   LIG d   1       5.604  81.537 109.695  0.00  0.00     0.006 C 
ENDBRANCH   8  11
ENDBRANCH   7   8
ENDBRANCH   1   7
BRANCH   6  13
ATOM     13  N   LIG d   1       0.878  82.607 109.975  0.00  0.00    -0.311 N 
ATOM     14  C   LIG d   1       0.304  81.473 110.374  0.00  0.00     0.210 C 
ATOM     15  C   LIG d   1       0.265  80.362 109.320  0.00  0.00     0.109 C 
ATOM     16  O   LIG d   1      -0.206  81.292 111.490  0.00  0.00    -0.276 OA
ATOM     17  H   LIG d   1       1.236  82.677 109.043  0.00  0.00     0.149 HD
ENDBRANCH   6  13
BRANCH   5  18
ATOM     18  N   LIG d   1      -1.069  84.958 110.085  0.00  0.00     0.381 N 
ATOM     19  H   LIG d   1      -1.526  85.521 110.775  0.00  0.00    -0.090 HD
ATOM     20  H   LIG d   1      -1.342  84.001 110.228  0.00  0.00    -0.090 HD
ATOM     21  H   LIG d   1      -1.338  85.255 109.173  0.00  0.00    -0.090 HD
ENDBRANCH   5  18
BRANCH   3  22
ATOM     22  C   LIG d   1       2.519  87.662 111.744  0.00  0.00     0.382 C 
ATOM     23  O   LIG d   1       3.737  87.910 111.573  0.00  0.00    -0.241 OA
ATOM     24  O   LIG d   1       1.767  88.553 112.182  0.00  0.00    -0.241 OA
ENDBRANCH   3  22
TORSDOF 7
ENDMDL
MODEL 4
REMARK VINA RESULT:      -5.7      2.263      3.899
REMARK  7 active torsions:
REMARK  status: ('A' for Active; 'I' for Inactive)
REMARK    1  A    between atoms: C_2  and  C_3 
REMARK    2  A    between atoms: C_3  and  O_6 
REMARK    3  A    between atoms: C_3  and  C_4 
REMARK    4  A    between atoms: C_7  and  O_6 
REMARK    5  A    between atoms: C_9  and  C_10 
REMARK    6  A    between atoms: N_15  and  C_14 
REMARK    7  A    between atoms: N_20  and  C_19 
REMARK       I    between atoms: C_22  and  N_20 
ROOT
ATOM      1  C   LIG d   1       2.546  84.795 110.321  0.00  0.00     0.161 C 
ATOM      2  C   LIG d   1       1.370  85.518 110.580  0.00  0.00     0.016 C 
ATOM      3  C   LIG d   1       0.171  84.918 111.029  0.00  0.00     0.038 C 
ATOM      4  C   LIG d   1       0.111  83.565 111.397  0.00  0.00     0.028 C 
ATOM      5  C   LIG d   1       1.133  82.695 110.673  0.00  0.00    -0.047 C 
ATOM      6  C   LIG d   1       2.532  83.336 110.822  0.00  0.00     0.091 C 
ENDROOT
BRANCH   1   7
ATOM      7  O   LIG d   1       3.682  85.500 110.861  0.00  0.00    -0.368 OA
BRANCH   7   8
ATOM      8  C   LIG d   1       3.501  86.090 112.172  0.00  0.00     0.119 C 
BRANCH   8   9
ATOM      9  C   LIG d   1       4.024  87.537 112.105  0.00  0.00     0.028 C 
ATOM     10  C   LIG d   1       5.217  87.775 113.047  0.00  0.00     0.006 C 
ENDBRANCH   8   9
BRANCH   8  11
ATOM     11  C   LIG d   1       4.371  85.392 113.222  0.00  0.00     0.028 C 
ATOM     12  C   LIG d   1       3.559  84.488 114.163  0.00  0.00     0.006 C 
ENDBRANCH   8  11
ENDBRANCH   7   8
ENDBRANCH   1   7
BRANCH   6  13
ATOM     13  N   LIG d   1       3.579  82.593 110.072  0.00  0.00    -0.311 N 
ATOM     14  C   LIG d   1       4.621  82.004 110.656  0.00  0.00     0.210 C 
ATOM     15  C   LIG d   1       5.592  81.309 109.697  0.00  0.00     0.109 C 
ATOM     16  O   LIG d   1       4.815  81.964 111.880  0.00  0.00    -0.276 OA
ATOM     17  H   LIG d   1       3.482  82.549 109.076  0.00  0.00     0.149 HD
ENDBRANCH   6  13
BRANCH   5  18
ATOM     18  N   LIG d   1       1.054  81.340 111.250  0.00  0.00     0.381 N 
ATOM     19  H   LIG d   1       1.664  80.723 110.752  0.00  0.00    -0.090 HD
ATOM     20  H   LIG d   1       0.113  81.000 111.152  0.00  0.00    -0.090 HD
ATOM     21  H   LIG d   1       1.307  81.364 112.213  0.00  0.00    -0.090 HD
ENDBRANCH   5  18
BRANCH   3  22
ATOM     22  C   LIG d   1      -0.996  85.665 111.077  0.00  0.00     0.382 C 
ATOM     23  O   LIG d   1      -1.509  85.957 112.184  0.00  0.00    -0.241 OA
ATOM     24  O   LIG d   1      -1.566  86.014 110.026  0.00  0.00    -0.241 OA
ENDBRANCH   3  22
TORSDOF 7
ENDMDL
MODEL 5
REMARK VINA RESULT:      -5.5      6.603     10.060
REMARK  7 active torsions:
REMARK  status: ('A' for Active; 'I' for Inactive)
REMARK    1  A    between atoms: C_2  and  C_3 
REMARK    2  A    between atoms: C_3  and  O_6 
REMARK    3  A    between atoms: C_3  and  C_4 
REMARK    4  A    between atoms: C_7  and  O_6 
REMARK    5  A    between atoms: C_9  and  C_10 
REMARK    6  A    between atoms: N_15  and  C_14 
REMARK    7  A    between atoms: N_20  and  C_19 
REMARK       I    between atoms: C_22  and  N_20 
ROOT
ATOM      1  C   LIG d   1      -3.078  77.073 115.841  0.00  0.00     0.161 C 
ATOM      2  C   LIG d   1      -3.303  78.040 114.847  0.00  0.00     0.016 C 
ATOM      3  C   LIG d   1      -2.290  78.520 113.984  0.00  0.00     0.038 C 
ATOM      4  C   LIG d   1      -1.008  77.950 113.957  0.00  0.00     0.028 C 
ATOM      5  C   LIG d   1      -0.596  77.323 115.284  0.00  0.00    -0.047 C 
ATOM      6  C   LIG d   1      -1.712  76.361 115.752  0.00  0.00     0.091 C 
ENDROOT
BRANCH   1   7
ATOM      7  O   LIG d   1      -4.148  76.108 115.834  0.00  0.00    -0.368 OA
BRANCH   7   8
ATOM      8  C   LIG d   1      -5.460  76.613 115.484  0.00  0.00     0.119 C 
BRANCH   8   9
ATOM      9  C   LIG d   1      -6.215  76.891 116.799  0.00  0.00     0.028 C 
ATOM     10  C   LIG d   1      -7.702  76.508 116.714  0.00  0.00     0.006 C 
ENDBRANCH   8   9
BRANCH   8  11
ATOM     11  C   LIG d   1      -6.290  75.552 114.757  0.00  0.00     0.028 C 
ATOM     12  C   LIG d   1      -5.655  74.153 114.819  0.00  0.00     0.006 C 
ENDBRANCH   8  11
ENDBRANCH   7   8
ENDBRANCH   1   7
BRANCH   6  13
ATOM     13  N   LIG d   1      -1.427  75.767 117.085  0.00  0.00    -0.311 N 
ATOM     14  C   LIG d   1      -0.844  74.581 117.250  0.00  0.00     0.210 C 
ATOM     15  C   LIG d   1      -0.661  74.148 118.708  0.00  0.00     0.109 C 
ATOM     16  O   LIG d   1      -0.432  73.862 116.328  0.00  0.00    -0.276 OA
ATOM     17  H   LIG d   1      -1.700  76.299 117.888  0.00  0.00     0.149 HD
ENDBRANCH   6  13
BRANCH   5  18
ATOM     18  N   LIG d   1       0.699  76.648 115.075  0.00  0.00     0.381 N 
ATOM     19  H   LIG d   1       0.589  75.899 114.421  0.00  0.00    -0.090 HD
ATOM     20  H   LIG d   1       1.008  76.260 115.949  0.00  0.00    -0.090 HD
ATOM     21  H   LIG d   1       1.372  77.299 114.736  0.00  0.00    -0.090 HD
ENDBRANCH   5  18
BRANCH   3  22
ATOM     22  C   LIG d   1      -2.545  79.608 113.163  0.00  0.00     0.382 C 
ATOM     23  O   LIG d   1      -3.440  80.430 113.473  0.00  0.00    -0.241 OA
ATOM     24  O   LIG d   1      -1.921  79.753 112.095  0.00  0.00    -0.241 OA
ENDBRANCH   3  22
TORSDOF 7
ENDMDL
MODEL 6
REMARK VINA RESULT:      -5.3      2.307      4.684
REMARK  7 active torsions:
REMARK  status: ('A' for Active; 'I' for Inactive)
REMARK    1  A    between atoms: C_2  and  C_3 
REMARK    2  A    between atoms: C_3  and  O_6 
REMARK    3  A    between atoms: C_3  and  C_4 
REMARK    4  A    between atoms: C_7  and  O_6 
REMARK    5  A    between atoms: C_9  and  C_10 
REMARK    6  A    between atoms: N_15  and  C_14 
REMARK    7  A    between atoms: N_20  and  C_19 
REMARK       I    between atoms: C_22  and  N_20 
ROOT
ATOM      1  C   LIG d   1       2.217  83.586 111.152  0.00  0.00     0.161 C 
ATOM      2  C   LIG d   1       1.223  82.637 111.440  0.00  0.00     0.016 C 
ATOM      3  C   LIG d   1      -0.151  82.955 111.539  0.00  0.00     0.038 C 
ATOM      4  C   LIG d   1      -0.644  84.225 111.206  0.00  0.00     0.028 C 
ATOM      5  C   LIG d   1       0.377  85.341 111.401  0.00  0.00    -0.047 C 
ATOM      6  C   LIG d   1       1.686  84.955 110.676  0.00  0.00     0.091 C 
ENDROOT
BRANCH   1   7
ATOM      7  O   LIG d   1       3.144  83.046 110.189  0.00  0.00    -0.368 OA
BRANCH   7   8
ATOM      8  C   LIG d   1       4.131  82.119 110.705  0.00  0.00     0.119 C 
BRANCH   8   9
ATOM      9  C   LIG d   1       4.797  82.783 111.925  0.00  0.00     0.028 C 
ATOM     10  C   LIG d   1       5.002  81.800 113.090  0.00  0.00     0.006 C 
ENDBRANCH   8   9
BRANCH   8  11
ATOM     11  C   LIG d   1       5.263  81.893 109.698  0.00  0.00     0.028 C 
ATOM     12  C   LIG d   1       5.674  80.416 109.586  0.00  0.00     0.006 C 
ENDBRANCH   8  11
ENDBRANCH   7   8
ENDBRANCH   1   7
BRANCH   6  13
ATOM     13  N   LIG d   1       2.766  85.954 110.886  0.00  0.00    -0.311 N 
ATOM     14  C   LIG d   1       3.284  86.234 112.081  0.00  0.00     0.210 C 
ATOM     15  C   LIG d   1       4.374  87.310 112.078  0.00  0.00     0.109 C 
ATOM     16  O   LIG d   1       2.965  85.670 113.139  0.00  0.00    -0.276 OA
ATOM     17  H   LIG d   1       3.106  86.436 110.077  0.00  0.00     0.149 HD
ENDBRANCH   6  13
BRANCH   5  18
ATOM     18  N   LIG d   1      -0.222  86.587 110.887  0.00  0.00     0.381 N 
ATOM     19  H   LIG d   1      -1.147  86.406 110.553  0.00  0.00    -0.090 HD
ATOM     20  H   LIG d   1       0.331  86.921 110.118  0.00  0.00    -0.090 HD
ATOM     21  H   LIG d   1      -0.250  87.274 111.608  0.00  0.00    -0.090 HD
ENDBRANCH   5  18
BRANCH   3  22
ATOM     22  C   LIG d   1      -1.044  82.006 112.015  0.00  0.00     0.382 C 
ATOM     23  O   LIG d   1      -2.057  82.366 112.660  0.00  0.00    -0.241 OA
ATOM     24  O   LIG d   1      -0.825  80.791 111.845  0.00  0.00    -0.241 OA
ENDBRANCH   3  22
TORSDOF 7
ENDMDL
MODEL 7
REMARK VINA RESULT:      -5.2      2.533      3.557
REMARK  7 active torsions:
REMARK  status: ('A' for Active; 'I' for Inactive)
REMARK    1  A    between atoms: C_2  and  C_3 
REMARK    2  A    between atoms: C_3  and  O_6 
REMARK    3  A    between atoms: C_3  and  C_4 
REMARK    4  A    between atoms: C_7  and  O_6 
REMARK    5  A    between atoms: C_9  and  C_10 
REMARK    6  A    between atoms: N_15  and  C_14 
REMARK    7  A    between atoms: N_20  and  C_19 
REMARK       I    between atoms: C_22  and  N_20 
ROOT
ATOM      1  C   LIG d   1       3.631  84.405 111.510  0.00  0.00     0.161 C 
ATOM      2  C   LIG d   1       3.537  85.727 111.976  0.00  0.00     0.016 C 
ATOM      3  C   LIG d   1       2.499  86.611 111.604  0.00  0.00     0.038 C 
ATOM      4  C   LIG d   1       1.394  86.184 110.853  0.00  0.00     0.028 C 
ATOM      5  C   LIG d   1       1.702  84.999 109.943  0.00  0.00    -0.047 C 
ATOM      6  C   LIG d   1       2.375  83.886 110.778  0.00  0.00     0.091 C 
ENDROOT
BRANCH   1   7
ATOM      7  O   LIG d   1       3.975  83.526 112.599  0.00  0.00    -0.368 OA
BRANCH   7   8
ATOM      8  C   LIG d   1       3.640  83.995 113.928  0.00  0.00     0.119 C 
BRANCH   8   9
ATOM      9  C   LIG d   1       4.835  83.678 114.846  0.00  0.00     0.028 C 
ATOM     10  C   LIG d   1       4.824  82.222 115.342  0.00  0.00     0.006 C 
ENDBRANCH   8   9
BRANCH   8  11
ATOM     11  C   LIG d   1       2.460  83.214 114.513  0.00  0.00     0.028 C 
ATOM     12  C   LIG d   1       1.109  83.908 114.274  0.00  0.00     0.006 C 
ENDBRANCH   8  11
ENDBRANCH   7   8
ENDBRANCH   1   7
BRANCH   6  13
ATOM     13  N   LIG d   1       2.786  82.724 109.948  0.00  0.00    -0.311 N 
ATOM     14  C   LIG d   1       2.558  81.459 110.294  0.00  0.00     0.210 C 
ATOM     15  C   LIG d   1       3.082  80.413 109.305  0.00  0.00     0.109 C 
ATOM     16  O   LIG d   1       1.943  81.103 111.311  0.00  0.00    -0.276 OA
ATOM     17  H   LIG d   1       3.264  82.922 109.091  0.00  0.00     0.149 HD
ENDBRANCH   6  13
BRANCH   5  18
ATOM     18  N   LIG d   1       0.433  84.570 109.324  0.00  0.00     0.381 N 
ATOM     19  H   LIG d   1      -0.337  84.873 109.886  0.00  0.00    -0.090 HD
ATOM     20  H   LIG d   1       0.416  83.567 109.280  0.00  0.00    -0.090 HD
ATOM     21  H   LIG d   1       0.355  84.952 108.407  0.00  0.00    -0.090 HD
ENDBRANCH   5  18
BRANCH   3  22
ATOM     22  C   LIG d   1       2.580  87.951 111.950  0.00  0.00     0.382 C 
ATOM     23  O   LIG d   1       1.534  88.602 112.189  0.00  0.00    -0.241 OA
ATOM     24  O   LIG d   1       3.683  88.529 111.984  0.00  0.00    -0.241 OA
ENDBRANCH   3  22
TORSDOF 7
ENDMDL
MODEL 8
REMARK VINA RESULT:      -5.2      3.451      5.334
REMARK  7 active torsions:
REMARK  status: ('A' for Active; 'I' for Inactive)
REMARK    1  A    between atoms: C_2  and  C_3 
REMARK    2  A    between atoms: C_3  and  O_6 
REMARK    3  A    between atoms: C_3  and  C_4 
REMARK    4  A    between atoms: C_7  and  O_6 
REMARK    5  A    between atoms: C_9  and  C_10 
REMARK    6  A    between atoms: N_15  and  C_14 
REMARK    7  A    between atoms: N_20  and  C_19 
REMARK       I    between atoms: C_22  and  N_20 
ROOT
ATOM      1  C   LIG d   1       2.451  84.793 112.554  0.00  0.00     0.161 C 
ATOM      2  C   LIG d   1       1.275  84.368 111.913  0.00  0.00     0.016 C 
ATOM      3  C   LIG d   1       0.400  85.245 111.232  0.00  0.00     0.038 C 
ATOM      4  C   LIG d   1       0.721  86.593 111.016  0.00  0.00     0.028 C 
ATOM      5  C   LIG d   1       1.650  87.172 112.077  0.00  0.00    -0.047 C 
ATOM      6  C   LIG d   1       2.874  86.241 112.234  0.00  0.00     0.091 C 
ENDROOT
BRANCH   1   7
ATOM      7  O   LIG d   1       3.526  83.879 112.259  0.00  0.00    -0.368 OA
BRANCH   7   8
ATOM      8  C   LIG d   1       4.089  83.171 113.391  0.00  0.00     0.119 C 
BRANCH   8   9
ATOM      9  C   LIG d   1       5.480  82.658 112.970  0.00  0.00     0.028 C 
ATOM     10  C   LIG d   1       5.452  81.932 111.614  0.00  0.00     0.006 C 
ENDBRANCH   8   9
BRANCH   8  11
ATOM     11  C   LIG d   1       3.277  81.915 113.722  0.00  0.00     0.028 C 
ATOM     12  C   LIG d   1       2.353  82.106 114.936  0.00  0.00     0.006 C 
ENDBRANCH   8  11
ENDBRANCH   7   8
ENDBRANCH   1   7
BRANCH   6  13
ATOM     13  N   LIG d   1       3.793  86.690 113.312  0.00  0.00    -0.311 N 
ATOM     14  C   LIG d   1       4.837  87.490 113.101  0.00  0.00     0.210 C 
ATOM     15  C   LIG d   1       5.666  87.814 114.347  0.00  0.00     0.109 C 
ATOM     16  O   LIG d   1       5.136  87.988 112.005  0.00  0.00    -0.276 OA
ATOM     17  H   LIG d   1       3.606  86.359 114.238  0.00  0.00     0.149 HD
ENDBRANCH   6  13
BRANCH   5  18
ATOM     18  N   LIG d   1       2.013  88.538 111.655  0.00  0.00     0.381 N 
ATOM     19  H   LIG d   1       2.708  88.910 112.271  0.00  0.00    -0.090 HD
ATOM     20  H   LIG d   1       1.197  89.122 111.710  0.00  0.00    -0.090 HD
ATOM     21  H   LIG d   1       2.359  88.525 110.721  0.00  0.00    -0.090 HD
ENDBRANCH   5  18
BRANCH   3  22
ATOM     22  C   LIG d   1      -0.832  84.782 110.794  0.00  0.00     0.382 C 
ATOM     23  O   LIG d   1      -1.153  83.584 110.977  0.00  0.00    -0.241 OA
ATOM     24  O   LIG d   1      -1.608  85.538 110.178  0.00  0.00    -0.241 OA
ENDBRANCH   3  22
TORSDOF 7
ENDMDL
MODEL 9
REMARK VINA RESULT:      -5.2      2.686      5.853
REMARK  7 active torsions:
REMARK  status: ('A' for Active; 'I' for Inactive)
REMARK    1  A    between atoms: C_2  and  C_3 
REMARK    2  A    between atoms: C_3  and  O_6 
REMARK    3  A    between atoms: C_3  and  C_4 
REMARK    4  A    between atoms: C_7  and  O_6 
REMARK    5  A    between atoms: C_9  and  C_10 
REMARK    6  A    between atoms: N_15  and  C_14 
REMARK    7  A    between atoms: N_20  and  C_19 
REMARK       I    between atoms: C_22  and  N_20 
ROOT
ATOM      1  C   LIG d   1       3.550  84.581 110.304  0.00  0.00     0.161 C 
ATOM      2  C   LIG d   1       3.797  83.322 109.734  0.00  0.00     0.016 C 
ATOM      3  C   LIG d   1       4.118  82.173 110.494  0.00  0.00     0.038 C 
ATOM      4  C   LIG d   1       4.064  82.173 111.895  0.00  0.00     0.028 C 
ATOM      5  C   LIG d   1       4.312  83.545 112.512  0.00  0.00    -0.047 C 
ATOM      6  C   LIG d   1       3.377  84.575 111.837  0.00  0.00     0.091 C 
ENDROOT
BRANCH   1   7
ATOM      7  O   LIG d   1       2.404  85.186 109.673  0.00  0.00    -0.368 OA
BRANCH   7   8
ATOM      8  C   LIG d   1       1.124  84.939 110.305  0.00  0.00     0.119 C 
BRANCH   8   9
ATOM      9  C   LIG d   1       0.526  83.673 109.661  0.00  0.00     0.028 C 
ATOM     10  C   LIG d   1       0.257  82.562 110.690  0.00  0.00     0.006 C 
ENDBRANCH   8   9
BRANCH   8  11
ATOM     11  C   LIG d   1       0.125  86.060 110.000  0.00  0.00     0.028 C 
ATOM     12  C   LIG d   1      -1.018  86.134 111.024  0.00  0.00     0.006 C 
ENDBRANCH   8  11
ENDBRANCH   7   8
ENDBRANCH   1   7
BRANCH   6  13
ATOM     13  N   LIG d   1       3.614  85.959 112.322  0.00  0.00    -0.311 N 
ATOM     14  C   LIG d   1       2.733  86.642 113.051  0.00  0.00     0.210 C 
ATOM     15  C   LIG d   1       3.168  88.061 113.430  0.00  0.00     0.109 C 
ATOM     16  O   LIG d   1       1.646  86.195 113.448  0.00  0.00    -0.276 OA
ATOM     17  H   LIG d   1       4.485  86.387 112.073  0.00  0.00     0.149 HD
ENDBRANCH   6  13
BRANCH   5  18
ATOM     18  N   LIG d   1       4.090  83.428 113.965  0.00  0.00     0.381 N 
ATOM     19  H   LIG d   1       4.490  84.217 114.433  0.00  0.00    -0.090 HD
ATOM     20  H   LIG d   1       4.549  82.598 114.298  0.00  0.00    -0.090 HD
ATOM     21  H   LIG d   1       3.114  83.377 114.158  0.00  0.00    -0.090 HD
ENDBRANCH   5  18
BRANCH   3  22
ATOM     22  C   LIG d   1       4.536  81.018 109.850  0.00  0.00     0.382 C 
ATOM     23  O   LIG d   1       3.689  80.208 109.402  0.00  0.00    -0.241 OA
ATOM     24  O   LIG d   1       5.750  80.755 109.751  0.00  0.00    -0.241 OA
ENDBRANCH   3  22
TORSDOF 7
ENDMDL
