MODEL 1
REMARK VINA RESULT:      -5.7      0.000      0.000
REMARK  7 active torsions:
REMARK  status: ('A' for Active; 'I' for Inactive)
REMARK    1  A    between atoms: C_2  and  C_3 
REMARK    2  A    between atoms: C_3  and  O_6 
REMARK    3  A    between atoms: C_3  and  C_4 
REMARK    4  A    between atoms: C_7  and  O_6 
REMARK    5  A    between atoms: C_9  and  C_10 
REMARK    6  A    between atoms: N_15  and  C_14 
REMARK    7  A    between atoms: N_20  and  C_19 
REMARK       I    between atoms: C_22  and  N_20 
ROOT
ATOM      1  C   LIG d   1       2.508  84.521 109.909  0.00  0.00     0.161 C 
ATOM      2  C   LIG d   1       1.599  85.569 110.127  0.00  0.00     0.016 C 
ATOM      3  C   LIG d   1       0.249  85.364 110.494  0.00  0.00     0.038 C 
ATOM      4  C   LIG d   1      -0.246  84.092 110.818  0.00  0.00     0.028 C 
ATOM      5  C   LIG d   1       0.499  82.957 110.125  0.00  0.00    -0.047 C 
ATOM      6  C   LIG d   1       2.016  83.132 110.366  0.00  0.00     0.091 C 
ENDROOT
BRANCH   1   7
ATOM      7  O   LIG d   1       3.771  84.834 110.530  0.00  0.00    -0.368 OA
BRANCH   7   8
ATOM      8  C   LIG d   1       3.706  85.601 111.757  0.00  0.00     0.119 C 
BRANCH   8   9
ATOM      9  C   LIG d   1       4.684  86.783 111.617  0.00  0.00     0.028 C 
ATOM     10  C   LIG d   1       4.995  87.451 112.967  0.00  0.00     0.006 C 
ENDBRANCH   8   9
BRANCH   8  11
ATOM     11  C   LIG d   1       4.220  84.788 112.949  0.00  0.00     0.028 C 
ATOM     12  C   LIG d   1       3.087  84.160 113.776  0.00  0.00     0.006 C 
ENDBRANCH   8  11
ENDBRANCH   7   8
ENDBRANCH   1   7
BRANCH   6  13
ATOM     13  N   LIG d   1       2.825  82.110 109.652  0.00  0.00    -0.311 N 
ATOM     14  C   LIG d   1       3.805  81.417 110.228  0.00  0.00     0.210 C 
ATOM     15  C   LIG d   1       4.526  80.428 109.307  0.00  0.00     0.109 C 
ATOM     16  O   LIG d   1       4.125  81.504 111.423  0.00  0.00    -0.276 OA
ATOM     17  H   LIG d   1       2.612  81.954 108.686  0.00  0.00     0.149 HD
ENDBRANCH   6  13
BRANCH   5  18
ATOM     18  N   LIG d   1      -0.028  81.687 110.657  0.00  0.00     0.381 N 
ATOM     19  H   LIG d   1      -0.982  81.806 110.936  0.00  0.00    -0.090 HD
ATOM     20  H   LIG d   1       0.507  81.426 111.467  0.00  0.00    -0.090 HD
ATOM     21  H   LIG d   1       0.036  80.974 109.964  0.00  0.00    -0.090 HD
ENDBRANCH   5  18
BRANCH   3  22
ATOM     22  C   LIG d   1      -0.632  86.435 110.502  0.00  0.00     0.382 C 
ATOM     23  O   LIG d   1      -0.335  87.487 111.118  0.00  0.00    -0.241 OA
ATOM     24  O   LIG d   1      -1.739  86.347 109.937  0.00  0.00    -0.241 OA
ENDBRANCH   3  22
TORSDOF 7
ENDMDL
MODEL 2
REMARK VINA RESULT:      -5.6      2.680      3.836
REMARK  7 active torsions:
REMARK  status: ('A' for Active; 'I' for Inactive)
REMARK    1  A    between atoms: C_2  and  C_3 
REMARK    2  A    between atoms: C_3  and  O_6 
REMARK    3  A    between atoms: C_3  and  C_4 
REMARK    4  A    between atoms: C_7  and  O_6 
REMARK    5  A    between atoms: C_9  and  C_10 
REMARK    6  A    between atoms: N_15  and  C_14 
REMARK    7  A    between atoms: N_20  and  C_19 
REMARK       I    between atoms: C_22  and  N_20 
ROOT
ATOM      1  C   LIG d   1       0.066  82.404 110.681  0.00  0.00     0.161 C 
ATOM      2  C   LIG d   1      -1.074  82.709 111.443  0.00  0.00     0.016 C 
ATOM      3  C   LIG d   1      -1.145  82.529 112.844  0.00  0.00     0.038 C 
ATOM      4  C   LIG d   1      -0.021  82.172 113.603  0.00  0.00     0.028 C 
ATOM      5  C   LIG d   1       1.010  81.368 112.818  0.00  0.00    -0.047 C 
ATOM      6  C   LIG d   1       1.338  82.118 111.506  0.00  0.00     0.091 C 
ENDROOT
BRANCH   1   7
ATOM      7  O   LIG d   1       0.312  83.456 109.728  0.00  0.00    -0.368 OA
BRANCH   7   8
ATOM      8  C   LIG d   1       0.821  84.700 110.270  0.00  0.00     0.119 C 
BRANCH   8   9
ATOM      9  C   LIG d   1      -0.049  85.840 109.705  0.00  0.00     0.028 C 
ATOM     10  C   LIG d   1      -1.005  86.425 110.758  0.00  0.00     0.006 C 
ENDBRANCH   8   9
BRANCH   8  11
ATOM     11  C   LIG d   1       2.240  84.987 109.770  0.00  0.00     0.028 C 
ATOM     12  C   LIG d   1       3.161  85.531 110.873  0.00  0.00     0.006 C 
ENDBRANCH   8  11
ENDBRANCH   7   8
ENDBRANCH   1   7
BRANCH   6  13
ATOM     13  N   LIG d   1       2.276  81.359 110.639  0.00  0.00    -0.311 N 
ATOM     14  C   LIG d   1       3.600  81.495 110.695  0.00  0.00     0.210 C 
ATOM     15  C   LIG d   1       4.381  80.633 109.698  0.00  0.00     0.109 C 
ATOM     16  O   LIG d   1       4.202  82.224 111.497  0.00  0.00    -0.276 OA
ATOM     17  H   LIG d   1       1.873  80.722 109.980  0.00  0.00     0.149 HD
ENDBRANCH   6  13
BRANCH   5  18
ATOM     18  N   LIG d   1       2.187  81.183 113.687  0.00  0.00     0.381 N 
ATOM     19  H   LIG d   1       2.091  81.742 114.512  0.00  0.00    -0.090 HD
ATOM     20  H   LIG d   1       3.007  81.488 113.194  0.00  0.00    -0.090 HD
ATOM     21  H   LIG d   1       2.279  80.223 113.937  0.00  0.00    -0.090 HD
ENDBRANCH   5  18
BRANCH   3  22
ATOM     22  C   LIG d   1      -2.361  82.670 113.494  0.00  0.00     0.382 C 
ATOM     23  O   LIG d   1      -2.437  83.358 114.540  0.00  0.00    -0.241 OA
ATOM     24  O   LIG d   1      -3.375  82.080 113.073  0.00  0.00    -0.241 OA
ENDBRANCH   3  22
TORSDOF 7
ENDMDL
MODEL 3
REMARK VINA RESULT:      -5.4      2.194      4.901
REMARK  7 active torsions:
REMARK  status: ('A' for Active; 'I' for Inactive)
REMARK    1  A    between atoms: C_2  and  C_3 
REMARK    2  A    between atoms: C_3  and  O_6 
REMARK    3  A    between atoms: C_3  and  C_4 
REMARK    4  A    between atoms: C_7  and  O_6 
REMARK    5  A    between atoms: C_9  and  C_10 
REMARK    6  A    between atoms: N_15  and  C_14 
REMARK    7  A    between atoms: N_20  and  C_19 
REMARK       I    between atoms: C_22  and  N_20 
ROOT
ATOM      1  C   LIG d   1       1.033  83.134 111.555  0.00  0.00     0.161 C 
ATOM      2  C   LIG d   1       2.367  82.870 111.201  0.00  0.00     0.016 C 
ATOM      3  C   LIG d   1       2.745  81.858 110.289  0.00  0.00     0.038 C 
ATOM      4  C   LIG d   1       1.797  81.136 109.549  0.00  0.00     0.028 C 
ATOM      5  C   LIG d   1       0.445  81.020 110.244  0.00  0.00    -0.047 C 
ATOM      6  C   LIG d   1      -0.021  82.430 110.674  0.00  0.00     0.091 C 
ENDROOT
BRANCH   1   7
ATOM      7  O   LIG d   1       0.804  84.557 111.571  0.00  0.00    -0.368 OA
BRANCH   7   8
ATOM      8  C   LIG d   1       1.559  85.335 110.610  0.00  0.00     0.119 C 
BRANCH   8   9
ATOM      9  C   LIG d   1       2.191  86.518 111.367  0.00  0.00     0.028 C 
ATOM     10  C   LIG d   1       3.727  86.444 111.395  0.00  0.00     0.006 C 
ENDBRANCH   8   9
BRANCH   8  11
ATOM     11  C   LIG d   1       0.641  85.968 109.561  0.00  0.00     0.028 C 
ATOM     12  C   LIG d   1      -0.822  86.056 110.024  0.00  0.00     0.006 C 
ENDBRANCH   8  11
ENDBRANCH   7   8
ENDBRANCH   1   7
BRANCH   6  13
ATOM     13  N   LIG d   1      -1.296  82.399 111.436  0.00  0.00    -0.311 N 
ATOM     14  C   LIG d   1      -1.484  81.647 112.519  0.00  0.00     0.210 C 
ATOM     15  C   LIG d   1      -2.880  81.748 113.142  0.00  0.00     0.109 C 
ATOM     16  O   LIG d   1      -0.617  80.931 113.043  0.00  0.00    -0.276 OA
ATOM     17  H   LIG d   1      -2.043  82.974 111.099  0.00  0.00     0.149 HD
ENDBRANCH   6  13
BRANCH   5  18
ATOM     18  N   LIG d   1      -0.485  80.365 109.305  0.00  0.00     0.381 N 
ATOM     19  H   LIG d   1      -1.068  79.720 109.800  0.00  0.00    -0.090 HD
ATOM     20  H   LIG d   1       0.047  79.852 108.625  0.00  0.00    -0.090 HD
ATOM     21  H   LIG d   1      -1.048  81.050 108.849  0.00  0.00    -0.090 HD
ENDBRANCH   5  18
BRANCH   3  22
ATOM     22  C   LIG d   1       4.084  81.532 110.140  0.00  0.00     0.382 C 
ATOM     23  O   LIG d   1       4.420  80.589 109.384  0.00  0.00    -0.241 OA
ATOM     24  O   LIG d   1       4.958  82.141 110.786  0.00  0.00    -0.241 OA
ENDBRANCH   3  22
TORSDOF 7
ENDMDL
MODEL 4
REMARK VINA RESULT:      -5.4      2.656      4.768
REMARK  7 active torsions:
REMARK  status: ('A' for Active; 'I' for Inactive)
REMARK    1  A    between atoms: C_2  and  C_3 
REMARK    2  A    between atoms: C_3  and  O_6 
REMARK    3  A    between atoms: C_3  and  C_4 
REMARK    4  A    between atoms: C_7  and  O_6 
REMARK    5  A    between atoms: C_9  and  C_10 
REMARK    6  A    between atoms: N_15  and  C_14 
REMARK    7  A    between atoms: N_20  and  C_19 
REMARK       I    between atoms: C_22  and  N_20 
ROOT
ATOM      1  C   LIG d   1       1.564  85.539 112.663  0.00  0.00     0.161 C 
ATOM      2  C   LIG d   1       2.122  86.805 112.421  0.00  0.00     0.016 C 
ATOM      3  C   LIG d   1       3.420  87.177 112.839  0.00  0.00     0.038 C 
ATOM      4  C   LIG d   1       4.312  86.250 113.399  0.00  0.00     0.028 C 
ATOM      5  C   LIG d   1       3.618  85.100 114.119  0.00  0.00    -0.047 C 
ATOM      6  C   LIG d   1       2.563  84.479 113.174  0.00  0.00     0.091 C 
ENDROOT
BRANCH   1   7
ATOM      7  O   LIG d   1       0.895  85.065 111.478  0.00  0.00    -0.368 OA
BRANCH   7   8
ATOM      8  C   LIG d   1       1.458  85.493 110.213  0.00  0.00     0.119 C 
BRANCH   8   9
ATOM      9  C   LIG d   1       0.289  85.940 109.314  0.00  0.00     0.028 C 
ATOM     10  C   LIG d   1      -1.009  86.164 110.107  0.00  0.00     0.006 C 
ENDBRANCH   8   9
BRANCH   8  11
ATOM     11  C   LIG d   1       2.115  84.325 109.473  0.00  0.00     0.028 C 
ATOM     12  C   LIG d   1       3.631  84.242 109.715  0.00  0.00     0.006 C 
ENDBRANCH   8  11
ENDBRANCH   7   8
ENDBRANCH   1   7
BRANCH   6  13
ATOM     13  N   LIG d   1       1.779  83.401 113.830  0.00  0.00    -0.311 N 
ATOM     14  C   LIG d   1       1.696  82.160 113.352  0.00  0.00     0.210 C 
ATOM     15  C   LIG d   1       0.819  81.209 114.171  0.00  0.00     0.109 C 
ATOM     16  O   LIG d   1       2.292  81.749 112.345  0.00  0.00    -0.276 OA
ATOM     17  H   LIG d   1       1.289  83.639 114.670  0.00  0.00     0.149 HD
ENDBRANCH   6  13
BRANCH   5  18
ATOM     18  N   LIG d   1       4.658  84.140 114.534  0.00  0.00     0.381 N 
ATOM     19  H   LIG d   1       4.531  83.273 114.052  0.00  0.00    -0.090 HD
ATOM     20  H   LIG d   1       4.569  83.969 115.520  0.00  0.00    -0.090 HD
ATOM     21  H   LIG d   1       5.562  84.509 114.334  0.00  0.00    -0.090 HD
ENDBRANCH   5  18
BRANCH   3  22
ATOM     22  C   LIG d   1       3.824  88.499 112.734  0.00  0.00     0.382 C 
ATOM     23  O   LIG d   1       2.968  89.417 112.724  0.00  0.00    -0.241 OA
ATOM     24  O   LIG d   1       5.029  88.784 112.605  0.00  0.00    -0.241 OA
ENDBRANCH   3  22
TORSDOF 7
ENDMDL
MODEL 5
REMARK VINA RESULT:      -5.3      3.648      5.507
REMARK  7 active torsions:
REMARK  status: ('A' for Active; 'I' for Inactive)
REMARK    1  A    between atoms: C_2  and  C_3 
REMARK    2  A    between atoms: C_3  and  O_6 
REMARK    3  A    between atoms: C_3  and  C_4 
REMARK    4  A    between atoms: C_7  and  O_6 
REMARK    5  A    between atoms: C_9  and  C_10 
REMARK    6  A    between atoms: N_15  and  C_14 
REMARK    7  A    between atoms: N_20  and  C_19 
REMARK       I    between atoms: C_22  and  N_20 
ROOT
ATOM      1  C   LIG d   1      -0.427  83.788 112.914  0.00  0.00     0.161 C 
ATOM      2  C   LIG d   1       0.361  84.854 112.451  0.00  0.00     0.016 C 
ATOM      3  C   LIG d   1       0.896  84.917 111.144  0.00  0.00     0.038 C 
ATOM      4  C   LIG d   1       0.550  83.982 110.156  0.00  0.00     0.028 C 
ATOM      5  C   LIG d   1       0.165  82.619 110.720  0.00  0.00    -0.047 C 
ATOM      6  C   LIG d   1      -0.907  82.814 111.817  0.00  0.00     0.091 C 
ENDROOT
BRANCH   1   7
ATOM      7  O   LIG d   1      -1.552  84.298 113.657  0.00  0.00    -0.368 OA
BRANCH   7   8
ATOM      8  C   LIG d   1      -1.398  84.340 115.097  0.00  0.00     0.119 C 
BRANCH   8   9
ATOM      9  C   LIG d   1      -2.126  83.111 115.676  0.00  0.00     0.028 C 
ATOM     10  C   LIG d   1      -3.654  83.215 115.537  0.00  0.00     0.006 C 
ENDBRANCH   8   9
BRANCH   8  11
ATOM     11  C   LIG d   1      -2.111  85.554 115.699  0.00  0.00     0.028 C 
ATOM     12  C   LIG d   1      -1.146  86.531 116.389  0.00  0.00     0.006 C 
ENDBRANCH   8  11
ENDBRANCH   7   8
ENDBRANCH   1   7
BRANCH   6  13
ATOM     13  N   LIG d   1      -1.279  81.537 112.480  0.00  0.00    -0.311 N 
ATOM     14  C   LIG d   1      -2.535  81.111 112.599  0.00  0.00     0.210 C 
ATOM     15  C   LIG d   1      -2.699  79.778 113.335  0.00  0.00     0.109 C 
ATOM     16  O   LIG d   1      -3.526  81.695 112.136  0.00  0.00    -0.276 OA
ATOM     17  H   LIG d   1      -0.533  80.985 112.857  0.00  0.00     0.149 HD
ENDBRANCH   6  13
BRANCH   5  18
ATOM     18  N   LIG d   1      -0.303  81.787 109.596  0.00  0.00     0.381 N 
ATOM     19  H   LIG d   1      -0.276  80.821 109.854  0.00  0.00    -0.090 HD
ATOM     20  H   LIG d   1       0.312  81.922 108.813  0.00  0.00    -0.090 HD
ATOM     21  H   LIG d   1      -1.232  82.045 109.345  0.00  0.00    -0.090 HD
ENDBRANCH   5  18
BRANCH   3  22
ATOM     22  C   LIG d   1       1.819  85.901 110.825  0.00  0.00     0.382 C 
ATOM     23  O   LIG d   1       1.522  86.793 109.993  0.00  0.00    -0.241 OA
ATOM     24  O   LIG d   1       2.959  85.883 111.325  0.00  0.00    -0.241 OA
ENDBRANCH   3  22
TORSDOF 7
ENDMDL
MODEL 6
REMARK VINA RESULT:      -5.3      3.367      4.540
REMARK  7 active torsions:
REMARK  status: ('A' for Active; 'I' for Inactive)
REMARK    1  A    between atoms: C_2  and  C_3 
REMARK    2  A    between atoms: C_3  and  O_6 
REMARK    3  A    between atoms: C_3  and  C_4 
REMARK    4  A    between atoms: C_7  and  O_6 
REMARK    5  A    between atoms: C_9  and  C_10 
REMARK    6  A    between atoms: N_15  and  C_14 
REMARK    7  A    between atoms: N_20  and  C_19 
REMARK       I    between atoms: C_22  and  N_20 
ROOT
ATOM      1  C   LIG d   1       0.050  82.684 111.514  0.00  0.00     0.161 C 
ATOM      2  C   LIG d   1      -1.293  82.499 111.880  0.00  0.00     0.016 C 
ATOM      3  C   LIG d   1      -1.693  81.855 113.073  0.00  0.00     0.038 C 
ATOM      4  C   LIG d   1      -0.768  81.484 114.061  0.00  0.00     0.028 C 
ATOM      5  C   LIG d   1       0.624  81.196 113.510  0.00  0.00    -0.047 C 
ATOM      6  C   LIG d   1       1.072  82.386 112.631  0.00  0.00     0.091 C 
ENDROOT
BRANCH   1   7
ATOM      7  O   LIG d   1       0.239  84.020 111.006  0.00  0.00    -0.368 OA
BRANCH   7   8
ATOM      8  C   LIG d   1      -0.685  85.023 111.495  0.00  0.00     0.119 C 
BRANCH   8   9
ATOM      9  C   LIG d   1      -0.988  85.982 110.327  0.00  0.00     0.028 C 
ATOM     10  C   LIG d   1       0.160  86.042 109.305  0.00  0.00     0.006 C 
ENDBRANCH   8   9
BRANCH   8  11
ATOM     11  C   LIG d   1      -0.041  85.894 112.578  0.00  0.00     0.028 C 
ATOM     12  C   LIG d   1      -0.423  85.455 114.000  0.00  0.00     0.006 C 
ENDBRANCH   8  11
ENDBRANCH   7   8
ENDBRANCH   1   7
BRANCH   6  13
ATOM     13  N   LIG d   1       2.389  82.149 111.984  0.00  0.00    -0.311 N 
ATOM     14  C   LIG d   1       3.325  83.089 111.860  0.00  0.00     0.210 C 
ATOM     15  C   LIG d   1       4.602  82.639 111.144  0.00  0.00     0.109 C 
ATOM     16  O   LIG d   1       3.231  84.243 112.304  0.00  0.00    -0.276 OA
ATOM     17  H   LIG d   1       2.562  81.231 111.624  0.00  0.00     0.149 HD
ENDBRANCH   6  13
BRANCH   5  18
ATOM     18  N   LIG d   1       1.518  80.957 114.659  0.00  0.00     0.381 N 
ATOM     19  H   LIG d   1       1.099  81.315 115.494  0.00  0.00    -0.090 HD
ATOM     20  H   LIG d   1       2.382  81.446 114.506  0.00  0.00    -0.090 HD
ATOM     21  H   LIG d   1       1.693  79.982 114.758  0.00  0.00    -0.090 HD
ENDBRANCH   5  18
BRANCH   3  22
ATOM     22  C   LIG d   1      -3.029  81.539 113.270  0.00  0.00     0.382 C 
ATOM     23  O   LIG d   1      -3.430  81.191 114.407  0.00  0.00    -0.241 OA
ATOM     24  O   LIG d   1      -3.829  81.556 112.316  0.00  0.00    -0.241 OA
ENDBRANCH   3  22
TORSDOF 7
ENDMDL
MODEL 7
REMARK VINA RESULT:      -5.2     12.100     14.135
REMARK  7 active torsions:
REMARK  status: ('A' for Active; 'I' for Inactive)
REMARK    1  A    between atoms: C_2  and  C_3 
REMARK    2  A    between atoms: C_3  and  O_6 
REMARK    3  A    between atoms: C_3  and  C_4 
REMARK    4  A    between atoms: C_7  and  O_6 
REMARK    5  A    between atoms: C_9  and  C_10 
REMARK    6  A    between atoms: N_15  and  C_14 
REMARK    7  A    between atoms: N_20  and  C_19 
REMARK       I    between atoms: C_22  and  N_20 
ROOT
ATOM      1  C   LIG d   1      -6.928  77.484 117.426  0.00  0.00     0.161 C 
ATOM      2  C   LIG d   1      -8.091  76.717 117.609  0.00  0.00     0.016 C 
ATOM      3  C   LIG d   1      -9.319  77.259 118.050  0.00  0.00     0.038 C 
ATOM      4  C   LIG d   1      -9.511  78.642 118.194  0.00  0.00     0.028 C 
ATOM      5  C   LIG d   1      -8.226  79.401 118.507  0.00  0.00    -0.047 C 
ATOM      6  C   LIG d   1      -7.147  79.011 117.471  0.00  0.00     0.091 C 
ENDROOT
BRANCH   1   7
ATOM      7  O   LIG d   1      -6.283  77.107 116.194  0.00  0.00    -0.368 OA
BRANCH   7   8
ATOM      8  C   LIG d   1      -6.732  75.867 115.593  0.00  0.00     0.119 C 
BRANCH   8   9
ATOM      9  C   LIG d   1      -5.848  74.735 116.150  0.00  0.00     0.028 C 
ATOM     10  C   LIG d   1      -6.646  73.450 116.429  0.00  0.00     0.006 C 
ENDBRANCH   8   9
BRANCH   8  11
ATOM     11  C   LIG d   1      -6.492  75.863 114.080  0.00  0.00     0.028 C 
ATOM     12  C   LIG d   1      -5.047  75.492 113.707  0.00  0.00     0.006 C 
ENDBRANCH   8  11
ENDBRANCH   7   8
ENDBRANCH   1   7
BRANCH   6  13
ATOM     13  N   LIG d   1      -5.833  79.645 117.755  0.00  0.00    -0.311 N 
ATOM     14  C   LIG d   1      -5.447  80.801 117.218  0.00  0.00     0.210 C 
ATOM     15  C   LIG d   1      -4.046  81.268 117.628  0.00  0.00     0.109 C 
ATOM     16  O   LIG d   1      -6.143  81.501 116.468  0.00  0.00    -0.276 OA
ATOM     17  H   LIG d   1      -5.218  79.161 118.378  0.00  0.00     0.149 HD
ENDBRANCH   6  13
BRANCH   5  18
ATOM     18  N   LIG d   1      -8.545  80.841 118.494  0.00  0.00     0.381 N 
ATOM     19  H   LIG d   1      -7.820  81.353 118.955  0.00  0.00    -0.090 HD
ATOM     20  H   LIG d   1      -9.403  80.989 118.996  0.00  0.00    -0.090 HD
ATOM     21  H   LIG d   1      -8.642  81.161 117.555  0.00  0.00    -0.090 HD
ENDBRANCH   5  18
BRANCH   3  22
ATOM     22  C   LIG d   1     -10.362  76.411 118.391  0.00  0.00     0.382 C 
ATOM     23  O   LIG d   1     -10.120  75.238 118.761  0.00  0.00    -0.241 OA
ATOM     24  O   LIG d   1     -11.544  76.791 118.289  0.00  0.00    -0.241 OA
ENDBRANCH   3  22
TORSDOF 7
ENDMDL
MODEL 8
REMARK VINA RESULT:      -5.2      4.269      6.552
REMARK  7 active torsions:
REMARK  status: ('A' for Active; 'I' for Inactive)
REMARK    1  A    between atoms: C_2  and  C_3 
REMARK    2  A    between atoms: C_3  and  O_6 
REMARK    3  A    between atoms: C_3  and  C_4 
REMARK    4  A    between atoms: C_7  and  O_6 
REMARK    5  A    between atoms: C_9  and  C_10 
REMARK    6  A    between atoms: N_15  and  C_14 
REMARK    7  A    between atoms: N_20  and  C_19 
REMARK       I    between atoms: C_22  and  N_20 
ROOT
ATOM      1  C   LIG d   1      -0.976  81.852 111.941  0.00  0.00     0.161 C 
ATOM      2  C   LIG d   1      -1.459  80.566 111.648  0.00  0.00     0.016 C 
ATOM      3  C   LIG d   1      -2.225  79.797 112.553  0.00  0.00     0.038 C 
ATOM      4  C   LIG d   1      -2.691  80.327 113.766  0.00  0.00     0.028 C 
ATOM      5  C   LIG d   1      -1.807  81.437 114.322  0.00  0.00    -0.047 C 
ATOM      6  C   LIG d   1      -1.568  82.490 113.215  0.00  0.00     0.091 C 
ENDROOT
BRANCH   1   7
ATOM      7  O   LIG d   1      -1.175  82.720 110.808  0.00  0.00    -0.368 OA
BRANCH   7   8
ATOM      8  C   LIG d   1       0.023  83.150 110.116  0.00  0.00     0.119 C 
BRANCH   8   9
ATOM      9  C   LIG d   1       1.209  82.367 110.713  0.00  0.00     0.028 C 
ATOM     10  C   LIG d   1       1.958  81.540 109.654  0.00  0.00     0.006 C 
ENDBRANCH   8   9
BRANCH   8  11
ATOM     11  C   LIG d   1       0.329  84.624 110.396  0.00  0.00     0.028 C 
ATOM     12  C   LIG d   1      -0.936  85.494 110.461  0.00  0.00     0.006 C 
ENDBRANCH   8  11
ENDBRANCH   7   8
ENDBRANCH   1   7
BRANCH   6  13
ATOM     13  N   LIG d   1      -0.643  83.569 113.650  0.00  0.00    -0.311 N 
ATOM     14  C   LIG d   1      -1.056  84.722 114.173  0.00  0.00     0.210 C 
ATOM     15  C   LIG d   1       0.061  85.706 114.535  0.00  0.00     0.109 C 
ATOM     16  O   LIG d   1      -2.241  85.011 114.401  0.00  0.00    -0.276 OA
ATOM     17  H   LIG d   1       0.337  83.406 113.529  0.00  0.00     0.149 HD
ENDBRANCH   6  13
BRANCH   5  18
ATOM     18  N   LIG d   1      -2.481  81.991 115.511  0.00  0.00     0.381 N 
ATOM     19  H   LIG d   1      -2.544  81.290 116.222  0.00  0.00    -0.090 HD
ATOM     20  H   LIG d   1      -3.414  82.266 115.257  0.00  0.00    -0.090 HD
ATOM     21  H   LIG d   1      -1.976  82.778 115.854  0.00  0.00    -0.090 HD
ENDBRANCH   5  18
BRANCH   3  22
ATOM     22  C   LIG d   1      -2.499  78.468 112.266  0.00  0.00     0.382 C 
ATOM     23  O   LIG d   1      -1.726  77.567 112.672  0.00  0.00    -0.241 OA
ATOM     24  O   LIG d   1      -3.484  78.163 111.568  0.00  0.00    -0.241 OA
ENDBRANCH   3  22
TORSDOF 7
ENDMDL
MODEL 9
REMARK VINA RESULT:      -5.2      3.294      4.980
REMARK  7 active torsions:
REMARK  status: ('A' for Active; 'I' for Inactive)
REMARK    1  A    between atoms: C_2  and  C_3 
REMARK    2  A    between atoms: C_3  and  O_6 
REMARK    3  A    between atoms: C_3  and  C_4 
REMARK    4  A    between atoms: C_7  and  O_6 
REMARK    5  A    between atoms: C_9  and  C_10 
REMARK    6  A    between atoms: N_15  and  C_14 
REMARK    7  A    between atoms: N_20  and  C_19 
REMARK       I    between atoms: C_22  and  N_20 
ROOT
ATOM      1  C   LIG d   1      -0.338  83.843 112.671  0.00  0.00     0.161 C 
ATOM      2  C   LIG d   1       0.470  84.817 112.061  0.00  0.00     0.016 C 
ATOM      3  C   LIG d   1       0.972  84.698 110.744  0.00  0.00     0.038 C 
ATOM      4  C   LIG d   1       0.573  83.659 109.890  0.00  0.00     0.028 C 
ATOM      5  C   LIG d   1       0.162  82.391 110.629  0.00  0.00    -0.047 C 
ATOM      6  C   LIG d   1      -0.875  82.757 111.716  0.00  0.00     0.091 C 
ENDROOT
BRANCH   1   7
ATOM      7  O   LIG d   1      -1.427  84.479 113.369  0.00  0.00    -0.368 OA
BRANCH   7   8
ATOM      8  C   LIG d   1      -1.549  84.167 114.778  0.00  0.00     0.119 C 
BRANCH   8   9
ATOM      9  C   LIG d   1      -1.794  85.492 115.526  0.00  0.00     0.028 C 
ATOM     10  C   LIG d   1      -0.485  86.214 115.885  0.00  0.00     0.006 C 
ENDBRANCH   8   9
BRANCH   8  11
ATOM     11  C   LIG d   1      -0.236  83.619 115.344  0.00  0.00     0.028 C 
ATOM     12  C   LIG d   1      -0.409  82.263 116.046  0.00  0.00     0.006 C 
ENDBRANCH   8  11
ENDBRANCH   7   8
ENDBRANCH   1   7
BRANCH   6  13
ATOM     13  N   LIG d   1      -1.268  81.585 112.542  0.00  0.00    -0.311 N 
ATOM     14  C   LIG d   1      -2.528  81.180 112.686  0.00  0.00     0.210 C 
ATOM     15  C   LIG d   1      -2.715  79.963 113.598  0.00  0.00     0.109 C 
ATOM     16  O   LIG d   1      -3.505  81.693 112.120  0.00  0.00    -0.276 OA
ATOM     17  H   LIG d   1      -0.534  81.092 113.011  0.00  0.00     0.149 HD
ENDBRANCH   6  13
BRANCH   5  18
ATOM     18  N   LIG d   1      -0.361  81.441 109.628  0.00  0.00     0.381 N 
ATOM     19  H   LIG d   1      -0.029  81.692 108.718  0.00  0.00    -0.090 HD
ATOM     20  H   LIG d   1      -1.364  81.493 109.623  0.00  0.00    -0.090 HD
ATOM     21  H   LIG d   1      -0.070  80.515 109.852  0.00  0.00    -0.090 HD
ENDBRANCH   5  18
BRANCH   3  22
ATOM     22  C   LIG d   1       1.916  85.603 110.284  0.00  0.00     0.382 C 
ATOM     23  O   LIG d   1       1.589  86.796 110.072  0.00  0.00    -0.241 OA
ATOM     24  O   LIG d   1       3.079  85.233 110.037  0.00  0.00    -0.241 OA
ENDBRANCH   3  22
TORSDOF 7
ENDMDL
