MODEL 1
REMARK VINA RESULT:      -5.9      0.000      0.000
REMARK  7 active torsions:
REMARK  status: ('A' for Active; 'I' for Inactive)
REMARK    1  A    between atoms: C_2  and  C_3 
REMARK    2  A    between atoms: C_3  and  O_6 
REMARK    3  A    between atoms: C_3  and  C_4 
REMARK    4  A    between atoms: C_7  and  O_6 
REMARK    5  A    between atoms: C_9  and  C_10 
REMARK    6  A    between atoms: N_15  and  C_14 
REMARK    7  A    between atoms: N_20  and  C_19 
REMARK       I    between atoms: C_22  and  N_20 
ROOT
ATOM      1  C   LIG d   1     -15.678  67.217 115.663  0.00  0.00     0.161 C 
ATOM      2  C   LIG d   1     -15.253  67.983 114.565  0.00  0.00     0.016 C 
ATOM      3  C   LIG d   1     -15.184  67.480 113.245  0.00  0.00     0.038 C 
ATOM      4  C   LIG d   1     -15.682  66.212 112.908  0.00  0.00     0.028 C 
ATOM      5  C   LIG d   1     -15.652  65.222 114.068  0.00  0.00    -0.047 C 
ATOM      6  C   LIG d   1     -16.330  65.868 115.297  0.00  0.00     0.091 C 
ENDROOT
BRANCH   1   7
ATOM      7  O   LIG d   1     -16.567  67.997 116.488  0.00  0.00    -0.368 OA
BRANCH   7   8
ATOM      8  C   LIG d   1     -15.953  68.717 117.584  0.00  0.00     0.119 C 
BRANCH   8   9
ATOM      9  C   LIG d   1     -14.771  67.868 118.092  0.00  0.00     0.028 C 
ATOM     10  C   LIG d   1     -14.608  67.943 119.619  0.00  0.00     0.006 C 
ENDBRANCH   8   9
BRANCH   8  11
ATOM     11  C   LIG d   1     -16.907  68.837 118.776  0.00  0.00     0.028 C 
ATOM     12  C   LIG d   1     -18.167  67.970 118.621  0.00  0.00     0.006 C 
ENDBRANCH   8  11
ENDBRANCH   7   8
ENDBRANCH   1   7
BRANCH   6  13
ATOM     13  N   LIG d   1     -16.268  64.998 116.501  0.00  0.00    -0.311 N 
ATOM     14  C   LIG d   1     -17.349  64.559 117.144  0.00  0.00     0.210 C 
ATOM     15  C   LIG d   1     -17.062  63.691 118.373  0.00  0.00     0.109 C 
ATOM     16  O   LIG d   1     -18.518  64.781 116.796  0.00  0.00    -0.276 OA
ATOM     17  H   LIG d   1     -15.359  64.743 116.834  0.00  0.00     0.149 HD
ENDBRANCH   6  13
BRANCH   5  18
ATOM     18  N   LIG d   1     -16.324  63.989 113.618  0.00  0.00     0.381 N 
ATOM     19  H   LIG d   1     -15.641  63.308 113.351  0.00  0.00    -0.090 HD
ATOM     20  H   LIG d   1     -16.888  64.201 112.814  0.00  0.00    -0.090 HD
ATOM     21  H   LIG d   1     -16.896  63.626 114.348  0.00  0.00    -0.090 HD
ENDBRANCH   5  18
BRANCH   3  22
ATOM     22  C   LIG d   1     -14.575  68.233 112.253  0.00  0.00     0.382 C 
ATOM     23  O   LIG d   1     -14.511  67.791 111.081  0.00  0.00    -0.241 OA
ATOM     24  O   LIG d   1     -14.049  69.329 112.526  0.00  0.00    -0.241 OA
ENDBRANCH   3  22
TORSDOF 7
ENDMDL
MODEL 2
REMARK VINA RESULT:      -5.7     21.082     22.866
REMARK  7 active torsions:
REMARK  status: ('A' for Active; 'I' for Inactive)
REMARK    1  A    between atoms: C_2  and  C_3 
REMARK    2  A    between atoms: C_3  and  O_6 
REMARK    3  A    between atoms: C_3  and  C_4 
REMARK    4  A    between atoms: C_7  and  O_6 
REMARK    5  A    between atoms: C_9  and  C_10 
REMARK    6  A    between atoms: N_15  and  C_14 
REMARK    7  A    between atoms: N_20  and  C_19 
REMARK       I    between atoms: C_22  and  N_20 
ROOT
ATOM      1  C   LIG d   1      -0.493  83.660 113.395  0.00  0.00     0.161 C 
ATOM      2  C   LIG d   1       0.256  84.764 112.958  0.00  0.00     0.016 C 
ATOM      3  C   LIG d   1       0.784  84.878 111.651  0.00  0.00     0.038 C 
ATOM      4  C   LIG d   1       0.467  83.958 110.640  0.00  0.00     0.028 C 
ATOM      5  C   LIG d   1       0.131  82.568 111.171  0.00  0.00    -0.047 C 
ATOM      6  C   LIG d   1      -0.943  82.698 112.275  0.00  0.00     0.091 C 
ENDROOT
BRANCH   1   7
ATOM      7  O   LIG d   1      -1.632  84.112 114.155  0.00  0.00    -0.368 OA
BRANCH   7   8
ATOM      8  C   LIG d   1      -1.747  83.591 115.502  0.00  0.00     0.119 C 
BRANCH   8   9
ATOM      9  C   LIG d   1      -2.089  84.774 116.428  0.00  0.00     0.028 C 
ATOM     10  C   LIG d   1      -2.299  86.085 115.652  0.00  0.00     0.006 C 
ENDBRANCH   8   9
BRANCH   8  11
ATOM     11  C   LIG d   1      -0.405  83.054 116.009  0.00  0.00     0.028 C 
ATOM     12  C   LIG d   1      -0.494  81.604 116.509  0.00  0.00     0.006 C 
ENDBRANCH   8  11
ENDBRANCH   7   8
ENDBRANCH   1   7
BRANCH   6  13
ATOM     13  N   LIG d   1      -1.268  81.393 112.907  0.00  0.00    -0.311 N 
ATOM     14  C   LIG d   1      -2.509  80.922 113.019  0.00  0.00     0.210 C 
ATOM     15  C   LIG d   1      -2.624  79.565 113.721  0.00  0.00     0.109 C 
ATOM     16  O   LIG d   1      -3.522  81.484 112.576  0.00  0.00    -0.276 OA
ATOM     17  H   LIG d   1      -0.503  80.857 113.266  0.00  0.00     0.149 HD
ENDBRANCH   6  13
BRANCH   5  18
ATOM     18  N   LIG d   1      -0.313  81.750 110.027  0.00  0.00     0.381 N 
ATOM     19  H   LIG d   1      -0.028  82.181 109.170  0.00  0.00    -0.090 HD
ATOM     20  H   LIG d   1      -1.317  81.697 110.034  0.00  0.00    -0.090 HD
ATOM     21  H   LIG d   1       0.075  80.834 110.091  0.00  0.00    -0.090 HD
ENDBRANCH   5  18
BRANCH   3  22
ATOM     22  C   LIG d   1       1.671  85.902 111.354  0.00  0.00     0.382 C 
ATOM     23  O   LIG d   1       2.904  85.726 111.505  0.00  0.00    -0.241 OA
ATOM     24  O   LIG d   1       1.251  87.013 110.981  0.00  0.00    -0.241 OA
ENDBRANCH   3  22
TORSDOF 7
ENDMDL
MODEL 3
REMARK VINA RESULT:      -5.6      2.289      4.305
REMARK  7 active torsions:
REMARK  status: ('A' for Active; 'I' for Inactive)
REMARK    1  A    between atoms: C_2  and  C_3 
REMARK    2  A    between atoms: C_3  and  O_6 
REMARK    3  A    between atoms: C_3  and  C_4 
REMARK    4  A    between atoms: C_7  and  O_6 
REMARK    5  A    between atoms: C_9  and  C_10 
REMARK    6  A    between atoms: N_15  and  C_14 
REMARK    7  A    between atoms: N_20  and  C_19 
REMARK       I    between atoms: C_22  and  N_20 
ROOT
ATOM      1  C   LIG d   1     -16.129  65.944 114.077  0.00  0.00     0.161 C 
ATOM      2  C   LIG d   1     -15.613  66.757 113.055  0.00  0.00     0.016 C 
ATOM      3  C   LIG d   1     -14.908  67.958 113.297  0.00  0.00     0.038 C 
ATOM      4  C   LIG d   1     -14.537  68.352 114.592  0.00  0.00     0.028 C 
ATOM      5  C   LIG d   1     -15.471  67.825 115.676  0.00  0.00    -0.047 C 
ATOM      6  C   LIG d   1     -15.638  66.299 115.496  0.00  0.00     0.091 C 
ENDROOT
BRANCH   1   7
ATOM      7  O   LIG d   1     -15.856  64.559 113.784  0.00  0.00    -0.368 OA
BRANCH   7   8
ATOM      8  C   LIG d   1     -16.991  63.759 113.371  0.00  0.00     0.119 C 
BRANCH   8   9
ATOM      9  C   LIG d   1     -18.196  64.707 113.221  0.00  0.00     0.028 C 
ATOM     10  C   LIG d   1     -19.268  64.469 114.298  0.00  0.00     0.006 C 
ENDBRANCH   8   9
BRANCH   8  11
ATOM     11  C   LIG d   1     -17.394  62.759 114.459  0.00  0.00     0.028 C 
ATOM     12  C   LIG d   1     -17.607  61.338 113.913  0.00  0.00     0.006 C 
ENDBRANCH   8  11
ENDBRANCH   7   8
ENDBRANCH   1   7
BRANCH   6  13
ATOM     13  N   LIG d   1     -16.604  65.716 116.464  0.00  0.00    -0.311 N 
ATOM     14  C   LIG d   1     -16.329  64.659 117.227  0.00  0.00     0.210 C 
ATOM     15  C   LIG d   1     -17.472  64.208 118.143  0.00  0.00     0.109 C 
ATOM     16  O   LIG d   1     -15.237  64.073 117.257  0.00  0.00    -0.276 OA
ATOM     17  H   LIG d   1     -17.504  66.149 116.528  0.00  0.00     0.149 HD
ENDBRANCH   6  13
BRANCH   5  18
ATOM     18  N   LIG d   1     -14.892  68.193 116.981  0.00  0.00     0.381 N 
ATOM     19  H   LIG d   1     -13.893  68.209 116.916  0.00  0.00    -0.090 HD
ATOM     20  H   LIG d   1     -15.152  67.499 117.660  0.00  0.00    -0.090 HD
ATOM     21  H   LIG d   1     -15.228  69.087 117.264  0.00  0.00    -0.090 HD
ENDBRANCH   5  18
BRANCH   3  22
ATOM     22  C   LIG d   1     -14.600  68.801 112.240  0.00  0.00     0.382 C 
ATOM     23  O   LIG d   1     -13.435  68.826 111.777  0.00  0.00    -0.241 OA
ATOM     24  O   LIG d   1     -15.463  69.568 111.772  0.00  0.00    -0.241 OA
ENDBRANCH   3  22
TORSDOF 7
ENDMDL
MODEL 4
REMARK VINA RESULT:      -5.6     18.641     20.877
REMARK  7 active torsions:
REMARK  status: ('A' for Active; 'I' for Inactive)
REMARK    1  A    between atoms: C_2  and  C_3 
REMARK    2  A    between atoms: C_3  and  O_6 
REMARK    3  A    between atoms: C_3  and  C_4 
REMARK    4  A    between atoms: C_7  and  O_6 
REMARK    5  A    between atoms: C_9  and  C_10 
REMARK    6  A    between atoms: N_15  and  C_14 
REMARK    7  A    between atoms: N_20  and  C_19 
REMARK       I    between atoms: C_22  and  N_20 
ROOT
ATOM      1  C   LIG d   1      -1.603  80.434 112.484  0.00  0.00     0.161 C 
ATOM      2  C   LIG d   1      -2.394  79.475 113.139  0.00  0.00     0.016 C 
ATOM      3  C   LIG d   1      -2.453  78.117 112.749  0.00  0.00     0.038 C 
ATOM      4  C   LIG d   1      -1.604  77.591 111.765  0.00  0.00     0.028 C 
ATOM      5  C   LIG d   1      -1.154  78.624 110.737  0.00  0.00    -0.047 C 
ATOM      6  C   LIG d   1      -0.585  79.855 111.479  0.00  0.00     0.091 C 
ENDROOT
BRANCH   1   7
ATOM      7  O   LIG d   1      -0.933  81.260 113.456  0.00  0.00    -0.368 OA
BRANCH   7   8
ATOM      8  C   LIG d   1      -1.495  82.579 113.668  0.00  0.00     0.119 C 
BRANCH   8   9
ATOM      9  C   LIG d   1      -0.414  83.609 113.288  0.00  0.00     0.028 C 
ATOM     10  C   LIG d   1      -0.733  84.336 111.971  0.00  0.00     0.006 C 
ENDBRANCH   8   9
BRANCH   8  11
ATOM     11  C   LIG d   1      -1.790  82.828 115.150  0.00  0.00     0.028 C 
ATOM     12  C   LIG d   1      -1.706  84.314 115.533  0.00  0.00     0.006 C 
ENDBRANCH   8  11
ENDBRANCH   7   8
ENDBRANCH   1   7
BRANCH   6  13
ATOM     13  N   LIG d   1      -0.199  80.949 110.550  0.00  0.00    -0.311 N 
ATOM     14  C   LIG d   1       1.056  81.364 110.387  0.00  0.00     0.210 C 
ATOM     15  C   LIG d   1       1.232  82.518 109.395  0.00  0.00     0.109 C 
ATOM     16  O   LIG d   1       2.044  80.865 110.946  0.00  0.00    -0.276 OA
ATOM     17  H   LIG d   1      -0.935  81.389 110.033  0.00  0.00     0.149 HD
ENDBRANCH   6  13
BRANCH   5  18
ATOM     18  N   LIG d   1      -0.166  77.974 109.855  0.00  0.00     0.381 N 
ATOM     19  H   LIG d   1      -0.552  77.864 108.938  0.00  0.00    -0.090 HD
ATOM     20  H   LIG d   1       0.045  77.062 110.219  0.00  0.00    -0.090 HD
ATOM     21  H   LIG d   1       0.664  78.522 109.810  0.00  0.00    -0.090 HD
ENDBRANCH   5  18
BRANCH   3  22
ATOM     22  C   LIG d   1      -3.399  77.279 113.319  0.00  0.00     0.382 C 
ATOM     23  O   LIG d   1      -4.241  76.697 112.593  0.00  0.00    -0.241 OA
ATOM     24  O   LIG d   1      -3.451  77.133 114.555  0.00  0.00    -0.241 OA
ENDBRANCH   3  22
TORSDOF 7
ENDMDL
MODEL 5
REMARK VINA RESULT:      -5.5     21.543     23.799
REMARK  7 active torsions:
REMARK  status: ('A' for Active; 'I' for Inactive)
REMARK    1  A    between atoms: C_2  and  C_3 
REMARK    2  A    between atoms: C_3  and  O_6 
REMARK    3  A    between atoms: C_3  and  C_4 
REMARK    4  A    between atoms: C_7  and  O_6 
REMARK    5  A    between atoms: C_9  and  C_10 
REMARK    6  A    between atoms: N_15  and  C_14 
REMARK    7  A    between atoms: N_20  and  C_19 
REMARK       I    between atoms: C_22  and  N_20 
ROOT
ATOM      1  C   LIG d   1       0.031  83.380 112.104  0.00  0.00     0.161 C 
ATOM      2  C   LIG d   1      -1.145  82.896 112.700  0.00  0.00     0.016 C 
ATOM      3  C   LIG d   1      -1.576  81.553 112.593  0.00  0.00     0.038 C 
ATOM      4  C   LIG d   1      -0.775  80.562 112.006  0.00  0.00     0.028 C 
ATOM      5  C   LIG d   1       0.184  81.104 110.951  0.00  0.00    -0.047 C 
ATOM      6  C   LIG d   1       0.973  82.289 111.553  0.00  0.00     0.091 C 
ENDROOT
BRANCH   1   7
ATOM      7  O   LIG d   1       0.736  84.228 113.032  0.00  0.00    -0.368 OA
BRANCH   7   8
ATOM      8  C   LIG d   1       0.477  85.649 112.918  0.00  0.00     0.119 C 
BRANCH   8   9
ATOM      9  C   LIG d   1       1.564  86.246 112.002  0.00  0.00     0.028 C 
ATOM     10  C   LIG d   1       1.059  86.479 110.568  0.00  0.00     0.006 C 
ENDBRANCH   8   9
BRANCH   8  11
ATOM     11  C   LIG d   1       0.650  86.357 114.266  0.00  0.00     0.028 C 
ATOM     12  C   LIG d   1       2.036  86.122 114.888  0.00  0.00     0.006 C 
ENDBRANCH   8  11
ENDBRANCH   7   8
ENDBRANCH   1   7
BRANCH   6  13
ATOM     13  N   LIG d   1       1.874  82.932 110.561  0.00  0.00    -0.311 N 
ATOM     14  C   LIG d   1       3.139  82.559 110.369  0.00  0.00     0.210 C 
ATOM     15  C   LIG d   1       3.898  83.367 109.312  0.00  0.00     0.109 C 
ATOM     16  O   LIG d   1       3.694  81.615 110.952  0.00  0.00    -0.276 OA
ATOM     17  H   LIG d   1       1.496  83.686 110.023  0.00  0.00     0.149 HD
ENDBRANCH   6  13
BRANCH   5  18
ATOM     18  N   LIG d   1       1.050  79.990 110.522  0.00  0.00     0.381 N 
ATOM     19  H   LIG d   1       0.639  79.524 109.738  0.00  0.00    -0.090 HD
ATOM     20  H   LIG d   1       1.129  79.330 111.276  0.00  0.00    -0.090 HD
ATOM     21  H   LIG d   1       1.952  80.335 110.277  0.00  0.00    -0.090 HD
ENDBRANCH   5  18
BRANCH   3  22
ATOM     22  C   LIG d   1      -2.839  81.199 113.043  0.00  0.00     0.382 C 
ATOM     23  O   LIG d   1      -3.369  80.133 112.647  0.00  0.00    -0.241 OA
ATOM     24  O   LIG d   1      -3.472  81.953 113.806  0.00  0.00    -0.241 OA
ENDBRANCH   3  22
TORSDOF 7
ENDMDL
MODEL 6
REMARK VINA RESULT:      -5.5     22.613     25.112
REMARK  7 active torsions:
REMARK  status: ('A' for Active; 'I' for Inactive)
REMARK    1  A    between atoms: C_2  and  C_3 
REMARK    2  A    between atoms: C_3  and  O_6 
REMARK    3  A    between atoms: C_3  and  C_4 
REMARK    4  A    between atoms: C_7  and  O_6 
REMARK    5  A    between atoms: C_9  and  C_10 
REMARK    6  A    between atoms: N_15  and  C_14 
REMARK    7  A    between atoms: N_20  and  C_19 
REMARK       I    between atoms: C_22  and  N_20 
ROOT
ATOM      1  C   LIG d   1       1.878  83.174 112.614  0.00  0.00     0.161 C 
ATOM      2  C   LIG d   1       0.815  82.263 112.500  0.00  0.00     0.016 C 
ATOM      3  C   LIG d   1      -0.541  82.655 112.424  0.00  0.00     0.038 C 
ATOM      4  C   LIG d   1      -0.918  84.001 112.303  0.00  0.00     0.028 C 
ATOM      5  C   LIG d   1       0.085  84.968 112.921  0.00  0.00    -0.047 C 
ATOM      6  C   LIG d   1       1.495  84.649 112.372  0.00  0.00     0.091 C 
ENDROOT
BRANCH   1   7
ATOM      7  O   LIG d   1       2.952  82.785 111.735  0.00  0.00    -0.368 OA
BRANCH   7   8
ATOM      8  C   LIG d   1       2.565  82.376 110.399  0.00  0.00     0.119 C 
BRANCH   8   9
ATOM      9  C   LIG d   1       3.261  81.033 110.106  0.00  0.00     0.028 C 
ATOM     10  C   LIG d   1       2.262  79.919 109.754  0.00  0.00     0.006 C 
ENDBRANCH   8   9
BRANCH   8  11
ATOM     11  C   LIG d   1       3.099  83.348 109.343  0.00  0.00     0.028 C 
ATOM     12  C   LIG d   1       4.397  84.047 109.778  0.00  0.00     0.006 C 
ENDBRANCH   8  11
ENDBRANCH   7   8
ENDBRANCH   1   7
BRANCH   6  13
ATOM     13  N   LIG d   1       2.549  85.495 112.990  0.00  0.00    -0.311 N 
ATOM     14  C   LIG d   1       2.870  86.708 112.543  0.00  0.00     0.210 C 
ATOM     15  C   LIG d   1       3.999  87.402 113.312  0.00  0.00     0.109 C 
ATOM     16  O   LIG d   1       2.306  87.288 111.604  0.00  0.00    -0.276 OA
ATOM     17  H   LIG d   1       3.037  85.114 113.777  0.00  0.00     0.149 HD
ENDBRANCH   6  13
BRANCH   5  18
ATOM     18  N   LIG d   1      -0.362  86.338 112.603  0.00  0.00     0.381 N 
ATOM     19  H   LIG d   1       0.002  86.615 111.714  0.00  0.00    -0.090 HD
ATOM     20  H   LIG d   1      -0.004  86.967 113.301  0.00  0.00    -0.090 HD
ATOM     21  H   LIG d   1      -1.357  86.377 112.590  0.00  0.00    -0.090 HD
ENDBRANCH   5  18
BRANCH   3  22
ATOM     22  C   LIG d   1      -1.539  81.696 112.508  0.00  0.00     0.382 C 
ATOM     23  O   LIG d   1      -1.375  80.571 111.977  0.00  0.00    -0.241 OA
ATOM     24  O   LIG d   1      -2.620  81.957 113.070  0.00  0.00    -0.241 OA
ENDBRANCH   3  22
TORSDOF 7
ENDMDL
MODEL 7
REMARK VINA RESULT:      -5.0     20.000     21.330
REMARK  7 active torsions:
REMARK  status: ('A' for Active; 'I' for Inactive)
REMARK    1  A    between atoms: C_2  and  C_3 
REMARK    2  A    between atoms: C_3  and  O_6 
REMARK    3  A    between atoms: C_3  and  C_4 
REMARK    4  A    between atoms: C_7  and  O_6 
REMARK    5  A    between atoms: C_9  and  C_10 
REMARK    6  A    between atoms: N_15  and  C_14 
REMARK    7  A    between atoms: N_20  and  C_19 
REMARK       I    between atoms: C_22  and  N_20 
ROOT
ATOM      1  C   LIG d   1     -25.561  85.334 112.697  0.00  0.00     0.161 C 
ATOM      2  C   LIG d   1     -24.464  86.164 112.980  0.00  0.00     0.016 C 
ATOM      3  C   LIG d   1     -23.313  85.723 113.673  0.00  0.00     0.038 C 
ATOM      4  C   LIG d   1     -23.116  84.373 113.999  0.00  0.00     0.028 C 
ATOM      5  C   LIG d   1     -24.416  83.598 114.182  0.00  0.00    -0.047 C 
ATOM      6  C   LIG d   1     -25.317  83.831 112.947  0.00  0.00     0.091 C 
ENDROOT
BRANCH   1   7
ATOM      7  O   LIG d   1     -26.001  85.551 111.342  0.00  0.00    -0.368 OA
BRANCH   7   8
ATOM      8  C   LIG d   1     -26.971  86.610 111.149  0.00  0.00     0.119 C 
BRANCH   8   9
ATOM      9  C   LIG d   1     -28.113  86.040 110.286  0.00  0.00     0.028 C 
ATOM     10  C   LIG d   1     -29.500  86.314 110.893  0.00  0.00     0.006 C 
ENDBRANCH   8   9
BRANCH   8  11
ATOM     11  C   LIG d   1     -26.381  87.763 110.330  0.00  0.00     0.028 C 
ATOM     12  C   LIG d   1     -26.511  89.122 111.036  0.00  0.00     0.006 C 
ENDBRANCH   8  11
ENDBRANCH   7   8
ENDBRANCH   1   7
BRANCH   6  13
ATOM     13  N   LIG d   1     -26.644  83.176 113.082  0.00  0.00    -0.311 N 
ATOM     14  C   LIG d   1     -27.265  82.564 112.075  0.00  0.00     0.210 C 
ATOM     15  C   LIG d   1     -28.634  81.972 112.424  0.00  0.00     0.109 C 
ATOM     16  O   LIG d   1     -26.798  82.427 110.934  0.00  0.00    -0.276 OA
ATOM     17  H   LIG d   1     -27.081  83.212 113.982  0.00  0.00     0.149 HD
ENDBRANCH   6  13
BRANCH   5  18
ATOM     18  N   LIG d   1     -24.065  82.179 114.381  0.00  0.00     0.381 N 
ATOM     19  H   LIG d   1     -24.186  81.676 113.525  0.00  0.00    -0.090 HD
ATOM     20  H   LIG d   1     -24.683  81.785 115.069  0.00  0.00    -0.090 HD
ATOM     21  H   LIG d   1     -23.121  82.102 114.690  0.00  0.00    -0.090 HD
ENDBRANCH   5  18
BRANCH   3  22
ATOM     22  C   LIG d   1     -22.362  86.645 114.082  0.00  0.00     0.382 C 
ATOM     23  O   LIG d   1     -22.653  87.503 114.950  0.00  0.00    -0.241 OA
ATOM     24  O   LIG d   1     -21.230  86.658 113.562  0.00  0.00    -0.241 OA
ENDBRANCH   3  22
TORSDOF 7
ENDMDL
MODEL 8
REMARK VINA RESULT:      -5.0     21.347     23.259
REMARK  7 active torsions:
REMARK  status: ('A' for Active; 'I' for Inactive)
REMARK    1  A    between atoms: C_2  and  C_3 
REMARK    2  A    between atoms: C_3  and  O_6 
REMARK    3  A    between atoms: C_3  and  C_4 
REMARK    4  A    between atoms: C_7  and  O_6 
REMARK    5  A    between atoms: C_9  and  C_10 
REMARK    6  A    between atoms: N_15  and  C_14 
REMARK    7  A    between atoms: N_20  and  C_19 
REMARK       I    between atoms: C_22  and  N_20 
ROOT
ATOM      1  C   LIG d   1       1.334  82.219 112.953  0.00  0.00     0.161 C 
ATOM      2  C   LIG d   1       2.385  82.956 112.382  0.00  0.00     0.016 C 
ATOM      3  C   LIG d   1       2.591  83.065 110.987  0.00  0.00     0.038 C 
ATOM      4  C   LIG d   1       1.664  82.565 110.060  0.00  0.00     0.028 C 
ATOM      5  C   LIG d   1       0.858  81.382 110.586  0.00  0.00    -0.047 C 
ATOM      6  C   LIG d   1       0.250  81.760 111.957  0.00  0.00     0.091 C 
ENDROOT
BRANCH   1   7
ATOM      7  O   LIG d   1       0.739  82.971 114.030  0.00  0.00    -0.368 OA
BRANCH   7   8
ATOM      8  C   LIG d   1      -0.339  83.866 113.662  0.00  0.00     0.119 C 
BRANCH   8   9
ATOM      9  C   LIG d   1       0.202  85.306 113.755  0.00  0.00     0.028 C 
ATOM     10  C   LIG d   1       0.154  86.040 112.405  0.00  0.00     0.006 C 
ENDBRANCH   8   9
BRANCH   8  11
ATOM     11  C   LIG d   1      -1.489  83.798 114.672  0.00  0.00     0.028 C 
ATOM     12  C   LIG d   1      -1.222  82.803 115.812  0.00  0.00     0.006 C 
ENDBRANCH   8  11
ENDBRANCH   7   8
ENDBRANCH   1   7
BRANCH   6  13
ATOM     13  N   LIG d   1      -0.485  80.629 112.581  0.00  0.00    -0.311 N 
ATOM     14  C   LIG d   1      -1.810  80.599 112.713  0.00  0.00     0.210 C 
ATOM     15  C   LIG d   1      -2.363  79.348 113.403  0.00  0.00     0.109 C 
ATOM     16  O   LIG d   1      -2.582  81.475 112.294  0.00  0.00    -0.276 OA
ATOM     17  H   LIG d   1       0.062  79.861 112.920  0.00  0.00     0.149 HD
ENDBRANCH   6  13
BRANCH   5  18
ATOM     18  N   LIG d   1      -0.161  81.051 109.573  0.00  0.00     0.381 N 
ATOM     19  H   LIG d   1       0.275  80.937 108.679  0.00  0.00    -0.090 HD
ATOM     20  H   LIG d   1      -0.816  81.811 109.510  0.00  0.00    -0.090 HD
ATOM     21  H   LIG d   1      -0.636  80.213 109.828  0.00  0.00    -0.090 HD
ENDBRANCH   5  18
BRANCH   3  22
ATOM     22  C   LIG d   1       3.755  83.646 110.508  0.00  0.00     0.382 C 
ATOM     23  O   LIG d   1       4.081  83.496 109.306  0.00  0.00    -0.241 OA
ATOM     24  O   LIG d   1       4.506  84.281 111.272  0.00  0.00    -0.241 OA
ENDBRANCH   3  22
TORSDOF 7
ENDMDL
MODEL 9
REMARK VINA RESULT:      -5.0      2.376      3.825
REMARK  7 active torsions:
REMARK  status: ('A' for Active; 'I' for Inactive)
REMARK    1  A    between atoms: C_2  and  C_3 
REMARK    2  A    between atoms: C_3  and  O_6 
REMARK    3  A    between atoms: C_3  and  C_4 
REMARK    4  A    between atoms: C_7  and  O_6 
REMARK    5  A    between atoms: C_9  and  C_10 
REMARK    6  A    between atoms: N_15  and  C_14 
REMARK    7  A    between atoms: N_20  and  C_19 
REMARK       I    between atoms: C_22  and  N_20 
ROOT
ATOM      1  C   LIG d   1     -16.435  64.551 116.220  0.00  0.00     0.161 C 
ATOM      2  C   LIG d   1     -15.864  65.823 116.389  0.00  0.00     0.016 C 
ATOM      3  C   LIG d   1     -15.549  66.684 115.312  0.00  0.00     0.038 C 
ATOM      4  C   LIG d   1     -15.926  66.390 113.993  0.00  0.00     0.028 C 
ATOM      5  C   LIG d   1     -16.050  64.895 113.718  0.00  0.00    -0.047 C 
ATOM      6  C   LIG d   1     -16.955  64.259 114.798  0.00  0.00     0.091 C 
ENDROOT
BRANCH   1   7
ATOM      7  O   LIG d   1     -17.485  64.355 117.188  0.00  0.00    -0.368 OA
BRANCH   7   8
ATOM      8  C   LIG d   1     -18.785  64.885 116.833  0.00  0.00     0.119 C 
BRANCH   8   9
ATOM      9  C   LIG d   1     -19.128  65.990 117.852  0.00  0.00     0.028 C 
ATOM     10  C   LIG d   1     -18.439  65.771 119.209  0.00  0.00     0.006 C 
ENDBRANCH   8   9
BRANCH   8  11
ATOM     11  C   LIG d   1     -19.882  63.828 116.997  0.00  0.00     0.028 C 
ATOM     12  C   LIG d   1     -19.339  62.480 117.496  0.00  0.00     0.006 C 
ENDBRANCH   8  11
ENDBRANCH   7   8
ENDBRANCH   1   7
BRANCH   6  13
ATOM     13  N   LIG d   1     -17.061  62.784 114.651  0.00  0.00    -0.311 N 
ATOM     14  C   LIG d   1     -18.051  62.181 113.995  0.00  0.00     0.210 C 
ATOM     15  C   LIG d   1     -17.980  60.651 113.981  0.00  0.00     0.109 C 
ATOM     16  O   LIG d   1     -18.963  62.770 113.396  0.00  0.00    -0.276 OA
ATOM     17  H   LIG d   1     -16.345  62.230 115.081  0.00  0.00     0.149 HD
ENDBRANCH   6  13
BRANCH   5  18
ATOM     18  N   LIG d   1     -16.581  64.736 112.351  0.00  0.00     0.381 N 
ATOM     19  H   LIG d   1     -16.101  63.991 111.886  0.00  0.00    -0.090 HD
ATOM     20  H   LIG d   1     -16.419  65.585 111.838  0.00  0.00    -0.090 HD
ATOM     21  H   LIG d   1     -17.558  64.541 112.385  0.00  0.00    -0.090 HD
ENDBRANCH   5  18
BRANCH   3  22
ATOM     22  C   LIG d   1     -14.814  67.836 115.545  0.00  0.00     0.382 C 
ATOM     23  O   LIG d   1     -15.019  68.862 114.852  0.00  0.00    -0.241 OA
ATOM     24  O   LIG d   1     -13.917  67.849 116.410  0.00  0.00    -0.241 OA
ENDBRANCH   3  22
TORSDOF 7
ENDMDL
