MODEL 1
REMARK VINA RESULT:      -6.0      0.000      0.000
REMARK  7 active torsions:
REMARK  status: ('A' for Active; 'I' for Inactive)
REMARK    1  A    between atoms: C_2  and  C_3 
REMARK    2  A    between atoms: C_3  and  O_6 
REMARK    3  A    between atoms: C_3  and  C_4 
REMARK    4  A    between atoms: C_7  and  O_6 
REMARK    5  A    between atoms: C_9  and  C_10 
REMARK    6  A    between atoms: N_15  and  C_14 
REMARK    7  A    between atoms: N_20  and  C_19 
REMARK       I    between atoms: C_22  and  N_20 
ROOT
ATOM      1  C   LIG d   1      -3.093  76.742 115.257  0.00  0.00     0.161 C 
ATOM      2  C   LIG d   1      -3.215  77.731 114.266  0.00  0.00     0.016 C 
ATOM      3  C   LIG d   1      -2.121  78.218 113.515  0.00  0.00     0.038 C 
ATOM      4  C   LIG d   1      -0.847  77.637 113.598  0.00  0.00     0.028 C 
ATOM      5  C   LIG d   1      -0.568  76.979 114.945  0.00  0.00    -0.047 C 
ATOM      6  C   LIG d   1      -1.730  76.018 115.284  0.00  0.00     0.091 C 
ENDROOT
BRANCH   1   7
ATOM      7  O   LIG d   1      -4.165  75.787 115.128  0.00  0.00    -0.368 OA
BRANCH   7   8
ATOM      8  C   LIG d   1      -5.508  76.323 115.208  0.00  0.00     0.119 C 
BRANCH   8   9
ATOM      9  C   LIG d   1      -5.775  76.686 116.681  0.00  0.00     0.028 C 
ATOM     10  C   LIG d   1      -6.735  77.879 116.827  0.00  0.00     0.006 C 
ENDBRANCH   8   9
BRANCH   8  11
ATOM     11  C   LIG d   1      -6.554  75.260 114.857  0.00  0.00     0.028 C 
ATOM     12  C   LIG d   1      -6.391  73.970 115.677  0.00  0.00     0.006 C 
ENDBRANCH   8  11
ENDBRANCH   7   8
ENDBRANCH   1   7
BRANCH   6  13
ATOM     13  N   LIG d   1      -1.578  75.395 116.625  0.00  0.00    -0.311 N 
ATOM     14  C   LIG d   1      -0.992  74.216 116.823  0.00  0.00     0.210 C 
ATOM     15  C   LIG d   1      -0.958  73.748 118.281  0.00  0.00     0.109 C 
ATOM     16  O   LIG d   1      -0.467  73.529 115.934  0.00  0.00    -0.276 OA
ATOM     17  H   LIG d   1      -1.948  75.900 117.406  0.00  0.00     0.149 HD
ENDBRANCH   6  13
BRANCH   5  18
ATOM     18  N   LIG d   1       0.736  76.297 114.846  0.00  0.00     0.381 N 
ATOM     19  H   LIG d   1       0.633  75.331 115.088  0.00  0.00    -0.090 HD
ATOM     20  H   LIG d   1       1.374  76.719 115.497  0.00  0.00    -0.090 HD
ATOM     21  H   LIG d   1       1.094  76.377 113.919  0.00  0.00    -0.090 HD
ENDBRANCH   5  18
BRANCH   3  22
ATOM     22  C   LIG d   1      -2.288  79.325 112.697  0.00  0.00     0.382 C 
ATOM     23  O   LIG d   1      -1.628  79.425 111.635  0.00  0.00    -0.241 OA
ATOM     24  O   LIG d   1      -3.058  80.246 113.029  0.00  0.00    -0.241 OA
ENDBRANCH   3  22
TORSDOF 7
ENDMDL
MODEL 2
REMARK VINA RESULT:      -5.8      8.771     11.559
REMARK  7 active torsions:
REMARK  status: ('A' for Active; 'I' for Inactive)
REMARK    1  A    between atoms: C_2  and  C_3 
REMARK    2  A    between atoms: C_3  and  O_6 
REMARK    3  A    between atoms: C_3  and  C_4 
REMARK    4  A    between atoms: C_7  and  O_6 
REMARK    5  A    between atoms: C_9  and  C_10 
REMARK    6  A    between atoms: N_15  and  C_14 
REMARK    7  A    between atoms: N_20  and  C_19 
REMARK       I    between atoms: C_22  and  N_20 
ROOT
ATOM      1  C   LIG d   1       2.429  86.305 112.514  0.00  0.00     0.161 C 
ATOM      2  C   LIG d   1       2.713  87.657 112.770  0.00  0.00     0.016 C 
ATOM      3  C   LIG d   1       3.459  88.098 113.887  0.00  0.00     0.038 C 
ATOM      4  C   LIG d   1       4.103  87.199 114.750  0.00  0.00     0.028 C 
ATOM      5  C   LIG d   1       3.425  85.835 114.820  0.00  0.00    -0.047 C 
ATOM      6  C   LIG d   1       3.217  85.303 113.384  0.00  0.00     0.091 C 
ENDROOT
BRANCH   1   7
ATOM      7  O   LIG d   1       2.627  86.020 111.116  0.00  0.00    -0.368 OA
BRANCH   7   8
ATOM      8  C   LIG d   1       1.435  86.007 110.292  0.00  0.00     0.119 C 
BRANCH   8   9
ATOM      9  C   LIG d   1       0.234  85.743 111.221  0.00  0.00     0.028 C 
ATOM     10  C   LIG d   1      -0.957  86.668 110.918  0.00  0.00     0.006 C 
ENDBRANCH   8   9
BRANCH   8  11
ATOM     11  C   LIG d   1       1.452  84.836 109.306  0.00  0.00     0.028 C 
ATOM     12  C   LIG d   1       0.635  83.630 109.799  0.00  0.00     0.006 C 
ENDBRANCH   8  11
ENDBRANCH   7   8
ENDBRANCH   1   7
BRANCH   6  13
ATOM     13  N   LIG d   1       2.483  84.011 113.358  0.00  0.00    -0.311 N 
ATOM     14  C   LIG d   1       2.820  82.993 112.568  0.00  0.00     0.210 C 
ATOM     15  C   LIG d   1       1.919  81.759 112.684  0.00  0.00     0.109 C 
ATOM     16  O   LIG d   1       3.799  82.981 111.807  0.00  0.00    -0.276 OA
ATOM     17  H   LIG d   1       1.694  83.923 113.967  0.00  0.00     0.149 HD
ENDBRANCH   6  13
BRANCH   5  18
ATOM     18  N   LIG d   1       4.275  84.956 115.645  0.00  0.00     0.381 N 
ATOM     19  H   LIG d   1       3.901  84.028 115.647  0.00  0.00    -0.090 HD
ATOM     20  H   LIG d   1       4.276  85.298 116.590  0.00  0.00    -0.090 HD
ATOM     21  H   LIG d   1       5.205  84.947 115.286  0.00  0.00    -0.090 HD
ENDBRANCH   5  18
BRANCH   3  22
ATOM     22  C   LIG d   1       3.532  89.453 114.173  0.00  0.00     0.382 C 
ATOM     23  O   LIG d   1       2.926  89.917 115.169  0.00  0.00    -0.241 OA
ATOM     24  O   LIG d   1       4.160  90.224 113.423  0.00  0.00    -0.241 OA
ENDBRANCH   3  22
TORSDOF 7
ENDMDL
MODEL 3
REMARK VINA RESULT:      -5.5      1.688      4.952
REMARK  7 active torsions:
REMARK  status: ('A' for Active; 'I' for Inactive)
REMARK    1  A    between atoms: C_2  and  C_3 
REMARK    2  A    between atoms: C_3  and  O_6 
REMARK    3  A    between atoms: C_3  and  C_4 
REMARK    4  A    between atoms: C_7  and  O_6 
REMARK    5  A    between atoms: C_9  and  C_10 
REMARK    6  A    between atoms: N_15  and  C_14 
REMARK    7  A    between atoms: N_20  and  C_19 
REMARK       I    between atoms: C_22  and  N_20 
ROOT
ATOM      1  C   LIG d   1      -1.889  75.388 114.942  0.00  0.00     0.161 C 
ATOM      2  C   LIG d   1      -1.703  74.617 116.102  0.00  0.00     0.016 C 
ATOM      3  C   LIG d   1      -0.853  75.002 117.164  0.00  0.00     0.038 C 
ATOM      4  C   LIG d   1      -0.243  76.264 117.206  0.00  0.00     0.028 C 
ATOM      5  C   LIG d   1      -0.001  76.866 115.825  0.00  0.00    -0.047 C 
ATOM      6  C   LIG d   1      -1.319  76.820 115.019  0.00  0.00     0.091 C 
ENDROOT
BRANCH   1   7
ATOM      7  O   LIG d   1      -3.288  75.423 114.598  0.00  0.00    -0.368 OA
BRANCH   7   8
ATOM      8  C   LIG d   1      -4.219  75.299 115.701  0.00  0.00     0.119 C 
BRANCH   8   9
ATOM      9  C   LIG d   1      -5.437  74.504 115.192  0.00  0.00     0.028 C 
ATOM     10  C   LIG d   1      -6.748  74.945 115.863  0.00  0.00     0.006 C 
ENDBRANCH   8   9
BRANCH   8  11
ATOM     11  C   LIG d   1      -4.773  76.664 116.120  0.00  0.00     0.028 C 
ATOM     12  C   LIG d   1      -4.144  77.189 117.420  0.00  0.00     0.006 C 
ENDBRANCH   8  11
ENDBRANCH   7   8
ENDBRANCH   1   7
BRANCH   6  13
ATOM     13  N   LIG d   1      -1.149  77.312 113.627  0.00  0.00    -0.311 N 
ATOM     14  C   LIG d   1      -1.974  78.186 113.053  0.00  0.00     0.210 C 
ATOM     15  C   LIG d   1      -1.629  78.545 111.604  0.00  0.00     0.109 C 
ATOM     16  O   LIG d   1      -2.940  78.722 113.617  0.00  0.00    -0.276 OA
ATOM     17  H   LIG d   1      -0.373  76.952 113.107  0.00  0.00     0.149 HD
ENDBRANCH   6  13
BRANCH   5  18
ATOM     18  N   LIG d   1       0.511  78.235 116.020  0.00  0.00     0.381 N 
ATOM     19  H   LIG d   1       0.808  78.355 116.967  0.00  0.00    -0.090 HD
ATOM     20  H   LIG d   1      -0.231  78.888 115.837  0.00  0.00    -0.090 HD
ATOM     21  H   LIG d   1       1.273  78.406 115.401  0.00  0.00    -0.090 HD
ENDBRANCH   5  18
BRANCH   3  22
ATOM     22  C   LIG d   1      -0.574  74.102 118.181  0.00  0.00     0.382 C 
ATOM     23  O   LIG d   1       0.261  74.398 119.069  0.00  0.00    -0.241 OA
ATOM     24  O   LIG d   1      -1.114  72.979 118.197  0.00  0.00    -0.241 OA
ENDBRANCH   3  22
TORSDOF 7
ENDMDL
MODEL 4
REMARK VINA RESULT:      -5.5      3.629      6.096
REMARK  7 active torsions:
REMARK  status: ('A' for Active; 'I' for Inactive)
REMARK    1  A    between atoms: C_2  and  C_3 
REMARK    2  A    between atoms: C_3  and  O_6 
REMARK    3  A    between atoms: C_3  and  C_4 
REMARK    4  A    between atoms: C_7  and  O_6 
REMARK    5  A    between atoms: C_9  and  C_10 
REMARK    6  A    between atoms: N_15  and  C_14 
REMARK    7  A    between atoms: N_20  and  C_19 
REMARK       I    between atoms: C_22  and  N_20 
ROOT
ATOM      1  C   LIG d   1      -6.195  78.120 116.974  0.00  0.00     0.161 C 
ATOM      2  C   LIG d   1      -7.572  78.307 117.183  0.00  0.00     0.016 C 
ATOM      3  C   LIG d   1      -8.124  79.493 117.719  0.00  0.00     0.038 C 
ATOM      4  C   LIG d   1      -7.344  80.638 117.943  0.00  0.00     0.028 C 
ATOM      5  C   LIG d   1      -5.878  80.327 118.222  0.00  0.00    -0.047 C 
ATOM      6  C   LIG d   1      -5.341  79.398 117.108  0.00  0.00     0.091 C 
ENDROOT
BRANCH   1   7
ATOM      7  O   LIG d   1      -5.976  77.504 115.690  0.00  0.00    -0.368 OA
BRANCH   7   8
ATOM      8  C   LIG d   1      -5.551  76.119 115.712  0.00  0.00     0.119 C 
BRANCH   8   9
ATOM      9  C   LIG d   1      -4.380  75.977 114.720  0.00  0.00     0.028 C 
ATOM     10  C   LIG d   1      -3.127  75.372 115.375  0.00  0.00     0.006 C 
ENDBRANCH   8   9
BRANCH   8  11
ATOM     11  C   LIG d   1      -6.647  75.191 115.180  0.00  0.00     0.028 C 
ATOM     12  C   LIG d   1      -6.676  73.831 115.895  0.00  0.00     0.006 C 
ENDBRANCH   8  11
ENDBRANCH   7   8
ENDBRANCH   1   7
BRANCH   6  13
ATOM     13  N   LIG d   1      -3.937  78.977 117.349  0.00  0.00    -0.311 N 
ATOM     14  C   LIG d   1      -2.995  78.992 116.407  0.00  0.00     0.210 C 
ATOM     15  C   LIG d   1      -1.618  78.499 116.862  0.00  0.00     0.109 C 
ATOM     16  O   LIG d   1      -3.162  79.398 115.247  0.00  0.00    -0.276 OA
ATOM     17  H   LIG d   1      -3.706  78.663 118.272  0.00  0.00     0.149 HD
ENDBRANCH   6  13
BRANCH   5  18
ATOM     18  N   LIG d   1      -5.157  81.612 118.299  0.00  0.00     0.381 N 
ATOM     19  H   LIG d   1      -4.980  81.958 117.377  0.00  0.00    -0.090 HD
ATOM     20  H   LIG d   1      -4.274  81.462 118.755  0.00  0.00    -0.090 HD
ATOM     21  H   LIG d   1      -5.695  82.275 118.813  0.00  0.00    -0.090 HD
ENDBRANCH   5  18
BRANCH   3  22
ATOM     22  C   LIG d   1      -9.463  79.529 118.074  0.00  0.00     0.382 C 
ATOM     23  O   LIG d   1     -10.213  80.418 117.605  0.00  0.00    -0.241 OA
ATOM     24  O   LIG d   1      -9.922  78.709 118.893  0.00  0.00    -0.241 OA
ENDBRANCH   3  22
TORSDOF 7
ENDMDL
MODEL 5
REMARK VINA RESULT:      -5.4      8.221     10.146
REMARK  7 active torsions:
REMARK  status: ('A' for Active; 'I' for Inactive)
REMARK    1  A    between atoms: C_2  and  C_3 
REMARK    2  A    between atoms: C_3  and  O_6 
REMARK    3  A    between atoms: C_3  and  C_4 
REMARK    4  A    between atoms: C_7  and  O_6 
REMARK    5  A    between atoms: C_9  and  C_10 
REMARK    6  A    between atoms: N_15  and  C_14 
REMARK    7  A    between atoms: N_20  and  C_19 
REMARK       I    between atoms: C_22  and  N_20 
ROOT
ATOM      1  C   LIG d   1       2.559  83.612 113.031  0.00  0.00     0.161 C 
ATOM      2  C   LIG d   1       2.494  84.777 112.248  0.00  0.00     0.016 C 
ATOM      3  C   LIG d   1       2.772  86.068 112.752  0.00  0.00     0.038 C 
ATOM      4  C   LIG d   1       3.284  86.267 114.042  0.00  0.00     0.028 C 
ATOM      5  C   LIG d   1       2.886  85.173 115.027  0.00  0.00    -0.047 C 
ATOM      6  C   LIG d   1       3.224  83.796 114.411  0.00  0.00     0.091 C 
ENDROOT
BRANCH   1   7
ATOM      7  O   LIG d   1       3.219  82.564 112.293  0.00  0.00    -0.368 OA
BRANCH   7   8
ATOM      8  C   LIG d   1       3.022  82.574 110.857  0.00  0.00     0.119 C 
BRANCH   8   9
ATOM      9  C   LIG d   1       2.037  81.439 110.517  0.00  0.00     0.028 C 
ATOM     10  C   LIG d   1       0.605  81.952 110.293  0.00  0.00     0.006 C 
ENDBRANCH   8   9
BRANCH   8  11
ATOM     11  C   LIG d   1       4.315  82.225 110.115  0.00  0.00     0.028 C 
ATOM     12  C   LIG d   1       4.394  80.742 109.719  0.00  0.00     0.006 C 
ENDBRANCH   8  11
ENDBRANCH   7   8
ENDBRANCH   1   7
BRANCH   6  13
ATOM     13  N   LIG d   1       2.789  82.667 115.274  0.00  0.00    -0.311 N 
ATOM     14  C   LIG d   1       3.605  82.026 116.109  0.00  0.00     0.210 C 
ATOM     15  C   LIG d   1       2.959  80.878 116.891  0.00  0.00     0.109 C 
ATOM     16  O   LIG d   1       4.795  82.319 116.300  0.00  0.00    -0.276 OA
ATOM     17  H   LIG d   1       1.831  82.383 115.205  0.00  0.00     0.149 HD
ENDBRANCH   6  13
BRANCH   5  18
ATOM     18  N   LIG d   1       3.599  85.431 116.292  0.00  0.00     0.381 N 
ATOM     19  H   LIG d   1       3.362  84.728 116.964  0.00  0.00    -0.090 HD
ATOM     20  H   LIG d   1       3.308  86.322 116.653  0.00  0.00    -0.090 HD
ATOM     21  H   LIG d   1       4.582  85.433 116.135  0.00  0.00    -0.090 HD
ENDBRANCH   5  18
BRANCH   3  22
ATOM     22  C   LIG d   1       2.499  87.183 111.973  0.00  0.00     0.382 C 
ATOM     23  O   LIG d   1       2.517  88.327 112.487  0.00  0.00    -0.241 OA
ATOM     24  O   LIG d   1       2.191  87.055 110.773  0.00  0.00    -0.241 OA
ENDBRANCH   3  22
TORSDOF 7
ENDMDL
MODEL 6
REMARK VINA RESULT:      -5.2      2.247      5.017
REMARK  7 active torsions:
REMARK  status: ('A' for Active; 'I' for Inactive)
REMARK    1  A    between atoms: C_2  and  C_3 
REMARK    2  A    between atoms: C_3  and  O_6 
REMARK    3  A    between atoms: C_3  and  C_4 
REMARK    4  A    between atoms: C_7  and  O_6 
REMARK    5  A    between atoms: C_9  and  C_10 
REMARK    6  A    between atoms: N_15  and  C_14 
REMARK    7  A    between atoms: N_20  and  C_19 
REMARK       I    between atoms: C_22  and  N_20 
ROOT
ATOM      1  C   LIG d   1      -2.794  78.070 115.619  0.00  0.00     0.161 C 
ATOM      2  C   LIG d   1      -1.471  78.298 116.031  0.00  0.00     0.016 C 
ATOM      3  C   LIG d   1      -0.619  77.279 116.515  0.00  0.00     0.038 C 
ATOM      4  C   LIG d   1      -0.988  75.926 116.479  0.00  0.00     0.028 C 
ATOM      5  C   LIG d   1      -2.495  75.707 116.543  0.00  0.00    -0.047 C 
ATOM      6  C   LIG d   1      -3.177  76.583 115.467  0.00  0.00     0.091 C 
ENDROOT
BRANCH   1   7
ATOM      7  O   LIG d   1      -3.054  78.781 114.393  0.00  0.00    -0.368 OA
BRANCH   7   8
ATOM      8  C   LIG d   1      -2.059  78.640 113.350  0.00  0.00     0.119 C 
BRANCH   8   9
ATOM      9  C   LIG d   1      -1.514  80.046 113.036  0.00  0.00     0.028 C 
ATOM     10  C   LIG d   1      -2.628  81.103 112.958  0.00  0.00     0.006 C 
ENDBRANCH   8   9
BRANCH   8  11
ATOM     11  C   LIG d   1      -2.687  78.147 112.043  0.00  0.00     0.028 C 
ATOM     12  C   LIG d   1      -1.663  78.005 110.906  0.00  0.00     0.006 C 
ENDBRANCH   8  11
ENDBRANCH   7   8
ENDBRANCH   1   7
BRANCH   6  13
ATOM     13  N   LIG d   1      -4.659  76.492 115.518  0.00  0.00    -0.311 N 
ATOM     14  C   LIG d   1      -5.373  75.696 114.723  0.00  0.00     0.210 C 
ATOM     15  C   LIG d   1      -6.889  75.771 114.927  0.00  0.00     0.109 C 
ATOM     16  O   LIG d   1      -4.892  74.912 113.892  0.00  0.00    -0.276 OA
ATOM     17  H   LIG d   1      -5.129  77.072 116.186  0.00  0.00     0.149 HD
ENDBRANCH   6  13
BRANCH   5  18
ATOM     18  N   LIG d   1      -2.744  74.265 116.358  0.00  0.00     0.381 N 
ATOM     19  H   LIG d   1      -1.885  73.759 116.436  0.00  0.00    -0.090 HD
ATOM     20  H   LIG d   1      -3.115  74.115 115.436  0.00  0.00    -0.090 HD
ATOM     21  H   LIG d   1      -3.393  73.940 117.041  0.00  0.00    -0.090 HD
ENDBRANCH   5  18
BRANCH   3  22
ATOM     22  C   LIG d   1       0.602  77.614 117.081  0.00  0.00     0.382 C 
ATOM     23  O   LIG d   1       0.949  78.817 117.154  0.00  0.00    -0.241 OA
ATOM     24  O   LIG d   1       1.379  76.726 117.478  0.00  0.00    -0.241 OA
ENDBRANCH   3  22
TORSDOF 7
ENDMDL
MODEL 7
REMARK VINA RESULT:      -5.1     15.744     17.234
REMARK  7 active torsions:
REMARK  status: ('A' for Active; 'I' for Inactive)
REMARK    1  A    between atoms: C_2  and  C_3 
REMARK    2  A    between atoms: C_3  and  O_6 
REMARK    3  A    between atoms: C_3  and  C_4 
REMARK    4  A    between atoms: C_7  and  O_6 
REMARK    5  A    between atoms: C_9  and  C_10 
REMARK    6  A    between atoms: N_15  and  C_14 
REMARK    7  A    between atoms: N_20  and  C_19 
REMARK       I    between atoms: C_22  and  N_20 
ROOT
ATOM      1  C   LIG d   1     -14.851  65.833 116.510  0.00  0.00     0.161 C 
ATOM      2  C   LIG d   1     -14.871  66.856 115.547  0.00  0.00     0.016 C 
ATOM      3  C   LIG d   1     -15.557  66.752 114.316  0.00  0.00     0.038 C 
ATOM      4  C   LIG d   1     -16.401  65.670 114.026  0.00  0.00     0.028 C 
ATOM      5  C   LIG d   1     -16.011  64.387 114.751  0.00  0.00    -0.047 C 
ATOM      6  C   LIG d   1     -15.857  64.690 116.259  0.00  0.00     0.091 C 
ENDROOT
BRANCH   1   7
ATOM      7  O   LIG d   1     -15.047  66.393 117.823  0.00  0.00    -0.368 OA
BRANCH   7   8
ATOM      8  C   LIG d   1     -15.905  67.558 117.897  0.00  0.00     0.119 C 
BRANCH   8   9
ATOM      9  C   LIG d   1     -15.437  68.402 119.099  0.00  0.00     0.028 C 
ATOM     10  C   LIG d   1     -16.443  69.505 119.469  0.00  0.00     0.006 C 
ENDBRANCH   8   9
BRANCH   8  11
ATOM     11  C   LIG d   1     -17.351  67.166 118.215  0.00  0.00     0.028 C 
ATOM     12  C   LIG d   1     -18.285  67.300 117.002  0.00  0.00     0.006 C 
ENDBRANCH   8  11
ENDBRANCH   7   8
ENDBRANCH   1   7
BRANCH   6  13
ATOM     13  N   LIG d   1     -15.395  63.507 117.031  0.00  0.00    -0.311 N 
ATOM     14  C   LIG d   1     -16.223  62.655 117.634  0.00  0.00     0.210 C 
ATOM     15  C   LIG d   1     -15.538  61.515 118.393  0.00  0.00     0.109 C 
ATOM     16  O   LIG d   1     -17.461  62.719 117.586  0.00  0.00    -0.276 OA
ATOM     17  H   LIG d   1     -14.406  63.362 117.095  0.00  0.00     0.149 HD
ENDBRANCH   6  13
BRANCH   5  18
ATOM     18  N   LIG d   1     -17.052  63.380 114.467  0.00  0.00     0.381 N 
ATOM     19  H   LIG d   1     -16.629  62.549 114.105  0.00  0.00    -0.090 HD
ATOM     20  H   LIG d   1     -17.676  63.746 113.770  0.00  0.00    -0.090 HD
ATOM     21  H   LIG d   1     -17.558  63.169 115.299  0.00  0.00    -0.090 HD
ENDBRANCH   5  18
BRANCH   3  22
ATOM     22  C   LIG d   1     -15.370  67.721 113.341  0.00  0.00     0.382 C 
ATOM     23  O   LIG d   1     -15.179  68.916 113.674  0.00  0.00    -0.241 OA
ATOM     24  O   LIG d   1     -15.434  67.423 112.134  0.00  0.00    -0.241 OA
ENDBRANCH   3  22
TORSDOF 7
ENDMDL
MODEL 8
REMARK VINA RESULT:      -5.0     15.236     17.956
REMARK  7 active torsions:
REMARK  status: ('A' for Active; 'I' for Inactive)
REMARK    1  A    between atoms: C_2  and  C_3 
REMARK    2  A    between atoms: C_3  and  O_6 
REMARK    3  A    between atoms: C_3  and  C_4 
REMARK    4  A    between atoms: C_7  and  O_6 
REMARK    5  A    between atoms: C_9  and  C_10 
REMARK    6  A    between atoms: N_15  and  C_14 
REMARK    7  A    between atoms: N_20  and  C_19 
REMARK       I    between atoms: C_22  and  N_20 
ROOT
ATOM      1  C   LIG d   1     -16.550  64.947 115.066  0.00  0.00     0.161 C 
ATOM      2  C   LIG d   1     -16.320  65.829 113.997  0.00  0.00     0.016 C 
ATOM      3  C   LIG d   1     -15.340  66.848 114.026  0.00  0.00     0.038 C 
ATOM      4  C   LIG d   1     -14.416  66.958 115.076  0.00  0.00     0.028 C 
ATOM      5  C   LIG d   1     -14.935  66.410 116.401  0.00  0.00    -0.047 C 
ATOM      6  C   LIG d   1     -15.477  64.981 116.175  0.00  0.00     0.091 C 
ENDROOT
BRANCH   1   7
ATOM      7  O   LIG d   1     -16.713  63.605 114.566  0.00  0.00    -0.368 OA
BRANCH   7   8
ATOM      8  C   LIG d   1     -17.956  62.944 114.907  0.00  0.00     0.119 C 
BRANCH   8   9
ATOM      9  C   LIG d   1     -17.692  61.426 114.890  0.00  0.00     0.028 C 
ATOM     10  C   LIG d   1     -17.118  60.915 116.222  0.00  0.00     0.006 C 
ENDBRANCH   8   9
BRANCH   8  11
ATOM     11  C   LIG d   1     -19.026  63.182 113.838  0.00  0.00     0.028 C 
ATOM     12  C   LIG d   1     -19.699  61.882 113.369  0.00  0.00     0.006 C 
ENDBRANCH   8  11
ENDBRANCH   7   8
ENDBRANCH   1   7
BRANCH   6  13
ATOM     13  N   LIG d   1     -16.082  64.403 117.403  0.00  0.00    -0.311 N 
ATOM     14  C   LIG d   1     -15.424  63.595 118.234  0.00  0.00     0.210 C 
ATOM     15  C   LIG d   1     -16.240  63.095 119.430  0.00  0.00     0.109 C 
ATOM     16  O   LIG d   1     -14.234  63.271 118.110  0.00  0.00    -0.276 OA
ATOM     17  H   LIG d   1     -17.035  64.639 117.597  0.00  0.00     0.149 HD
ENDBRANCH   6  13
BRANCH   5  18
ATOM     18  N   LIG d   1     -13.825  66.461 117.370  0.00  0.00     0.381 N 
ATOM     19  H   LIG d   1     -12.955  66.551 116.884  0.00  0.00    -0.090 HD
ATOM     20  H   LIG d   1     -13.808  65.602 117.891  0.00  0.00    -0.090 HD
ATOM     21  H   LIG d   1     -13.948  67.232 117.990  0.00  0.00    -0.090 HD
ENDBRANCH   5  18
BRANCH   3  22
ATOM     22  C   LIG d   1     -15.305  67.797 113.015  0.00  0.00     0.382 C 
ATOM     23  O   LIG d   1     -15.093  69.002 113.293  0.00  0.00    -0.241 OA
ATOM     24  O   LIG d   1     -15.526  67.469 111.834  0.00  0.00    -0.241 OA
ENDBRANCH   3  22
TORSDOF 7
ENDMDL
MODEL 9
REMARK VINA RESULT:      -4.9      3.433      6.576
REMARK  7 active torsions:
REMARK  status: ('A' for Active; 'I' for Inactive)
REMARK    1  A    between atoms: C_2  and  C_3 
REMARK    2  A    between atoms: C_3  and  O_6 
REMARK    3  A    between atoms: C_3  and  C_4 
REMARK    4  A    between atoms: C_7  and  O_6 
REMARK    5  A    between atoms: C_9  and  C_10 
REMARK    6  A    between atoms: N_15  and  C_14 
REMARK    7  A    between atoms: N_20  and  C_19 
REMARK       I    between atoms: C_22  and  N_20 
ROOT
ATOM      1  C   LIG d   1      -4.334  78.369 116.345  0.00  0.00     0.161 C 
ATOM      2  C   LIG d   1      -4.343  77.133 115.678  0.00  0.00     0.016 C 
ATOM      3  C   LIG d   1      -5.496  76.325 115.552  0.00  0.00     0.038 C 
ATOM      4  C   LIG d   1      -6.762  76.772 115.956  0.00  0.00     0.028 C 
ATOM      5  C   LIG d   1      -6.711  77.796 117.085  0.00  0.00    -0.047 C 
ATOM      6  C   LIG d   1      -5.730  78.925 116.695  0.00  0.00     0.091 C 
ENDROOT
BRANCH   1   7
ATOM      7  O   LIG d   1      -3.589  79.334 115.575  0.00  0.00    -0.368 OA
BRANCH   7   8
ATOM      8  C   LIG d   1      -2.377  78.850 114.947  0.00  0.00     0.119 C 
BRANCH   8   9
ATOM      9  C   LIG d   1      -1.187  79.350 115.789  0.00  0.00     0.028 C 
ATOM     10  C   LIG d   1       0.115  79.433 114.975  0.00  0.00     0.006 C 
ENDBRANCH   8   9
BRANCH   8  11
ATOM     11  C   LIG d   1      -2.181  79.470 113.560  0.00  0.00     0.028 C 
ATOM     12  C   LIG d   1      -2.503  78.491 112.420  0.00  0.00     0.006 C 
ENDBRANCH   8  11
ENDBRANCH   7   8
ENDBRANCH   1   7
BRANCH   6  13
ATOM     13  N   LIG d   1      -5.557  79.925 117.780  0.00  0.00    -0.311 N 
ATOM     14  C   LIG d   1      -6.199  81.092 117.811  0.00  0.00     0.210 C 
ATOM     15  C   LIG d   1      -5.860  81.985 119.009  0.00  0.00     0.109 C 
ATOM     16  O   LIG d   1      -7.041  81.458 116.978  0.00  0.00    -0.276 OA
ATOM     17  H   LIG d   1      -4.915  79.696 118.514  0.00  0.00     0.149 HD
ENDBRANCH   6  13
BRANCH   5  18
ATOM     18  N   LIG d   1      -8.087  78.278 117.312  0.00  0.00     0.381 N 
ATOM     19  H   LIG d   1      -8.496  78.556 116.443  0.00  0.00    -0.090 HD
ATOM     20  H   LIG d   1      -8.054  79.081 117.916  0.00  0.00    -0.090 HD
ATOM     21  H   LIG d   1      -8.635  77.560 117.731  0.00  0.00    -0.090 HD
ENDBRANCH   5  18
BRANCH   3  22
ATOM     22  C   LIG d   1      -5.381  75.037 115.052  0.00  0.00     0.382 C 
ATOM     23  O   LIG d   1      -5.811  74.065 115.718  0.00  0.00    -0.241 OA
ATOM     24  O   LIG d   1      -4.814  74.830 113.962  0.00  0.00    -0.241 OA
ENDBRANCH   3  22
TORSDOF 7
ENDMDL
