MODEL 1
REMARK VINA RESULT:      -5.5      0.000      0.000
REMARK  7 active torsions:
REMARK  status: ('A' for Active; 'I' for Inactive)
REMARK    1  A    between atoms: C_2  and  C_3 
REMARK    2  A    between atoms: C_3  and  O_6 
REMARK    3  A    between atoms: C_3  and  C_4 
REMARK    4  A    between atoms: C_7  and  O_6 
REMARK    5  A    between atoms: C_9  and  C_10 
REMARK    6  A    between atoms: N_15  and  C_14 
REMARK    7  A    between atoms: N_20  and  C_19 
REMARK       I    between atoms: C_22  and  N_20 
ROOT
ATOM      1  C   LIG d   1       4.106  85.159 112.962  0.00  0.00     0.161 C 
ATOM      2  C   LIG d   1       4.611  86.442 113.233  0.00  0.00     0.016 C 
ATOM      3  C   LIG d   1       4.056  87.626 112.695  0.00  0.00     0.038 C 
ATOM      4  C   LIG d   1       2.857  87.619 111.966  0.00  0.00     0.028 C 
ATOM      5  C   LIG d   1       2.594  86.300 111.247  0.00  0.00    -0.047 C 
ATOM      6  C   LIG d   1       2.732  85.140 112.259  0.00  0.00     0.091 C 
ENDROOT
BRANCH   1   7
ATOM      7  O   LIG d   1       4.057  84.387 114.178  0.00  0.00    -0.368 OA
BRANCH   7   8
ATOM      8  C   LIG d   1       3.851  85.136 115.401  0.00  0.00     0.119 C 
BRANCH   8   9
ATOM      9  C   LIG d   1       4.728  84.490 116.492  0.00  0.00     0.028 C 
ATOM     10  C   LIG d   1       6.036  85.263 116.727  0.00  0.00     0.006 C 
ENDBRANCH   8   9
BRANCH   8  11
ATOM     11  C   LIG d   1       2.411  84.997 115.903  0.00  0.00     0.028 C 
ATOM     12  C   LIG d   1       1.572  86.262 115.660  0.00  0.00     0.006 C 
ENDBRANCH   8  11
ENDBRANCH   7   8
ENDBRANCH   1   7
BRANCH   6  13
ATOM     13  N   LIG d   1       2.573  83.808 111.620  0.00  0.00    -0.311 N 
ATOM     14  C   LIG d   1       1.763  82.861 112.090  0.00  0.00     0.210 C 
ATOM     15  C   LIG d   1       1.764  81.554 111.291  0.00  0.00     0.109 C 
ATOM     16  O   LIG d   1       1.021  82.991 113.075  0.00  0.00    -0.276 OA
ATOM     17  H   LIG d   1       3.115  83.629 110.797  0.00  0.00     0.149 HD
ENDBRANCH   6  13
BRANCH   5  18
ATOM     18  N   LIG d   1       1.251  86.383 110.643  0.00  0.00     0.381 N 
ATOM     19  H   LIG d   1       1.285  86.947 109.817  0.00  0.00    -0.090 HD
ATOM     20  H   LIG d   1       0.626  86.820 111.297  0.00  0.00    -0.090 HD
ATOM     21  H   LIG d   1       0.922  85.470 110.417  0.00  0.00    -0.090 HD
ENDBRANCH   5  18
BRANCH   3  22
ATOM     22  C   LIG d   1       4.724  88.831 112.852  0.00  0.00     0.382 C 
ATOM     23  O   LIG d   1       4.076  89.885 113.063  0.00  0.00    -0.241 OA
ATOM     24  O   LIG d   1       5.964  88.885 112.741  0.00  0.00    -0.241 OA
ENDBRANCH   3  22
TORSDOF 7
ENDMDL
MODEL 2
REMARK VINA RESULT:      -5.4     13.650     16.190
REMARK  7 active torsions:
REMARK  status: ('A' for Active; 'I' for Inactive)
REMARK    1  A    between atoms: C_2  and  C_3 
REMARK    2  A    between atoms: C_3  and  O_6 
REMARK    3  A    between atoms: C_3  and  C_4 
REMARK    4  A    between atoms: C_7  and  O_6 
REMARK    5  A    between atoms: C_9  and  C_10 
REMARK    6  A    between atoms: N_15  and  C_14 
REMARK    7  A    between atoms: N_20  and  C_19 
REMARK       I    between atoms: C_22  and  N_20 
ROOT
ATOM      1  C   LIG d   1      -7.537  75.376 116.966  0.00  0.00     0.161 C 
ATOM      2  C   LIG d   1      -6.515  75.885 116.148  0.00  0.00     0.016 C 
ATOM      3  C   LIG d   1      -5.713  75.074 115.312  0.00  0.00     0.038 C 
ATOM      4  C   LIG d   1      -5.980  73.710 115.123  0.00  0.00     0.028 C 
ATOM      5  C   LIG d   1      -6.680  73.060 116.311  0.00  0.00    -0.047 C 
ATOM      6  C   LIG d   1      -7.917  73.907 116.690  0.00  0.00     0.091 C 
ENDROOT
BRANCH   1   7
ATOM      7  O   LIG d   1      -8.702  76.220 116.874  0.00  0.00    -0.368 OA
BRANCH   7   8
ATOM      8  C   LIG d   1      -8.993  77.034 118.037  0.00  0.00     0.119 C 
BRANCH   8   9
ATOM      9  C   LIG d   1     -10.522  77.216 118.104  0.00  0.00     0.028 C 
ATOM     10  C   LIG d   1     -11.146  76.491 119.308  0.00  0.00     0.006 C 
ENDBRANCH   8   9
BRANCH   8  11
ATOM     11  C   LIG d   1      -8.423  78.448 117.885  0.00  0.00     0.028 C 
ATOM     12  C   LIG d   1      -9.416  79.540 118.314  0.00  0.00     0.006 C 
ENDBRANCH   8  11
ENDBRANCH   7   8
ENDBRANCH   1   7
BRANCH   6  13
ATOM     13  N   LIG d   1      -8.612  73.387 117.897  0.00  0.00    -0.311 N 
ATOM     14  C   LIG d   1      -9.937  73.316 118.006  0.00  0.00     0.210 C 
ATOM     15  C   LIG d   1     -10.447  72.768 119.342  0.00  0.00     0.109 C 
ATOM     16  O   LIG d   1     -10.738  73.625 117.111  0.00  0.00    -0.276 OA
ATOM     17  H   LIG d   1      -8.037  73.085 118.659  0.00  0.00     0.149 HD
ENDBRANCH   6  13
BRANCH   5  18
ATOM     18  N   LIG d   1      -7.021  71.678 115.926  0.00  0.00     0.381 N 
ATOM     19  H   LIG d   1      -7.452  71.675 115.023  0.00  0.00    -0.090 HD
ATOM     20  H   LIG d   1      -7.678  71.308 116.590  0.00  0.00    -0.090 HD
ATOM     21  H   LIG d   1      -6.199  71.115 115.912  0.00  0.00    -0.090 HD
ENDBRANCH   5  18
BRANCH   3  22
ATOM     22  C   LIG d   1      -4.603  75.621 114.684  0.00  0.00     0.382 C 
ATOM     23  O   LIG d   1      -4.749  76.538 113.840  0.00  0.00    -0.241 OA
ATOM     24  O   LIG d   1      -3.463  75.179 114.919  0.00  0.00    -0.241 OA
ENDBRANCH   3  22
TORSDOF 7
ENDMDL
MODEL 3
REMARK VINA RESULT:      -5.4     14.446     16.705
REMARK  7 active torsions:
REMARK  status: ('A' for Active; 'I' for Inactive)
REMARK    1  A    between atoms: C_2  and  C_3 
REMARK    2  A    between atoms: C_3  and  O_6 
REMARK    3  A    between atoms: C_3  and  C_4 
REMARK    4  A    between atoms: C_7  and  O_6 
REMARK    5  A    between atoms: C_9  and  C_10 
REMARK    6  A    between atoms: N_15  and  C_14 
REMARK    7  A    between atoms: N_20  and  C_19 
REMARK       I    between atoms: C_22  and  N_20 
ROOT
ATOM      1  C   LIG d   1      -9.522  76.246 117.626  0.00  0.00     0.161 C 
ATOM      2  C   LIG d   1     -10.226  77.294 118.242  0.00  0.00     0.016 C 
ATOM      3  C   LIG d   1      -9.655  78.557 118.520  0.00  0.00     0.038 C 
ATOM      4  C   LIG d   1      -8.377  78.910 118.061  0.00  0.00     0.028 C 
ATOM      5  C   LIG d   1      -7.447  77.716 117.879  0.00  0.00    -0.047 C 
ATOM      6  C   LIG d   1      -8.162  76.649 117.018  0.00  0.00     0.091 C 
ENDROOT
BRANCH   1   7
ATOM      7  O   LIG d   1     -10.351  75.620 116.627  0.00  0.00    -0.368 OA
BRANCH   7   8
ATOM      8  C   LIG d   1     -10.930  74.342 116.988  0.00  0.00     0.119 C 
BRANCH   8   9
ATOM      9  C   LIG d   1     -12.309  74.618 117.616  0.00  0.00     0.028 C 
ATOM     10  C   LIG d   1     -12.423  74.069 119.048  0.00  0.00     0.006 C 
ENDBRANCH   8   9
BRANCH   8  11
ATOM     11  C   LIG d   1     -10.115  73.652 118.086  0.00  0.00     0.028 C 
ATOM     12  C   LIG d   1      -9.271  72.482 117.556  0.00  0.00     0.006 C 
ENDBRANCH   8  11
ENDBRANCH   7   8
ENDBRANCH   1   7
BRANCH   6  13
ATOM     13  N   LIG d   1      -7.354  75.412 116.861  0.00  0.00    -0.311 N 
ATOM     14  C   LIG d   1      -6.864  74.999 115.694  0.00  0.00     0.210 C 
ATOM     15  C   LIG d   1      -6.076  73.687 115.751  0.00  0.00     0.109 C 
ATOM     16  O   LIG d   1      -6.980  75.612 114.622  0.00  0.00    -0.276 OA
ATOM     17  H   LIG d   1      -7.185  74.870 117.686  0.00  0.00     0.149 HD
ENDBRANCH   6  13
BRANCH   5  18
ATOM     18  N   LIG d   1      -6.200  78.211 117.267  0.00  0.00     0.381 N 
ATOM     19  H   LIG d   1      -5.428  77.652 117.570  0.00  0.00    -0.090 HD
ATOM     20  H   LIG d   1      -6.042  79.156 117.570  0.00  0.00    -0.090 HD
ATOM     21  H   LIG d   1      -6.271  78.180 116.274  0.00  0.00    -0.090 HD
ENDBRANCH   5  18
BRANCH   3  22
ATOM     22  C   LIG d   1     -10.350  79.468 119.300  0.00  0.00     0.382 C 
ATOM     23  O   LIG d   1     -11.453  79.149 119.804  0.00  0.00    -0.241 OA
ATOM     24  O   LIG d   1      -9.908  80.620 119.470  0.00  0.00    -0.241 OA
ENDBRANCH   3  22
TORSDOF 7
ENDMDL
MODEL 4
REMARK VINA RESULT:      -5.3     14.387     17.652
REMARK  7 active torsions:
REMARK  status: ('A' for Active; 'I' for Inactive)
REMARK    1  A    between atoms: C_2  and  C_3 
REMARK    2  A    between atoms: C_3  and  O_6 
REMARK    3  A    between atoms: C_3  and  C_4 
REMARK    4  A    between atoms: C_7  and  O_6 
REMARK    5  A    between atoms: C_9  and  C_10 
REMARK    6  A    between atoms: N_15  and  C_14 
REMARK    7  A    between atoms: N_20  and  C_19 
REMARK       I    between atoms: C_22  and  N_20 
ROOT
ATOM      1  C   LIG d   1      -8.565  75.040 117.289  0.00  0.00     0.161 C 
ATOM      2  C   LIG d   1      -8.485  73.638 117.232  0.00  0.00     0.016 C 
ATOM      3  C   LIG d   1      -9.345  72.780 117.955  0.00  0.00     0.038 C 
ATOM      4  C   LIG d   1     -10.449  73.267 118.670  0.00  0.00     0.028 C 
ATOM      5  C   LIG d   1     -10.268  74.698 119.164  0.00  0.00    -0.047 C 
ATOM      6  C   LIG d   1      -9.834  75.587 117.976  0.00  0.00     0.091 C 
ENDROOT
BRANCH   1   7
ATOM      7  O   LIG d   1      -8.436  75.590 115.963  0.00  0.00    -0.368 OA
BRANCH   7   8
ATOM      8  C   LIG d   1      -7.207  76.305 115.686  0.00  0.00     0.119 C 
BRANCH   8   9
ATOM      9  C   LIG d   1      -6.508  75.587 114.516  0.00  0.00     0.028 C 
ATOM     10  C   LIG d   1      -5.659  74.392 114.982  0.00  0.00     0.006 C 
ENDBRANCH   8   9
BRANCH   8  11
ATOM     11  C   LIG d   1      -6.230  76.209 116.862  0.00  0.00     0.028 C 
ATOM     12  C   LIG d   1      -5.770  77.585 117.369  0.00  0.00     0.006 C 
ENDBRANCH   8  11
ENDBRANCH   7   8
ENDBRANCH   1   7
BRANCH   6  13
ATOM     13  N   LIG d   1      -9.553  76.987 118.389  0.00  0.00    -0.311 N 
ATOM     14  C   LIG d   1     -10.493  77.924 118.492  0.00  0.00     0.210 C 
ATOM     15  C   LIG d   1      -9.986  79.306 118.914  0.00  0.00     0.109 C 
ATOM     16  O   LIG d   1     -11.705  77.734 118.305  0.00  0.00    -0.276 OA
ATOM     17  H   LIG d   1      -8.600  77.221 118.591  0.00  0.00     0.149 HD
ENDBRANCH   6  13
BRANCH   5  18
ATOM     18  N   LIG d   1     -11.542  75.125 119.771  0.00  0.00     0.381 N 
ATOM     19  H   LIG d   1     -11.999  74.339 120.187  0.00  0.00    -0.090 HD
ATOM     20  H   LIG d   1     -12.139  75.491 119.050  0.00  0.00    -0.090 HD
ATOM     21  H   LIG d   1     -11.374  75.825 120.460  0.00  0.00    -0.090 HD
ENDBRANCH   5  18
BRANCH   3  22
ATOM     22  C   LIG d   1      -9.080  71.419 117.998  0.00  0.00     0.382 C 
ATOM     23  O   LIG d   1      -8.314  70.902 117.149  0.00  0.00    -0.241 OA
ATOM     24  O   LIG d   1      -9.632  70.695 118.848  0.00  0.00    -0.241 OA
ENDBRANCH   3  22
TORSDOF 7
ENDMDL
MODEL 5
REMARK VINA RESULT:      -5.1      9.635     12.656
REMARK  7 active torsions:
REMARK  status: ('A' for Active; 'I' for Inactive)
REMARK    1  A    between atoms: C_2  and  C_3 
REMARK    2  A    between atoms: C_3  and  O_6 
REMARK    3  A    between atoms: C_3  and  C_4 
REMARK    4  A    between atoms: C_7  and  O_6 
REMARK    5  A    between atoms: C_9  and  C_10 
REMARK    6  A    between atoms: N_15  and  C_14 
REMARK    7  A    between atoms: N_20  and  C_19 
REMARK       I    between atoms: C_22  and  N_20 
ROOT
ATOM      1  C   LIG d   1      -3.835  76.095 114.874  0.00  0.00     0.161 C 
ATOM      2  C   LIG d   1      -3.838  77.133 113.928  0.00  0.00     0.016 C 
ATOM      3  C   LIG d   1      -2.700  77.919 113.633  0.00  0.00     0.038 C 
ATOM      4  C   LIG d   1      -1.435  77.619 114.159  0.00  0.00     0.028 C 
ATOM      5  C   LIG d   1      -1.492  76.897 115.501  0.00  0.00    -0.047 C 
ATOM      6  C   LIG d   1      -2.437  75.680 115.377  0.00  0.00     0.091 C 
ENDROOT
BRANCH   1   7
ATOM      7  O   LIG d   1      -4.537  74.952 114.347  0.00  0.00    -0.368 OA
BRANCH   7   8
ATOM      8  C   LIG d   1      -5.804  74.636 114.974  0.00  0.00     0.119 C 
BRANCH   8   9
ATOM      9  C   LIG d   1      -6.231  75.866 115.799  0.00  0.00     0.028 C 
ATOM     10  C   LIG d   1      -7.706  76.241 115.573  0.00  0.00     0.006 C 
ENDBRANCH   8   9
BRANCH   8  11
ATOM     11  C   LIG d   1      -5.656  73.499 115.989  0.00  0.00     0.028 C 
ATOM     12  C   LIG d   1      -6.979  72.765 116.260  0.00  0.00     0.006 C 
ENDBRANCH   8  11
ENDBRANCH   7   8
ENDBRANCH   1   7
BRANCH   6  13
ATOM     13  N   LIG d   1      -2.616  74.967 116.668  0.00  0.00    -0.311 N 
ATOM     14  C   LIG d   1      -1.920  73.884 117.010  0.00  0.00     0.210 C 
ATOM     15  C   LIG d   1      -2.275  73.292 118.378  0.00  0.00     0.109 C 
ATOM     16  O   LIG d   1      -1.020  73.375 116.324  0.00  0.00    -0.276 OA
ATOM     17  H   LIG d   1      -3.303  75.330 117.298  0.00  0.00     0.149 HD
ENDBRANCH   6  13
BRANCH   5  18
ATOM     18  N   LIG d   1      -0.112  76.524 115.866  0.00  0.00     0.381 N 
ATOM     19  H   LIG d   1       0.271  77.208 116.488  0.00  0.00    -0.090 HD
ATOM     20  H   LIG d   1       0.450  76.504 115.034  0.00  0.00    -0.090 HD
ATOM     21  H   LIG d   1      -0.106  75.628 116.301  0.00  0.00    -0.090 HD
ENDBRANCH   5  18
BRANCH   3  22
ATOM     22  C   LIG d   1      -2.831  79.045 112.834  0.00  0.00     0.382 C 
ATOM     23  O   LIG d   1      -2.071  79.206 111.849  0.00  0.00    -0.241 OA
ATOM     24  O   LIG d   1      -3.670  79.922 113.111  0.00  0.00    -0.241 OA
ENDBRANCH   3  22
TORSDOF 7
ENDMDL
MODEL 6
REMARK VINA RESULT:      -5.1      1.694      2.021
REMARK  7 active torsions:
REMARK  status: ('A' for Active; 'I' for Inactive)
REMARK    1  A    between atoms: C_2  and  C_3 
REMARK    2  A    between atoms: C_3  and  O_6 
REMARK    3  A    between atoms: C_3  and  C_4 
REMARK    4  A    between atoms: C_7  and  O_6 
REMARK    5  A    between atoms: C_9  and  C_10 
REMARK    6  A    between atoms: N_15  and  C_14 
REMARK    7  A    between atoms: N_20  and  C_19 
REMARK       I    between atoms: C_22  and  N_20 
ROOT
ATOM      1  C   LIG d   1       2.533  84.273 113.048  0.00  0.00     0.161 C 
ATOM      2  C   LIG d   1       3.163  85.528 113.098  0.00  0.00     0.016 C 
ATOM      3  C   LIG d   1       3.113  86.466 112.041  0.00  0.00     0.038 C 
ATOM      4  C   LIG d   1       2.300  86.272 110.915  0.00  0.00     0.028 C 
ATOM      5  C   LIG d   1       2.048  84.802 110.595  0.00  0.00    -0.047 C 
ATOM      6  C   LIG d   1       1.550  84.090 111.873  0.00  0.00     0.091 C 
ENDROOT
BRANCH   1   7
ATOM      7  O   LIG d   1       1.873  84.008 114.301  0.00  0.00    -0.368 OA
BRANCH   7   8
ATOM      8  C   LIG d   1       2.677  84.176 115.494  0.00  0.00     0.119 C 
BRANCH   8   9
ATOM      9  C   LIG d   1       2.959  82.772 116.064  0.00  0.00     0.028 C 
ATOM     10  C   LIG d   1       2.530  82.640 117.535  0.00  0.00     0.006 C 
ENDBRANCH   8   9
BRANCH   8  11
ATOM     11  C   LIG d   1       1.901  84.911 116.590  0.00  0.00     0.028 C 
ATOM     12  C   LIG d   1       1.592  86.371 116.224  0.00  0.00     0.006 C 
ENDBRANCH   8  11
ENDBRANCH   7   8
ENDBRANCH   1   7
BRANCH   6  13
ATOM     13  N   LIG d   1       1.359  82.630 111.670  0.00  0.00    -0.311 N 
ATOM     14  C   LIG d   1       0.181  82.076 111.389  0.00  0.00     0.210 C 
ATOM     15  C   LIG d   1       0.202  80.552 111.239  0.00  0.00     0.109 C 
ATOM     16  O   LIG d   1      -0.874  82.706 111.218  0.00  0.00    -0.276 OA
ATOM     17  H   LIG d   1       2.169  82.047 111.760  0.00  0.00     0.149 HD
ENDBRANCH   6  13
BRANCH   5  18
ATOM     18  N   LIG d   1       1.077  84.747 109.486  0.00  0.00     0.381 N 
ATOM     19  H   LIG d   1       1.154  83.870 109.012  0.00  0.00    -0.090 HD
ATOM     20  H   LIG d   1       1.289  85.479 108.832  0.00  0.00    -0.090 HD
ATOM     21  H   LIG d   1       0.152  84.863 109.837  0.00  0.00    -0.090 HD
ENDBRANCH   5  18
BRANCH   3  22
ATOM     22  C   LIG d   1       3.916  87.596 112.087  0.00  0.00     0.382 C 
ATOM     23  O   LIG d   1       3.418  88.706 112.395  0.00  0.00    -0.241 OA
ATOM     24  O   LIG d   1       5.121  87.528 111.782  0.00  0.00    -0.241 OA
ENDBRANCH   3  22
TORSDOF 7
ENDMDL
MODEL 7
REMARK VINA RESULT:      -5.0     12.999     16.192
REMARK  7 active torsions:
REMARK  status: ('A' for Active; 'I' for Inactive)
REMARK    1  A    between atoms: C_2  and  C_3 
REMARK    2  A    between atoms: C_3  and  O_6 
REMARK    3  A    between atoms: C_3  and  C_4 
REMARK    4  A    between atoms: C_7  and  O_6 
REMARK    5  A    between atoms: C_9  and  C_10 
REMARK    6  A    between atoms: N_15  and  C_14 
REMARK    7  A    between atoms: N_20  and  C_19 
REMARK       I    between atoms: C_22  and  N_20 
ROOT
ATOM      1  C   LIG d   1      -8.055  76.517 117.069  0.00  0.00     0.161 C 
ATOM      2  C   LIG d   1      -9.019  75.504 116.936  0.00  0.00     0.016 C 
ATOM      3  C   LIG d   1     -10.325  75.598 117.472  0.00  0.00     0.038 C 
ATOM      4  C   LIG d   1     -10.806  76.781 118.050  0.00  0.00     0.028 C 
ATOM      5  C   LIG d   1      -9.708  77.650 118.655  0.00  0.00    -0.047 C 
ATOM      6  C   LIG d   1      -8.597  77.860 117.600  0.00  0.00     0.091 C 
ENDROOT
BRANCH   1   7
ATOM      7  O   LIG d   1      -7.375  76.712 115.813  0.00  0.00    -0.368 OA
BRANCH   7   8
ATOM      8  C   LIG d   1      -6.011  76.230 115.745  0.00  0.00     0.119 C 
BRANCH   8   9
ATOM      9  C   LIG d   1      -6.006  74.981 114.844  0.00  0.00     0.028 C 
ATOM     10  C   LIG d   1      -6.060  73.673 115.652  0.00  0.00     0.006 C 
ENDBRANCH   8   9
BRANCH   8  11
ATOM     11  C   LIG d   1      -5.522  75.745 117.114  0.00  0.00     0.028 C 
ATOM     12  C   LIG d   1      -4.378  76.602 117.677  0.00  0.00     0.006 C 
ENDBRANCH   8  11
ENDBRANCH   7   8
ENDBRANCH   1   7
BRANCH   6  13
ATOM     13  N   LIG d   1      -7.444  78.630 118.137  0.00  0.00    -0.311 N 
ATOM     14  C   LIG d   1      -7.344  79.955 118.052  0.00  0.00     0.210 C 
ATOM     15  C   LIG d   1      -6.065  80.547 118.652  0.00  0.00     0.109 C 
ATOM     16  O   LIG d   1      -8.208  80.700 117.565  0.00  0.00    -0.276 OA
ATOM     17  H   LIG d   1      -6.712  78.107 118.577  0.00  0.00     0.149 HD
ENDBRANCH   6  13
BRANCH   5  18
ATOM     18  N   LIG d   1     -10.331  78.912 119.098  0.00  0.00     0.381 N 
ATOM     19  H   LIG d   1     -10.659  79.424 118.304  0.00  0.00    -0.090 HD
ATOM     20  H   LIG d   1      -9.639  79.468 119.568  0.00  0.00    -0.090 HD
ATOM     21  H   LIG d   1     -11.089  78.719 119.715  0.00  0.00    -0.090 HD
ENDBRANCH   5  18
BRANCH   3  22
ATOM     22  C   LIG d   1     -11.151  74.484 117.467  0.00  0.00     0.382 C 
ATOM     23  O   LIG d   1     -10.653  73.334 117.531  0.00  0.00    -0.241 OA
ATOM     24  O   LIG d   1     -12.385  74.613 117.353  0.00  0.00    -0.241 OA
ENDBRANCH   3  22
TORSDOF 7
ENDMDL
MODEL 8
REMARK VINA RESULT:      -4.9     13.849     16.160
REMARK  7 active torsions:
REMARK  status: ('A' for Active; 'I' for Inactive)
REMARK    1  A    between atoms: C_2  and  C_3 
REMARK    2  A    between atoms: C_3  and  O_6 
REMARK    3  A    between atoms: C_3  and  C_4 
REMARK    4  A    between atoms: C_7  and  O_6 
REMARK    5  A    between atoms: C_9  and  C_10 
REMARK    6  A    between atoms: N_15  and  C_14 
REMARK    7  A    between atoms: N_20  and  C_19 
REMARK       I    between atoms: C_22  and  N_20 
ROOT
ATOM      1  C   LIG d   1      -7.844  76.058 117.293  0.00  0.00     0.161 C 
ATOM      2  C   LIG d   1      -8.153  77.406 117.539  0.00  0.00     0.016 C 
ATOM      3  C   LIG d   1      -9.388  77.835 118.077  0.00  0.00     0.038 C 
ATOM      4  C   LIG d   1     -10.347  76.927 118.550  0.00  0.00     0.028 C 
ATOM      5  C   LIG d   1     -10.287  75.569 117.859  0.00  0.00    -0.047 C 
ATOM      6  C   LIG d   1      -8.834  75.045 117.906  0.00  0.00     0.091 C 
ENDROOT
BRANCH   1   7
ATOM      7  O   LIG d   1      -6.501  75.776 117.734  0.00  0.00    -0.368 OA
BRANCH   7   8
ATOM      8  C   LIG d   1      -5.481  75.767 116.706  0.00  0.00     0.119 C 
BRANCH   8   9
ATOM      9  C   LIG d   1      -5.342  74.316 116.204  0.00  0.00     0.028 C 
ATOM     10  C   LIG d   1      -5.612  74.189 114.695  0.00  0.00     0.006 C 
ENDBRANCH   8   9
BRANCH   8  11
ATOM     11  C   LIG d   1      -4.108  76.130 117.280  0.00  0.00     0.028 C 
ATOM     12  C   LIG d   1      -3.199  74.905 117.470  0.00  0.00     0.006 C 
ENDBRANCH   8  11
ENDBRANCH   7   8
ENDBRANCH   1   7
BRANCH   6  13
ATOM     13  N   LIG d   1      -8.671  73.760 117.177  0.00  0.00    -0.311 N 
ATOM     14  C   LIG d   1      -8.826  72.568 117.751  0.00  0.00     0.210 C 
ATOM     15  C   LIG d   1      -8.592  71.370 116.825  0.00  0.00     0.109 C 
ATOM     16  O   LIG d   1      -9.165  72.389 118.930  0.00  0.00    -0.276 OA
ATOM     17  H   LIG d   1      -8.426  73.813 116.208  0.00  0.00     0.149 HD
ENDBRANCH   6  13
BRANCH   5  18
ATOM     18  N   LIG d   1     -11.245  74.679 118.542  0.00  0.00     0.381 N 
ATOM     19  H   LIG d   1     -11.223  73.771 118.122  0.00  0.00    -0.090 HD
ATOM     20  H   LIG d   1     -12.171  75.054 118.433  0.00  0.00    -0.090 HD
ATOM     21  H   LIG d   1     -11.018  74.612 119.509  0.00  0.00    -0.090 HD
ENDBRANCH   5  18
BRANCH   3  22
ATOM     22  C   LIG d   1      -9.690  79.188 118.109  0.00  0.00     0.382 C 
ATOM     23  O   LIG d   1     -10.852  79.564 118.394  0.00  0.00    -0.241 OA
ATOM     24  O   LIG d   1      -8.826  80.036 117.814  0.00  0.00    -0.241 OA
ENDBRANCH   3  22
TORSDOF 7
ENDMDL
MODEL 9
REMARK VINA RESULT:      -4.9     26.487     29.339
REMARK  7 active torsions:
REMARK  status: ('A' for Active; 'I' for Inactive)
REMARK    1  A    between atoms: C_2  and  C_3 
REMARK    2  A    between atoms: C_3  and  O_6 
REMARK    3  A    between atoms: C_3  and  C_4 
REMARK    4  A    between atoms: C_7  and  O_6 
REMARK    5  A    between atoms: C_9  and  C_10 
REMARK    6  A    between atoms: N_15  and  C_14 
REMARK    7  A    between atoms: N_20  and  C_19 
REMARK       I    between atoms: C_22  and  N_20 
ROOT
ATOM      1  C   LIG d   1     -16.040  64.623 114.945  0.00  0.00     0.161 C 
ATOM      2  C   LIG d   1     -17.035  64.991 114.024  0.00  0.00     0.016 C 
ATOM      3  C   LIG d   1     -18.390  64.607 114.147  0.00  0.00     0.038 C 
ATOM      4  C   LIG d   1     -18.874  63.949 115.288  0.00  0.00     0.028 C 
ATOM      5  C   LIG d   1     -17.814  63.118 116.003  0.00  0.00    -0.047 C 
ATOM      6  C   LIG d   1     -16.569  64.000 116.254  0.00  0.00     0.091 C 
ENDROOT
BRANCH   1   7
ATOM      7  O   LIG d   1     -15.198  65.756 115.234  0.00  0.00    -0.368 OA
BRANCH   7   8
ATOM      8  C   LIG d   1     -15.876  66.955 115.686  0.00  0.00     0.119 C 
BRANCH   8   9
ATOM      9  C   LIG d   1     -15.145  68.161 115.066  0.00  0.00     0.028 C 
ATOM     10  C   LIG d   1     -15.210  68.162 113.530  0.00  0.00     0.006 C 
ENDBRANCH   8   9
BRANCH   8  11
ATOM     11  C   LIG d   1     -15.742  67.133 117.201  0.00  0.00     0.028 C 
ATOM     12  C   LIG d   1     -14.334  66.796 117.718  0.00  0.00     0.006 C 
ENDBRANCH   8  11
ENDBRANCH   7   8
ENDBRANCH   1   7
BRANCH   6  13
ATOM     13  N   LIG d   1     -15.452  63.241 116.874  0.00  0.00    -0.311 N 
ATOM     14  C   LIG d   1     -15.245  63.186 118.189  0.00  0.00     0.210 C 
ATOM     15  C   LIG d   1     -14.025  62.364 118.617  0.00  0.00     0.109 C 
ATOM     16  O   LIG d   1     -15.973  63.713 119.043  0.00  0.00    -0.276 OA
ATOM     17  H   LIG d   1     -14.831  62.757 116.256  0.00  0.00     0.149 HD
ENDBRANCH   6  13
BRANCH   5  18
ATOM     18  N   LIG d   1     -18.417  62.601 117.246  0.00  0.00     0.381 N 
ATOM     19  H   LIG d   1     -18.927  61.763 117.052  0.00  0.00    -0.090 HD
ATOM     20  H   LIG d   1     -19.059  63.286 117.605  0.00  0.00    -0.090 HD
ATOM     21  H   LIG d   1     -17.705  62.417 117.919  0.00  0.00    -0.090 HD
ENDBRANCH   5  18
BRANCH   3  22
ATOM     22  C   LIG d   1     -19.269  64.845 113.102  0.00  0.00     0.382 C 
ATOM     23  O   LIG d   1     -20.383  65.377 113.328  0.00  0.00    -0.241 OA
ATOM     24  O   LIG d   1     -18.982  64.494 111.942  0.00  0.00    -0.241 OA
ENDBRANCH   3  22
TORSDOF 7
ENDMDL
