MODEL 1
REMARK VINA RESULT:      -5.9      0.000      0.000
REMARK  7 active torsions:
REMARK  status: ('A' for Active; 'I' for Inactive)
REMARK    1  A    between atoms: C_2  and  C_3 
REMARK    2  A    between atoms: C_3  and  O_6 
REMARK    3  A    between atoms: C_3  and  C_4 
REMARK    4  A    between atoms: C_7  and  O_6 
REMARK    5  A    between atoms: C_9  and  C_10 
REMARK    6  A    between atoms: N_15  and  C_14 
REMARK    7  A    between atoms: N_20  and  C_19 
REMARK       I    between atoms: C_22  and  N_20 
ROOT
ATOM      1  C   LIG d   1       0.102  83.689 112.841  0.00  0.00     0.161 C 
ATOM      2  C   LIG d   1       0.891  84.763 112.396  0.00  0.00     0.016 C 
ATOM      3  C   LIG d   1       1.320  84.912 111.057  0.00  0.00     0.038 C 
ATOM      4  C   LIG d   1       0.860  84.070 110.034  0.00  0.00     0.028 C 
ATOM      5  C   LIG d   1       0.469  82.680 110.522  0.00  0.00    -0.047 C 
ATOM      6  C   LIG d   1      -0.502  82.822 111.716  0.00  0.00     0.091 C 
ENDROOT
BRANCH   1   7
ATOM      7  O   LIG d   1      -0.938  84.174 113.712  0.00  0.00    -0.368 OA
BRANCH   7   8
ATOM      8  C   LIG d   1      -0.860  83.750 115.095  0.00  0.00     0.119 C 
BRANCH   8   9
ATOM      9  C   LIG d   1      -2.265  83.911 115.709  0.00  0.00     0.028 C 
ATOM     10  C   LIG d   1      -3.010  82.571 115.828  0.00  0.00     0.006 C 
ENDBRANCH   8   9
BRANCH   8  11
ATOM     11  C   LIG d   1       0.047  84.675 115.912  0.00  0.00     0.028 C 
ATOM     12  C   LIG d   1      -0.258  86.164 115.683  0.00  0.00     0.006 C 
ENDBRANCH   8  11
ENDBRANCH   7   8
ENDBRANCH   1   7
BRANCH   6  13
ATOM     13  N   LIG d   1      -0.868  81.509 112.308  0.00  0.00    -0.311 N 
ATOM     14  C   LIG d   1      -2.124  81.137 112.549  0.00  0.00     0.210 C 
ATOM     15  C   LIG d   1      -2.279  79.751 113.182  0.00  0.00     0.109 C 
ATOM     16  O   LIG d   1      -3.127  81.811 112.268  0.00  0.00    -0.276 OA
ATOM     17  H   LIG d   1      -0.117  80.887 112.538  0.00  0.00     0.149 HD
ENDBRANCH   6  13
BRANCH   5  18
ATOM     18  N   LIG d   1      -0.120  81.956 109.380  0.00  0.00     0.381 N 
ATOM     19  H   LIG d   1      -0.936  82.437 109.059  0.00  0.00    -0.090 HD
ATOM     20  H   LIG d   1      -0.394  81.038 109.684  0.00  0.00    -0.090 HD
ATOM     21  H   LIG d   1       0.545  81.884 108.642  0.00  0.00    -0.090 HD
ENDBRANCH   5  18
BRANCH   3  22
ATOM     22  C   LIG d   1       2.252  85.888 110.739  0.00  0.00     0.382 C 
ATOM     23  O   LIG d   1       3.432  85.563 110.466  0.00  0.00    -0.241 OA
ATOM     24  O   LIG d   1       1.937  87.093 110.764  0.00  0.00    -0.241 OA
ENDBRANCH   3  22
TORSDOF 7
ENDMDL
MODEL 2
REMARK VINA RESULT:      -5.5      2.280      3.407
REMARK  7 active torsions:
REMARK  status: ('A' for Active; 'I' for Inactive)
REMARK    1  A    between atoms: C_2  and  C_3 
REMARK    2  A    between atoms: C_3  and  O_6 
REMARK    3  A    between atoms: C_3  and  C_4 
REMARK    4  A    between atoms: C_7  and  O_6 
REMARK    5  A    between atoms: C_9  and  C_10 
REMARK    6  A    between atoms: N_15  and  C_14 
REMARK    7  A    between atoms: N_20  and  C_19 
REMARK       I    between atoms: C_22  and  N_20 
ROOT
ATOM      1  C   LIG d   1       2.139  84.286 112.724  0.00  0.00     0.161 C 
ATOM      2  C   LIG d   1       2.531  85.497 113.318  0.00  0.00     0.016 C 
ATOM      3  C   LIG d   1       2.490  86.742 112.648  0.00  0.00     0.038 C 
ATOM      4  C   LIG d   1       1.906  86.882 111.380  0.00  0.00     0.028 C 
ATOM      5  C   LIG d   1       1.960  85.608 110.544  0.00  0.00    -0.047 C 
ATOM      6  C   LIG d   1       1.396  84.436 111.380  0.00  0.00     0.091 C 
ENDROOT
BRANCH   1   7
ATOM      7  O   LIG d   1       1.345  83.521 113.652  0.00  0.00    -0.368 OA
BRANCH   7   8
ATOM      8  C   LIG d   1      -0.088  83.725 113.585  0.00  0.00     0.119 C 
BRANCH   8   9
ATOM      9  C   LIG d   1      -0.522  84.397 114.902  0.00  0.00     0.028 C 
ATOM     10  C   LIG d   1       0.373  83.999 116.087  0.00  0.00     0.006 C 
ENDBRANCH   8   9
BRANCH   8  11
ATOM     11  C   LIG d   1      -0.839  82.391 113.544  0.00  0.00     0.028 C 
ATOM     12  C   LIG d   1       0.102  81.179 113.465  0.00  0.00     0.006 C 
ENDBRANCH   8  11
ENDBRANCH   7   8
ENDBRANCH   1   7
BRANCH   6  13
ATOM     13  N   LIG d   1       1.489  83.135 110.667  0.00  0.00    -0.311 N 
ATOM     14  C   LIG d   1       0.470  82.587 110.007  0.00  0.00     0.210 C 
ATOM     15  C   LIG d   1       0.775  81.232 109.359  0.00  0.00     0.109 C 
ATOM     16  O   LIG d   1      -0.646  83.108 109.868  0.00  0.00    -0.276 OA
ATOM     17  H   LIG d   1       2.368  82.658 110.701  0.00  0.00     0.149 HD
ENDBRANCH   6  13
BRANCH   5  18
ATOM     18  N   LIG d   1       1.197  85.855 109.306  0.00  0.00     0.381 N 
ATOM     19  H   LIG d   1       1.234  85.046 108.719  0.00  0.00    -0.090 HD
ATOM     20  H   LIG d   1       1.618  86.622 108.813  0.00  0.00    -0.090 HD
ATOM     21  H   LIG d   1       0.250  86.072 109.526  0.00  0.00    -0.090 HD
ENDBRANCH   5  18
BRANCH   3  22
ATOM     22  C   LIG d   1       3.072  87.856 113.232  0.00  0.00     0.382 C 
ATOM     23  O   LIG d   1       3.919  87.714 114.147  0.00  0.00    -0.241 OA
ATOM     24  O   LIG d   1       2.729  89.003 112.887  0.00  0.00    -0.241 OA
ENDBRANCH   3  22
TORSDOF 7
ENDMDL
MODEL 3
REMARK VINA RESULT:      -5.4      2.036      3.371
REMARK  7 active torsions:
REMARK  status: ('A' for Active; 'I' for Inactive)
REMARK    1  A    between atoms: C_2  and  C_3 
REMARK    2  A    between atoms: C_3  and  O_6 
REMARK    3  A    between atoms: C_3  and  C_4 
REMARK    4  A    between atoms: C_7  and  O_6 
REMARK    5  A    between atoms: C_9  and  C_10 
REMARK    6  A    between atoms: N_15  and  C_14 
REMARK    7  A    between atoms: N_20  and  C_19 
REMARK       I    between atoms: C_22  and  N_20 
ROOT
ATOM      1  C   LIG d   1       0.417  83.105 112.256  0.00  0.00     0.161 C 
ATOM      2  C   LIG d   1       1.472  83.148 111.331  0.00  0.00     0.016 C 
ATOM      3  C   LIG d   1       1.749  82.104 110.418  0.00  0.00     0.038 C 
ATOM      4  C   LIG d   1       0.891  81.005 110.266  0.00  0.00     0.028 C 
ATOM      5  C   LIG d   1       0.097  80.678 111.526  0.00  0.00    -0.047 C 
ATOM      6  C   LIG d   1      -0.597  81.964 112.030  0.00  0.00     0.091 C 
ENDROOT
BRANCH   1   7
ATOM      7  O   LIG d   1      -0.260  84.378 112.284  0.00  0.00    -0.368 OA
BRANCH   7   8
ATOM      8  C   LIG d   1       0.578  85.541 112.495  0.00  0.00     0.119 C 
BRANCH   8   9
ATOM      9  C   LIG d   1       0.271  86.083 113.904  0.00  0.00     0.028 C 
ATOM     10  C   LIG d   1       1.538  86.245 114.760  0.00  0.00     0.006 C 
ENDBRANCH   8   9
BRANCH   8  11
ATOM     11  C   LIG d   1       0.209  86.675 111.535  0.00  0.00     0.028 C 
ATOM     12  C   LIG d   1      -0.425  86.168 110.230  0.00  0.00     0.006 C 
ENDBRANCH   8  11
ENDBRANCH   7   8
ENDBRANCH   1   7
BRANCH   6  13
ATOM     13  N   LIG d   1      -1.327  81.751 113.307  0.00  0.00    -0.311 N 
ATOM     14  C   LIG d   1      -2.647  81.588 113.378  0.00  0.00     0.210 C 
ATOM     15  C   LIG d   1      -3.200  81.403 114.794  0.00  0.00     0.109 C 
ATOM     16  O   LIG d   1      -3.408  81.546 112.399  0.00  0.00    -0.276 OA
ATOM     17  H   LIG d   1      -0.783  81.740 114.147  0.00  0.00     0.149 HD
ENDBRANCH   6  13
BRANCH   5  18
ATOM     18  N   LIG d   1      -0.855  79.603 111.187  0.00  0.00     0.381 N 
ATOM     19  H   LIG d   1      -1.238  79.764 110.277  0.00  0.00    -0.090 HD
ATOM     20  H   LIG d   1      -1.607  79.613 111.852  0.00  0.00    -0.090 HD
ATOM     21  H   LIG d   1      -0.394  78.720 111.209  0.00  0.00    -0.090 HD
ENDBRANCH   5  18
BRANCH   3  22
ATOM     22  C   LIG d   1       2.918  82.135 109.673  0.00  0.00     0.382 C 
ATOM     23  O   LIG d   1       3.412  83.235 109.326  0.00  0.00    -0.241 OA
ATOM     24  O   LIG d   1       3.461  81.076 109.305  0.00  0.00    -0.241 OA
ENDBRANCH   3  22
TORSDOF 7
ENDMDL
MODEL 4
REMARK VINA RESULT:      -5.4     10.583     13.377
REMARK  7 active torsions:
REMARK  status: ('A' for Active; 'I' for Inactive)
REMARK    1  A    between atoms: C_2  and  C_3 
REMARK    2  A    between atoms: C_3  and  O_6 
REMARK    3  A    between atoms: C_3  and  C_4 
REMARK    4  A    between atoms: C_7  and  O_6 
REMARK    5  A    between atoms: C_9  and  C_10 
REMARK    6  A    between atoms: N_15  and  C_14 
REMARK    7  A    between atoms: N_20  and  C_19 
REMARK       I    between atoms: C_22  and  N_20 
ROOT
ATOM      1  C   LIG d   1      -7.635  74.079 118.367  0.00  0.00     0.161 C 
ATOM      2  C   LIG d   1      -6.909  75.136 117.793  0.00  0.00     0.016 C 
ATOM      3  C   LIG d   1      -6.147  75.005 116.609  0.00  0.00     0.038 C 
ATOM      4  C   LIG d   1      -6.183  73.839 115.830  0.00  0.00     0.028 C 
ATOM      5  C   LIG d   1      -6.500  72.582 116.634  0.00  0.00    -0.047 C 
ATOM      6  C   LIG d   1      -7.776  72.830 117.471  0.00  0.00     0.091 C 
ENDROOT
BRANCH   1   7
ATOM      7  O   LIG d   1      -8.934  74.547 118.781  0.00  0.00    -0.368 OA
BRANCH   7   8
ATOM      8  C   LIG d   1      -9.293  75.886 118.359  0.00  0.00     0.119 C 
BRANCH   8   9
ATOM      9  C   LIG d   1      -9.629  76.696 119.626  0.00  0.00     0.028 C 
ATOM     10  C   LIG d   1     -10.955  77.464 119.497  0.00  0.00     0.006 C 
ENDBRANCH   8   9
BRANCH   8  11
ATOM     11  C   LIG d   1     -10.580  75.881 117.528  0.00  0.00     0.028 C 
ATOM     12  C   LIG d   1     -10.576  74.805 116.430  0.00  0.00     0.006 C 
ENDBRANCH   8  11
ENDBRANCH   7   8
ENDBRANCH   1   7
BRANCH   6  13
ATOM     13  N   LIG d   1      -8.109  71.681 118.352  0.00  0.00    -0.311 N 
ATOM     14  C   LIG d   1      -8.923  70.691 117.988  0.00  0.00     0.210 C 
ATOM     15  C   LIG d   1      -9.147  69.614 119.055  0.00  0.00     0.109 C 
ATOM     16  O   LIG d   1      -9.455  70.586 116.873  0.00  0.00    -0.276 OA
ATOM     17  H   LIG d   1      -7.696  71.670 119.263  0.00  0.00     0.149 HD
ENDBRANCH   6  13
BRANCH   5  18
ATOM     18  N   LIG d   1      -6.642  71.466 115.680  0.00  0.00     0.381 N 
ATOM     19  H   LIG d   1      -5.962  70.760 115.881  0.00  0.00    -0.090 HD
ATOM     20  H   LIG d   1      -6.476  71.810 114.751  0.00  0.00    -0.090 HD
ATOM     21  H   LIG d   1      -7.559  71.081 115.740  0.00  0.00    -0.090 HD
ENDBRANCH   5  18
BRANCH   3  22
ATOM     22  C   LIG d   1      -5.307  76.035 116.215  0.00  0.00     0.382 C 
ATOM     23  O   LIG d   1      -4.120  76.066 116.621  0.00  0.00    -0.241 OA
ATOM     24  O   LIG d   1      -5.733  76.956 115.493  0.00  0.00    -0.241 OA
ENDBRANCH   3  22
TORSDOF 7
ENDMDL
MODEL 5
REMARK VINA RESULT:      -5.3      1.604      2.337
REMARK  7 active torsions:
REMARK  status: ('A' for Active; 'I' for Inactive)
REMARK    1  A    between atoms: C_2  and  C_3 
REMARK    2  A    between atoms: C_3  and  O_6 
REMARK    3  A    between atoms: C_3  and  C_4 
REMARK    4  A    between atoms: C_7  and  O_6 
REMARK    5  A    between atoms: C_9  and  C_10 
REMARK    6  A    between atoms: N_15  and  C_14 
REMARK    7  A    between atoms: N_20  and  C_19 
REMARK       I    between atoms: C_22  and  N_20 
ROOT
ATOM      1  C   LIG d   1       0.281  82.818 112.350  0.00  0.00     0.161 C 
ATOM      2  C   LIG d   1       1.323  83.390 111.600  0.00  0.00     0.016 C 
ATOM      3  C   LIG d   1       1.859  82.796 110.434  0.00  0.00     0.038 C 
ATOM      4  C   LIG d   1       1.284  81.657 109.850  0.00  0.00     0.028 C 
ATOM      5  C   LIG d   1       0.554  80.767 110.850  0.00  0.00    -0.047 C 
ATOM      6  C   LIG d   1      -0.433  81.633 111.666  0.00  0.00     0.091 C 
ENDROOT
BRANCH   1   7
ATOM      7  O   LIG d   1      -0.673  83.834 112.715  0.00  0.00    -0.368 OA
BRANCH   7   8
ATOM      8  C   LIG d   1      -0.634  84.279 114.094  0.00  0.00     0.119 C 
BRANCH   8   9
ATOM      9  C   LIG d   1       0.271  85.525 114.153  0.00  0.00     0.028 C 
ATOM     10  C   LIG d   1       0.170  86.260 115.500  0.00  0.00     0.006 C 
ENDBRANCH   8   9
BRANCH   8  11
ATOM     11  C   LIG d   1       0.044  83.242 114.994  0.00  0.00     0.028 C 
ATOM     12  C   LIG d   1      -0.913  82.641 116.036  0.00  0.00     0.006 C 
ENDBRANCH   8  11
ENDBRANCH   7   8
ENDBRANCH   1   7
BRANCH   6  13
ATOM     13  N   LIG d   1      -1.127  80.855 112.725  0.00  0.00    -0.311 N 
ATOM     14  C   LIG d   1      -2.432  80.956 112.972  0.00  0.00     0.210 C 
ATOM     15  C   LIG d   1      -2.942  80.081 114.121  0.00  0.00     0.109 C 
ATOM     16  O   LIG d   1      -3.221  81.664 112.329  0.00  0.00    -0.276 OA
ATOM     17  H   LIG d   1      -0.568  80.233 113.275  0.00  0.00     0.149 HD
ENDBRANCH   6  13
BRANCH   5  18
ATOM     18  N   LIG d   1      -0.112  79.694 110.088  0.00  0.00     0.381 N 
ATOM     19  H   LIG d   1      -0.041  78.830 110.587  0.00  0.00    -0.090 HD
ATOM     20  H   LIG d   1       0.352  79.587 109.204  0.00  0.00    -0.090 HD
ATOM     21  H   LIG d   1      -1.071  79.924 109.943  0.00  0.00    -0.090 HD
ENDBRANCH   5  18
BRANCH   3  22
ATOM     22  C   LIG d   1       3.008  83.320 109.862  0.00  0.00     0.382 C 
ATOM     23  O   LIG d   1       3.835  82.558 109.306  0.00  0.00    -0.241 OA
ATOM     24  O   LIG d   1       3.250  84.540 109.934  0.00  0.00    -0.241 OA
ENDBRANCH   3  22
TORSDOF 7
ENDMDL
MODEL 6
REMARK VINA RESULT:      -5.3     10.822     13.483
REMARK  7 active torsions:
REMARK  status: ('A' for Active; 'I' for Inactive)
REMARK    1  A    between atoms: C_2  and  C_3 
REMARK    2  A    between atoms: C_3  and  O_6 
REMARK    3  A    between atoms: C_3  and  C_4 
REMARK    4  A    between atoms: C_7  and  O_6 
REMARK    5  A    between atoms: C_9  and  C_10 
REMARK    6  A    between atoms: N_15  and  C_14 
REMARK    7  A    between atoms: N_20  and  C_19 
REMARK       I    between atoms: C_22  and  N_20 
ROOT
ATOM      1  C   LIG d   1      -7.813  75.597 119.173  0.00  0.00     0.161 C 
ATOM      2  C   LIG d   1      -9.065  76.153 119.487  0.00  0.00     0.016 C 
ATOM      3  C   LIG d   1      -9.513  77.394 118.980  0.00  0.00     0.038 C 
ATOM      4  C   LIG d   1      -8.798  78.097 117.999  0.00  0.00     0.028 C 
ATOM      5  C   LIG d   1      -7.298  77.824 118.031  0.00  0.00    -0.047 C 
ATOM      6  C   LIG d   1      -7.066  76.296 118.018  0.00  0.00     0.091 C 
ENDROOT
BRANCH   1   7
ATOM      7  O   LIG d   1      -7.959  74.190 118.897  0.00  0.00    -0.368 OA
BRANCH   7   8
ATOM      8  C   LIG d   1      -9.305  73.731 118.621  0.00  0.00     0.119 C 
BRANCH   8   9
ATOM      9  C   LIG d   1      -9.444  72.318 119.220  0.00  0.00     0.028 C 
ATOM     10  C   LIG d   1      -8.931  71.224 118.269  0.00  0.00     0.006 C 
ENDBRANCH   8   9
BRANCH   8  11
ATOM     11  C   LIG d   1      -9.538  73.558 117.117  0.00  0.00     0.028 C 
ATOM     12  C   LIG d   1     -10.418  74.668 116.520  0.00  0.00     0.006 C 
ENDBRANCH   8  11
ENDBRANCH   7   8
ENDBRANCH   1   7
BRANCH   6  13
ATOM     13  N   LIG d   1      -5.628  75.940 118.132  0.00  0.00    -0.311 N 
ATOM     14  C   LIG d   1      -4.960  75.274 117.191  0.00  0.00     0.210 C 
ATOM     15  C   LIG d   1      -3.490  74.992 117.518  0.00  0.00     0.109 C 
ATOM     16  O   LIG d   1      -5.438  74.917 116.104  0.00  0.00    -0.276 OA
ATOM     17  H   LIG d   1      -5.154  76.218 118.969  0.00  0.00     0.149 HD
ENDBRANCH   6  13
BRANCH   5  18
ATOM     18  N   LIG d   1      -6.695  78.510 116.873  0.00  0.00     0.381 N 
ATOM     19  H   LIG d   1      -5.701  78.541 116.977  0.00  0.00    -0.090 HD
ATOM     20  H   LIG d   1      -7.039  79.454 116.839  0.00  0.00    -0.090 HD
ATOM     21  H   LIG d   1      -6.934  78.033 116.031  0.00  0.00    -0.090 HD
ENDBRANCH   5  18
BRANCH   3  22
ATOM     22  C   LIG d   1     -10.672  77.964 119.486  0.00  0.00     0.382 C 
ATOM     23  O   LIG d   1     -10.733  79.204 119.667  0.00  0.00    -0.241 OA
ATOM     24  O   LIG d   1     -11.641  77.249 119.804  0.00  0.00    -0.241 OA
ENDBRANCH   3  22
TORSDOF 7
ENDMDL
MODEL 7
REMARK VINA RESULT:      -5.3      2.784      3.792
REMARK  7 active torsions:
REMARK  status: ('A' for Active; 'I' for Inactive)
REMARK    1  A    between atoms: C_2  and  C_3 
REMARK    2  A    between atoms: C_3  and  O_6 
REMARK    3  A    between atoms: C_3  and  C_4 
REMARK    4  A    between atoms: C_7  and  O_6 
REMARK    5  A    between atoms: C_9  and  C_10 
REMARK    6  A    between atoms: N_15  and  C_14 
REMARK    7  A    between atoms: N_20  and  C_19 
REMARK       I    between atoms: C_22  and  N_20 
ROOT
ATOM      1  C   LIG d   1       2.920  84.349 112.457  0.00  0.00     0.161 C 
ATOM      2  C   LIG d   1       3.338  85.565 113.022  0.00  0.00     0.016 C 
ATOM      3  C   LIG d   1       2.954  86.830 112.520  0.00  0.00     0.038 C 
ATOM      4  C   LIG d   1       1.997  86.964 111.504  0.00  0.00     0.028 C 
ATOM      5  C   LIG d   1       1.932  85.761 110.570  0.00  0.00    -0.047 C 
ATOM      6  C   LIG d   1       1.787  84.476 111.417  0.00  0.00     0.091 C 
ENDROOT
BRANCH   1   7
ATOM      7  O   LIG d   1       2.542  83.430 113.501  0.00  0.00    -0.368 OA
BRANCH   7   8
ATOM      8  C   LIG d   1       2.089  84.025 114.742  0.00  0.00     0.119 C 
BRANCH   8   9
ATOM      9  C   LIG d   1       2.675  83.190 115.896  0.00  0.00     0.028 C 
ATOM     10  C   LIG d   1       3.775  83.940 116.665  0.00  0.00     0.006 C 
ENDBRANCH   8   9
BRANCH   8  11
ATOM     11  C   LIG d   1       0.569  83.915 114.891  0.00  0.00     0.028 C 
ATOM     12  C   LIG d   1      -0.160  85.223 114.547  0.00  0.00     0.006 C 
ENDBRANCH   8  11
ENDBRANCH   7   8
ENDBRANCH   1   7
BRANCH   6  13
ATOM     13  N   LIG d   1       1.801  83.244 110.585  0.00  0.00    -0.311 N 
ATOM     14  C   LIG d   1       0.697  82.655 110.129  0.00  0.00     0.210 C 
ATOM     15  C   LIG d   1       0.934  81.384 109.308  0.00  0.00     0.109 C 
ATOM     16  O   LIG d   1      -0.455  83.082 110.301  0.00  0.00    -0.276 OA
ATOM     17  H   LIG d   1       2.695  82.847 110.372  0.00  0.00     0.149 HD
ENDBRANCH   6  13
BRANCH   5  18
ATOM     18  N   LIG d   1       0.802  85.974 109.646  0.00  0.00     0.381 N 
ATOM     19  H   LIG d   1       1.025  85.598 108.746  0.00  0.00    -0.090 HD
ATOM     20  H   LIG d   1       0.647  86.962 109.545  0.00  0.00    -0.090 HD
ATOM     21  H   LIG d   1      -0.018  85.536 110.003  0.00  0.00    -0.090 HD
ENDBRANCH   5  18
BRANCH   3  22
ATOM     22  C   LIG d   1       3.560  87.977 113.010  0.00  0.00     0.382 C 
ATOM     23  O   LIG d   1       2.919  89.055 113.055  0.00  0.00    -0.241 OA
ATOM     24  O   LIG d   1       4.753  87.958 113.367  0.00  0.00    -0.241 OA
ENDBRANCH   3  22
TORSDOF 7
ENDMDL
MODEL 8
REMARK VINA RESULT:      -5.2     10.298     12.412
REMARK  7 active torsions:
REMARK  status: ('A' for Active; 'I' for Inactive)
REMARK    1  A    between atoms: C_2  and  C_3 
REMARK    2  A    between atoms: C_3  and  O_6 
REMARK    3  A    between atoms: C_3  and  C_4 
REMARK    4  A    between atoms: C_7  and  O_6 
REMARK    5  A    between atoms: C_9  and  C_10 
REMARK    6  A    between atoms: N_15  and  C_14 
REMARK    7  A    between atoms: N_20  and  C_19 
REMARK       I    between atoms: C_22  and  N_20 
ROOT
ATOM      1  C   LIG d   1      -7.762  76.669 117.380  0.00  0.00     0.161 C 
ATOM      2  C   LIG d   1      -7.695  78.071 117.439  0.00  0.00     0.016 C 
ATOM      3  C   LIG d   1      -8.726  78.877 117.974  0.00  0.00     0.038 C 
ATOM      4  C   LIG d   1      -9.836  78.324 118.628  0.00  0.00     0.028 C 
ATOM      5  C   LIG d   1     -10.187  76.921 118.145  0.00  0.00    -0.047 C 
ATOM      6  C   LIG d   1      -8.916  76.042 118.191  0.00  0.00     0.091 C 
ENDROOT
BRANCH   1   7
ATOM      7  O   LIG d   1      -6.500  76.102 117.785  0.00  0.00    -0.368 OA
BRANCH   7   8
ATOM      8  C   LIG d   1      -5.546  75.847 116.725  0.00  0.00     0.119 C 
BRANCH   8   9
ATOM      9  C   LIG d   1      -6.238  74.943 115.687  0.00  0.00     0.028 C 
ATOM     10  C   LIG d   1      -5.871  75.320 114.242  0.00  0.00     0.006 C 
ENDBRANCH   8   9
BRANCH   8  11
ATOM     11  C   LIG d   1      -4.350  75.038 117.234  0.00  0.00     0.028 C 
ATOM     12  C   LIG d   1      -3.000  75.657 116.839  0.00  0.00     0.006 C 
ENDBRANCH   8  11
ENDBRANCH   7   8
ENDBRANCH   1   7
BRANCH   6  13
ATOM     13  N   LIG d   1      -9.152  74.676 117.654  0.00  0.00    -0.311 N 
ATOM     14  C   LIG d   1      -9.142  73.580 118.411  0.00  0.00     0.210 C 
ATOM     15  C   LIG d   1      -9.388  72.270 117.655  0.00  0.00     0.109 C 
ATOM     16  O   LIG d   1      -8.985  73.571 119.641  0.00  0.00    -0.276 OA
ATOM     17  H   LIG d   1      -9.318  74.595 116.671  0.00  0.00     0.149 HD
ENDBRANCH   6  13
BRANCH   5  18
ATOM     18  N   LIG d   1     -11.272  76.412 119.005  0.00  0.00     0.381 N 
ATOM     19  H   LIG d   1     -11.568  75.513 118.681  0.00  0.00    -0.090 HD
ATOM     20  H   LIG d   1     -12.054  77.040 118.947  0.00  0.00    -0.090 HD
ATOM     21  H   LIG d   1     -10.958  76.346 119.948  0.00  0.00    -0.090 HD
ENDBRANCH   5  18
BRANCH   3  22
ATOM     22  C   LIG d   1      -8.670  80.254 117.820  0.00  0.00     0.382 C 
ATOM     23  O   LIG d   1      -9.406  80.993 118.518  0.00  0.00    -0.241 OA
ATOM     24  O   LIG d   1      -7.926  80.765 116.962  0.00  0.00    -0.241 OA
ENDBRANCH   3  22
TORSDOF 7
ENDMDL
MODEL 9
REMARK VINA RESULT:      -5.1      2.364      6.061
REMARK  7 active torsions:
REMARK  status: ('A' for Active; 'I' for Inactive)
REMARK    1  A    between atoms: C_2  and  C_3 
REMARK    2  A    between atoms: C_3  and  O_6 
REMARK    3  A    between atoms: C_3  and  C_4 
REMARK    4  A    between atoms: C_7  and  O_6 
REMARK    5  A    between atoms: C_9  and  C_10 
REMARK    6  A    between atoms: N_15  and  C_14 
REMARK    7  A    between atoms: N_20  and  C_19 
REMARK       I    between atoms: C_22  and  N_20 
ROOT
ATOM      1  C   LIG d   1      -0.158  82.885 112.216  0.00  0.00     0.161 C 
ATOM      2  C   LIG d   1      -0.947  81.755 111.940  0.00  0.00     0.016 C 
ATOM      3  C   LIG d   1      -1.813  81.161 112.886  0.00  0.00     0.038 C 
ATOM      4  C   LIG d   1      -2.064  81.749 114.134  0.00  0.00     0.028 C 
ATOM      5  C   LIG d   1      -0.909  82.607 114.642  0.00  0.00    -0.047 C 
ATOM      6  C   LIG d   1      -0.502  83.606 113.536  0.00  0.00     0.091 C 
ENDROOT
BRANCH   1   7
ATOM      7  O   LIG d   1      -0.221  83.807 111.110  0.00  0.00    -0.368 OA
BRANCH   7   8
ATOM      8  C   LIG d   1       0.831  83.688 110.121  0.00  0.00     0.119 C 
BRANCH   8   9
ATOM      9  C   LIG d   1       2.154  83.457 110.877  0.00  0.00     0.028 C 
ATOM     10  C   LIG d   1       3.102  82.507 110.125  0.00  0.00     0.006 C 
ENDBRANCH   8   9
BRANCH   8  11
ATOM     11  C   LIG d   1       1.027  84.999 109.354  0.00  0.00     0.028 C 
ATOM     12  C   LIG d   1       1.670  86.100 110.212  0.00  0.00     0.006 C 
ENDBRANCH   8  11
ENDBRANCH   7   8
ENDBRANCH   1   7
BRANCH   6  13
ATOM     13  N   LIG d   1       0.676  84.427 113.919  0.00  0.00    -0.311 N 
ATOM     14  C   LIG d   1       0.742  85.745 113.738  0.00  0.00     0.210 C 
ATOM     15  C   LIG d   1       2.055  86.395 114.185  0.00  0.00     0.109 C 
ATOM     16  O   LIG d   1      -0.176  86.442 113.279  0.00  0.00    -0.276 OA
ATOM     17  H   LIG d   1       1.454  83.946 114.327  0.00  0.00     0.149 HD
ENDBRANCH   6  13
BRANCH   5  18
ATOM     18  N   LIG d   1      -1.358  83.268 115.882  0.00  0.00     0.381 N 
ATOM     19  H   LIG d   1      -0.912  84.160 115.971  0.00  0.00    -0.090 HD
ATOM     20  H   LIG d   1      -1.089  82.703 116.668  0.00  0.00    -0.090 HD
ATOM     21  H   LIG d   1      -2.347  83.383 115.869  0.00  0.00    -0.090 HD
ENDBRANCH   5  18
BRANCH   3  22
ATOM     22  C   LIG d   1      -2.408  79.941 112.602  0.00  0.00     0.382 C 
ATOM     23  O   LIG d   1      -3.420  79.572 113.246  0.00  0.00    -0.241 OA
ATOM     24  O   LIG d   1      -1.921  79.186 111.740  0.00  0.00    -0.241 OA
ENDBRANCH   3  22
TORSDOF 7
ENDMDL
