MODEL 1
REMARK VINA RESULT:      -5.7      0.000      0.000
REMARK  7 active torsions:
REMARK  status: ('A' for Active; 'I' for Inactive)
REMARK    1  A    between atoms: C_2  and  C_3 
REMARK    2  A    between atoms: C_3  and  O_6 
REMARK    3  A    between atoms: C_3  and  C_4 
REMARK    4  A    between atoms: C_7  and  O_6 
REMARK    5  A    between atoms: C_9  and  C_10 
REMARK    6  A    between atoms: N_15  and  C_14 
REMARK    7  A    between atoms: N_20  and  C_19 
REMARK       I    between atoms: C_22  and  N_20 
ROOT
ATOM      1  C   LIG d   1       2.610  85.970 112.236  0.00  0.00     0.161 C 
ATOM      2  C   LIG d   1       3.174  87.225 112.517  0.00  0.00     0.016 C 
ATOM      3  C   LIG d   1       3.875  87.515 113.710  0.00  0.00     0.038 C 
ATOM      4  C   LIG d   1       4.191  86.517 114.645  0.00  0.00     0.028 C 
ATOM      5  C   LIG d   1       3.207  85.352 114.642  0.00  0.00    -0.047 C 
ATOM      6  C   LIG d   1       3.040  84.839 113.194  0.00  0.00     0.091 C 
ENDROOT
BRANCH   1   7
ATOM      7  O   LIG d   1       2.889  85.603 110.870  0.00  0.00    -0.368 OA
BRANCH   7   8
ATOM      8  C   LIG d   1       1.763  85.638 109.959  0.00  0.00     0.119 C 
BRANCH   8   9
ATOM      9  C   LIG d   1       0.503  85.948 110.790  0.00  0.00     0.028 C 
ATOM     10  C   LIG d   1      -0.795  85.669 110.015  0.00  0.00     0.006 C 
ENDBRANCH   8   9
BRANCH   8  11
ATOM     11  C   LIG d   1       1.509  84.262 109.335  0.00  0.00     0.028 C 
ATOM     12  C   LIG d   1       2.766  83.380 109.305  0.00  0.00     0.006 C 
ENDBRANCH   8  11
ENDBRANCH   7   8
ENDBRANCH   1   7
BRANCH   6  13
ATOM     13  N   LIG d   1       2.030  83.753 113.090  0.00  0.00    -0.311 N 
ATOM     14  C   LIG d   1       2.328  82.509 112.720  0.00  0.00     0.210 C 
ATOM     15  C   LIG d   1       1.135  81.550 112.659  0.00  0.00     0.109 C 
ATOM     16  O   LIG d   1       3.471  82.100 112.469  0.00  0.00    -0.276 OA
ATOM     17  H   LIG d   1       1.082  83.990 113.306  0.00  0.00     0.149 HD
ENDBRANCH   6  13
BRANCH   5  18
ATOM     18  N   LIG d   1       3.731  84.325 115.562  0.00  0.00     0.381 N 
ATOM     19  H   LIG d   1       3.073  83.575 115.643  0.00  0.00    -0.090 HD
ATOM     20  H   LIG d   1       3.855  84.735 116.471  0.00  0.00    -0.090 HD
ATOM     21  H   LIG d   1       4.602  83.977 115.225  0.00  0.00    -0.090 HD
ENDBRANCH   5  18
BRANCH   3  22
ATOM     22  C   LIG d   1       4.233  88.823 113.997  0.00  0.00     0.382 C 
ATOM     23  O   LIG d   1       4.322  89.666 113.072  0.00  0.00    -0.241 OA
ATOM     24  O   LIG d   1       4.510  89.161 115.164  0.00  0.00    -0.241 OA
ENDBRANCH   3  22
TORSDOF 7
ENDMDL
MODEL 2
REMARK VINA RESULT:      -5.6      2.196      3.462
REMARK  7 active torsions:
REMARK  status: ('A' for Active; 'I' for Inactive)
REMARK    1  A    between atoms: C_2  and  C_3 
REMARK    2  A    between atoms: C_3  and  O_6 
REMARK    3  A    between atoms: C_3  and  C_4 
REMARK    4  A    between atoms: C_7  and  O_6 
REMARK    5  A    between atoms: C_9  and  C_10 
REMARK    6  A    between atoms: N_15  and  C_14 
REMARK    7  A    between atoms: N_20  and  C_19 
REMARK       I    between atoms: C_22  and  N_20 
ROOT
ATOM      1  C   LIG d   1       2.776  83.746 113.123  0.00  0.00     0.161 C 
ATOM      2  C   LIG d   1       2.447  84.768 112.217  0.00  0.00     0.016 C 
ATOM      3  C   LIG d   1       2.672  86.140 112.476  0.00  0.00     0.038 C 
ATOM      4  C   LIG d   1       3.385  86.575 113.602  0.00  0.00     0.028 C 
ATOM      5  C   LIG d   1       3.291  85.617 114.786  0.00  0.00    -0.047 C 
ATOM      6  C   LIG d   1       3.656  84.193 114.310  0.00  0.00     0.091 C 
ENDROOT
BRANCH   1   7
ATOM      7  O   LIG d   1       3.400  82.653 112.421  0.00  0.00    -0.368 OA
BRANCH   7   8
ATOM      8  C   LIG d   1       3.017  82.486 111.034  0.00  0.00     0.119 C 
BRANCH   8   9
ATOM      9  C   LIG d   1       2.206  81.180 110.931  0.00  0.00     0.028 C 
ATOM     10  C   LIG d   1       0.689  81.427 110.961  0.00  0.00     0.006 C 
ENDBRANCH   8   9
BRANCH   8  11
ATOM     11  C   LIG d   1       4.243  82.273 110.140  0.00  0.00     0.028 C 
ATOM     12  C   LIG d   1       4.156  80.986 109.306  0.00  0.00     0.006 C 
ENDBRANCH   8  11
ENDBRANCH   7   8
ENDBRANCH   1   7
BRANCH   6  13
ATOM     13  N   LIG d   1       3.508  83.180 115.387  0.00  0.00    -0.311 N 
ATOM     14  C   LIG d   1       4.522  82.756 116.139  0.00  0.00     0.210 C 
ATOM     15  C   LIG d   1       4.155  81.692 117.179  0.00  0.00     0.109 C 
ATOM     16  O   LIG d   1       5.684  83.183 116.066  0.00  0.00    -0.276 OA
ATOM     17  H   LIG d   1       2.592  82.803 115.535  0.00  0.00     0.149 HD
ENDBRANCH   6  13
BRANCH   5  18
ATOM     18  N   LIG d   1       4.189  86.123 115.841  0.00  0.00     0.381 N 
ATOM     19  H   LIG d   1       3.650  86.440 116.622  0.00  0.00    -0.090 HD
ATOM     20  H   LIG d   1       4.709  86.903 115.479  0.00  0.00    -0.090 HD
ATOM     21  H   LIG d   1       4.815  85.403 116.130  0.00  0.00    -0.090 HD
ENDBRANCH   5  18
BRANCH   3  22
ATOM     22  C   LIG d   1       2.145  87.095 111.620  0.00  0.00     0.382 C 
ATOM     23  O   LIG d   1       1.781  86.770 110.464  0.00  0.00    -0.241 OA
ATOM     24  O   LIG d   1       2.071  88.288 111.974  0.00  0.00    -0.241 OA
ENDBRANCH   3  22
TORSDOF 7
ENDMDL
MODEL 3
REMARK VINA RESULT:      -5.6      2.361      4.657
REMARK  7 active torsions:
REMARK  status: ('A' for Active; 'I' for Inactive)
REMARK    1  A    between atoms: C_2  and  C_3 
REMARK    2  A    between atoms: C_3  and  O_6 
REMARK    3  A    between atoms: C_3  and  C_4 
REMARK    4  A    between atoms: C_7  and  O_6 
REMARK    5  A    between atoms: C_9  and  C_10 
REMARK    6  A    between atoms: N_15  and  C_14 
REMARK    7  A    between atoms: N_20  and  C_19 
REMARK       I    between atoms: C_22  and  N_20 
ROOT
ATOM      1  C   LIG d   1       3.342  83.602 112.226  0.00  0.00     0.161 C 
ATOM      2  C   LIG d   1       3.535  84.948 112.579  0.00  0.00     0.016 C 
ATOM      3  C   LIG d   1       2.910  86.025 111.910  0.00  0.00     0.038 C 
ATOM      4  C   LIG d   1       1.925  85.819 110.932  0.00  0.00     0.028 C 
ATOM      5  C   LIG d   1       2.070  84.492 110.196  0.00  0.00    -0.047 C 
ATOM      6  C   LIG d   1       2.186  83.352 111.235  0.00  0.00     0.091 C 
ENDROOT
BRANCH   1   7
ATOM      7  O   LIG d   1       3.164  82.806 113.414  0.00  0.00    -0.368 OA
BRANCH   7   8
ATOM      8  C   LIG d   1       3.223  83.519 114.674  0.00  0.00     0.119 C 
BRANCH   8   9
ATOM      9  C   LIG d   1       3.783  82.547 115.731  0.00  0.00     0.028 C 
ATOM     10  C   LIG d   1       5.010  83.117 116.461  0.00  0.00     0.006 C 
ENDBRANCH   8   9
BRANCH   8  11
ATOM     11  C   LIG d   1       1.823  83.893 115.168  0.00  0.00     0.028 C 
ATOM     12  C   LIG d   1       1.770  85.292 115.804  0.00  0.00     0.006 C 
ENDBRANCH   8  11
ENDBRANCH   7   8
ENDBRANCH   1   7
BRANCH   6  13
ATOM     13  N   LIG d   1       2.416  82.028 110.600  0.00  0.00    -0.311 N 
ATOM     14  C   LIG d   1       1.434  81.180 110.299  0.00  0.00     0.210 C 
ATOM     15  C   LIG d   1       1.891  79.861 109.668  0.00  0.00     0.109 C 
ATOM     16  O   LIG d   1       0.227  81.408 110.464  0.00  0.00    -0.276 OA
ATOM     17  H   LIG d   1       3.364  81.775 110.402  0.00  0.00     0.149 HD
ENDBRANCH   6  13
BRANCH   5  18
ATOM     18  N   LIG d   1       0.903  84.345 109.306  0.00  0.00     0.381 N 
ATOM     19  H   LIG d   1       1.060  84.850 108.457  0.00  0.00    -0.090 HD
ATOM     20  H   LIG d   1       0.096  84.736 109.761  0.00  0.00    -0.090 HD
ATOM     21  H   LIG d   1       0.746  83.382 109.105  0.00  0.00    -0.090 HD
ENDBRANCH   5  18
BRANCH   3  22
ATOM     22  C   LIG d   1       3.298  87.326 112.190  0.00  0.00     0.382 C 
ATOM     23  O   LIG d   1       2.447  88.248 112.192  0.00  0.00    -0.241 OA
ATOM     24  O   LIG d   1       4.496  87.598 112.396  0.00  0.00    -0.241 OA
ENDBRANCH   3  22
TORSDOF 7
ENDMDL
MODEL 4
REMARK VINA RESULT:      -5.5      2.111      2.382
REMARK  7 active torsions:
REMARK  status: ('A' for Active; 'I' for Inactive)
REMARK    1  A    between atoms: C_2  and  C_3 
REMARK    2  A    between atoms: C_3  and  O_6 
REMARK    3  A    between atoms: C_3  and  C_4 
REMARK    4  A    between atoms: C_7  and  O_6 
REMARK    5  A    between atoms: C_9  and  C_10 
REMARK    6  A    between atoms: N_15  and  C_14 
REMARK    7  A    between atoms: N_20  and  C_19 
REMARK       I    between atoms: C_22  and  N_20 
ROOT
ATOM      1  C   LIG d   1       1.325  84.799 113.876  0.00  0.00     0.161 C 
ATOM      2  C   LIG d   1       1.614  86.012 113.230  0.00  0.00     0.016 C 
ATOM      3  C   LIG d   1       2.819  86.727 113.418  0.00  0.00     0.038 C 
ATOM      4  C   LIG d   1       3.889  86.196 114.155  0.00  0.00     0.028 C 
ATOM      5  C   LIG d   1       3.451  85.210 115.233  0.00  0.00    -0.047 C 
ATOM      6  C   LIG d   1       2.525  84.149 114.597  0.00  0.00     0.091 C 
ENDROOT
BRANCH   1   7
ATOM      7  O   LIG d   1       0.742  83.873 112.939  0.00  0.00    -0.368 OA
BRANCH   7   8
ATOM      8  C   LIG d   1       1.117  84.050 111.550  0.00  0.00     0.119 C 
BRANCH   8   9
ATOM      9  C   LIG d   1      -0.176  84.013 110.713  0.00  0.00     0.028 C 
ATOM     10  C   LIG d   1      -0.515  85.380 110.095  0.00  0.00     0.006 C 
ENDBRANCH   8   9
BRANCH   8  11
ATOM     11  C   LIG d   1       1.961  82.875 111.047  0.00  0.00     0.028 C 
ATOM     12  C   LIG d   1       3.471  83.156 111.109  0.00  0.00     0.006 C 
ENDBRANCH   8  11
ENDBRANCH   7   8
ENDBRANCH   1   7
BRANCH   6  13
ATOM     13  N   LIG d   1       1.984  83.194 115.599  0.00  0.00    -0.311 N 
ATOM     14  C   LIG d   1       2.592  82.057 115.931  0.00  0.00     0.210 C 
ATOM     15  C   LIG d   1       1.854  81.208 116.971  0.00  0.00     0.109 C 
ATOM     16  O   LIG d   1       3.689  81.685 115.487  0.00  0.00    -0.276 OA
ATOM     17  H   LIG d   1       1.113  83.432 116.032  0.00  0.00     0.149 HD
ENDBRANCH   6  13
BRANCH   5  18
ATOM     18  N   LIG d   1       4.670  84.631 115.829  0.00  0.00     0.381 N 
ATOM     19  H   LIG d   1       4.443  84.177 116.691  0.00  0.00    -0.090 HD
ATOM     20  H   LIG d   1       5.319  85.372 116.025  0.00  0.00    -0.090 HD
ATOM     21  H   LIG d   1       5.081  83.978 115.199  0.00  0.00    -0.090 HD
ENDBRANCH   5  18
BRANCH   3  22
ATOM     22  C   LIG d   1       2.948  88.006 112.899  0.00  0.00     0.382 C 
ATOM     23  O   LIG d   1       3.831  88.778 113.346  0.00  0.00    -0.241 OA
ATOM     24  O   LIG d   1       2.165  88.413 112.020  0.00  0.00    -0.241 OA
ENDBRANCH   3  22
TORSDOF 7
ENDMDL
MODEL 5
REMARK VINA RESULT:      -5.4      8.301     11.673
REMARK  7 active torsions:
REMARK  status: ('A' for Active; 'I' for Inactive)
REMARK    1  A    between atoms: C_2  and  C_3 
REMARK    2  A    between atoms: C_3  and  O_6 
REMARK    3  A    between atoms: C_3  and  C_4 
REMARK    4  A    between atoms: C_7  and  O_6 
REMARK    5  A    between atoms: C_9  and  C_10 
REMARK    6  A    between atoms: N_15  and  C_14 
REMARK    7  A    between atoms: N_20  and  C_19 
REMARK       I    between atoms: C_22  and  N_20 
ROOT
ATOM      1  C   LIG d   1      -1.715  75.836 115.050  0.00  0.00     0.161 C 
ATOM      2  C   LIG d   1      -1.547  74.979 116.151  0.00  0.00     0.016 C 
ATOM      3  C   LIG d   1      -0.815  75.332 117.307  0.00  0.00     0.038 C 
ATOM      4  C   LIG d   1      -0.324  76.632 117.506  0.00  0.00     0.028 C 
ATOM      5  C   LIG d   1      -0.035  77.376 116.207  0.00  0.00    -0.047 C 
ATOM      6  C   LIG d   1      -1.282  77.296 115.296  0.00  0.00     0.091 C 
ENDROOT
BRANCH   1   7
ATOM      7  O   LIG d   1      -3.083  75.789 114.599  0.00  0.00    -0.368 OA
BRANCH   7   8
ATOM      8  C   LIG d   1      -4.080  75.507 115.612  0.00  0.00     0.119 C 
BRANCH   8   9
ATOM      9  C   LIG d   1      -5.283  74.851 114.908  0.00  0.00     0.028 C 
ATOM     10  C   LIG d   1      -6.311  75.884 114.417  0.00  0.00     0.006 C 
ENDBRANCH   8   9
BRANCH   8  11
ATOM     11  C   LIG d   1      -4.626  76.797 116.230  0.00  0.00     0.028 C 
ATOM     12  C   LIG d   1      -4.336  76.905 117.736  0.00  0.00     0.006 C 
ENDBRANCH   8  11
ENDBRANCH   7   8
ENDBRANCH   1   7
BRANCH   6  13
ATOM     13  N   LIG d   1      -1.055  77.927 113.969  0.00  0.00    -0.311 N 
ATOM     14  C   LIG d   1      -1.882  78.822 113.432  0.00  0.00     0.210 C 
ATOM     15  C   LIG d   1      -1.472  79.332 112.047  0.00  0.00     0.109 C 
ATOM     16  O   LIG d   1      -2.900  79.265 113.984  0.00  0.00    -0.276 OA
ATOM     17  H   LIG d   1      -0.236  77.648 113.466  0.00  0.00     0.149 HD
ENDBRANCH   6  13
BRANCH   5  18
ATOM     18  N   LIG d   1       0.337  78.759 116.559  0.00  0.00     0.381 N 
ATOM     19  H   LIG d   1      -0.127  79.030 117.403  0.00  0.00    -0.090 HD
ATOM     20  H   LIG d   1       0.036  79.374 115.823  0.00  0.00    -0.090 HD
ATOM     21  H   LIG d   1       1.324  78.827 116.676  0.00  0.00    -0.090 HD
ENDBRANCH   5  18
BRANCH   3  22
ATOM     22  C   LIG d   1      -0.532  74.368 118.263  0.00  0.00     0.382 C 
ATOM     23  O   LIG d   1       0.409  74.546 119.074  0.00  0.00    -0.241 OA
ATOM     24  O   LIG d   1      -1.178  73.303 118.296  0.00  0.00    -0.241 OA
ENDBRANCH   3  22
TORSDOF 7
ENDMDL
MODEL 6
REMARK VINA RESULT:      -5.2     11.657     12.776
REMARK  7 active torsions:
REMARK  status: ('A' for Active; 'I' for Inactive)
REMARK    1  A    between atoms: C_2  and  C_3 
REMARK    2  A    between atoms: C_3  and  O_6 
REMARK    3  A    between atoms: C_3  and  C_4 
REMARK    4  A    between atoms: C_7  and  O_6 
REMARK    5  A    between atoms: C_9  and  C_10 
REMARK    6  A    between atoms: N_15  and  C_14 
REMARK    7  A    between atoms: N_20  and  C_19 
REMARK       I    between atoms: C_22  and  N_20 
ROOT
ATOM      1  C   LIG d   1      -6.542  92.643 117.111  0.00  0.00     0.161 C 
ATOM      2  C   LIG d   1      -7.452  93.713 117.076  0.00  0.00     0.016 C 
ATOM      3  C   LIG d   1      -7.323  94.870 117.877  0.00  0.00     0.038 C 
ATOM      4  C   LIG d   1      -6.185  95.105 118.663  0.00  0.00     0.028 C 
ATOM      5  C   LIG d   1      -5.485  93.827 119.113  0.00  0.00    -0.047 C 
ATOM      6  C   LIG d   1      -5.235  92.931 117.879  0.00  0.00     0.091 C 
ENDROOT
BRANCH   1   7
ATOM      7  O   LIG d   1      -6.248  92.208 115.768  0.00  0.00    -0.368 OA
BRANCH   7   8
ATOM      8  C   LIG d   1      -7.003  91.069 115.287  0.00  0.00     0.119 C 
BRANCH   8   9
ATOM      9  C   LIG d   1      -7.541  90.317 116.520  0.00  0.00     0.028 C 
ATOM     10  C   LIG d   1      -8.755  89.434 116.185  0.00  0.00     0.006 C 
ENDBRANCH   8   9
BRANCH   8  11
ATOM     11  C   LIG d   1      -6.100  90.067 114.563  0.00  0.00     0.028 C 
ATOM     12  C   LIG d   1      -5.069  89.411 115.495  0.00  0.00     0.006 C 
ENDBRANCH   8  11
ENDBRANCH   7   8
ENDBRANCH   1   7
BRANCH   6  13
ATOM     13  N   LIG d   1      -4.630  91.623 118.242  0.00  0.00    -0.311 N 
ATOM     14  C   LIG d   1      -3.316  91.411 118.291  0.00  0.00     0.210 C 
ATOM     15  C   LIG d   1      -2.904  89.985 118.668  0.00  0.00     0.109 C 
ATOM     16  O   LIG d   1      -2.452  92.278 118.089  0.00  0.00    -0.276 OA
ATOM     17  H   LIG d   1      -5.258  90.872 118.452  0.00  0.00     0.149 HD
ENDBRANCH   6  13
BRANCH   5  18
ATOM     18  N   LIG d   1      -4.243  94.219 119.805  0.00  0.00     0.381 N 
ATOM     19  H   LIG d   1      -4.380  95.088 120.282  0.00  0.00    -0.090 HD
ATOM     20  H   LIG d   1      -3.517  94.346 119.122  0.00  0.00    -0.090 HD
ATOM     21  H   LIG d   1      -3.977  93.513 120.455  0.00  0.00    -0.090 HD
ENDBRANCH   5  18
BRANCH   3  22
ATOM     22  C   LIG d   1      -8.359  95.790 117.928  0.00  0.00     0.382 C 
ATOM     23  O   LIG d   1      -8.180  96.961 117.513  0.00  0.00    -0.241 OA
ATOM     24  O   LIG d   1      -9.458  95.477 118.424  0.00  0.00    -0.241 OA
ENDBRANCH   3  22
TORSDOF 7
ENDMDL
MODEL 7
REMARK VINA RESULT:      -5.2      2.444      4.569
REMARK  7 active torsions:
REMARK  status: ('A' for Active; 'I' for Inactive)
REMARK    1  A    between atoms: C_2  and  C_3 
REMARK    2  A    between atoms: C_3  and  O_6 
REMARK    3  A    between atoms: C_3  and  C_4 
REMARK    4  A    between atoms: C_7  and  O_6 
REMARK    5  A    between atoms: C_9  and  C_10 
REMARK    6  A    between atoms: N_15  and  C_14 
REMARK    7  A    between atoms: N_20  and  C_19 
REMARK       I    between atoms: C_22  and  N_20 
ROOT
ATOM      1  C   LIG d   1       2.514  85.269 113.865  0.00  0.00     0.161 C 
ATOM      2  C   LIG d   1       3.184  86.474 114.133  0.00  0.00     0.016 C 
ATOM      3  C   LIG d   1       3.276  87.537 113.205  0.00  0.00     0.038 C 
ATOM      4  C   LIG d   1       2.570  87.526 111.993  0.00  0.00     0.028 C 
ATOM      5  C   LIG d   1       2.293  86.122 111.466  0.00  0.00    -0.047 C 
ATOM      6  C   LIG d   1       1.644  85.283 112.591  0.00  0.00     0.091 C 
ENDROOT
BRANCH   1   7
ATOM      7  O   LIG d   1       1.723  84.885 115.007  0.00  0.00    -0.368 OA
BRANCH   7   8
ATOM      8  C   LIG d   1       2.224  85.306 116.300  0.00  0.00     0.119 C 
BRANCH   8   9
ATOM      9  C   LIG d   1       2.645  84.038 117.068  0.00  0.00     0.028 C 
ATOM     10  C   LIG d   1       1.437  83.226 117.566  0.00  0.00     0.006 C 
ENDBRANCH   8   9
BRANCH   8  11
ATOM     11  C   LIG d   1       1.118  85.944 117.145  0.00  0.00     0.028 C 
ATOM     12  C   LIG d   1       0.429  87.121 116.436  0.00  0.00     0.006 C 
ENDBRANCH   8  11
ENDBRANCH   7   8
ENDBRANCH   1   7
BRANCH   6  13
ATOM     13  N   LIG d   1       1.417  83.871 112.186  0.00  0.00    -0.311 N 
ATOM     14  C   LIG d   1       0.208  83.318 112.103  0.00  0.00     0.210 C 
ATOM     15  C   LIG d   1       0.199  81.843 111.686  0.00  0.00     0.109 C 
ATOM     16  O   LIG d   1      -0.859  83.916 112.303  0.00  0.00    -0.276 OA
ATOM     17  H   LIG d   1       2.226  83.321 111.974  0.00  0.00     0.149 HD
ENDBRANCH   6  13
BRANCH   5  18
ATOM     18  N   LIG d   1       1.435  86.254 110.274  0.00  0.00     0.381 N 
ATOM     19  H   LIG d   1       0.516  85.915 110.479  0.00  0.00    -0.090 HD
ATOM     20  H   LIG d   1       1.819  85.695 109.533  0.00  0.00    -0.090 HD
ATOM     21  H   LIG d   1       1.389  87.208 109.991  0.00  0.00    -0.090 HD
ENDBRANCH   5  18
BRANCH   3  22
ATOM     22  C   LIG d   1       4.114  88.609 113.470  0.00  0.00     0.382 C 
ATOM     23  O   LIG d   1       3.863  89.380 114.428  0.00  0.00    -0.241 OA
ATOM     24  O   LIG d   1       5.093  88.842 112.735  0.00  0.00    -0.241 OA
ENDBRANCH   3  22
TORSDOF 7
ENDMDL
MODEL 8
REMARK VINA RESULT:      -5.1      2.590      6.233
REMARK  7 active torsions:
REMARK  status: ('A' for Active; 'I' for Inactive)
REMARK    1  A    between atoms: C_2  and  C_3 
REMARK    2  A    between atoms: C_3  and  O_6 
REMARK    3  A    between atoms: C_3  and  C_4 
REMARK    4  A    between atoms: C_7  and  O_6 
REMARK    5  A    between atoms: C_9  and  C_10 
REMARK    6  A    between atoms: N_15  and  C_14 
REMARK    7  A    between atoms: N_20  and  C_19 
REMARK       I    between atoms: C_22  and  N_20 
ROOT
ATOM      1  C   LIG d   1       2.311  84.403 113.727  0.00  0.00     0.161 C 
ATOM      2  C   LIG d   1       1.486  83.447 113.111  0.00  0.00     0.016 C 
ATOM      3  C   LIG d   1       0.760  83.694 111.923  0.00  0.00     0.038 C 
ATOM      4  C   LIG d   1       0.931  84.873 111.182  0.00  0.00     0.028 C 
ATOM      5  C   LIG d   1       1.366  86.064 112.030  0.00  0.00    -0.047 C 
ATOM      6  C   LIG d   1       2.596  85.657 112.873  0.00  0.00     0.091 C 
ENDROOT
BRANCH   1   7
ATOM      7  O   LIG d   1       3.547  83.788 114.141  0.00  0.00    -0.368 OA
BRANCH   7   8
ATOM      8  C   LIG d   1       3.720  83.604 115.568  0.00  0.00     0.119 C 
BRANCH   8   9
ATOM      9  C   LIG d   1       5.158  84.033 115.919  0.00  0.00     0.028 C 
ATOM     10  C   LIG d   1       5.218  85.450 116.514  0.00  0.00     0.006 C 
ENDBRANCH   8   9
BRANCH   8  11
ATOM     11  C   LIG d   1       3.633  82.124 115.953  0.00  0.00     0.028 C 
ATOM     12  C   LIG d   1       2.247  81.728 116.485  0.00  0.00     0.006 C 
ENDBRANCH   8  11
ENDBRANCH   7   8
ENDBRANCH   1   7
BRANCH   6  13
ATOM     13  N   LIG d   1       3.035  86.737 113.794  0.00  0.00    -0.311 N 
ATOM     14  C   LIG d   1       4.005  87.602 113.501  0.00  0.00     0.210 C 
ATOM     15  C   LIG d   1       4.314  88.624 114.599  0.00  0.00     0.109 C 
ATOM     16  O   LIG d   1       4.616  87.639 112.422  0.00  0.00    -0.276 OA
ATOM     17  H   LIG d   1       2.570  86.799 114.679  0.00  0.00     0.149 HD
ENDBRANCH   6  13
BRANCH   5  18
ATOM     18  N   LIG d   1       1.639  87.187 111.114  0.00  0.00     0.381 N 
ATOM     19  H   LIG d   1       1.823  88.017 111.642  0.00  0.00    -0.090 HD
ATOM     20  H   LIG d   1       0.826  87.349 110.546  0.00  0.00    -0.090 HD
ATOM     21  H   LIG d   1       2.420  86.973 110.535  0.00  0.00    -0.090 HD
ENDBRANCH   5  18
BRANCH   3  22
ATOM     22  C   LIG d   1      -0.178  82.771 111.486  0.00  0.00     0.382 C 
ATOM     23  O   LIG d   1       0.104  81.988 110.548  0.00  0.00    -0.241 OA
ATOM     24  O   LIG d   1      -1.317  82.743 111.988  0.00  0.00    -0.241 OA
ENDBRANCH   3  22
TORSDOF 7
ENDMDL
MODEL 9
REMARK VINA RESULT:      -5.0      8.655     11.097
REMARK  7 active torsions:
REMARK  status: ('A' for Active; 'I' for Inactive)
REMARK    1  A    between atoms: C_2  and  C_3 
REMARK    2  A    between atoms: C_3  and  O_6 
REMARK    3  A    between atoms: C_3  and  C_4 
REMARK    4  A    between atoms: C_7  and  O_6 
REMARK    5  A    between atoms: C_9  and  C_10 
REMARK    6  A    between atoms: N_15  and  C_14 
REMARK    7  A    between atoms: N_20  and  C_19 
REMARK       I    between atoms: C_22  and  N_20 
ROOT
ATOM      1  C   LIG d   1      -3.157  77.119 115.520  0.00  0.00     0.161 C 
ATOM      2  C   LIG d   1      -2.900  77.206 116.899  0.00  0.00     0.016 C 
ATOM      3  C   LIG d   1      -1.862  77.994 117.449  0.00  0.00     0.038 C 
ATOM      4  C   LIG d   1      -1.103  78.873 116.662  0.00  0.00     0.028 C 
ATOM      5  C   LIG d   1      -0.992  78.440 115.204  0.00  0.00    -0.047 C 
ATOM      6  C   LIG d   1      -2.410  78.156 114.656  0.00  0.00     0.091 C 
ENDROOT
BRANCH   1   7
ATOM      7  O   LIG d   1      -4.576  77.197 115.282  0.00  0.00    -0.368 OA
BRANCH   7   8
ATOM      8  C   LIG d   1      -5.368  76.092 115.783  0.00  0.00     0.119 C 
BRANCH   8   9
ATOM      9  C   LIG d   1      -5.639  75.143 114.600  0.00  0.00     0.028 C 
ATOM     10  C   LIG d   1      -5.930  75.901 113.294  0.00  0.00     0.006 C 
ENDBRANCH   8   9
BRANCH   8  11
ATOM     11  C   LIG d   1      -6.749  76.563 116.250  0.00  0.00     0.028 C 
ATOM     12  C   LIG d   1      -7.655  75.404 116.695  0.00  0.00     0.006 C 
ENDBRANCH   8  11
ENDBRANCH   7   8
ENDBRANCH   1   7
BRANCH   6  13
ATOM     13  N   LIG d   1      -2.387  77.646 113.261  0.00  0.00    -0.311 N 
ATOM     14  C   LIG d   1      -2.560  78.423 112.193  0.00  0.00     0.210 C 
ATOM     15  C   LIG d   1      -2.519  77.692 110.848  0.00  0.00     0.109 C 
ATOM     16  O   LIG d   1      -2.712  79.653 112.231  0.00  0.00    -0.276 OA
ATOM     17  H   LIG d   1      -2.238  76.664 113.137  0.00  0.00     0.149 HD
ENDBRANCH   6  13
BRANCH   5  18
ATOM     18  N   LIG d   1      -0.294  79.513 114.472  0.00  0.00     0.381 N 
ATOM     19  H   LIG d   1       0.183  79.128 113.681  0.00  0.00    -0.090 HD
ATOM     20  H   LIG d   1       0.389  79.930 115.080  0.00  0.00    -0.090 HD
ATOM     21  H   LIG d   1      -0.947  80.202 114.172  0.00  0.00    -0.090 HD
ENDBRANCH   5  18
BRANCH   3  22
ATOM     22  C   LIG d   1      -1.550  77.877 118.795  0.00  0.00     0.382 C 
ATOM     23  O   LIG d   1      -2.141  77.027 119.504  0.00  0.00    -0.241 OA
ATOM     24  O   LIG d   1      -0.718  78.642 119.319  0.00  0.00    -0.241 OA
ENDBRANCH   3  22
TORSDOF 7
ENDMDL
