REMARK  7 active torsions:
REMARK  status: ('A' for Active; 'I' for Inactive)
REMARK    1  A    between atoms: C_2  and  C_3 
REMARK    2  A    between atoms: C_3  and  O_6 
REMARK    3  A    between atoms: C_3  and  C_4 
REMARK    4  A    between atoms: C_7  and  O_6 
REMARK    5  A    between atoms: C_9  and  C_10 
REMARK    6  A    between atoms: N_15  and  C_14 
REMARK    7  A    between atoms: N_20  and  C_19 
REMARK       I    between atoms: C_22  and  N_20 
ROOT
ATOM      1  C   LIG d   1       2.154  -3.265   1.080  0.00  0.00     0.161 C 
ATOM      2  C   LIG d   1       2.978  -3.804   2.082  0.00  0.00     0.016 C 
ATOM      3  C   LIG d   1       4.331  -4.156   1.871  0.00  0.00     0.038 C 
ATOM      4  C   LIG d   1       4.999  -3.850   0.676  0.00  0.00     0.028 C 
ATOM      5  C   LIG d   1       4.072  -3.767  -0.532  0.00  0.00    -0.047 C 
ATOM      6  C   LIG d   1       2.896  -2.821  -0.198  0.00  0.00     0.091 C 
ENDROOT
BRANCH   1   7
ATOM      7  O   LIG d   1       1.383  -2.172   1.617  0.00  0.00    -0.368 OA
BRANCH   7   8
ATOM      8  C   LIG d   1      -0.036  -2.189   1.325  0.00  0.00     0.119 C 
BRANCH   8   9
ATOM      9  C   LIG d   1      -0.512  -0.725   1.256  0.00  0.00     0.028 C 
ATOM     10  C   LIG d   1       0.000   0.000   0.000  0.00  0.00     0.006 C 
ENDBRANCH   8   9
BRANCH   8  11
ATOM     11  C   LIG d   1      -0.833  -2.821   2.470  0.00  0.00     0.028 C 
ATOM     12  C   LIG d   1      -0.951  -4.348   2.342  0.00  0.00     0.006 C 
ENDBRANCH   8  11
ENDBRANCH   7   8
ENDBRANCH   1   7
BRANCH   6  13
ATOM     13  N   LIG d   1       1.897  -2.749  -1.296  0.00  0.00    -0.311 N 
ATOM     14  C   LIG d   1       2.071  -2.023  -2.399  0.00  0.00     0.210 C 
ATOM     15  C   LIG d   1       0.909  -2.073  -3.396  0.00  0.00     0.109 C 
ATOM     16  O   LIG d   1       3.091  -1.368  -2.661  0.00  0.00    -0.276 OA
ATOM     17  H   LIG d   1       1.053  -3.275  -1.180  0.00  0.00     0.149 HD
ENDBRANCH   6  13
BRANCH   5  18
ATOM     18  N   LIG d   1       4.876  -3.307  -1.680  0.00  0.00     0.381 N 
ATOM     19  H   LIG d   1       4.302  -3.259  -2.498  0.00  0.00    -0.090 HD
ATOM     20  H   LIG d   1       5.611  -3.971  -1.849  0.00  0.00    -0.090 HD
ATOM     21  H   LIG d   1       5.266  -2.411  -1.486  0.00  0.00    -0.090 HD
ENDBRANCH   5  18
BRANCH   3  22
ATOM     22  C   LIG d   1       5.019  -4.858   2.849  0.00  0.00     0.382 C 
ATOM     23  O   LIG d   1       5.681  -5.878   2.540  0.00  0.00    -0.241 OA
ATOM     24  O   LIG d   1       4.950  -4.510   4.043  0.00  0.00    -0.241 OA
ENDBRANCH   3  22
TORSDOF 7
