MODEL 1
REMARK VINA RESULT:      -5.0      0.000      0.000
REMARK  7 active torsions:
REMARK  status: ('A' for Active; 'I' for Inactive)
REMARK    1  A    between atoms: C_2  and  C_3 
REMARK    2  A    between atoms: C_3  and  O_6 
REMARK    3  A    between atoms: C_3  and  C_4 
REMARK    4  A    between atoms: C_7  and  O_6 
REMARK    5  A    between atoms: C_9  and  C_10 
REMARK    6  A    between atoms: N_15  and  C_14 
REMARK    7  A    between atoms: N_20  and  C_19 
REMARK       I    between atoms: C_22  and  N_20 
ROOT
ATOM      1  C   LIG d   1      -3.067  90.708 118.597  0.00  0.00     0.161 C 
ATOM      2  C   LIG d   1      -4.251  90.381 117.915  0.00  0.00     0.016 C 
ATOM      3  C   LIG d   1      -5.107  91.345 117.335  0.00  0.00     0.038 C 
ATOM      4  C   LIG d   1      -4.757  92.702 117.268  0.00  0.00     0.028 C 
ATOM      5  C   LIG d   1      -3.817  93.141 118.385  0.00  0.00    -0.047 C 
ATOM      6  C   LIG d   1      -2.613  92.174 118.438  0.00  0.00     0.091 C 
ENDROOT
BRANCH   1   7
ATOM      7  O   LIG d   1      -2.011  89.810 118.202  0.00  0.00    -0.368 OA
BRANCH   7   8
ATOM      8  C   LIG d   1      -1.363  89.078 119.272  0.00  0.00     0.119 C 
BRANCH   8   9
ATOM      9  C   LIG d   1      -0.163  88.330 118.660  0.00  0.00     0.028 C 
ATOM     10  C   LIG d   1       0.540  89.146 117.563  0.00  0.00     0.006 C 
ENDBRANCH   8   9
BRANCH   8  11
ATOM     11  C   LIG d   1      -2.278  87.987 119.834  0.00  0.00     0.028 C 
ATOM     12  C   LIG d   1      -1.542  86.661 120.082  0.00  0.00     0.006 C 
ENDBRANCH   8  11
ENDBRANCH   7   8
ENDBRANCH   1   7
BRANCH   6  13
ATOM     13  N   LIG d   1      -1.686  92.482 119.558  0.00  0.00    -0.311 N 
ATOM     14  C   LIG d   1      -0.375  92.653 119.399  0.00  0.00     0.210 C 
ATOM     15  C   LIG d   1       0.400  92.944 120.688  0.00  0.00     0.109 C 
ATOM     16  O   LIG d   1       0.215  92.624 118.308  0.00  0.00    -0.276 OA
ATOM     17  H   LIG d   1      -2.086  92.555 120.473  0.00  0.00     0.149 HD
ENDBRANCH   6  13
BRANCH   5  18
ATOM     18  N   LIG d   1      -3.426  94.538 118.115  0.00  0.00     0.381 N 
ATOM     19  H   LIG d   1      -2.999  94.934 118.929  0.00  0.00    -0.090 HD
ATOM     20  H   LIG d   1      -4.250  95.071 117.900  0.00  0.00    -0.090 HD
ATOM     21  H   LIG d   1      -2.791  94.572 117.349  0.00  0.00    -0.090 HD
ENDBRANCH   5  18
BRANCH   3  22
ATOM     22  C   LIG d   1      -6.348  90.960 116.850  0.00  0.00     0.382 C 
ATOM     23  O   LIG d   1      -7.308  91.767 116.872  0.00  0.00    -0.241 OA
ATOM     24  O   LIG d   1      -6.530  89.801 116.432  0.00  0.00    -0.241 OA
ENDBRANCH   3  22
TORSDOF 7
ENDMDL
MODEL 2
REMARK VINA RESULT:      -4.9      3.130      4.803
REMARK  7 active torsions:
REMARK  status: ('A' for Active; 'I' for Inactive)
REMARK    1  A    between atoms: C_2  and  C_3 
REMARK    2  A    between atoms: C_3  and  O_6 
REMARK    3  A    between atoms: C_3  and  C_4 
REMARK    4  A    between atoms: C_7  and  O_6 
REMARK    5  A    between atoms: C_9  and  C_10 
REMARK    6  A    between atoms: N_15  and  C_14 
REMARK    7  A    between atoms: N_20  and  C_19 
REMARK       I    between atoms: C_22  and  N_20 
ROOT
ATOM      1  C   LIG d   1      -6.120  93.169 119.590  0.00  0.00     0.161 C 
ATOM      2  C   LIG d   1      -7.482  93.512 119.544  0.00  0.00     0.016 C 
ATOM      3  C   LIG d   1      -7.945  94.832 119.338  0.00  0.00     0.038 C 
ATOM      4  C   LIG d   1      -7.073  95.882 119.011  0.00  0.00     0.028 C 
ATOM      5  C   LIG d   1      -5.659  95.682 119.544  0.00  0.00    -0.047 C 
ATOM      6  C   LIG d   1      -5.157  94.281 119.125  0.00  0.00     0.091 C 
ENDROOT
BRANCH   1   7
ATOM      7  O   LIG d   1      -5.895  91.963 118.834  0.00  0.00    -0.368 OA
BRANCH   7   8
ATOM      8  C   LIG d   1      -5.370  92.138 117.495  0.00  0.00     0.119 C 
BRANCH   8   9
ATOM      9  C   LIG d   1      -6.516  91.847 116.506  0.00  0.00     0.028 C 
ATOM     10  C   LIG d   1      -7.038  90.405 116.622  0.00  0.00     0.006 C 
ENDBRANCH   8   9
BRANCH   8  11
ATOM     11  C   LIG d   1      -4.289  91.100 117.180  0.00  0.00     0.028 C 
ATOM     12  C   LIG d   1      -3.654  90.498 118.444  0.00  0.00     0.006 C 
ENDBRANCH   8  11
ENDBRANCH   7   8
ENDBRANCH   1   7
BRANCH   6  13
ATOM     13  N   LIG d   1      -3.812  93.972 119.677  0.00  0.00    -0.311 N 
ATOM     14  C   LIG d   1      -2.682  94.145 118.995  0.00  0.00     0.210 C 
ATOM     15  C   LIG d   1      -1.407  93.744 119.743  0.00  0.00     0.109 C 
ATOM     16  O   LIG d   1      -2.611  94.622 117.852  0.00  0.00    -0.276 OA
ATOM     17  H   LIG d   1      -3.775  93.609 120.610  0.00  0.00     0.149 HD
ENDBRANCH   6  13
BRANCH   5  18
ATOM     18  N   LIG d   1      -4.824  96.777 119.015  0.00  0.00     0.381 N 
ATOM     19  H   LIG d   1      -3.857  96.536 119.097  0.00  0.00    -0.090 HD
ATOM     20  H   LIG d   1      -4.990  97.605 119.560  0.00  0.00    -0.090 HD
ATOM     21  H   LIG d   1      -5.051  96.949 118.061  0.00  0.00    -0.090 HD
ENDBRANCH   5  18
BRANCH   3  22
ATOM     22  C   LIG d   1      -9.292  95.121 119.498  0.00  0.00     0.382 C 
ATOM     23  O   LIG d   1      -9.642  96.166 120.097  0.00  0.00    -0.241 OA
ATOM     24  O   LIG d   1     -10.161  94.327 119.089  0.00  0.00    -0.241 OA
ENDBRANCH   3  22
TORSDOF 7
ENDMDL
MODEL 3
REMARK VINA RESULT:      -4.7      2.429      4.479
REMARK  7 active torsions:
REMARK  status: ('A' for Active; 'I' for Inactive)
REMARK    1  A    between atoms: C_2  and  C_3 
REMARK    2  A    between atoms: C_3  and  O_6 
REMARK    3  A    between atoms: C_3  and  C_4 
REMARK    4  A    between atoms: C_7  and  O_6 
REMARK    5  A    between atoms: C_9  and  C_10 
REMARK    6  A    between atoms: N_15  and  C_14 
REMARK    7  A    between atoms: N_20  and  C_19 
REMARK       I    between atoms: C_22  and  N_20 
ROOT
ATOM      1  C   LIG d   1      -3.620  93.251 118.344  0.00  0.00     0.161 C 
ATOM      2  C   LIG d   1      -4.926  93.763 118.424  0.00  0.00     0.016 C 
ATOM      3  C   LIG d   1      -6.055  93.099 117.890  0.00  0.00     0.038 C 
ATOM      4  C   LIG d   1      -5.974  91.799 117.371  0.00  0.00     0.028 C 
ATOM      5  C   LIG d   1      -4.597  91.454 116.814  0.00  0.00    -0.047 C 
ATOM      6  C   LIG d   1      -3.528  91.783 117.880  0.00  0.00     0.091 C 
ENDROOT
BRANCH   1   7
ATOM      7  O   LIG d   1      -2.952  93.420 119.610  0.00  0.00    -0.368 OA
BRANCH   7   8
ATOM      8  C   LIG d   1      -1.887  94.401 119.643  0.00  0.00     0.119 C 
BRANCH   8   9
ATOM      9  C   LIG d   1      -0.639  93.711 120.226  0.00  0.00     0.028 C 
ATOM     10  C   LIG d   1      -0.984  92.742 121.369  0.00  0.00     0.006 C 
ENDBRANCH   8   9
BRANCH   8  11
ATOM     11  C   LIG d   1      -2.210  95.542 120.613  0.00  0.00     0.028 C 
ATOM     12  C   LIG d   1      -2.952  96.706 119.938  0.00  0.00     0.006 C 
ENDBRANCH   8  11
ENDBRANCH   7   8
ENDBRANCH   1   7
BRANCH   6  13
ATOM     13  N   LIG d   1      -2.145  91.553 117.386  0.00  0.00    -0.311 N 
ATOM     14  C   LIG d   1      -1.260  90.782 118.015  0.00  0.00     0.210 C 
ATOM     15  C   LIG d   1       0.115  90.697 117.345  0.00  0.00     0.109 C 
ATOM     16  O   LIG d   1      -1.493  90.134 119.046  0.00  0.00    -0.276 OA
ATOM     17  H   LIG d   1      -1.881  92.016 116.538  0.00  0.00     0.149 HD
ENDBRANCH   6  13
BRANCH   5  18
ATOM     18  N   LIG d   1      -4.615  90.029 116.433  0.00  0.00     0.381 N 
ATOM     19  H   LIG d   1      -4.436  89.938 115.453  0.00  0.00    -0.090 HD
ATOM     20  H   LIG d   1      -5.527  89.652 116.624  0.00  0.00    -0.090 HD
ATOM     21  H   LIG d   1      -3.926  89.529 116.952  0.00  0.00    -0.090 HD
ENDBRANCH   5  18
BRANCH   3  22
ATOM     22  C   LIG d   1      -7.276  93.755 117.837  0.00  0.00     0.382 C 
ATOM     23  O   LIG d   1      -7.955  93.900 118.882  0.00  0.00    -0.241 OA
ATOM     24  O   LIG d   1      -7.726  94.164 116.750  0.00  0.00    -0.241 OA
ENDBRANCH   3  22
TORSDOF 7
ENDMDL
MODEL 4
REMARK VINA RESULT:      -4.7      3.162      4.908
REMARK  7 active torsions:
REMARK  status: ('A' for Active; 'I' for Inactive)
REMARK    1  A    between atoms: C_2  and  C_3 
REMARK    2  A    between atoms: C_3  and  O_6 
REMARK    3  A    between atoms: C_3  and  C_4 
REMARK    4  A    between atoms: C_7  and  O_6 
REMARK    5  A    between atoms: C_9  and  C_10 
REMARK    6  A    between atoms: N_15  and  C_14 
REMARK    7  A    between atoms: N_20  and  C_19 
REMARK       I    between atoms: C_22  and  N_20 
ROOT
ATOM      1  C   LIG d   1      -5.937  92.937 119.640  0.00  0.00     0.161 C 
ATOM      2  C   LIG d   1      -5.765  91.811 118.819  0.00  0.00     0.016 C 
ATOM      3  C   LIG d   1      -6.188  91.760 117.470  0.00  0.00     0.038 C 
ATOM      4  C   LIG d   1      -6.678  92.892 116.804  0.00  0.00     0.028 C 
ATOM      5  C   LIG d   1      -7.336  93.906 117.734  0.00  0.00    -0.047 C 
ATOM      6  C   LIG d   1      -6.369  94.219 118.898  0.00  0.00     0.091 C 
ENDROOT
BRANCH   1   7
ATOM      7  O   LIG d   1      -4.734  93.178 120.397  0.00  0.00    -0.368 OA
BRANCH   7   8
ATOM      8  C   LIG d   1      -3.487  92.871 119.727  0.00  0.00     0.119 C 
BRANCH   8   9
ATOM      9  C   LIG d   1      -2.599  92.106 120.728  0.00  0.00     0.028 C 
ATOM     10  C   LIG d   1      -2.344  90.653 120.295  0.00  0.00     0.006 C 
ENDBRANCH   8   9
BRANCH   8  11
ATOM     11  C   LIG d   1      -2.709  94.146 119.386  0.00  0.00     0.028 C 
ATOM     12  C   LIG d   1      -2.294  94.213 117.908  0.00  0.00     0.006 C 
ENDBRANCH   8  11
ENDBRANCH   7   8
ENDBRANCH   1   7
BRANCH   6  13
ATOM     13  N   LIG d   1      -6.968  95.139 119.901  0.00  0.00    -0.311 N 
ATOM     14  C   LIG d   1      -6.455  96.331 120.200  0.00  0.00     0.210 C 
ATOM     15  C   LIG d   1      -7.217  97.111 121.276  0.00  0.00     0.109 C 
ATOM     16  O   LIG d   1      -5.459  96.830 119.655  0.00  0.00    -0.276 OA
ATOM     17  H   LIG d   1      -7.796  94.826 120.369  0.00  0.00     0.149 HD
ENDBRANCH   6  13
BRANCH   5  18
ATOM     18  N   LIG d   1      -7.677  95.094 116.929  0.00  0.00     0.381 N 
ATOM     19  H   LIG d   1      -7.579  95.919 117.486  0.00  0.00    -0.090 HD
ATOM     20  H   LIG d   1      -8.635  95.023 116.635  0.00  0.00    -0.090 HD
ATOM     21  H   LIG d   1      -7.080  95.149 116.133  0.00  0.00    -0.090 HD
ENDBRANCH   5  18
BRANCH   3  22
ATOM     22  C   LIG d   1      -6.159  90.554 116.786  0.00  0.00     0.382 C 
ATOM     23  O   LIG d   1      -7.227  89.935 116.561  0.00  0.00    -0.241 OA
ATOM     24  O   LIG d   1      -5.074  90.055 116.432  0.00  0.00    -0.241 OA
ENDBRANCH   3  22
TORSDOF 7
ENDMDL
MODEL 5
REMARK VINA RESULT:      -4.7      3.018      5.874
REMARK  7 active torsions:
REMARK  status: ('A' for Active; 'I' for Inactive)
REMARK    1  A    between atoms: C_2  and  C_3 
REMARK    2  A    between atoms: C_3  and  O_6 
REMARK    3  A    between atoms: C_3  and  C_4 
REMARK    4  A    between atoms: C_7  and  O_6 
REMARK    5  A    between atoms: C_9  and  C_10 
REMARK    6  A    between atoms: N_15  and  C_14 
REMARK    7  A    between atoms: N_20  and  C_19 
REMARK       I    between atoms: C_22  and  N_20 
ROOT
ATOM      1  C   LIG d   1      -5.383  92.573 119.803  0.00  0.00     0.161 C 
ATOM      2  C   LIG d   1      -4.274  91.725 119.647  0.00  0.00     0.016 C 
ATOM      3  C   LIG d   1      -4.080  90.899 118.515  0.00  0.00     0.038 C 
ATOM      4  C   LIG d   1      -4.911  90.979 117.388  0.00  0.00     0.028 C 
ATOM      5  C   LIG d   1      -6.324  91.452 117.709  0.00  0.00    -0.047 C 
ATOM      6  C   LIG d   1      -6.242  92.756 118.535  0.00  0.00     0.091 C 
ENDROOT
BRANCH   1   7
ATOM      7  O   LIG d   1      -4.951  93.853 120.305  0.00  0.00    -0.368 OA
BRANCH   7   8
ATOM      8  C   LIG d   1      -3.544  94.159 120.146  0.00  0.00     0.119 C 
BRANCH   8   9
ATOM      9  C   LIG d   1      -3.133  95.072 121.317  0.00  0.00     0.028 C 
ATOM     10  C   LIG d   1      -1.624  95.009 121.608  0.00  0.00     0.006 C 
ENDBRANCH   8   9
BRANCH   8  11
ATOM     11  C   LIG d   1      -3.293  94.984 118.880  0.00  0.00     0.028 C 
ATOM     12  C   LIG d   1      -2.272  94.332 117.935  0.00  0.00     0.006 C 
ENDBRANCH   8  11
ENDBRANCH   7   8
ENDBRANCH   1   7
BRANCH   6  13
ATOM     13  N   LIG d   1      -7.579  93.242 118.963  0.00  0.00    -0.311 N 
ATOM     14  C   LIG d   1      -7.957  94.517 118.883  0.00  0.00     0.210 C 
ATOM     15  C   LIG d   1      -9.370  94.806 119.397  0.00  0.00     0.109 C 
ATOM     16  O   LIG d   1      -7.267  95.430 118.404  0.00  0.00    -0.276 OA
ATOM     17  H   LIG d   1      -8.214  92.562 119.335  0.00  0.00     0.149 HD
ENDBRANCH   6  13
BRANCH   5  18
ATOM     18  N   LIG d   1      -7.039  91.622 116.430  0.00  0.00     0.381 N 
ATOM     19  H   LIG d   1      -6.797  90.878 115.806  0.00  0.00    -0.090 HD
ATOM     20  H   LIG d   1      -6.756  92.490 116.012  0.00  0.00    -0.090 HD
ATOM     21  H   LIG d   1      -8.023  91.626 116.587  0.00  0.00    -0.090 HD
ENDBRANCH   5  18
BRANCH   3  22
ATOM     22  C   LIG d   1      -3.068  89.951 118.522  0.00  0.00     0.382 C 
ATOM     23  O   LIG d   1      -3.282  88.808 118.992  0.00  0.00    -0.241 OA
ATOM     24  O   LIG d   1      -1.930  90.240 118.104  0.00  0.00    -0.241 OA
ENDBRANCH   3  22
TORSDOF 7
ENDMDL
MODEL 6
REMARK VINA RESULT:      -4.7      2.470      4.549
REMARK  7 active torsions:
REMARK  status: ('A' for Active; 'I' for Inactive)
REMARK    1  A    between atoms: C_2  and  C_3 
REMARK    2  A    between atoms: C_3  and  O_6 
REMARK    3  A    between atoms: C_3  and  C_4 
REMARK    4  A    between atoms: C_7  and  O_6 
REMARK    5  A    between atoms: C_9  and  C_10 
REMARK    6  A    between atoms: N_15  and  C_14 
REMARK    7  A    between atoms: N_20  and  C_19 
REMARK       I    between atoms: C_22  and  N_20 
ROOT
ATOM      1  C   LIG d   1      -3.958  93.524 118.603  0.00  0.00     0.161 C 
ATOM      2  C   LIG d   1      -5.284  93.988 118.599  0.00  0.00     0.016 C 
ATOM      3  C   LIG d   1      -6.345  93.306 117.960  0.00  0.00     0.038 C 
ATOM      4  C   LIG d   1      -6.178  92.027 117.408  0.00  0.00     0.028 C 
ATOM      5  C   LIG d   1      -4.752  91.748 116.947  0.00  0.00    -0.047 C 
ATOM      6  C   LIG d   1      -3.778  92.076 118.102  0.00  0.00     0.091 C 
ENDROOT
BRANCH   1   7
ATOM      7  O   LIG d   1      -3.393  93.672 119.921  0.00  0.00    -0.368 OA
BRANCH   7   8
ATOM      8  C   LIG d   1      -2.405  94.720 120.078  0.00  0.00     0.119 C 
BRANCH   8   9
ATOM      9  C   LIG d   1      -2.477  95.614 118.825  0.00  0.00     0.028 C 
ATOM     10  C   LIG d   1      -2.990  97.029 119.141  0.00  0.00     0.006 C 
ENDBRANCH   8   9
BRANCH   8  11
ATOM     11  C   LIG d   1      -0.984  94.150 120.089  0.00  0.00     0.028 C 
ATOM     12  C   LIG d   1      -0.840  92.927 121.009  0.00  0.00     0.006 C 
ENDBRANCH   8  11
ENDBRANCH   7   8
ENDBRANCH   1   7
BRANCH   6  13
ATOM     13  N   LIG d   1      -2.354  91.911 117.707  0.00  0.00    -0.311 N 
ATOM     14  C   LIG d   1      -1.641  90.819 117.978  0.00  0.00     0.210 C 
ATOM     15  C   LIG d   1      -0.186  90.863 117.499  0.00  0.00     0.109 C 
ATOM     16  O   LIG d   1      -2.083  89.807 118.540  0.00  0.00    -0.276 OA
ATOM     17  H   LIG d   1      -1.925  92.672 117.219  0.00  0.00     0.149 HD
ENDBRANCH   6  13
BRANCH   5  18
ATOM     18  N   LIG d   1      -4.689  90.337 116.522  0.00  0.00     0.381 N 
ATOM     19  H   LIG d   1      -4.856  89.739 117.306  0.00  0.00    -0.090 HD
ATOM     20  H   LIG d   1      -3.768  90.144 116.169  0.00  0.00    -0.090 HD
ATOM     21  H   LIG d   1      -5.367  90.164 115.812  0.00  0.00    -0.090 HD
ENDBRANCH   5  18
BRANCH   3  22
ATOM     22  C   LIG d   1      -7.581  93.921 117.835  0.00  0.00     0.382 C 
ATOM     23  O   LIG d   1      -7.955  94.355 116.719  0.00  0.00    -0.241 OA
ATOM     24  O   LIG d   1      -8.308  94.088 118.833  0.00  0.00    -0.241 OA
ENDBRANCH   3  22
TORSDOF 7
ENDMDL
MODEL 7
REMARK VINA RESULT:      -4.4      2.492      5.575
REMARK  7 active torsions:
REMARK  status: ('A' for Active; 'I' for Inactive)
REMARK    1  A    between atoms: C_2  and  C_3 
REMARK    2  A    between atoms: C_3  and  O_6 
REMARK    3  A    between atoms: C_3  and  C_4 
REMARK    4  A    between atoms: C_7  and  O_6 
REMARK    5  A    between atoms: C_9  and  C_10 
REMARK    6  A    between atoms: N_15  and  C_14 
REMARK    7  A    between atoms: N_20  and  C_19 
REMARK       I    between atoms: C_22  and  N_20 
ROOT
ATOM      1  C   LIG d   1      -0.194  89.313 117.742  0.00  0.00     0.161 C 
ATOM      2  C   LIG d   1       1.208  89.320 117.659  0.00  0.00     0.016 C 
ATOM      3  C   LIG d   1       1.973  90.498 117.503  0.00  0.00     0.038 C 
ATOM      4  C   LIG d   1       1.393  91.773 117.573  0.00  0.00     0.028 C 
ATOM      5  C   LIG d   1      -0.073  91.796 117.150  0.00  0.00    -0.047 C 
ATOM      6  C   LIG d   1      -0.837  90.703 117.932  0.00  0.00     0.091 C 
ENDROOT
BRANCH   1   7
ATOM      7  O   LIG d   1      -0.617  88.419 118.790  0.00  0.00    -0.368 OA
BRANCH   7   8
ATOM      8  C   LIG d   1       0.423  87.613 119.399  0.00  0.00     0.119 C 
BRANCH   8   9
ATOM      9  C   LIG d   1       0.073  86.135 119.142  0.00  0.00     0.028 C 
ATOM     10  C   LIG d   1      -1.153  85.673 119.949  0.00  0.00     0.006 C 
ENDBRANCH   8   9
BRANCH   8  11
ATOM     11  C   LIG d   1       0.429  87.770 120.923  0.00  0.00     0.028 C 
ATOM     12  C   LIG d   1      -0.096  89.140 121.383  0.00  0.00     0.006 C 
ENDBRANCH   8  11
ENDBRANCH   7   8
ENDBRANCH   1   7
BRANCH   6  13
ATOM     13  N   LIG d   1      -2.260  90.600 117.517  0.00  0.00    -0.311 N 
ATOM     14  C   LIG d   1      -3.253  91.234 118.140  0.00  0.00     0.210 C 
ATOM     15  C   LIG d   1      -4.648  90.976 117.563  0.00  0.00     0.109 C 
ATOM     16  O   LIG d   1      -3.106  92.012 119.095  0.00  0.00    -0.276 OA
ATOM     17  H   LIG d   1      -2.466  90.015 116.732  0.00  0.00     0.149 HD
ENDBRANCH   6  13
BRANCH   5  18
ATOM     18  N   LIG d   1      -0.588  93.155 117.402  0.00  0.00     0.381 N 
ATOM     19  H   LIG d   1      -1.537  93.220 117.092  0.00  0.00    -0.090 HD
ATOM     20  H   LIG d   1      -0.039  93.813 116.878  0.00  0.00    -0.090 HD
ATOM     21  H   LIG d   1      -0.534  93.365 118.374  0.00  0.00    -0.090 HD
ENDBRANCH   5  18
BRANCH   3  22
ATOM     22  C   LIG d   1       3.331  90.406 117.235  0.00  0.00     0.382 C 
ATOM     23  O   LIG d   1       3.939  91.384 116.737  0.00  0.00    -0.241 OA
ATOM     24  O   LIG d   1       3.945  89.343 117.444  0.00  0.00    -0.241 OA
ENDBRANCH   3  22
TORSDOF 7
ENDMDL
MODEL 8
REMARK VINA RESULT:      -4.2      3.238      5.606
REMARK  7 active torsions:
REMARK  status: ('A' for Active; 'I' for Inactive)
REMARK    1  A    between atoms: C_2  and  C_3 
REMARK    2  A    between atoms: C_3  and  O_6 
REMARK    3  A    between atoms: C_3  and  C_4 
REMARK    4  A    between atoms: C_7  and  O_6 
REMARK    5  A    between atoms: C_9  and  C_10 
REMARK    6  A    between atoms: N_15  and  C_14 
REMARK    7  A    between atoms: N_20  and  C_19 
REMARK       I    between atoms: C_22  and  N_20 
ROOT
ATOM      1  C   LIG d   1      -5.104  93.998 118.550  0.00  0.00     0.161 C 
ATOM      2  C   LIG d   1      -5.833  93.066 117.794  0.00  0.00     0.016 C 
ATOM      3  C   LIG d   1      -5.569  91.677 117.807  0.00  0.00     0.038 C 
ATOM      4  C   LIG d   1      -4.649  91.105 118.698  0.00  0.00     0.028 C 
ATOM      5  C   LIG d   1      -3.537  92.061 119.116  0.00  0.00    -0.047 C 
ATOM      6  C   LIG d   1      -4.170  93.381 119.612  0.00  0.00     0.091 C 
ENDROOT
BRANCH   1   7
ATOM      7  O   LIG d   1      -6.005  94.942 119.163  0.00  0.00    -0.368 OA
BRANCH   7   8
ATOM      8  C   LIG d   1      -7.361  94.481 119.379  0.00  0.00     0.119 C 
BRANCH   8   9
ATOM      9  C   LIG d   1      -8.311  95.610 118.934  0.00  0.00     0.028 C 
ATOM     10  C   LIG d   1      -8.460  95.684 117.405  0.00  0.00     0.006 C 
ENDBRANCH   8   9
BRANCH   8  11
ATOM     11  C   LIG d   1      -7.648  94.273 120.869  0.00  0.00     0.028 C 
ATOM     12  C   LIG d   1      -7.179  92.901 121.380  0.00  0.00     0.006 C 
ENDBRANCH   8  11
ENDBRANCH   7   8
ENDBRANCH   1   7
BRANCH   6  13
ATOM     13  N   LIG d   1      -3.149  94.403 119.962  0.00  0.00    -0.311 N 
ATOM     14  C   LIG d   1      -3.133  95.055 121.123  0.00  0.00     0.210 C 
ATOM     15  C   LIG d   1      -2.006  96.082 121.272  0.00  0.00     0.109 C 
ATOM     16  O   LIG d   1      -3.925  94.858 122.056  0.00  0.00    -0.276 OA
ATOM     17  H   LIG d   1      -2.450  94.603 119.274  0.00  0.00     0.149 HD
ENDBRANCH   6  13
BRANCH   5  18
ATOM     18  N   LIG d   1      -2.731  91.383 120.149  0.00  0.00     0.381 N 
ATOM     19  H   LIG d   1      -1.916  91.925 120.353  0.00  0.00    -0.090 HD
ATOM     20  H   LIG d   1      -2.436  90.489 119.796  0.00  0.00    -0.090 HD
ATOM     21  H   LIG d   1      -3.272  91.259 120.976  0.00  0.00    -0.090 HD
ENDBRANCH   5  18
BRANCH   3  22
ATOM     22  C   LIG d   1      -6.202  90.849 116.892  0.00  0.00     0.382 C 
ATOM     23  O   LIG d   1      -5.600  89.849 116.430  0.00  0.00    -0.241 OA
ATOM     24  O   LIG d   1      -7.350  91.113 116.488  0.00  0.00    -0.241 OA
ENDBRANCH   3  22
TORSDOF 7
ENDMDL
MODEL 9
REMARK VINA RESULT:      -4.2      2.473      4.824
REMARK  7 active torsions:
REMARK  status: ('A' for Active; 'I' for Inactive)
REMARK    1  A    between atoms: C_2  and  C_3 
REMARK    2  A    between atoms: C_3  and  O_6 
REMARK    3  A    between atoms: C_3  and  C_4 
REMARK    4  A    between atoms: C_7  and  O_6 
REMARK    5  A    between atoms: C_9  and  C_10 
REMARK    6  A    between atoms: N_15  and  C_14 
REMARK    7  A    between atoms: N_20  and  C_19 
REMARK       I    between atoms: C_22  and  N_20 
ROOT
ATOM      1  C   LIG d   1      -4.377  92.849 119.327  0.00  0.00     0.161 C 
ATOM      2  C   LIG d   1      -5.474  92.335 118.616  0.00  0.00     0.016 C 
ATOM      3  C   LIG d   1      -5.376  91.257 117.705  0.00  0.00     0.038 C 
ATOM      4  C   LIG d   1      -4.193  90.518 117.557  0.00  0.00     0.028 C 
ATOM      5  C   LIG d   1      -2.934  91.317 117.877  0.00  0.00    -0.047 C 
ATOM      6  C   LIG d   1      -3.101  91.983 119.262  0.00  0.00     0.091 C 
ENDROOT
BRANCH   1   7
ATOM      7  O   LIG d   1      -4.752  93.087 120.698  0.00  0.00    -0.368 OA
BRANCH   7   8
ATOM      8  C   LIG d   1      -4.910  94.474 121.084  0.00  0.00     0.119 C 
BRANCH   8   9
ATOM      9  C   LIG d   1      -6.421  94.773 121.126  0.00  0.00     0.028 C 
ATOM     10  C   LIG d   1      -7.173  93.862 122.110  0.00  0.00     0.006 C 
ENDBRANCH   8   9
BRANCH   8  11
ATOM     11  C   LIG d   1      -4.339  95.417 120.021  0.00  0.00     0.028 C 
ATOM     12  C   LIG d   1      -3.094  96.176 120.505  0.00  0.00     0.006 C 
ENDBRANCH   8  11
ENDBRANCH   7   8
ENDBRANCH   1   7
BRANCH   6  13
ATOM     13  N   LIG d   1      -1.949  92.853 119.615  0.00  0.00    -0.311 N 
ATOM     14  C   LIG d   1      -0.918  92.441 120.350  0.00  0.00     0.210 C 
ATOM     15  C   LIG d   1       0.154  93.504 120.614  0.00  0.00     0.109 C 
ATOM     16  O   LIG d   1      -0.773  91.288 120.783  0.00  0.00    -0.276 OA
ATOM     17  H   LIG d   1      -1.969  93.796 119.279  0.00  0.00     0.149 HD
ENDBRANCH   6  13
BRANCH   5  18
ATOM     18  N   LIG d   1      -1.789  90.389 117.815  0.00  0.00     0.381 N 
ATOM     19  H   LIG d   1      -1.807  89.886 116.951  0.00  0.00    -0.090 HD
ATOM     20  H   LIG d   1      -1.867  89.727 118.567  0.00  0.00    -0.090 HD
ATOM     21  H   LIG d   1      -0.935  90.896 117.896  0.00  0.00    -0.090 HD
ENDBRANCH   5  18
BRANCH   3  22
ATOM     22  C   LIG d   1      -6.459  90.936 116.902  0.00  0.00     0.382 C 
ATOM     23  O   LIG d   1      -7.352  91.789 116.682  0.00  0.00    -0.241 OA
ATOM     24  O   LIG d   1      -6.577  89.789 116.430  0.00  0.00    -0.241 OA
ENDBRANCH   3  22
TORSDOF 7
ENDMDL
