MODEL 1
REMARK VINA RESULT:      -4.8      0.000      0.000
REMARK  7 active torsions:
REMARK  status: ('A' for Active; 'I' for Inactive)
REMARK    1  A    between atoms: C_2  and  C_3 
REMARK    2  A    between atoms: C_3  and  O_6 
REMARK    3  A    between atoms: C_3  and  C_4 
REMARK    4  A    between atoms: C_7  and  O_6 
REMARK    5  A    between atoms: C_9  and  C_10 
REMARK    6  A    between atoms: N_15  and  C_14 
REMARK    7  A    between atoms: N_20  and  C_19 
REMARK       I    between atoms: C_22  and  N_20 
ROOT
ATOM      1  C   LIG d   1      -5.362  93.139 119.503  0.00  0.00     0.161 C 
ATOM      2  C   LIG d   1      -5.457  92.052 118.619  0.00  0.00     0.016 C 
ATOM      3  C   LIG d   1      -6.328  92.028 117.506  0.00  0.00     0.038 C 
ATOM      4  C   LIG d   1      -7.057  93.160 117.111  0.00  0.00     0.028 C 
ATOM      5  C   LIG d   1      -7.374  94.108 118.262  0.00  0.00    -0.047 C 
ATOM      6  C   LIG d   1      -6.067  94.425 119.025  0.00  0.00     0.091 C 
ENDROOT
BRANCH   1   7
ATOM      7  O   LIG d   1      -3.977  93.408 119.799  0.00  0.00    -0.368 OA
BRANCH   7   8
ATOM      8  C   LIG d   1      -3.237  94.131 118.784  0.00  0.00     0.119 C 
BRANCH   8   9
ATOM      9  C   LIG d   1      -2.155  93.180 118.235  0.00  0.00     0.028 C 
ATOM     10  C   LIG d   1      -1.041  93.930 117.486  0.00  0.00     0.006 C 
ENDBRANCH   8   9
BRANCH   8  11
ATOM     11  C   LIG d   1      -2.471  95.312 119.388  0.00  0.00     0.028 C 
ATOM     12  C   LIG d   1      -2.744  95.494 120.889  0.00  0.00     0.006 C 
ENDBRANCH   8  11
ENDBRANCH   7   8
ENDBRANCH   1   7
BRANCH   6  13
ATOM     13  N   LIG d   1      -6.301  95.280 120.218  0.00  0.00    -0.311 N 
ATOM     14  C   LIG d   1      -6.210  96.609 120.197  0.00  0.00     0.210 C 
ATOM     15  C   LIG d   1      -6.470  97.296 121.541  0.00  0.00     0.109 C 
ATOM     16  O   LIG d   1      -5.971  97.286 119.185  0.00  0.00    -0.276 OA
ATOM     17  H   LIG d   1      -6.531  94.815 121.075  0.00  0.00     0.149 HD
ENDBRANCH   6  13
BRANCH   5  18
ATOM     18  N   LIG d   1      -8.014  95.307 117.689  0.00  0.00     0.381 N 
ATOM     19  H   LIG d   1      -8.458  95.834 118.414  0.00  0.00    -0.090 HD
ATOM     20  H   LIG d   1      -8.719  95.018 117.033  0.00  0.00    -0.090 HD
ATOM     21  H   LIG d   1      -7.333  95.870 117.229  0.00  0.00    -0.090 HD
ENDBRANCH   5  18
BRANCH   3  22
ATOM     22  C   LIG d   1      -6.506  90.850 116.797  0.00  0.00     0.382 C 
ATOM     23  O   LIG d   1      -7.664  90.430 116.559  0.00  0.00    -0.241 OA
ATOM     24  O   LIG d   1      -5.523  90.179 116.430  0.00  0.00    -0.241 OA
ENDBRANCH   3  22
TORSDOF 7
ENDMDL
MODEL 2
REMARK VINA RESULT:      -4.7      3.369      5.122
REMARK  7 active torsions:
REMARK  status: ('A' for Active; 'I' for Inactive)
REMARK    1  A    between atoms: C_2  and  C_3 
REMARK    2  A    between atoms: C_3  and  O_6 
REMARK    3  A    between atoms: C_3  and  C_4 
REMARK    4  A    between atoms: C_7  and  O_6 
REMARK    5  A    between atoms: C_9  and  C_10 
REMARK    6  A    between atoms: N_15  and  C_14 
REMARK    7  A    between atoms: N_20  and  C_19 
REMARK       I    between atoms: C_22  and  N_20 
ROOT
ATOM      1  C   LIG d   1      -3.477  90.725 118.560  0.00  0.00     0.161 C 
ATOM      2  C   LIG d   1      -4.793  90.629 118.079  0.00  0.00     0.016 C 
ATOM      3  C   LIG d   1      -5.568  91.750 117.702  0.00  0.00     0.038 C 
ATOM      4  C   LIG d   1      -5.021  93.041 117.637  0.00  0.00     0.028 C 
ATOM      5  C   LIG d   1      -3.853  93.253 118.593  0.00  0.00    -0.047 C 
ATOM      6  C   LIG d   1      -2.826  92.114 118.392  0.00  0.00     0.091 C 
ENDROOT
BRANCH   1   7
ATOM      7  O   LIG d   1      -2.657  89.710 117.948  0.00  0.00    -0.368 OA
BRANCH   7   8
ATOM      8  C   LIG d   1      -2.234  88.626 118.810  0.00  0.00     0.119 C 
BRANCH   8   9
ATOM      9  C   LIG d   1      -2.715  88.955 120.237  0.00  0.00     0.028 C 
ATOM     10  C   LIG d   1      -1.552  89.068 121.236  0.00  0.00     0.006 C 
ENDBRANCH   8   9
BRANCH   8  11
ATOM     11  C   LIG d   1      -0.708  88.551 118.904  0.00  0.00     0.028 C 
ATOM     12  C   LIG d   1      -0.013  88.865 117.569  0.00  0.00     0.006 C 
ENDBRANCH   8  11
ENDBRANCH   7   8
ENDBRANCH   1   7
BRANCH   6  13
ATOM     13  N   LIG d   1      -1.691  92.199 119.347  0.00  0.00    -0.311 N 
ATOM     14  C   LIG d   1      -0.421  92.323 118.967  0.00  0.00     0.210 C 
ATOM     15  C   LIG d   1       0.595  92.372 120.113  0.00  0.00     0.109 C 
ATOM     16  O   LIG d   1      -0.041  92.430 117.791  0.00  0.00    -0.276 OA
ATOM     17  H   LIG d   1      -1.912  92.151 120.323  0.00  0.00     0.149 HD
ENDBRANCH   6  13
BRANCH   5  18
ATOM     18  N   LIG d   1      -3.293  94.590 118.324  0.00  0.00     0.381 N 
ATOM     19  H   LIG d   1      -3.713  95.263 118.934  0.00  0.00    -0.090 HD
ATOM     20  H   LIG d   1      -3.507  94.848 117.376  0.00  0.00    -0.090 HD
ATOM     21  H   LIG d   1      -2.306  94.580 118.458  0.00  0.00    -0.090 HD
ENDBRANCH   5  18
BRANCH   3  22
ATOM     22  C   LIG d   1      -6.916  91.591 117.422  0.00  0.00     0.382 C 
ATOM     23  O   LIG d   1      -7.740  92.462 117.792  0.00  0.00    -0.241 OA
ATOM     24  O   LIG d   1      -7.325  90.567 116.843  0.00  0.00    -0.241 OA
ENDBRANCH   3  22
TORSDOF 7
ENDMDL
MODEL 3
REMARK VINA RESULT:      -4.7      2.901      5.018
REMARK  7 active torsions:
REMARK  status: ('A' for Active; 'I' for Inactive)
REMARK    1  A    between atoms: C_2  and  C_3 
REMARK    2  A    between atoms: C_3  and  O_6 
REMARK    3  A    between atoms: C_3  and  C_4 
REMARK    4  A    between atoms: C_7  and  O_6 
REMARK    5  A    between atoms: C_9  and  C_10 
REMARK    6  A    between atoms: N_15  and  C_14 
REMARK    7  A    between atoms: N_20  and  C_19 
REMARK       I    between atoms: C_22  and  N_20 
ROOT
ATOM      1  C   LIG d   1      -4.203  93.399 118.841  0.00  0.00     0.161 C 
ATOM      2  C   LIG d   1      -5.468  94.009 118.832  0.00  0.00     0.016 C 
ATOM      3  C   LIG d   1      -6.565  93.514 118.090  0.00  0.00     0.038 C 
ATOM      4  C   LIG d   1      -6.514  92.282 117.422  0.00  0.00     0.028 C 
ATOM      5  C   LIG d   1      -5.106  91.886 116.990  0.00  0.00    -0.047 C 
ATOM      6  C   LIG d   1      -4.159  91.992 118.207  0.00  0.00     0.091 C 
ENDROOT
BRANCH   1   7
ATOM      7  O   LIG d   1      -3.689  93.358 120.187  0.00  0.00    -0.368 OA
BRANCH   7   8
ATOM      8  C   LIG d   1      -4.148  92.258 121.011  0.00  0.00     0.119 C 
BRANCH   8   9
ATOM      9  C   LIG d   1      -4.896  92.861 122.215  0.00  0.00     0.028 C 
ATOM     10  C   LIG d   1      -6.409  92.589 122.163  0.00  0.00     0.006 C 
ENDBRANCH   8   9
BRANCH   8  11
ATOM     11  C   LIG d   1      -2.971  91.483 121.611  0.00  0.00     0.028 C 
ATOM     12  C   LIG d   1      -1.612  92.130 121.302  0.00  0.00     0.006 C 
ENDBRANCH   8  11
ENDBRANCH   7   8
ENDBRANCH   1   7
BRANCH   6  13
ATOM     13  N   LIG d   1      -2.745  91.703 117.852  0.00  0.00    -0.311 N 
ATOM     14  C   LIG d   1      -2.194  90.495 117.959  0.00  0.00     0.210 C 
ATOM     15  C   LIG d   1      -0.717  90.420 117.559  0.00  0.00     0.109 C 
ATOM     16  O   LIG d   1      -2.797  89.472 118.317  0.00  0.00    -0.276 OA
ATOM     17  H   LIG d   1      -2.191  92.470 117.522  0.00  0.00     0.149 HD
ENDBRANCH   6  13
BRANCH   5  18
ATOM     18  N   LIG d   1      -5.178  90.523 116.431  0.00  0.00     0.381 N 
ATOM     19  H   LIG d   1      -6.043  90.402 115.943  0.00  0.00    -0.090 HD
ATOM     20  H   LIG d   1      -5.147  89.860 117.186  0.00  0.00    -0.090 HD
ATOM     21  H   LIG d   1      -4.414  90.367 115.811  0.00  0.00    -0.090 HD
ENDBRANCH   5  18
BRANCH   3  22
ATOM     22  C   LIG d   1      -7.719  94.276 117.979  0.00  0.00     0.382 C 
ATOM     23  O   LIG d   1      -8.833  93.712 117.859  0.00  0.00    -0.241 OA
ATOM     24  O   LIG d   1      -7.655  95.519 117.953  0.00  0.00    -0.241 OA
ENDBRANCH   3  22
TORSDOF 7
ENDMDL
MODEL 4
REMARK VINA RESULT:      -4.7      2.958      4.914
REMARK  7 active torsions:
REMARK  status: ('A' for Active; 'I' for Inactive)
REMARK    1  A    between atoms: C_2  and  C_3 
REMARK    2  A    between atoms: C_3  and  O_6 
REMARK    3  A    between atoms: C_3  and  C_4 
REMARK    4  A    between atoms: C_7  and  O_6 
REMARK    5  A    between atoms: C_9  and  C_10 
REMARK    6  A    between atoms: N_15  and  C_14 
REMARK    7  A    between atoms: N_20  and  C_19 
REMARK       I    between atoms: C_22  and  N_20 
ROOT
ATOM      1  C   LIG d   1      -3.552  93.049 117.838  0.00  0.00     0.161 C 
ATOM      2  C   LIG d   1      -4.953  92.955 117.777  0.00  0.00     0.016 C 
ATOM      3  C   LIG d   1      -5.650  91.725 117.752  0.00  0.00     0.038 C 
ATOM      4  C   LIG d   1      -4.996  90.498 117.941  0.00  0.00     0.028 C 
ATOM      5  C   LIG d   1      -3.536  90.516 117.501  0.00  0.00    -0.047 C 
ATOM      6  C   LIG d   1      -2.829  91.724 118.157  0.00  0.00     0.091 C 
ENDROOT
BRANCH   1   7
ATOM      7  O   LIG d   1      -3.172  94.067 118.785  0.00  0.00    -0.368 OA
BRANCH   7   8
ATOM      8  C   LIG d   1      -4.143  94.373 119.816  0.00  0.00     0.119 C 
BRANCH   8   9
ATOM      9  C   LIG d   1      -4.096  95.894 120.059  0.00  0.00     0.028 C 
ATOM     10  C   LIG d   1      -2.975  96.582 119.262  0.00  0.00     0.006 C 
ENDBRANCH   8   9
BRANCH   8  11
ATOM     11  C   LIG d   1      -3.754  93.736 121.153  0.00  0.00     0.028 C 
ATOM     12  C   LIG d   1      -4.667  92.562 121.542  0.00  0.00     0.006 C 
ENDBRANCH   8  11
ENDBRANCH   7   8
ENDBRANCH   1   7
BRANCH   6  13
ATOM     13  N   LIG d   1      -1.417  91.864 117.713  0.00  0.00    -0.311 N 
ATOM     14  C   LIG d   1      -0.391  91.288 118.337  0.00  0.00     0.210 C 
ATOM     15  C   LIG d   1       0.983  91.578 117.726  0.00  0.00     0.109 C 
ATOM     16  O   LIG d   1      -0.492  90.538 119.320  0.00  0.00    -0.276 OA
ATOM     17  H   LIG d   1      -1.248  92.430 116.905  0.00  0.00     0.149 HD
ENDBRANCH   6  13
BRANCH   5  18
ATOM     18  N   LIG d   1      -2.940  89.221 117.880  0.00  0.00     0.381 N 
ATOM     19  H   LIG d   1      -3.336  88.906 118.743  0.00  0.00    -0.090 HD
ATOM     20  H   LIG d   1      -1.951  89.344 118.013  0.00  0.00    -0.090 HD
ATOM     21  H   LIG d   1      -3.105  88.547 117.165  0.00  0.00    -0.090 HD
ENDBRANCH   5  18
BRANCH   3  22
ATOM     22  C   LIG d   1      -7.012  91.712 117.496  0.00  0.00     0.382 C 
ATOM     23  O   LIG d   1      -7.550  90.687 117.012  0.00  0.00    -0.241 OA
ATOM     24  O   LIG d   1      -7.703  92.728 117.703  0.00  0.00    -0.241 OA
ENDBRANCH   3  22
TORSDOF 7
ENDMDL
MODEL 5
REMARK VINA RESULT:      -4.6      2.715      4.666
REMARK  7 active torsions:
REMARK  status: ('A' for Active; 'I' for Inactive)
REMARK    1  A    between atoms: C_2  and  C_3 
REMARK    2  A    between atoms: C_3  and  O_6 
REMARK    3  A    between atoms: C_3  and  C_4 
REMARK    4  A    between atoms: C_7  and  O_6 
REMARK    5  A    between atoms: C_9  and  C_10 
REMARK    6  A    between atoms: N_15  and  C_14 
REMARK    7  A    between atoms: N_20  and  C_19 
REMARK       I    between atoms: C_22  and  N_20 
ROOT
ATOM      1  C   LIG d   1      -4.178  93.270 118.860  0.00  0.00     0.161 C 
ATOM      2  C   LIG d   1      -5.427  93.913 118.828  0.00  0.00     0.016 C 
ATOM      3  C   LIG d   1      -6.522  93.448 118.065  0.00  0.00     0.038 C 
ATOM      4  C   LIG d   1      -6.490  92.214 117.397  0.00  0.00     0.028 C 
ATOM      5  C   LIG d   1      -5.085  91.782 116.991  0.00  0.00    -0.047 C 
ATOM      6  C   LIG d   1      -4.159  91.863 118.226  0.00  0.00     0.091 C 
ENDROOT
BRANCH   1   7
ATOM      7  O   LIG d   1      -3.692  93.215 120.216  0.00  0.00    -0.368 OA
BRANCH   7   8
ATOM      8  C   LIG d   1      -2.584  94.094 120.532  0.00  0.00     0.119 C 
BRANCH   8   9
ATOM      9  C   LIG d   1      -2.163  94.795 119.226  0.00  0.00     0.028 C 
ATOM     10  C   LIG d   1      -2.403  96.313 119.271  0.00  0.00     0.006 C 
ENDBRANCH   8   9
BRANCH   8  11
ATOM     11  C   LIG d   1      -1.354  93.300 120.981  0.00  0.00     0.028 C 
ATOM     12  C   LIG d   1      -0.301  93.154 119.871  0.00  0.00     0.006 C 
ENDBRANCH   8  11
ENDBRANCH   7   8
ENDBRANCH   1   7
BRANCH   6  13
ATOM     13  N   LIG d   1      -2.747  91.537 117.898  0.00  0.00    -0.311 N 
ATOM     14  C   LIG d   1      -2.234  90.312 117.998  0.00  0.00     0.210 C 
ATOM     15  C   LIG d   1      -0.752  90.198 117.630  0.00  0.00     0.109 C 
ATOM     16  O   LIG d   1      -2.875  89.302 118.327  0.00  0.00    -0.276 OA
ATOM     17  H   LIG d   1      -2.163  92.292 117.593  0.00  0.00     0.149 HD
ENDBRANCH   6  13
BRANCH   5  18
ATOM     18  N   LIG d   1      -5.183  90.421 116.430  0.00  0.00     0.381 N 
ATOM     19  H   LIG d   1      -6.143  90.182 116.287  0.00  0.00    -0.090 HD
ATOM     20  H   LIG d   1      -4.790  89.770 117.087  0.00  0.00    -0.090 HD
ATOM     21  H   LIG d   1      -4.688  90.372 115.567  0.00  0.00    -0.090 HD
ENDBRANCH   5  18
BRANCH   3  22
ATOM     22  C   LIG d   1      -7.653  94.239 117.933  0.00  0.00     0.382 C 
ATOM     23  O   LIG d   1      -7.566  95.484 118.063  0.00  0.00    -0.241 OA
ATOM     24  O   LIG d   1      -8.767  93.720 117.729  0.00  0.00    -0.241 OA
ENDBRANCH   3  22
TORSDOF 7
ENDMDL
MODEL 6
REMARK VINA RESULT:      -4.4      2.078      3.373
REMARK  7 active torsions:
REMARK  status: ('A' for Active; 'I' for Inactive)
REMARK    1  A    between atoms: C_2  and  C_3 
REMARK    2  A    between atoms: C_3  and  O_6 
REMARK    3  A    between atoms: C_3  and  C_4 
REMARK    4  A    between atoms: C_7  and  O_6 
REMARK    5  A    between atoms: C_9  and  C_10 
REMARK    6  A    between atoms: N_15  and  C_14 
REMARK    7  A    between atoms: N_20  and  C_19 
REMARK       I    between atoms: C_22  and  N_20 
ROOT
ATOM      1  C   LIG d   1      -4.186  93.109 118.982  0.00  0.00     0.161 C 
ATOM      2  C   LIG d   1      -5.415  92.729 118.417  0.00  0.00     0.016 C 
ATOM      3  C   LIG d   1      -6.562  93.555 118.422  0.00  0.00     0.038 C 
ATOM      4  C   LIG d   1      -6.515  94.887 118.861  0.00  0.00     0.028 C 
ATOM      5  C   LIG d   1      -5.429  95.144 119.900  0.00  0.00    -0.047 C 
ATOM      6  C   LIG d   1      -4.085  94.600 119.366  0.00  0.00     0.091 C 
ENDROOT
BRANCH   1   7
ATOM      7  O   LIG d   1      -3.108  92.746 118.097  0.00  0.00    -0.368 OA
BRANCH   7   8
ATOM      8  C   LIG d   1      -2.146  91.797 118.619  0.00  0.00     0.119 C 
BRANCH   8   9
ATOM      9  C   LIG d   1      -0.741  92.376 118.368  0.00  0.00     0.028 C 
ATOM     10  C   LIG d   1      -0.783  93.708 117.601  0.00  0.00     0.006 C 
ENDBRANCH   8   9
BRANCH   8  11
ATOM     11  C   LIG d   1      -2.187  90.478 117.842  0.00  0.00     0.028 C 
ATOM     12  C   LIG d   1      -3.145  89.449 118.463  0.00  0.00     0.006 C 
ENDBRANCH   8  11
ENDBRANCH   7   8
ENDBRANCH   1   7
BRANCH   6  13
ATOM     13  N   LIG d   1      -2.985  94.736 120.357  0.00  0.00    -0.311 N 
ATOM     14  C   LIG d   1      -2.131  95.758 120.369  0.00  0.00     0.210 C 
ATOM     15  C   LIG d   1      -1.060  95.693 121.463  0.00  0.00     0.109 C 
ATOM     16  O   LIG d   1      -2.179  96.729 119.599  0.00  0.00    -0.276 OA
ATOM     17  H   LIG d   1      -2.892  94.008 121.038  0.00  0.00     0.149 HD
ENDBRANCH   6  13
BRANCH   5  18
ATOM     18  N   LIG d   1      -5.402  96.594 120.167  0.00  0.00     0.381 N 
ATOM     19  H   LIG d   1      -6.268  96.880 120.578  0.00  0.00    -0.090 HD
ATOM     20  H   LIG d   1      -5.291  97.083 119.296  0.00  0.00    -0.090 HD
ATOM     21  H   LIG d   1      -4.647  96.815 120.778  0.00  0.00    -0.090 HD
ENDBRANCH   5  18
BRANCH   3  22
ATOM     22  C   LIG d   1      -7.784  93.037 118.020  0.00  0.00     0.382 C 
ATOM     23  O   LIG d   1      -8.834  93.701 118.193  0.00  0.00    -0.241 OA
ATOM     24  O   LIG d   1      -7.854  91.895 117.527  0.00  0.00    -0.241 OA
ENDBRANCH   3  22
TORSDOF 7
ENDMDL
MODEL 7
REMARK VINA RESULT:      -4.4      2.276      3.471
REMARK  7 active torsions:
REMARK  status: ('A' for Active; 'I' for Inactive)
REMARK    1  A    between atoms: C_2  and  C_3 
REMARK    2  A    between atoms: C_3  and  O_6 
REMARK    3  A    between atoms: C_3  and  C_4 
REMARK    4  A    between atoms: C_7  and  O_6 
REMARK    5  A    between atoms: C_9  and  C_10 
REMARK    6  A    between atoms: N_15  and  C_14 
REMARK    7  A    between atoms: N_20  and  C_19 
REMARK       I    between atoms: C_22  and  N_20 
ROOT
ATOM      1  C   LIG d   1      -3.246  92.354 118.620  0.00  0.00     0.161 C 
ATOM      2  C   LIG d   1      -4.221  91.595 117.951  0.00  0.00     0.016 C 
ATOM      3  C   LIG d   1      -5.532  92.061 117.699  0.00  0.00     0.038 C 
ATOM      4  C   LIG d   1      -5.913  93.384 117.967  0.00  0.00     0.028 C 
ATOM      5  C   LIG d   1      -5.118  94.026 119.099  0.00  0.00    -0.047 C 
ATOM      6  C   LIG d   1      -3.609  93.841 118.820  0.00  0.00     0.091 C 
ENDROOT
BRANCH   1   7
ATOM      7  O   LIG d   1      -1.981  92.235 117.938  0.00  0.00    -0.368 OA
BRANCH   7   8
ATOM      8  C   LIG d   1      -0.995  91.381 118.569  0.00  0.00     0.119 C 
BRANCH   8   9
ATOM      9  C   LIG d   1       0.196  92.271 118.974  0.00  0.00     0.028 C 
ATOM     10  C   LIG d   1       0.275  92.488 120.495  0.00  0.00     0.006 C 
ENDBRANCH   8   9
BRANCH   8  11
ATOM     11  C   LIG d   1      -0.423  90.364 117.577  0.00  0.00     0.028 C 
ATOM     12  C   LIG d   1      -0.719  88.910 117.978  0.00  0.00     0.006 C 
ENDBRANCH   8  11
ENDBRANCH   7   8
ENDBRANCH   1   7
BRANCH   6  13
ATOM     13  N   LIG d   1      -2.760  94.366 119.922  0.00  0.00    -0.311 N 
ATOM     14  C   LIG d   1      -2.267  95.603 119.941  0.00  0.00     0.210 C 
ATOM     15  C   LIG d   1      -1.400  95.934 121.160  0.00  0.00     0.109 C 
ATOM     16  O   LIG d   1      -2.491  96.467 119.080  0.00  0.00    -0.276 OA
ATOM     17  H   LIG d   1      -2.555  93.741 120.677  0.00  0.00     0.149 HD
ENDBRANCH   6  13
BRANCH   5  18
ATOM     18  N   LIG d   1      -5.521  95.443 119.179  0.00  0.00     0.381 N 
ATOM     19  H   LIG d   1      -5.380  95.783 120.109  0.00  0.00    -0.090 HD
ATOM     20  H   LIG d   1      -6.500  95.515 118.962  0.00  0.00    -0.090 HD
ATOM     21  H   LIG d   1      -4.990  95.986 118.535  0.00  0.00    -0.090 HD
ENDBRANCH   5  18
BRANCH   3  22
ATOM     22  C   LIG d   1      -6.489  91.186 117.209  0.00  0.00     0.382 C 
ATOM     23  O   LIG d   1      -6.154  90.261 116.430  0.00  0.00    -0.241 OA
ATOM     24  O   LIG d   1      -7.691  91.337 117.501  0.00  0.00    -0.241 OA
ENDBRANCH   3  22
TORSDOF 7
ENDMDL
MODEL 8
REMARK VINA RESULT:      -4.3      2.583      4.471
REMARK  7 active torsions:
REMARK  status: ('A' for Active; 'I' for Inactive)
REMARK    1  A    between atoms: C_2  and  C_3 
REMARK    2  A    between atoms: C_3  and  O_6 
REMARK    3  A    between atoms: C_3  and  C_4 
REMARK    4  A    between atoms: C_7  and  O_6 
REMARK    5  A    between atoms: C_9  and  C_10 
REMARK    6  A    between atoms: N_15  and  C_14 
REMARK    7  A    between atoms: N_20  and  C_19 
REMARK       I    between atoms: C_22  and  N_20 
ROOT
ATOM      1  C   LIG d   1      -4.408  93.154 119.094  0.00  0.00     0.161 C 
ATOM      2  C   LIG d   1      -5.632  92.860 118.470  0.00  0.00     0.016 C 
ATOM      3  C   LIG d   1      -5.822  91.753 117.611  0.00  0.00     0.038 C 
ATOM      4  C   LIG d   1      -4.834  90.773 117.436  0.00  0.00     0.028 C 
ATOM      5  C   LIG d   1      -3.417  91.297 117.646  0.00  0.00    -0.047 C 
ATOM      6  C   LIG d   1      -3.350  92.034 119.003  0.00  0.00     0.091 C 
ENDROOT
BRANCH   1   7
ATOM      7  O   LIG d   1      -4.635  93.517 120.470  0.00  0.00    -0.368 OA
BRANCH   7   8
ATOM      8  C   LIG d   1      -4.488  94.922 120.791  0.00  0.00     0.119 C 
BRANCH   8   9
ATOM      9  C   LIG d   1      -5.903  95.509 120.960  0.00  0.00     0.028 C 
ATOM     10  C   LIG d   1      -6.352  96.320 119.732  0.00  0.00     0.006 C 
ENDBRANCH   8   9
BRANCH   8  11
ATOM     11  C   LIG d   1      -3.863  95.697 119.627  0.00  0.00     0.028 C 
ATOM     12  C   LIG d   1      -2.474  96.261 119.965  0.00  0.00     0.006 C 
ENDBRANCH   8  11
ENDBRANCH   7   8
ENDBRANCH   1   7
BRANCH   6  13
ATOM     13  N   LIG d   1      -2.020  92.650 119.248  0.00  0.00    -0.311 N 
ATOM     14  C   LIG d   1      -1.051  92.051 119.937  0.00  0.00     0.210 C 
ATOM     15  C   LIG d   1       0.235  92.870 120.090  0.00  0.00     0.109 C 
ATOM     16  O   LIG d   1      -1.121  90.905 120.408  0.00  0.00    -0.276 OA
ATOM     17  H   LIG d   1      -1.866  93.566 118.875  0.00  0.00     0.149 HD
ENDBRANCH   6  13
BRANCH   5  18
ATOM     18  N   LIG d   1      -2.500  90.144 117.568  0.00  0.00     0.381 N 
ATOM     19  H   LIG d   1      -2.476  89.792 116.632  0.00  0.00    -0.090 HD
ATOM     20  H   LIG d   1      -2.842  89.415 118.170  0.00  0.00    -0.090 HD
ATOM     21  H   LIG d   1      -1.584  90.417 117.852  0.00  0.00    -0.090 HD
ENDBRANCH   5  18
BRANCH   3  22
ATOM     22  C   LIG d   1      -6.997  91.641 116.885  0.00  0.00     0.382 C 
ATOM     23  O   LIG d   1      -7.554  92.669 116.430  0.00  0.00    -0.241 OA
ATOM     24  O   LIG d   1      -7.532  90.528 116.717  0.00  0.00    -0.241 OA
ENDBRANCH   3  22
TORSDOF 7
ENDMDL
MODEL 9
REMARK VINA RESULT:      -4.3      2.130      2.728
REMARK  7 active torsions:
REMARK  status: ('A' for Active; 'I' for Inactive)
REMARK    1  A    between atoms: C_2  and  C_3 
REMARK    2  A    between atoms: C_3  and  O_6 
REMARK    3  A    between atoms: C_3  and  C_4 
REMARK    4  A    between atoms: C_7  and  O_6 
REMARK    5  A    between atoms: C_9  and  C_10 
REMARK    6  A    between atoms: N_15  and  C_14 
REMARK    7  A    between atoms: N_20  and  C_19 
REMARK       I    between atoms: C_22  and  N_20 
ROOT
ATOM      1  C   LIG d   1      -4.910  92.779 120.247  0.00  0.00     0.161 C 
ATOM      2  C   LIG d   1      -3.931  91.937 119.694  0.00  0.00     0.016 C 
ATOM      3  C   LIG d   1      -4.141  91.157 118.533  0.00  0.00     0.038 C 
ATOM      4  C   LIG d   1      -5.301  91.282 117.756  0.00  0.00     0.028 C 
ATOM      5  C   LIG d   1      -6.517  91.743 118.552  0.00  0.00    -0.047 C 
ATOM      6  C   LIG d   1      -6.144  93.013 119.350  0.00  0.00     0.091 C 
ENDROOT
BRANCH   1   7
ATOM      7  O   LIG d   1      -4.317  94.038 120.622  0.00  0.00    -0.368 OA
BRANCH   7   8
ATOM      8  C   LIG d   1      -4.093  94.982 119.546  0.00  0.00     0.119 C 
BRANCH   8   9
ATOM      9  C   LIG d   1      -2.574  95.223 119.450  0.00  0.00     0.028 C 
ATOM     10  C   LIG d   1      -1.950  94.549 118.217  0.00  0.00     0.006 C 
ENDBRANCH   8   9
BRANCH   8  11
ATOM     11  C   LIG d   1      -4.701  96.350 119.870  0.00  0.00     0.028 C 
ATOM     12  C   LIG d   1      -5.294  96.419 121.286  0.00  0.00     0.006 C 
ENDBRANCH   8  11
ENDBRANCH   7   8
ENDBRANCH   1   7
BRANCH   6  13
ATOM     13  N   LIG d   1      -7.252  93.481 120.222  0.00  0.00    -0.311 N 
ATOM     14  C   LIG d   1      -8.113  94.434 119.866  0.00  0.00     0.210 C 
ATOM     15  C   LIG d   1      -9.167  94.780 120.922  0.00  0.00     0.109 C 
ATOM     16  O   LIG d   1      -8.122  95.002 118.764  0.00  0.00    -0.276 OA
ATOM     17  H   LIG d   1      -7.337  93.052 121.122  0.00  0.00     0.149 HD
ENDBRANCH   6  13
BRANCH   5  18
ATOM     18  N   LIG d   1      -7.619  91.963 117.596  0.00  0.00     0.381 N 
ATOM     19  H   LIG d   1      -7.355  91.627 116.692  0.00  0.00    -0.090 HD
ATOM     20  H   LIG d   1      -7.796  92.950 117.526  0.00  0.00    -0.090 HD
ATOM     21  H   LIG d   1      -8.440  91.492 117.907  0.00  0.00    -0.090 HD
ENDBRANCH   5  18
BRANCH   3  22
ATOM     22  C   LIG d   1      -3.198  90.210 118.163  0.00  0.00     0.382 C 
ATOM     23  O   LIG d   1      -3.444  88.989 118.312  0.00  0.00    -0.241 OA
ATOM     24  O   LIG d   1      -2.088  90.563 117.722  0.00  0.00    -0.241 OA
ENDBRANCH   3  22
TORSDOF 7
ENDMDL
