MODEL 1
REMARK VINA RESULT:      -5.1      0.000      0.000
REMARK  7 active torsions:
REMARK  status: ('A' for Active; 'I' for Inactive)
REMARK    1  A    between atoms: C_2  and  C_3 
REMARK    2  A    between atoms: C_3  and  O_6 
REMARK    3  A    between atoms: C_3  and  C_4 
REMARK    4  A    between atoms: C_7  and  O_6 
REMARK    5  A    between atoms: C_9  and  C_10 
REMARK    6  A    between atoms: N_15  and  C_14 
REMARK    7  A    between atoms: N_20  and  C_19 
REMARK       I    between atoms: C_22  and  N_20 
ROOT
ATOM      1  C   LIG d   1      -5.330  93.067 117.606  0.00  0.00     0.161 C 
ATOM      2  C   LIG d   1      -6.418  92.203 117.400  0.00  0.00     0.016 C 
ATOM      3  C   LIG d   1      -6.274  90.834 117.075  0.00  0.00     0.038 C 
ATOM      4  C   LIG d   1      -5.024  90.198 117.083  0.00  0.00     0.028 C 
ATOM      5  C   LIG d   1      -3.862  91.141 116.791  0.00  0.00    -0.047 C 
ATOM      6  C   LIG d   1      -3.961  92.365 117.729  0.00  0.00     0.091 C 
ENDROOT
BRANCH   1   7
ATOM      7  O   LIG d   1      -5.574  93.893 118.762  0.00  0.00    -0.368 OA
BRANCH   7   8
ATOM      8  C   LIG d   1      -6.745  93.560 119.547  0.00  0.00     0.119 C 
BRANCH   8   9
ATOM      9  C   LIG d   1      -7.577  94.847 119.708  0.00  0.00     0.028 C 
ATOM     10  C   LIG d   1      -8.591  95.037 118.567  0.00  0.00     0.006 C 
ENDBRANCH   8   9
BRANCH   8  11
ATOM     11  C   LIG d   1      -6.361  93.145 120.971  0.00  0.00     0.028 C 
ATOM     12  C   LIG d   1      -5.145  92.206 121.010  0.00  0.00     0.006 C 
ENDBRANCH   8  11
ENDBRANCH   7   8
ENDBRANCH   1   7
BRANCH   6  13
ATOM     13  N   LIG d   1      -2.909  93.378 117.452  0.00  0.00    -0.311 N 
ATOM     14  C   LIG d   1      -1.762  93.447 118.124  0.00  0.00     0.210 C 
ATOM     15  C   LIG d   1      -0.825  94.579 117.691  0.00  0.00     0.109 C 
ATOM     16  O   LIG d   1      -1.417  92.657 119.016  0.00  0.00    -0.276 OA
ATOM     17  H   LIG d   1      -3.094  94.039 116.722  0.00  0.00     0.149 HD
ENDBRANCH   6  13
BRANCH   5  18
ATOM     18  N   LIG d   1      -2.613  90.376 116.967  0.00  0.00     0.381 N 
ATOM     19  H   LIG d   1      -2.819  89.399 117.028  0.00  0.00    -0.090 HD
ATOM     20  H   LIG d   1      -2.176  90.661 117.827  0.00  0.00    -0.090 HD
ATOM     21  H   LIG d   1      -1.998  90.547 116.202  0.00  0.00    -0.090 HD
ENDBRANCH   5  18
BRANCH   3  22
ATOM     22  C   LIG d   1      -7.386  90.097 116.698  0.00  0.00     0.382 C 
ATOM     23  O   LIG d   1      -7.302  88.851 116.581  0.00  0.00    -0.241 OA
ATOM     24  O   LIG d   1      -8.461  90.667 116.430  0.00  0.00    -0.241 OA
ENDBRANCH   3  22
TORSDOF 7
ENDMDL
MODEL 2
REMARK VINA RESULT:      -4.9      0.906      1.416
REMARK  7 active torsions:
REMARK  status: ('A' for Active; 'I' for Inactive)
REMARK    1  A    between atoms: C_2  and  C_3 
REMARK    2  A    between atoms: C_3  and  O_6 
REMARK    3  A    between atoms: C_3  and  C_4 
REMARK    4  A    between atoms: C_7  and  O_6 
REMARK    5  A    between atoms: C_9  and  C_10 
REMARK    6  A    between atoms: N_15  and  C_14 
REMARK    7  A    between atoms: N_20  and  C_19 
REMARK       I    between atoms: C_22  and  N_20 
ROOT
ATOM      1  C   LIG d   1      -5.340  92.960 117.779  0.00  0.00     0.161 C 
ATOM      2  C   LIG d   1      -6.438  92.111 117.562  0.00  0.00     0.016 C 
ATOM      3  C   LIG d   1      -6.312  90.769 117.138  0.00  0.00     0.038 C 
ATOM      4  C   LIG d   1      -5.064  90.134 117.046  0.00  0.00     0.028 C 
ATOM      5  C   LIG d   1      -3.914  91.096 116.767  0.00  0.00    -0.047 C 
ATOM      6  C   LIG d   1      -3.968  92.253 117.791  0.00  0.00     0.091 C 
ENDROOT
BRANCH   1   7
ATOM      7  O   LIG d   1      -5.531  93.704 118.998  0.00  0.00    -0.368 OA
BRANCH   7   8
ATOM      8  C   LIG d   1      -6.858  94.244 119.215  0.00  0.00     0.119 C 
BRANCH   8   9
ATOM      9  C   LIG d   1      -6.821  95.734 118.822  0.00  0.00     0.028 C 
ATOM     10  C   LIG d   1      -6.445  96.643 120.004  0.00  0.00     0.006 C 
ENDBRANCH   8   9
BRANCH   8  11
ATOM     11  C   LIG d   1      -7.232  94.225 120.700  0.00  0.00     0.028 C 
ATOM     12  C   LIG d   1      -8.742  94.059 120.931  0.00  0.00     0.006 C 
ENDBRANCH   8  11
ENDBRANCH   7   8
ENDBRANCH   1   7
BRANCH   6  13
ATOM     13  N   LIG d   1      -2.928  93.284 117.538  0.00  0.00    -0.311 N 
ATOM     14  C   LIG d   1      -1.726  93.268 118.110  0.00  0.00     0.210 C 
ATOM     15  C   LIG d   1      -0.812  94.436 117.726  0.00  0.00     0.109 C 
ATOM     16  O   LIG d   1      -1.318  92.381 118.875  0.00  0.00    -0.276 OA
ATOM     17  H   LIG d   1      -3.164  94.023 116.906  0.00  0.00     0.149 HD
ENDBRANCH   6  13
BRANCH   5  18
ATOM     18  N   LIG d   1      -2.660  90.323 116.834  0.00  0.00     0.381 N 
ATOM     19  H   LIG d   1      -2.830  89.439 117.271  0.00  0.00    -0.090 HD
ATOM     20  H   LIG d   1      -1.996  90.829 117.393  0.00  0.00    -0.090 HD
ATOM     21  H   LIG d   1      -2.296  90.183 115.917  0.00  0.00    -0.090 HD
ENDBRANCH   5  18
BRANCH   3  22
ATOM     22  C   LIG d   1      -7.441  90.058 116.761  0.00  0.00     0.382 C 
ATOM     23  O   LIG d   1      -8.486  90.670 116.430  0.00  0.00    -0.241 OA
ATOM     24  O   LIG d   1      -7.443  88.813 116.791  0.00  0.00    -0.241 OA
ENDBRANCH   3  22
TORSDOF 7
ENDMDL
MODEL 3
REMARK VINA RESULT:      -4.9      1.664      1.842
REMARK  7 active torsions:
REMARK  status: ('A' for Active; 'I' for Inactive)
REMARK    1  A    between atoms: C_2  and  C_3 
REMARK    2  A    between atoms: C_3  and  O_6 
REMARK    3  A    between atoms: C_3  and  C_4 
REMARK    4  A    between atoms: C_7  and  O_6 
REMARK    5  A    between atoms: C_9  and  C_10 
REMARK    6  A    between atoms: N_15  and  C_14 
REMARK    7  A    between atoms: N_20  and  C_19 
REMARK       I    between atoms: C_22  and  N_20 
ROOT
ATOM      1  C   LIG d   1      -5.922  93.762 118.022  0.00  0.00     0.161 C 
ATOM      2  C   LIG d   1      -6.650  92.630 117.618  0.00  0.00     0.016 C 
ATOM      3  C   LIG d   1      -6.128  91.317 117.652  0.00  0.00     0.038 C 
ATOM      4  C   LIG d   1      -4.887  91.027 118.238  0.00  0.00     0.028 C 
ATOM      5  C   LIG d   1      -3.910  92.197 118.198  0.00  0.00    -0.047 C 
ATOM      6  C   LIG d   1      -4.607  93.453 118.768  0.00  0.00     0.091 C 
ENDROOT
BRANCH   1   7
ATOM      7  O   LIG d   1      -6.760  94.623 118.818  0.00  0.00    -0.368 OA
BRANCH   7   8
ATOM      8  C   LIG d   1      -7.378  94.015 119.979  0.00  0.00     0.119 C 
BRANCH   8   9
ATOM      9  C   LIG d   1      -8.843  94.489 120.025  0.00  0.00     0.028 C 
ATOM     10  C   LIG d   1      -9.170  95.494 118.907  0.00  0.00     0.006 C 
ENDBRANCH   8   9
BRANCH   8  11
ATOM     11  C   LIG d   1      -6.746  94.525 121.278  0.00  0.00     0.028 C 
ATOM     12  C   LIG d   1      -6.277  95.985 121.179  0.00  0.00     0.006 C 
ENDBRANCH   8  11
ENDBRANCH   7   8
ENDBRANCH   1   7
BRANCH   6  13
ATOM     13  N   LIG d   1      -3.749  94.663 118.688  0.00  0.00    -0.311 N 
ATOM     14  C   LIG d   1      -2.958  95.068 119.680  0.00  0.00     0.210 C 
ATOM     15  C   LIG d   1      -2.172  96.353 119.397  0.00  0.00     0.109 C 
ATOM     16  O   LIG d   1      -2.808  94.468 120.755  0.00  0.00    -0.276 OA
ATOM     17  H   LIG d   1      -3.785  95.193 117.839  0.00  0.00     0.149 HD
ENDBRANCH   6  13
BRANCH   5  18
ATOM     18  N   LIG d   1      -2.712  91.803 118.963  0.00  0.00     0.381 N 
ATOM     19  H   LIG d   1      -2.055  91.353 118.356  0.00  0.00    -0.090 HD
ATOM     20  H   LIG d   1      -2.982  91.148 119.676  0.00  0.00    -0.090 HD
ATOM     21  H   LIG d   1      -2.294  92.606 119.380  0.00  0.00    -0.090 HD
ENDBRANCH   5  18
BRANCH   3  22
ATOM     22  C   LIG d   1      -6.834  90.281 117.058  0.00  0.00     0.382 C 
ATOM     23  O   LIG d   1      -6.222  89.383 116.432  0.00  0.00    -0.241 OA
ATOM     24  O   LIG d   1      -8.079  90.258 117.103  0.00  0.00    -0.241 OA
ENDBRANCH   3  22
TORSDOF 7
ENDMDL
MODEL 4
REMARK VINA RESULT:      -4.8      2.167      4.651
REMARK  7 active torsions:
REMARK  status: ('A' for Active; 'I' for Inactive)
REMARK    1  A    between atoms: C_2  and  C_3 
REMARK    2  A    between atoms: C_3  and  O_6 
REMARK    3  A    between atoms: C_3  and  C_4 
REMARK    4  A    between atoms: C_7  and  O_6 
REMARK    5  A    between atoms: C_9  and  C_10 
REMARK    6  A    between atoms: N_15  and  C_14 
REMARK    7  A    between atoms: N_20  and  C_19 
REMARK       I    between atoms: C_22  and  N_20 
ROOT
ATOM      1  C   LIG d   1      -5.684  92.911 118.775  0.00  0.00     0.161 C 
ATOM      2  C   LIG d   1      -7.034  93.284 118.669  0.00  0.00     0.016 C 
ATOM      3  C   LIG d   1      -7.514  94.572 118.997  0.00  0.00     0.038 C 
ATOM      4  C   LIG d   1      -6.646  95.629 119.312  0.00  0.00     0.028 C 
ATOM      5  C   LIG d   1      -5.326  95.167 119.920  0.00  0.00    -0.047 C 
ATOM      6  C   LIG d   1      -4.706  94.082 119.010  0.00  0.00     0.091 C 
ENDROOT
BRANCH   1   7
ATOM      7  O   LIG d   1      -5.292  92.158 117.610  0.00  0.00    -0.368 OA
BRANCH   7   8
ATOM      8  C   LIG d   1      -5.335  90.715 117.740  0.00  0.00     0.119 C 
BRANCH   8   9
ATOM      9  C   LIG d   1      -3.884  90.200 117.669  0.00  0.00     0.028 C 
ATOM     10  C   LIG d   1      -3.337  89.797 119.049  0.00  0.00     0.006 C 
ENDBRANCH   8   9
BRANCH   8  11
ATOM     11  C   LIG d   1      -6.053  90.070 116.551  0.00  0.00     0.028 C 
ATOM     12  C   LIG d   1      -7.543  89.809 116.824  0.00  0.00     0.006 C 
ENDBRANCH   8  11
ENDBRANCH   7   8
ENDBRANCH   1   7
BRANCH   6  13
ATOM     13  N   LIG d   1      -3.454  93.516 119.575  0.00  0.00    -0.311 N 
ATOM     14  C   LIG d   1      -2.314  93.431 118.892  0.00  0.00     0.210 C 
ATOM     15  C   LIG d   1      -1.148  92.796 119.656  0.00  0.00     0.109 C 
ATOM     16  O   LIG d   1      -2.149  93.852 117.737  0.00  0.00    -0.276 OA
ATOM     17  H   LIG d   1      -3.490  93.179 120.518  0.00  0.00     0.149 HD
ENDBRANCH   6  13
BRANCH   5  18
ATOM     18  N   LIG d   1      -4.465  96.356 120.071  0.00  0.00     0.381 N 
ATOM     19  H   LIG d   1      -4.292  96.765 119.174  0.00  0.00    -0.090 HD
ATOM     20  H   LIG d   1      -3.585  96.072 120.463  0.00  0.00    -0.090 HD
ATOM     21  H   LIG d   1      -4.904  97.021 120.668  0.00  0.00    -0.090 HD
ENDBRANCH   5  18
BRANCH   3  22
ATOM     22  C   LIG d   1      -8.880  94.804 119.051  0.00  0.00     0.382 C 
ATOM     23  O   LIG d   1      -9.612  94.076 119.764  0.00  0.00    -0.241 OA
ATOM     24  O   LIG d   1      -9.396  95.704 118.361  0.00  0.00    -0.241 OA
ENDBRANCH   3  22
TORSDOF 7
ENDMDL
MODEL 5
REMARK VINA RESULT:      -4.7      2.244      4.517
REMARK  7 active torsions:
REMARK  status: ('A' for Active; 'I' for Inactive)
REMARK    1  A    between atoms: C_2  and  C_3 
REMARK    2  A    between atoms: C_3  and  O_6 
REMARK    3  A    between atoms: C_3  and  C_4 
REMARK    4  A    between atoms: C_7  and  O_6 
REMARK    5  A    between atoms: C_9  and  C_10 
REMARK    6  A    between atoms: N_15  and  C_14 
REMARK    7  A    between atoms: N_20  and  C_19 
REMARK       I    between atoms: C_22  and  N_20 
ROOT
ATOM      1  C   LIG d   1      -5.068  92.435 119.486  0.00  0.00     0.161 C 
ATOM      2  C   LIG d   1      -5.428  91.355 118.663  0.00  0.00     0.016 C 
ATOM      3  C   LIG d   1      -6.456  91.424 117.695  0.00  0.00     0.038 C 
ATOM      4  C   LIG d   1      -7.097  92.631 117.378  0.00  0.00     0.028 C 
ATOM      5  C   LIG d   1      -7.118  93.627 118.533  0.00  0.00    -0.047 C 
ATOM      6  C   LIG d   1      -5.681  93.791 119.079  0.00  0.00     0.091 C 
ENDROOT
BRANCH   1   7
ATOM      7  O   LIG d   1      -3.632  92.535 119.560  0.00  0.00    -0.368 OA
BRANCH   7   8
ATOM      8  C   LIG d   1      -2.927  92.527 118.295  0.00  0.00     0.119 C 
BRANCH   8   9
ATOM      9  C   LIG d   1      -1.792  91.491 118.404  0.00  0.00     0.028 C 
ATOM     10  C   LIG d   1      -2.041  90.253 117.526  0.00  0.00     0.006 C 
ENDBRANCH   8   9
BRANCH   8  11
ATOM     11  C   LIG d   1      -2.230  93.866 118.037  0.00  0.00     0.028 C 
ATOM     12  C   LIG d   1      -0.708  93.724 117.873  0.00  0.00     0.006 C 
ENDBRANCH   8  11
ENDBRANCH   7   8
ENDBRANCH   1   7
BRANCH   6  13
ATOM     13  N   LIG d   1      -5.624  94.685 120.265  0.00  0.00    -0.311 N 
ATOM     14  C   LIG d   1      -5.406  95.996 120.185  0.00  0.00     0.210 C 
ATOM     15  C   LIG d   1      -5.366  96.728 121.530  0.00  0.00     0.109 C 
ATOM     16  O   LIG d   1      -5.273  96.628 119.126  0.00  0.00    -0.276 OA
ATOM     17  H   LIG d   1      -5.753  94.260 121.163  0.00  0.00     0.149 HD
ENDBRANCH   6  13
BRANCH   5  18
ATOM     18  N   LIG d   1      -7.691  94.887 118.024  0.00  0.00     0.381 N 
ATOM     19  H   LIG d   1      -7.020  95.356 117.449  0.00  0.00    -0.090 HD
ATOM     20  H   LIG d   1      -7.909  95.483 118.804  0.00  0.00    -0.090 HD
ATOM     21  H   LIG d   1      -8.516  94.699 117.499  0.00  0.00    -0.090 HD
ENDBRANCH   5  18
BRANCH   3  22
ATOM     22  C   LIG d   1      -6.881  90.267 117.059  0.00  0.00     0.382 C 
ATOM     23  O   LIG d   1      -8.078  89.904 117.151  0.00  0.00    -0.241 OA
ATOM     24  O   LIG d   1      -6.071  89.557 116.432  0.00  0.00    -0.241 OA
ENDBRANCH   3  22
TORSDOF 7
ENDMDL
MODEL 6
REMARK VINA RESULT:      -4.7      2.604      4.924
REMARK  7 active torsions:
REMARK  status: ('A' for Active; 'I' for Inactive)
REMARK    1  A    between atoms: C_2  and  C_3 
REMARK    2  A    between atoms: C_3  and  O_6 
REMARK    3  A    between atoms: C_3  and  C_4 
REMARK    4  A    between atoms: C_7  and  O_6 
REMARK    5  A    between atoms: C_9  and  C_10 
REMARK    6  A    between atoms: N_15  and  C_14 
REMARK    7  A    between atoms: N_20  and  C_19 
REMARK       I    between atoms: C_22  and  N_20 
ROOT
ATOM      1  C   LIG d   1      -2.892  90.757 118.072  0.00  0.00     0.161 C 
ATOM      2  C   LIG d   1      -4.098  90.283 117.529  0.00  0.00     0.016 C 
ATOM      3  C   LIG d   1      -5.229  91.103 117.313  0.00  0.00     0.038 C 
ATOM      4  C   LIG d   1      -5.180  92.494 117.485  0.00  0.00     0.028 C 
ATOM      5  C   LIG d   1      -4.143  92.942 118.510  0.00  0.00    -0.047 C 
ATOM      6  C   LIG d   1      -2.783  92.294 118.163  0.00  0.00     0.091 C 
ENDROOT
BRANCH   1   7
ATOM      7  O   LIG d   1      -1.778  90.219 117.333  0.00  0.00    -0.368 OA
BRANCH   7   8
ATOM      8  C   LIG d   1      -0.880  89.355 118.072  0.00  0.00     0.119 C 
BRANCH   8   9
ATOM      9  C   LIG d   1       0.550  89.634 117.568  0.00  0.00     0.028 C 
ATOM     10  C   LIG d   1       0.581  90.679 116.440  0.00  0.00     0.006 C 
ENDBRANCH   8   9
BRANCH   8  11
ATOM     11  C   LIG d   1      -1.141  87.880 117.757  0.00  0.00     0.028 C 
ATOM     12  C   LIG d   1      -1.611  87.082 118.983  0.00  0.00     0.006 C 
ENDBRANCH   8  11
ENDBRANCH   7   8
ENDBRANCH   1   7
BRANCH   6  13
ATOM     13  N   LIG d   1      -1.732  92.612 119.164  0.00  0.00    -0.311 N 
ATOM     14  C   LIG d   1      -0.627  93.297 118.875  0.00  0.00     0.210 C 
ATOM     15  C   LIG d   1       0.336  93.498 120.049  0.00  0.00     0.109 C 
ATOM     16  O   LIG d   1      -0.368  93.785 117.764  0.00  0.00    -0.276 OA
ATOM     17  H   LIG d   1      -1.876  92.281 120.098  0.00  0.00     0.149 HD
ENDBRANCH   6  13
BRANCH   5  18
ATOM     18  N   LIG d   1      -4.103  94.416 118.489  0.00  0.00     0.381 N 
ATOM     19  H   LIG d   1      -4.680  94.760 117.747  0.00  0.00    -0.090 HD
ATOM     20  H   LIG d   1      -3.159  94.713 118.319  0.00  0.00    -0.090 HD
ATOM     21  H   LIG d   1      -4.421  94.778 119.361  0.00  0.00    -0.090 HD
ENDBRANCH   5  18
BRANCH   3  22
ATOM     22  C   LIG d   1      -6.438  90.525 116.956  0.00  0.00     0.382 C 
ATOM     23  O   LIG d   1      -7.514  91.121 117.202  0.00  0.00    -0.241 OA
ATOM     24  O   LIG d   1      -6.468  89.396 116.432  0.00  0.00    -0.241 OA
ENDBRANCH   3  22
TORSDOF 7
ENDMDL
MODEL 7
REMARK VINA RESULT:      -4.6      2.054      3.357
REMARK  7 active torsions:
REMARK  status: ('A' for Active; 'I' for Inactive)
REMARK    1  A    between atoms: C_2  and  C_3 
REMARK    2  A    between atoms: C_3  and  O_6 
REMARK    3  A    between atoms: C_3  and  C_4 
REMARK    4  A    between atoms: C_7  and  O_6 
REMARK    5  A    between atoms: C_9  and  C_10 
REMARK    6  A    between atoms: N_15  and  C_14 
REMARK    7  A    between atoms: N_20  and  C_19 
REMARK       I    between atoms: C_22  and  N_20 
ROOT
ATOM      1  C   LIG d   1      -3.449  92.541 117.926  0.00  0.00     0.161 C 
ATOM      2  C   LIG d   1      -4.852  92.521 117.855  0.00  0.00     0.016 C 
ATOM      3  C   LIG d   1      -5.595  91.386 117.455  0.00  0.00     0.038 C 
ATOM      4  C   LIG d   1      -4.988  90.139 117.244  0.00  0.00     0.028 C 
ATOM      5  C   LIG d   1      -3.528  90.241 116.814  0.00  0.00    -0.047 C 
ATOM      6  C   LIG d   1      -2.776  91.157 117.807  0.00  0.00     0.091 C 
ENDROOT
BRANCH   1   7
ATOM      7  O   LIG d   1      -3.031  93.198 119.139  0.00  0.00    -0.368 OA
BRANCH   7   8
ATOM      8  C   LIG d   1      -2.737  94.612 119.028  0.00  0.00     0.119 C 
BRANCH   8   9
ATOM      9  C   LIG d   1      -1.224  94.751 118.767  0.00  0.00     0.028 C 
ATOM     10  C   LIG d   1      -0.906  95.013 117.286  0.00  0.00     0.006 C 
ENDBRANCH   8   9
BRANCH   8  11
ATOM     11  C   LIG d   1      -2.988  95.339 120.352  0.00  0.00     0.028 C 
ATOM     12  C   LIG d   1      -4.313  94.930 121.015  0.00  0.00     0.006 C 
ENDBRANCH   8  11
ENDBRANCH   7   8
ENDBRANCH   1   7
BRANCH   6  13
ATOM     13  N   LIG d   1      -1.360  91.379 117.412  0.00  0.00    -0.311 N 
ATOM     14  C   LIG d   1      -0.347  90.651 117.878  0.00  0.00     0.210 C 
ATOM     15  C   LIG d   1       1.035  91.059 117.358  0.00  0.00     0.109 C 
ATOM     16  O   LIG d   1      -0.465  89.685 118.647  0.00  0.00    -0.276 OA
ATOM     17  H   LIG d   1      -1.178  92.123 116.767  0.00  0.00     0.149 HD
ENDBRANCH   6  13
BRANCH   5  18
ATOM     18  N   LIG d   1      -2.982  88.872 116.763  0.00  0.00     0.381 N 
ATOM     19  H   LIG d   1      -2.618  88.686 115.850  0.00  0.00    -0.090 HD
ATOM     20  H   LIG d   1      -3.723  88.219 116.946  0.00  0.00    -0.090 HD
ATOM     21  H   LIG d   1      -2.261  88.767 117.443  0.00  0.00    -0.090 HD
ENDBRANCH   5  18
BRANCH   3  22
ATOM     22  C   LIG d   1      -6.957  91.503 117.224  0.00  0.00     0.382 C 
ATOM     23  O   LIG d   1      -7.478  92.638 117.106  0.00  0.00    -0.241 OA
ATOM     24  O   LIG d   1      -7.679  90.489 117.177  0.00  0.00    -0.241 OA
ENDBRANCH   3  22
TORSDOF 7
ENDMDL
MODEL 8
REMARK VINA RESULT:      -4.5      2.228      4.431
REMARK  7 active torsions:
REMARK  status: ('A' for Active; 'I' for Inactive)
REMARK    1  A    between atoms: C_2  and  C_3 
REMARK    2  A    between atoms: C_3  and  O_6 
REMARK    3  A    between atoms: C_3  and  C_4 
REMARK    4  A    between atoms: C_7  and  O_6 
REMARK    5  A    between atoms: C_9  and  C_10 
REMARK    6  A    between atoms: N_15  and  C_14 
REMARK    7  A    between atoms: N_20  and  C_19 
REMARK       I    between atoms: C_22  and  N_20 
ROOT
ATOM      1  C   LIG d   1      -3.678  91.718 118.377  0.00  0.00     0.161 C 
ATOM      2  C   LIG d   1      -4.608  90.932 117.677  0.00  0.00     0.016 C 
ATOM      3  C   LIG d   1      -5.842  91.429 117.198  0.00  0.00     0.038 C 
ATOM      4  C   LIG d   1      -6.165  92.793 117.255  0.00  0.00     0.028 C 
ATOM      5  C   LIG d   1      -5.480  93.530 118.400  0.00  0.00    -0.047 C 
ATOM      6  C   LIG d   1      -3.963  93.235 118.351  0.00  0.00     0.091 C 
ENDROOT
BRANCH   1   7
ATOM      7  O   LIG d   1      -2.348  91.451 117.891  0.00  0.00    -0.368 OA
BRANCH   7   8
ATOM      8  C   LIG d   1      -1.580  90.476 118.639  0.00  0.00     0.119 C 
BRANCH   8   9
ATOM      9  C   LIG d   1      -0.262  91.153 119.064  0.00  0.00     0.028 C 
ATOM     10  C   LIG d   1      -0.262  91.558 120.547  0.00  0.00     0.006 C 
ENDBRANCH   8   9
BRANCH   8  11
ATOM     11  C   LIG d   1      -1.163  89.297 117.755  0.00  0.00     0.028 C 
ATOM     12  C   LIG d   1      -2.015  88.041 117.997  0.00  0.00     0.006 C 
ENDBRANCH   8  11
ENDBRANCH   7   8
ENDBRANCH   1   7
BRANCH   6  13
ATOM     13  N   LIG d   1      -3.229  93.850 119.488  0.00  0.00    -0.311 N 
ATOM     14  C   LIG d   1      -2.138  94.599 119.336  0.00  0.00     0.210 C 
ATOM     15  C   LIG d   1      -1.525  95.119 120.640  0.00  0.00     0.109 C 
ATOM     16  O   LIG d   1      -1.639  94.908 118.244  0.00  0.00    -0.276 OA
ATOM     17  H   LIG d   1      -3.584  93.676 120.408  0.00  0.00     0.149 HD
ENDBRANCH   6  13
BRANCH   5  18
ATOM     18  N   LIG d   1      -5.794  94.964 118.259  0.00  0.00     0.381 N 
ATOM     19  H   LIG d   1      -6.376  95.260 119.018  0.00  0.00    -0.090 HD
ATOM     20  H   LIG d   1      -6.300  95.103 117.402  0.00  0.00    -0.090 HD
ATOM     21  H   LIG d   1      -4.953  95.498 118.247  0.00  0.00    -0.090 HD
ENDBRANCH   5  18
BRANCH   3  22
ATOM     22  C   LIG d   1      -6.786  90.549 116.689  0.00  0.00     0.382 C 
ATOM     23  O   LIG d   1      -7.946  90.953 116.435  0.00  0.00    -0.241 OA
ATOM     24  O   LIG d   1      -6.505  89.347 116.523  0.00  0.00    -0.241 OA
ENDBRANCH   3  22
TORSDOF 7
ENDMDL
MODEL 9
REMARK VINA RESULT:      -4.1      2.403      5.083
REMARK  7 active torsions:
REMARK  status: ('A' for Active; 'I' for Inactive)
REMARK    1  A    between atoms: C_2  and  C_3 
REMARK    2  A    between atoms: C_3  and  O_6 
REMARK    3  A    between atoms: C_3  and  C_4 
REMARK    4  A    between atoms: C_7  and  O_6 
REMARK    5  A    between atoms: C_9  and  C_10 
REMARK    6  A    between atoms: N_15  and  C_14 
REMARK    7  A    between atoms: N_20  and  C_19 
REMARK       I    between atoms: C_22  and  N_20 
ROOT
ATOM      1  C   LIG d   1      -3.666  92.641 118.713  0.00  0.00     0.161 C 
ATOM      2  C   LIG d   1      -2.821  91.551 118.447  0.00  0.00     0.016 C 
ATOM      3  C   LIG d   1      -3.291  90.292 118.007  0.00  0.00     0.038 C 
ATOM      4  C   LIG d   1      -4.633  90.082 117.657  0.00  0.00     0.028 C 
ATOM      5  C   LIG d   1      -5.602  91.004 118.390  0.00  0.00    -0.047 C 
ATOM      6  C   LIG d   1      -5.121  92.465 118.231  0.00  0.00     0.091 C 
ENDROOT
BRANCH   1   7
ATOM      7  O   LIG d   1      -3.098  93.846 118.162  0.00  0.00    -0.368 OA
BRANCH   7   8
ATOM      8  C   LIG d   1      -1.713  94.107 118.494  0.00  0.00     0.119 C 
BRANCH   8   9
ATOM      9  C   LIG d   1      -1.697  94.975 119.768  0.00  0.00     0.028 C 
ATOM     10  C   LIG d   1      -1.184  94.205 120.996  0.00  0.00     0.006 C 
ENDBRANCH   8   9
BRANCH   8  11
ATOM     11  C   LIG d   1      -1.032  94.956 117.417  0.00  0.00     0.028 C 
ATOM     12  C   LIG d   1      -1.005  96.453 117.766  0.00  0.00     0.006 C 
ENDBRANCH   8  11
ENDBRANCH   7   8
ENDBRANCH   1   7
BRANCH   6  13
ATOM     13  N   LIG d   1      -5.966  93.425 118.989  0.00  0.00    -0.311 N 
ATOM     14  C   LIG d   1      -7.129  93.892 118.538  0.00  0.00     0.210 C 
ATOM     15  C   LIG d   1      -7.830  94.888 119.468  0.00  0.00     0.109 C 
ATOM     16  O   LIG d   1      -7.662  93.552 117.472  0.00  0.00    -0.276 OA
ATOM     17  H   LIG d   1      -5.624  93.730 119.879  0.00  0.00     0.149 HD
ENDBRANCH   6  13
BRANCH   5  18
ATOM     18  N   LIG d   1      -6.947  90.774 117.831  0.00  0.00     0.381 N 
ATOM     19  H   LIG d   1      -7.242  89.840 118.034  0.00  0.00    -0.090 HD
ATOM     20  H   LIG d   1      -6.906  90.882 116.833  0.00  0.00    -0.090 HD
ATOM     21  H   LIG d   1      -7.593  91.426 118.217  0.00  0.00    -0.090 HD
ENDBRANCH   5  18
BRANCH   3  22
ATOM     22  C   LIG d   1      -2.420  89.215 117.952  0.00  0.00     0.382 C 
ATOM     23  O   LIG d   1      -2.740  88.122 118.478  0.00  0.00    -0.241 OA
ATOM     24  O   LIG d   1      -1.299  89.335 117.422  0.00  0.00    -0.241 OA
ENDBRANCH   3  22
TORSDOF 7
ENDMDL
