MODEL 1
REMARK VINA RESULT:      -4.7      0.000      0.000
REMARK  7 active torsions:
REMARK  status: ('A' for Active; 'I' for Inactive)
REMARK    1  A    between atoms: C_2  and  C_3 
REMARK    2  A    between atoms: C_3  and  O_6 
REMARK    3  A    between atoms: C_3  and  C_4 
REMARK    4  A    between atoms: C_7  and  O_6 
REMARK    5  A    between atoms: C_9  and  C_10 
REMARK    6  A    between atoms: N_15  and  C_14 
REMARK    7  A    between atoms: N_20  and  C_19 
REMARK       I    between atoms: C_22  and  N_20 
ROOT
ATOM      1  C   LIG d   1      -4.709  93.484 118.928  0.00  0.00     0.161 C 
ATOM      2  C   LIG d   1      -5.887  94.246 118.851  0.00  0.00     0.016 C 
ATOM      3  C   LIG d   1      -6.990  93.893 118.040  0.00  0.00     0.038 C 
ATOM      4  C   LIG d   1      -7.049  92.667 117.362  0.00  0.00     0.028 C 
ATOM      5  C   LIG d   1      -5.677  92.102 117.009  0.00  0.00    -0.047 C 
ATOM      6  C   LIG d   1      -4.799  92.086 118.281  0.00  0.00     0.091 C 
ENDROOT
BRANCH   1   7
ATOM      7  O   LIG d   1      -4.286  93.374 120.301  0.00  0.00    -0.368 OA
BRANCH   7   8
ATOM      8  C   LIG d   1      -4.847  92.270 121.054  0.00  0.00     0.119 C 
BRANCH   8   9
ATOM      9  C   LIG d   1      -5.760  92.868 122.142  0.00  0.00     0.028 C 
ATOM     10  C   LIG d   1      -5.243  94.219 122.664  0.00  0.00     0.006 C 
ENDBRANCH   8   9
BRANCH   8  11
ATOM     11  C   LIG d   1      -3.759  91.504 121.813  0.00  0.00     0.028 C 
ATOM     12  C   LIG d   1      -2.342  92.005 121.490  0.00  0.00     0.006 C 
ENDBRANCH   8  11
ENDBRANCH   7   8
ENDBRANCH   1   7
BRANCH   6  13
ATOM     13  N   LIG d   1      -3.413  91.626 118.007  0.00  0.00    -0.311 N 
ATOM     14  C   LIG d   1      -2.997  90.380 118.224  0.00  0.00     0.210 C 
ATOM     15  C   LIG d   1      -1.524  90.122 117.892  0.00  0.00     0.109 C 
ATOM     16  O   LIG d   1      -3.717  89.455 118.629  0.00  0.00    -0.276 OA
ATOM     17  H   LIG d   1      -2.770  92.305 117.647  0.00  0.00     0.149 HD
ENDBRANCH   6  13
BRANCH   5  18
ATOM     18  N   LIG d   1      -5.883  90.761 116.431  0.00  0.00     0.381 N 
ATOM     19  H   LIG d   1      -6.230  90.139 117.133  0.00  0.00    -0.090 HD
ATOM     20  H   LIG d   1      -5.000  90.408 116.106  0.00  0.00    -0.090 HD
ATOM     21  H   LIG d   1      -6.528  90.811 115.673  0.00  0.00    -0.090 HD
ENDBRANCH   5  18
BRANCH   3  22
ATOM     22  C   LIG d   1      -8.032  94.791 117.870  0.00  0.00     0.382 C 
ATOM     23  O   LIG d   1      -7.819  96.024 117.964  0.00  0.00    -0.241 OA
ATOM     24  O   LIG d   1      -9.192  94.383 117.668  0.00  0.00    -0.241 OA
ENDBRANCH   3  22
TORSDOF 7
ENDMDL
MODEL 2
REMARK VINA RESULT:      -4.5      1.200      1.766
REMARK  7 active torsions:
REMARK  status: ('A' for Active; 'I' for Inactive)
REMARK    1  A    between atoms: C_2  and  C_3 
REMARK    2  A    between atoms: C_3  and  O_6 
REMARK    3  A    between atoms: C_3  and  C_4 
REMARK    4  A    between atoms: C_7  and  O_6 
REMARK    5  A    between atoms: C_9  and  C_10 
REMARK    6  A    between atoms: N_15  and  C_14 
REMARK    7  A    between atoms: N_20  and  C_19 
REMARK       I    between atoms: C_22  and  N_20 
ROOT
ATOM      1  C   LIG d   1      -4.824  93.610 119.003  0.00  0.00     0.161 C 
ATOM      2  C   LIG d   1      -6.015  94.351 118.920  0.00  0.00     0.016 C 
ATOM      3  C   LIG d   1      -7.097  93.994 118.082  0.00  0.00     0.038 C 
ATOM      4  C   LIG d   1      -7.120  92.781 117.378  0.00  0.00     0.028 C 
ATOM      5  C   LIG d   1      -5.731  92.250 117.039  0.00  0.00    -0.047 C 
ATOM      6  C   LIG d   1      -4.876  92.224 118.326  0.00  0.00     0.091 C 
ENDROOT
BRANCH   1   7
ATOM      7  O   LIG d   1      -4.424  93.480 120.381  0.00  0.00    -0.368 OA
BRANCH   7   8
ATOM      8  C   LIG d   1      -3.200  94.159 120.757  0.00  0.00     0.119 C 
BRANCH   8   9
ATOM      9  C   LIG d   1      -2.753  95.007 119.551  0.00  0.00     0.028 C 
ATOM     10  C   LIG d   1      -2.691  96.508 119.880  0.00  0.00     0.006 C 
ENDBRANCH   8   9
BRANCH   8  11
ATOM     11  C   LIG d   1      -2.062  93.163 120.996  0.00  0.00     0.028 C 
ATOM     12  C   LIG d   1      -2.517  91.910 121.761  0.00  0.00     0.006 C 
ENDBRANCH   8  11
ENDBRANCH   7   8
ENDBRANCH   1   7
BRANCH   6  13
ATOM     13  N   LIG d   1      -3.476  91.797 118.068  0.00  0.00    -0.311 N 
ATOM     14  C   LIG d   1      -3.045  90.550 118.248  0.00  0.00     0.210 C 
ATOM     15  C   LIG d   1      -1.560  90.328 117.942  0.00  0.00     0.109 C 
ATOM     16  O   LIG d   1      -3.759  89.599 118.600  0.00  0.00    -0.276 OA
ATOM     17  H   LIG d   1      -2.837  92.499 117.749  0.00  0.00     0.149 HD
ENDBRANCH   6  13
BRANCH   5  18
ATOM     18  N   LIG d   1      -5.900  90.917 116.430  0.00  0.00     0.381 N 
ATOM     19  H   LIG d   1      -5.376  90.864 115.579  0.00  0.00    -0.090 HD
ATOM     20  H   LIG d   1      -6.871  90.780 116.211  0.00  0.00    -0.090 HD
ATOM     21  H   LIG d   1      -5.592  90.212 117.063  0.00  0.00    -0.090 HD
ENDBRANCH   5  18
BRANCH   3  22
ATOM     22  C   LIG d   1      -8.153  94.875 117.911  0.00  0.00     0.382 C 
ATOM     23  O   LIG d   1      -9.284  94.442 117.580  0.00  0.00    -0.241 OA
ATOM     24  O   LIG d   1      -7.980  96.102 118.041  0.00  0.00    -0.241 OA
ENDBRANCH   3  22
TORSDOF 7
ENDMDL
MODEL 3
REMARK VINA RESULT:      -4.4      2.681      4.243
REMARK  7 active torsions:
REMARK  status: ('A' for Active; 'I' for Inactive)
REMARK    1  A    between atoms: C_2  and  C_3 
REMARK    2  A    between atoms: C_3  and  O_6 
REMARK    3  A    between atoms: C_3  and  C_4 
REMARK    4  A    between atoms: C_7  and  O_6 
REMARK    5  A    between atoms: C_9  and  C_10 
REMARK    6  A    between atoms: N_15  and  C_14 
REMARK    7  A    between atoms: N_20  and  C_19 
REMARK       I    between atoms: C_22  and  N_20 
ROOT
ATOM      1  C   LIG d   1      -4.200  92.205 118.725  0.00  0.00     0.161 C 
ATOM      2  C   LIG d   1      -5.101  91.422 117.985  0.00  0.00     0.016 C 
ATOM      3  C   LIG d   1      -6.311  91.922 117.451  0.00  0.00     0.038 C 
ATOM      4  C   LIG d   1      -6.632  93.287 117.493  0.00  0.00     0.028 C 
ATOM      5  C   LIG d   1      -5.996  94.022 118.668  0.00  0.00    -0.047 C 
ATOM      6  C   LIG d   1      -4.480  93.722 118.687  0.00  0.00     0.091 C 
ENDROOT
BRANCH   1   7
ATOM      7  O   LIG d   1      -2.851  91.933 118.299  0.00  0.00    -0.368 OA
BRANCH   7   8
ATOM      8  C   LIG d   1      -2.003  91.254 119.258  0.00  0.00     0.119 C 
BRANCH   8   9
ATOM      9  C   LIG d   1      -0.794  92.167 119.535  0.00  0.00     0.028 C 
ATOM     10  C   LIG d   1      -0.493  92.302 121.038  0.00  0.00     0.006 C 
ENDBRANCH   8   9
BRANCH   8  11
ATOM     11  C   LIG d   1      -1.415  89.969 118.669  0.00  0.00     0.028 C 
ATOM     12  C   LIG d   1      -0.364  90.239 117.580  0.00  0.00     0.006 C 
ENDBRANCH   8  11
ENDBRANCH   7   8
ENDBRANCH   1   7
BRANCH   6  13
ATOM     13  N   LIG d   1      -3.795  94.335 119.855  0.00  0.00    -0.311 N 
ATOM     14  C   LIG d   1      -2.838  95.255 119.744  0.00  0.00     0.210 C 
ATOM     15  C   LIG d   1      -2.250  95.741 121.073  0.00  0.00     0.109 C 
ATOM     16  O   LIG d   1      -2.442  95.738 118.672  0.00  0.00    -0.276 OA
ATOM     17  H   LIG d   1      -4.076  94.024 120.764  0.00  0.00     0.149 HD
ENDBRANCH   6  13
BRANCH   5  18
ATOM     18  N   LIG d   1      -6.299  95.457 118.513  0.00  0.00     0.381 N 
ATOM     19  H   LIG d   1      -6.606  95.835 119.387  0.00  0.00    -0.090 HD
ATOM     20  H   LIG d   1      -7.043  95.562 117.846  0.00  0.00    -0.090 HD
ATOM     21  H   LIG d   1      -5.490  95.945 118.198  0.00  0.00    -0.090 HD
ENDBRANCH   5  18
BRANCH   3  22
ATOM     22  C   LIG d   1      -7.234  91.045 116.901  0.00  0.00     0.382 C 
ATOM     23  O   LIG d   1      -8.455  91.331 116.914  0.00  0.00    -0.241 OA
ATOM     24  O   LIG d   1      -6.865  89.952 116.432  0.00  0.00    -0.241 OA
ENDBRANCH   3  22
TORSDOF 7
ENDMDL
MODEL 4
REMARK VINA RESULT:      -4.1      1.925      2.426
REMARK  7 active torsions:
REMARK  status: ('A' for Active; 'I' for Inactive)
REMARK    1  A    between atoms: C_2  and  C_3 
REMARK    2  A    between atoms: C_3  and  O_6 
REMARK    3  A    between atoms: C_3  and  C_4 
REMARK    4  A    between atoms: C_7  and  O_6 
REMARK    5  A    between atoms: C_9  and  C_10 
REMARK    6  A    between atoms: N_15  and  C_14 
REMARK    7  A    between atoms: N_20  and  C_19 
REMARK       I    between atoms: C_22  and  N_20 
ROOT
ATOM      1  C   LIG d   1      -4.798  93.703 118.767  0.00  0.00     0.161 C 
ATOM      2  C   LIG d   1      -6.105  93.426 118.334  0.00  0.00     0.016 C 
ATOM      3  C   LIG d   1      -6.474  92.219 117.698  0.00  0.00     0.038 C 
ATOM      4  C   LIG d   1      -5.587  91.138 117.586  0.00  0.00     0.028 C 
ATOM      5  C   LIG d   1      -4.121  91.558 117.555  0.00  0.00    -0.047 C 
ATOM      6  C   LIG d   1      -3.842  92.492 118.755  0.00  0.00     0.091 C 
ENDROOT
BRANCH   1   7
ATOM      7  O   LIG d   1      -4.834  94.299 120.079  0.00  0.00    -0.368 OA
BRANCH   7   8
ATOM      8  C   LIG d   1      -5.886  93.836 120.961  0.00  0.00     0.119 C 
BRANCH   8   9
ATOM      9  C   LIG d   1      -6.409  95.058 121.740  0.00  0.00     0.028 C 
ATOM     10  C   LIG d   1      -7.578  95.754 121.024  0.00  0.00     0.006 C 
ENDBRANCH   8   9
BRANCH   8  11
ATOM     11  C   LIG d   1      -5.340  92.880 122.026  0.00  0.00     0.028 C 
ATOM     12  C   LIG d   1      -3.897  93.210 122.439  0.00  0.00     0.006 C 
ENDBRANCH   8  11
ENDBRANCH   7   8
ENDBRANCH   1   7
BRANCH   6  13
ATOM     13  N   LIG d   1      -2.451  93.016 118.752  0.00  0.00    -0.311 N 
ATOM     14  C   LIG d   1      -1.456  92.459 119.441  0.00  0.00     0.210 C 
ATOM     15  C   LIG d   1      -0.105  93.170 119.315  0.00  0.00     0.109 C 
ATOM     16  O   LIG d   1      -1.557  91.425 120.118  0.00  0.00    -0.276 OA
ATOM     17  H   LIG d   1      -2.273  93.835 118.204  0.00  0.00     0.149 HD
ENDBRANCH   6  13
BRANCH   5  18
ATOM     18  N   LIG d   1      -3.305  90.329 117.577  0.00  0.00     0.381 N 
ATOM     19  H   LIG d   1      -2.868  90.197 116.687  0.00  0.00    -0.090 HD
ATOM     20  H   LIG d   1      -3.906  89.543 117.752  0.00  0.00    -0.090 HD
ATOM     21  H   LIG d   1      -2.612  90.392 118.290  0.00  0.00    -0.090 HD
ENDBRANCH   5  18
BRANCH   3  22
ATOM     22  C   LIG d   1      -7.733  92.099 117.129  0.00  0.00     0.382 C 
ATOM     23  O   LIG d   1      -8.408  93.127 116.879  0.00  0.00    -0.241 OA
ATOM     24  O   LIG d   1      -8.220  90.975 116.902  0.00  0.00    -0.241 OA
ENDBRANCH   3  22
TORSDOF 7
ENDMDL
MODEL 5
REMARK VINA RESULT:      -4.0      2.664      4.387
REMARK  7 active torsions:
REMARK  status: ('A' for Active; 'I' for Inactive)
REMARK    1  A    between atoms: C_2  and  C_3 
REMARK    2  A    between atoms: C_3  and  O_6 
REMARK    3  A    between atoms: C_3  and  C_4 
REMARK    4  A    between atoms: C_7  and  O_6 
REMARK    5  A    between atoms: C_9  and  C_10 
REMARK    6  A    between atoms: N_15  and  C_14 
REMARK    7  A    between atoms: N_20  and  C_19 
REMARK       I    between atoms: C_22  and  N_20 
ROOT
ATOM      1  C   LIG d   1      -4.867  93.635 119.036  0.00  0.00     0.161 C 
ATOM      2  C   LIG d   1      -6.036  93.365 118.306  0.00  0.00     0.016 C 
ATOM      3  C   LIG d   1      -7.115  94.273 118.202  0.00  0.00     0.038 C 
ATOM      4  C   LIG d   1      -7.034  95.582 118.699  0.00  0.00     0.028 C 
ATOM      5  C   LIG d   1      -6.075  95.724 119.876  0.00  0.00    -0.047 C 
ATOM      6  C   LIG d   1      -4.713  95.101 119.492  0.00  0.00     0.091 C 
ENDROOT
BRANCH   1   7
ATOM      7  O   LIG d   1      -3.712  93.223 118.279  0.00  0.00    -0.368 OA
BRANCH   7   8
ATOM      8  C   LIG d   1      -2.903  92.175 118.868  0.00  0.00     0.119 C 
BRANCH   8   9
ATOM      9  C   LIG d   1      -1.441  92.432 118.457  0.00  0.00     0.028 C 
ATOM     10  C   LIG d   1      -0.711  93.366 119.438  0.00  0.00     0.006 C 
ENDBRANCH   8   9
BRANCH   8  11
ATOM     11  C   LIG d   1      -3.254  90.804 118.283  0.00  0.00     0.028 C 
ATOM     12  C   LIG d   1      -2.065  89.831 118.291  0.00  0.00     0.006 C 
ENDBRANCH   8  11
ENDBRANCH   7   8
ENDBRANCH   1   7
BRANCH   6  13
ATOM     13  N   LIG d   1      -3.743  95.123 120.618  0.00  0.00    -0.311 N 
ATOM     14  C   LIG d   1      -2.861  96.103 120.807  0.00  0.00     0.210 C 
ATOM     15  C   LIG d   1      -1.939  95.919 122.016  0.00  0.00     0.109 C 
ATOM     16  O   LIG d   1      -2.776  97.123 120.106  0.00  0.00    -0.276 OA
ATOM     17  H   LIG d   1      -3.764  94.349 121.253  0.00  0.00     0.149 HD
ENDBRANCH   6  13
BRANCH   5  18
ATOM     18  N   LIG d   1      -5.982  97.159 120.205  0.00  0.00     0.381 N 
ATOM     19  H   LIG d   1      -6.307  97.315 121.138  0.00  0.00    -0.090 HD
ATOM     20  H   LIG d   1      -6.572  97.675 119.576  0.00  0.00    -0.090 HD
ATOM     21  H   LIG d   1      -5.040  97.469 120.117  0.00  0.00    -0.090 HD
ENDBRANCH   5  18
BRANCH   3  22
ATOM     22  C   LIG d   1      -8.308  93.859 117.629  0.00  0.00     0.382 C 
ATOM     23  O   LIG d   1      -9.360  94.512 117.831  0.00  0.00    -0.241 OA
ATOM     24  O   LIG d   1      -8.354  92.816 116.949  0.00  0.00    -0.241 OA
ENDBRANCH   3  22
TORSDOF 7
ENDMDL
MODEL 6
REMARK VINA RESULT:      -4.0      2.221      3.124
REMARK  7 active torsions:
REMARK  status: ('A' for Active; 'I' for Inactive)
REMARK    1  A    between atoms: C_2  and  C_3 
REMARK    2  A    between atoms: C_3  and  O_6 
REMARK    3  A    between atoms: C_3  and  C_4 
REMARK    4  A    between atoms: C_7  and  O_6 
REMARK    5  A    between atoms: C_9  and  C_10 
REMARK    6  A    between atoms: N_15  and  C_14 
REMARK    7  A    between atoms: N_20  and  C_19 
REMARK       I    between atoms: C_22  and  N_20 
ROOT
ATOM      1  C   LIG d   1      -4.680  93.688 118.658  0.00  0.00     0.161 C 
ATOM      2  C   LIG d   1      -6.010  93.464 118.266  0.00  0.00     0.016 C 
ATOM      3  C   LIG d   1      -6.458  92.254 117.686  0.00  0.00     0.038 C 
ATOM      4  C   LIG d   1      -5.631  91.124 117.597  0.00  0.00     0.028 C 
ATOM      5  C   LIG d   1      -4.147  91.465 117.517  0.00  0.00    -0.047 C 
ATOM      6  C   LIG d   1      -3.789  92.428 118.672  0.00  0.00     0.091 C 
ENDROOT
BRANCH   1   7
ATOM      7  O   LIG d   1      -4.653  94.335 119.946  0.00  0.00    -0.368 OA
BRANCH   7   8
ATOM      8  C   LIG d   1      -4.244  95.724 119.952  0.00  0.00     0.119 C 
BRANCH   8   9
ATOM      9  C   LIG d   1      -3.392  95.950 121.217  0.00  0.00     0.028 C 
ATOM     10  C   LIG d   1      -1.905  95.630 120.988  0.00  0.00     0.006 C 
ENDBRANCH   8   9
BRANCH   8  11
ATOM     11  C   LIG d   1      -5.447  96.659 120.102  0.00  0.00     0.028 C 
ATOM     12  C   LIG d   1      -6.507  96.115 121.073  0.00  0.00     0.006 C 
ENDBRANCH   8  11
ENDBRANCH   7   8
ENDBRANCH   1   7
BRANCH   6  13
ATOM     13  N   LIG d   1      -2.374  92.878 118.617  0.00  0.00    -0.311 N 
ATOM     14  C   LIG d   1      -1.389  92.280 119.285  0.00  0.00     0.210 C 
ATOM     15  C   LIG d   1      -0.007  92.916 119.105  0.00  0.00     0.109 C 
ATOM     16  O   LIG d   1      -1.522  91.263 119.983  0.00  0.00    -0.276 OA
ATOM     17  H   LIG d   1      -2.170  93.677 118.049  0.00  0.00     0.149 HD
ENDBRANCH   6  13
BRANCH   5  18
ATOM     18  N   LIG d   1      -3.395  90.196 117.569  0.00  0.00     0.381 N 
ATOM     19  H   LIG d   1      -2.500  90.350 117.988  0.00  0.00    -0.090 HD
ATOM     20  H   LIG d   1      -3.251  89.865 116.631  0.00  0.00    -0.090 HD
ATOM     21  H   LIG d   1      -3.905  89.519 118.093  0.00  0.00    -0.090 HD
ENDBRANCH   5  18
BRANCH   3  22
ATOM     22  C   LIG d   1      -7.734  92.180 117.150  0.00  0.00     0.382 C 
ATOM     23  O   LIG d   1      -8.458  93.204 117.110  0.00  0.00    -0.241 OA
ATOM     24  O   LIG d   1      -8.188  91.092 116.748  0.00  0.00    -0.241 OA
ENDBRANCH   3  22
TORSDOF 7
ENDMDL
MODEL 7
REMARK VINA RESULT:      -4.0      2.343      4.693
REMARK  7 active torsions:
REMARK  status: ('A' for Active; 'I' for Inactive)
REMARK    1  A    between atoms: C_2  and  C_3 
REMARK    2  A    between atoms: C_3  and  O_6 
REMARK    3  A    between atoms: C_3  and  C_4 
REMARK    4  A    between atoms: C_7  and  O_6 
REMARK    5  A    between atoms: C_9  and  C_10 
REMARK    6  A    between atoms: N_15  and  C_14 
REMARK    7  A    between atoms: N_20  and  C_19 
REMARK       I    between atoms: C_22  and  N_20 
ROOT
ATOM      1  C   LIG d   1      -3.908  92.483 118.018  0.00  0.00     0.161 C 
ATOM      2  C   LIG d   1      -2.998  93.535 118.217  0.00  0.00     0.016 C 
ATOM      3  C   LIG d   1      -3.286  94.675 119.003  0.00  0.00     0.038 C 
ATOM      4  C   LIG d   1      -4.455  94.769 119.771  0.00  0.00     0.028 C 
ATOM      5  C   LIG d   1      -5.619  93.964 119.204  0.00  0.00    -0.047 C 
ATOM      6  C   LIG d   1      -5.146  92.517 118.938  0.00  0.00     0.091 C 
ENDROOT
BRANCH   1   7
ATOM      7  O   LIG d   1      -3.227  91.219 118.140  0.00  0.00    -0.368 OA
BRANCH   7   8
ATOM      8  C   LIG d   1      -1.965  91.240 118.850  0.00  0.00     0.119 C 
BRANCH   8   9
ATOM      9  C   LIG d   1      -0.987  90.329 118.083  0.00  0.00     0.028 C 
ATOM     10  C   LIG d   1       0.211  91.104 117.509  0.00  0.00     0.006 C 
ENDBRANCH   8   9
BRANCH   8  11
ATOM     11  C   LIG d   1      -2.097  90.614 120.241  0.00  0.00     0.028 C 
ATOM     12  C   LIG d   1      -2.193  91.663 121.360  0.00  0.00     0.006 C 
ENDBRANCH   8  11
ENDBRANCH   7   8
ENDBRANCH   1   7
BRANCH   6  13
ATOM     13  N   LIG d   1      -6.200  91.683 118.304  0.00  0.00    -0.311 N 
ATOM     14  C   LIG d   1      -6.771  91.984 117.138  0.00  0.00     0.210 C 
ATOM     15  C   LIG d   1      -7.850  91.001 116.674  0.00  0.00     0.109 C 
ATOM     16  O   LIG d   1      -6.463  92.955 116.430  0.00  0.00    -0.276 OA
ATOM     17  H   LIG d   1      -6.489  90.860 118.796  0.00  0.00     0.149 HD
ENDBRANCH   6  13
BRANCH   5  18
ATOM     18  N   LIG d   1      -6.729  94.040 120.174  0.00  0.00     0.381 N 
ATOM     19  H   LIG d   1      -6.378  94.321 121.068  0.00  0.00    -0.090 HD
ATOM     20  H   LIG d   1      -7.141  93.129 120.269  0.00  0.00    -0.090 HD
ATOM     21  H   LIG d   1      -7.413  94.692 119.858  0.00  0.00    -0.090 HD
ENDBRANCH   5  18
BRANCH   3  22
ATOM     22  C   LIG d   1      -2.414  95.753 118.994  0.00  0.00     0.382 C 
ATOM     23  O   LIG d   1      -2.719  96.810 119.598  0.00  0.00    -0.241 OA
ATOM     24  O   LIG d   1      -1.348  95.699 118.352  0.00  0.00    -0.241 OA
ENDBRANCH   3  22
TORSDOF 7
ENDMDL
MODEL 8
REMARK VINA RESULT:      -3.7      2.927      4.300
REMARK  7 active torsions:
REMARK  status: ('A' for Active; 'I' for Inactive)
REMARK    1  A    between atoms: C_2  and  C_3 
REMARK    2  A    between atoms: C_3  and  O_6 
REMARK    3  A    between atoms: C_3  and  C_4 
REMARK    4  A    between atoms: C_7  and  O_6 
REMARK    5  A    between atoms: C_9  and  C_10 
REMARK    6  A    between atoms: N_15  and  C_14 
REMARK    7  A    between atoms: N_20  and  C_19 
REMARK       I    between atoms: C_22  and  N_20 
ROOT
ATOM      1  C   LIG d   1      -2.372  93.494 118.196  0.00  0.00     0.161 C 
ATOM      2  C   LIG d   1      -3.672  93.029 117.936  0.00  0.00     0.016 C 
ATOM      3  C   LIG d   1      -4.053  91.673 118.062  0.00  0.00     0.038 C 
ATOM      4  C   LIG d   1      -3.192  90.709 118.605  0.00  0.00     0.028 C 
ATOM      5  C   LIG d   1      -1.715  91.034 118.407  0.00  0.00    -0.047 C 
ATOM      6  C   LIG d   1      -1.449  92.476 118.897  0.00  0.00     0.091 C 
ENDROOT
BRANCH   1   7
ATOM      7  O   LIG d   1      -2.434  94.719 118.955  0.00  0.00    -0.368 OA
BRANCH   7   8
ATOM      8  C   LIG d   1      -3.644  94.932 119.723  0.00  0.00     0.119 C 
BRANCH   8   9
ATOM      9  C   LIG d   1      -4.031  96.416 119.574  0.00  0.00     0.028 C 
ATOM     10  C   LIG d   1      -2.943  97.238 118.861  0.00  0.00     0.006 C 
ENDBRANCH   8   9
BRANCH   8  11
ATOM     11  C   LIG d   1      -3.397  94.726 121.220  0.00  0.00     0.028 C 
ATOM     12  C   LIG d   1      -3.782  93.318 121.699  0.00  0.00     0.006 C 
ENDBRANCH   8  11
ENDBRANCH   7   8
ENDBRANCH   1   7
BRANCH   6  13
ATOM     13  N   LIG d   1      -0.045  92.904 118.661  0.00  0.00    -0.311 N 
ATOM     14  C   LIG d   1       0.743  93.390 119.618  0.00  0.00     0.210 C 
ATOM     15  C   LIG d   1       2.148  93.791 119.157  0.00  0.00     0.109 C 
ATOM     16  O   LIG d   1       0.424  93.498 120.811  0.00  0.00    -0.276 OA
ATOM     17  H   LIG d   1       0.306  92.822 117.727  0.00  0.00     0.149 HD
ENDBRANCH   6  13
BRANCH   5  18
ATOM     18  N   LIG d   1      -0.933  90.021 119.139  0.00  0.00     0.381 N 
ATOM     19  H   LIG d   1      -0.573  89.342 118.498  0.00  0.00    -0.090 HD
ATOM     20  H   LIG d   1      -1.538  89.550 119.789  0.00  0.00    -0.090 HD
ATOM     21  H   LIG d   1      -0.183  90.457 119.629  0.00  0.00    -0.090 HD
ENDBRANCH   5  18
BRANCH   3  22
ATOM     22  C   LIG d   1      -5.296  91.264 117.603  0.00  0.00     0.382 C 
ATOM     23  O   LIG d   1      -6.333  91.854 117.991  0.00  0.00    -0.241 OA
ATOM     24  O   LIG d   1      -5.396  90.283 116.842  0.00  0.00    -0.241 OA
ENDBRANCH   3  22
TORSDOF 7
ENDMDL
MODEL 9
REMARK VINA RESULT:      -3.6      2.854      5.787
REMARK  7 active torsions:
REMARK  status: ('A' for Active; 'I' for Inactive)
REMARK    1  A    between atoms: C_2  and  C_3 
REMARK    2  A    between atoms: C_3  and  O_6 
REMARK    3  A    between atoms: C_3  and  C_4 
REMARK    4  A    between atoms: C_7  and  O_6 
REMARK    5  A    between atoms: C_9  and  C_10 
REMARK    6  A    between atoms: N_15  and  C_14 
REMARK    7  A    between atoms: N_20  and  C_19 
REMARK       I    between atoms: C_22  and  N_20 
ROOT
ATOM      1  C   LIG d   1      -3.661  93.411 118.489  0.00  0.00     0.161 C 
ATOM      2  C   LIG d   1      -2.305  93.392 118.855  0.00  0.00     0.016 C 
ATOM      3  C   LIG d   1      -1.701  94.389 119.656  0.00  0.00     0.038 C 
ATOM      4  C   LIG d   1      -2.452  95.399 120.275  0.00  0.00     0.028 C 
ATOM      5  C   LIG d   1      -3.734  95.746 119.525  0.00  0.00    -0.047 C 
ATOM      6  C   LIG d   1      -4.521  94.445 119.247  0.00  0.00     0.091 C 
ENDROOT
BRANCH   1   7
ATOM      7  O   LIG d   1      -4.224  92.092 118.631  0.00  0.00    -0.368 OA
BRANCH   7   8
ATOM      8  C   LIG d   1      -3.819  91.117 117.639  0.00  0.00     0.119 C 
BRANCH   8   9
ATOM      9  C   LIG d   1      -5.077  90.717 116.843  0.00  0.00     0.028 C 
ATOM     10  C   LIG d   1      -6.358  91.346 117.415  0.00  0.00     0.006 C 
ENDBRANCH   8   9
BRANCH   8  11
ATOM     11  C   LIG d   1      -3.327  89.824 118.296  0.00  0.00     0.028 C 
ATOM     12  C   LIG d   1      -3.271  89.919 119.829  0.00  0.00     0.006 C 
ENDBRANCH   8  11
ENDBRANCH   7   8
ENDBRANCH   1   7
BRANCH   6  13
ATOM     13  N   LIG d   1      -5.747  94.685 118.443  0.00  0.00    -0.311 N 
ATOM     14  C   LIG d   1      -6.956  94.846 118.979  0.00  0.00     0.210 C 
ATOM     15  C   LIG d   1      -8.088  95.062 117.970  0.00  0.00     0.109 C 
ATOM     16  O   LIG d   1      -7.193  94.862 120.196  0.00  0.00    -0.276 OA
ATOM     17  H   LIG d   1      -5.641  94.718 117.448  0.00  0.00     0.149 HD
ENDBRANCH   6  13
BRANCH   5  18
ATOM     18  N   LIG d   1      -4.485  96.711 120.350  0.00  0.00     0.381 N 
ATOM     19  H   LIG d   1      -4.801  97.470 119.780  0.00  0.00    -0.090 HD
ATOM     20  H   LIG d   1      -3.874  97.080 121.057  0.00  0.00    -0.090 HD
ATOM     21  H   LIG d   1      -5.265  96.260 120.777  0.00  0.00    -0.090 HD
ENDBRANCH   5  18
BRANCH   3  22
ATOM     22  C   LIG d   1      -0.323  94.403 119.812  0.00  0.00     0.382 C 
ATOM     23  O   LIG d   1       0.221  95.307 120.491  0.00  0.00    -0.241 OA
ATOM     24  O   LIG d   1       0.386  93.550 119.246  0.00  0.00    -0.241 OA
ENDBRANCH   3  22
TORSDOF 7
ENDMDL
