MODEL 1
REMARK VINA RESULT:      -4.4      0.000      0.000
REMARK  7 active torsions:
REMARK  status: ('A' for Active; 'I' for Inactive)
REMARK    1  A    between atoms: C_2  and  C_3 
REMARK    2  A    between atoms: C_3  and  O_6 
REMARK    3  A    between atoms: C_3  and  C_4 
REMARK    4  A    between atoms: C_7  and  O_6 
REMARK    5  A    between atoms: C_9  and  C_10 
REMARK    6  A    between atoms: N_15  and  C_14 
REMARK    7  A    between atoms: N_20  and  C_19 
REMARK       I    between atoms: C_22  and  N_20 
ROOT
ATOM      1  C   LIG d   1      -5.327  92.165 119.605  0.00  0.00     0.161 C 
ATOM      2  C   LIG d   1      -4.288  91.479 118.954  0.00  0.00     0.016 C 
ATOM      3  C   LIG d   1      -4.299  91.180 117.572  0.00  0.00     0.038 C 
ATOM      4  C   LIG d   1      -5.287  91.683 116.712  0.00  0.00     0.028 C 
ATOM      5  C   LIG d   1      -6.617  91.952 117.409  0.00  0.00    -0.047 C 
ATOM      6  C   LIG d   1      -6.360  92.819 118.663  0.00  0.00     0.091 C 
ENDROOT
BRANCH   1   7
ATOM      7  O   LIG d   1      -4.776  93.149 120.503  0.00  0.00    -0.368 OA
BRANCH   7   8
ATOM      8  C   LIG d   1      -4.289  94.369 119.891  0.00  0.00     0.119 C 
BRANCH   8   9
ATOM      9  C   LIG d   1      -2.782  94.471 120.199  0.00  0.00     0.028 C 
ATOM     10  C   LIG d   1      -1.918  94.407 118.929  0.00  0.00     0.006 C 
ENDBRANCH   8   9
BRANCH   8  11
ATOM     11  C   LIG d   1      -4.920  95.606 120.537  0.00  0.00     0.028 C 
ATOM     12  C   LIG d   1      -5.302  96.684 119.510  0.00  0.00     0.006 C 
ENDBRANCH   8  11
ENDBRANCH   7   8
ENDBRANCH   1   7
BRANCH   6  13
ATOM     13  N   LIG d   1      -7.598  93.058 119.450  0.00  0.00    -0.311 N 
ATOM     14  C   LIG d   1      -8.370  94.132 119.294  0.00  0.00     0.210 C 
ATOM     15  C   LIG d   1      -9.588  94.193 120.220  0.00  0.00     0.109 C 
ATOM     16  O   LIG d   1      -8.179  95.024 118.454  0.00  0.00    -0.276 OA
ATOM     17  H   LIG d   1      -7.845  92.368 120.132  0.00  0.00     0.149 HD
ENDBRANCH   6  13
BRANCH   5  18
ATOM     18  N   LIG d   1      -7.509  92.600 116.430  0.00  0.00     0.381 N 
ATOM     19  H   LIG d   1      -7.395  93.593 116.473  0.00  0.00    -0.090 HD
ATOM     20  H   LIG d   1      -8.462  92.382 116.665  0.00  0.00    -0.090 HD
ATOM     21  H   LIG d   1      -7.303  92.275 115.512  0.00  0.00    -0.090 HD
ENDBRANCH   5  18
BRANCH   3  22
ATOM     22  C   LIG d   1      -3.334  90.336 117.044  0.00  0.00     0.382 C 
ATOM     23  O   LIG d   1      -3.491  89.092 117.100  0.00  0.00    -0.241 OA
ATOM     24  O   LIG d   1      -2.289  90.801 116.552  0.00  0.00    -0.241 OA
ENDBRANCH   3  22
TORSDOF 7
ENDMDL
MODEL 2
REMARK VINA RESULT:      -4.4      3.286      6.187
REMARK  7 active torsions:
REMARK  status: ('A' for Active; 'I' for Inactive)
REMARK    1  A    between atoms: C_2  and  C_3 
REMARK    2  A    between atoms: C_3  and  O_6 
REMARK    3  A    between atoms: C_3  and  C_4 
REMARK    4  A    between atoms: C_7  and  O_6 
REMARK    5  A    between atoms: C_9  and  C_10 
REMARK    6  A    between atoms: N_15  and  C_14 
REMARK    7  A    between atoms: N_20  and  C_19 
REMARK       I    between atoms: C_22  and  N_20 
ROOT
ATOM      1  C   LIG d   1      -2.422  91.626 116.563  0.00  0.00     0.161 C 
ATOM      2  C   LIG d   1      -3.697  92.137 116.857  0.00  0.00     0.016 C 
ATOM      3  C   LIG d   1      -4.613  91.492 117.719  0.00  0.00     0.038 C 
ATOM      4  C   LIG d   1      -4.256  90.362 118.470  0.00  0.00     0.028 C 
ATOM      5  C   LIG d   1      -3.156  89.528 117.822  0.00  0.00    -0.047 C 
ATOM      6  C   LIG d   1      -1.972  90.453 117.459  0.00  0.00     0.091 C 
ENDROOT
BRANCH   1   7
ATOM      7  O   LIG d   1      -1.449  92.689 116.603  0.00  0.00    -0.368 OA
BRANCH   7   8
ATOM      8  C   LIG d   1      -0.868  92.972 117.900  0.00  0.00     0.119 C 
BRANCH   8   9
ATOM      9  C   LIG d   1      -1.199  94.437 118.246  0.00  0.00     0.028 C 
ATOM     10  C   LIG d   1      -2.228  94.554 119.383  0.00  0.00     0.006 C 
ENDBRANCH   8   9
BRANCH   8  11
ATOM     11  C   LIG d   1       0.661  92.902 117.853  0.00  0.00     0.028 C 
ATOM     12  C   LIG d   1       1.285  92.573 119.219  0.00  0.00     0.006 C 
ENDBRANCH   8  11
ENDBRANCH   7   8
ENDBRANCH   1   7
BRANCH   6  13
ATOM     13  N   LIG d   1      -0.888  89.731 116.744  0.00  0.00    -0.311 N 
ATOM     14  C   LIG d   1       0.176  89.214 117.356  0.00  0.00     0.210 C 
ATOM     15  C   LIG d   1       1.186  88.528 116.430  0.00  0.00     0.109 C 
ATOM     16  O   LIG d   1       0.364  89.230 118.582  0.00  0.00    -0.276 OA
ATOM     17  H   LIG d   1      -0.975  89.644 115.750  0.00  0.00     0.149 HD
ENDBRANCH   6  13
BRANCH   5  18
ATOM     18  N   LIG d   1      -2.786  88.463 118.773  0.00  0.00     0.381 N 
ATOM     19  H   LIG d   1      -1.792  88.350 118.786  0.00  0.00    -0.090 HD
ATOM     20  H   LIG d   1      -3.198  87.598 118.469  0.00  0.00    -0.090 HD
ATOM     21  H   LIG d   1      -3.113  88.692 119.686  0.00  0.00    -0.090 HD
ENDBRANCH   5  18
BRANCH   3  22
ATOM     22  C   LIG d   1      -5.917  91.956 117.807  0.00  0.00     0.382 C 
ATOM     23  O   LIG d   1      -6.137  93.167 118.048  0.00  0.00    -0.241 OA
ATOM     24  O   LIG d   1      -6.876  91.169 117.692  0.00  0.00    -0.241 OA
ENDBRANCH   3  22
TORSDOF 7
ENDMDL
MODEL 3
REMARK VINA RESULT:      -4.4      2.358      5.498
REMARK  7 active torsions:
REMARK  status: ('A' for Active; 'I' for Inactive)
REMARK    1  A    between atoms: C_2  and  C_3 
REMARK    2  A    between atoms: C_3  and  O_6 
REMARK    3  A    between atoms: C_3  and  C_4 
REMARK    4  A    between atoms: C_7  and  O_6 
REMARK    5  A    between atoms: C_9  and  C_10 
REMARK    6  A    between atoms: N_15  and  C_14 
REMARK    7  A    between atoms: N_20  and  C_19 
REMARK       I    between atoms: C_22  and  N_20 
ROOT
ATOM      1  C   LIG d   1      -4.661  92.252 118.099  0.00  0.00     0.161 C 
ATOM      2  C   LIG d   1      -5.928  92.608 117.608  0.00  0.00     0.016 C 
ATOM      3  C   LIG d   1      -6.743  93.598 118.203  0.00  0.00     0.038 C 
ATOM      4  C   LIG d   1      -6.279  94.411 119.248  0.00  0.00     0.028 C 
ATOM      5  C   LIG d   1      -5.202  93.746 120.100  0.00  0.00    -0.047 C 
ATOM      6  C   LIG d   1      -4.091  93.205 119.171  0.00  0.00     0.091 C 
ENDROOT
BRANCH   1   7
ATOM      7  O   LIG d   1      -3.733  92.117 117.004  0.00  0.00    -0.368 OA
BRANCH   7   8
ATOM      8  C   LIG d   1      -3.208  90.787 116.774  0.00  0.00     0.119 C 
BRANCH   8   9
ATOM      9  C   LIG d   1      -3.834  89.853 117.828  0.00  0.00     0.028 C 
ATOM     10  C   LIG d   1      -2.789  88.953 118.509  0.00  0.00     0.006 C 
ENDBRANCH   8   9
BRANCH   8  11
ATOM     11  C   LIG d   1      -1.699  90.731 117.028  0.00  0.00     0.028 C 
ATOM     12  C   LIG d   1      -1.013  92.094 116.845  0.00  0.00     0.006 C 
ENDBRANCH   8  11
ENDBRANCH   7   8
ENDBRANCH   1   7
BRANCH   6  13
ATOM     13  N   LIG d   1      -3.040  92.465 119.917  0.00  0.00    -0.311 N 
ATOM     14  C   LIG d   1      -1.906  93.026 120.334  0.00  0.00     0.210 C 
ATOM     15  C   LIG d   1      -0.948  92.081 121.066  0.00  0.00     0.109 C 
ATOM     16  O   LIG d   1      -1.616  94.224 120.195  0.00  0.00    -0.276 OA
ATOM     17  H   LIG d   1      -3.207  91.495 120.100  0.00  0.00     0.149 HD
ENDBRANCH   6  13
BRANCH   5  18
ATOM     18  N   LIG d   1      -4.712  94.751 121.062  0.00  0.00     0.381 N 
ATOM     19  H   LIG d   1      -5.476  95.306 121.392  0.00  0.00    -0.090 HD
ATOM     20  H   LIG d   1      -4.061  95.358 120.595  0.00  0.00    -0.090 HD
ATOM     21  H   LIG d   1      -4.265  94.299 121.829  0.00  0.00    -0.090 HD
ENDBRANCH   5  18
BRANCH   3  22
ATOM     22  C   LIG d   1      -8.054  93.756 117.779  0.00  0.00     0.382 C 
ATOM     23  O   LIG d   1      -8.965  93.954 118.618  0.00  0.00    -0.241 OA
ATOM     24  O   LIG d   1      -8.342  93.658 116.571  0.00  0.00    -0.241 OA
ENDBRANCH   3  22
TORSDOF 7
ENDMDL
MODEL 4
REMARK VINA RESULT:      -4.3      1.985      3.016
REMARK  7 active torsions:
REMARK  status: ('A' for Active; 'I' for Inactive)
REMARK    1  A    between atoms: C_2  and  C_3 
REMARK    2  A    between atoms: C_3  and  O_6 
REMARK    3  A    between atoms: C_3  and  C_4 
REMARK    4  A    between atoms: C_7  and  O_6 
REMARK    5  A    between atoms: C_9  and  C_10 
REMARK    6  A    between atoms: N_15  and  C_14 
REMARK    7  A    between atoms: N_20  and  C_19 
REMARK       I    between atoms: C_22  and  N_20 
ROOT
ATOM      1  C   LIG d   1      -4.973  92.968 119.081  0.00  0.00     0.161 C 
ATOM      2  C   LIG d   1      -5.047  91.823 118.270  0.00  0.00     0.016 C 
ATOM      3  C   LIG d   1      -6.073  91.605 117.322  0.00  0.00     0.038 C 
ATOM      4  C   LIG d   1      -7.019  92.594 117.013  0.00  0.00     0.028 C 
ATOM      5  C   LIG d   1      -7.284  93.560 118.163  0.00  0.00    -0.047 C 
ATOM      6  C   LIG d   1      -5.933  94.108 118.679  0.00  0.00     0.091 C 
ENDROOT
BRANCH   1   7
ATOM      7  O   LIG d   1      -3.616  93.449 119.125  0.00  0.00    -0.368 OA
BRANCH   7   8
ATOM      8  C   LIG d   1      -2.615  92.590 118.526  0.00  0.00     0.119 C 
BRANCH   8   9
ATOM      9  C   LIG d   1      -1.657  92.142 119.647  0.00  0.00     0.028 C 
ATOM     10  C   LIG d   1      -1.848  90.664 120.026  0.00  0.00     0.006 C 
ENDBRANCH   8   9
BRANCH   8  11
ATOM     11  C   LIG d   1      -1.742  93.360 117.531  0.00  0.00     0.028 C 
ATOM     12  C   LIG d   1      -0.824  94.386 118.214  0.00  0.00     0.006 C 
ENDBRANCH   8  11
ENDBRANCH   7   8
ENDBRANCH   1   7
BRANCH   6  13
ATOM     13  N   LIG d   1      -6.096  94.996 119.859  0.00  0.00    -0.311 N 
ATOM     14  C   LIG d   1      -6.207  96.320 119.770  0.00  0.00     0.210 C 
ATOM     15  C   LIG d   1      -6.346  97.049 121.111  0.00  0.00     0.109 C 
ATOM     16  O   LIG d   1      -6.236  96.958 118.707  0.00  0.00    -0.276 OA
ATOM     17  H   LIG d   1      -6.114  94.559 120.760  0.00  0.00     0.149 HD
ENDBRANCH   6  13
BRANCH   5  18
ATOM     18  N   LIG d   1      -8.181  94.617 117.660  0.00  0.00     0.381 N 
ATOM     19  H   LIG d   1      -7.891  95.506 118.015  0.00  0.00    -0.090 HD
ATOM     20  H   LIG d   1      -9.114  94.435 117.988  0.00  0.00    -0.090 HD
ATOM     21  H   LIG d   1      -8.169  94.629 116.663  0.00  0.00    -0.090 HD
ENDBRANCH   5  18
BRANCH   3  22
ATOM     22  C   LIG d   1      -6.184  90.370 116.702  0.00  0.00     0.382 C 
ATOM     23  O   LIG d   1      -7.318  89.895 116.450  0.00  0.00    -0.241 OA
ATOM     24  O   LIG d   1      -5.166  89.706 116.430  0.00  0.00    -0.241 OA
ENDBRANCH   3  22
TORSDOF 7
ENDMDL
MODEL 5
REMARK VINA RESULT:      -4.2      2.960      4.767
REMARK  7 active torsions:
REMARK  status: ('A' for Active; 'I' for Inactive)
REMARK    1  A    between atoms: C_2  and  C_3 
REMARK    2  A    between atoms: C_3  and  O_6 
REMARK    3  A    between atoms: C_3  and  C_4 
REMARK    4  A    between atoms: C_7  and  O_6 
REMARK    5  A    between atoms: C_9  and  C_10 
REMARK    6  A    between atoms: N_15  and  C_14 
REMARK    7  A    between atoms: N_20  and  C_19 
REMARK       I    between atoms: C_22  and  N_20 
ROOT
ATOM      1  C   LIG d   1      -3.657  92.475 118.252  0.00  0.00     0.161 C 
ATOM      2  C   LIG d   1      -4.970  92.148 117.877  0.00  0.00     0.016 C 
ATOM      3  C   LIG d   1      -5.303  90.988 117.141  0.00  0.00     0.038 C 
ATOM      4  C   LIG d   1      -4.356  89.992 116.857  0.00  0.00     0.028 C 
ATOM      5  C   LIG d   1      -2.928  90.520 116.776  0.00  0.00    -0.047 C 
ATOM      6  C   LIG d   1      -2.625  91.346 118.047  0.00  0.00     0.091 C 
ENDROOT
BRANCH   1   7
ATOM      7  O   LIG d   1      -3.637  92.930 119.619  0.00  0.00    -0.368 OA
BRANCH   7   8
ATOM      8  C   LIG d   1      -3.684  94.365 119.814  0.00  0.00     0.119 C 
BRANCH   8   9
ATOM      9  C   LIG d   1      -2.246  94.841 120.096  0.00  0.00     0.028 C 
ATOM     10  C   LIG d   1      -1.770  95.900 119.088  0.00  0.00     0.006 C 
ENDBRANCH   8   9
BRANCH   8  11
ATOM     11  C   LIG d   1      -4.485  94.731 121.067  0.00  0.00     0.028 C 
ATOM     12  C   LIG d   1      -5.772  95.506 120.746  0.00  0.00     0.006 C 
ENDBRANCH   8  11
ENDBRANCH   7   8
ENDBRANCH   1   7
BRANCH   6  13
ATOM     13  N   LIG d   1      -1.277  91.969 118.011  0.00  0.00    -0.311 N 
ATOM     14  C   LIG d   1      -0.391  91.860 118.999  0.00  0.00     0.210 C 
ATOM     15  C   LIG d   1       0.932  92.597 118.767  0.00  0.00     0.109 C 
ATOM     16  O   LIG d   1      -0.563  91.196 120.033  0.00  0.00    -0.276 OA
ATOM     17  H   LIG d   1      -1.042  92.500 117.195  0.00  0.00     0.149 HD
ENDBRANCH   6  13
BRANCH   5  18
ATOM     18  N   LIG d   1      -2.032  89.360 116.613  0.00  0.00     0.381 N 
ATOM     19  H   LIG d   1      -1.094  89.674 116.469  0.00  0.00    -0.090 HD
ATOM     20  H   LIG d   1      -2.319  88.840 115.802  0.00  0.00    -0.090 HD
ATOM     21  H   LIG d   1      -2.076  88.779 117.421  0.00  0.00    -0.090 HD
ENDBRANCH   5  18
BRANCH   3  22
ATOM     22  C   LIG d   1      -6.589  90.834 116.645  0.00  0.00     0.382 C 
ATOM     23  O   LIG d   1      -7.312  91.841 116.453  0.00  0.00    -0.241 OA
ATOM     24  O   LIG d   1      -7.052  89.697 116.430  0.00  0.00    -0.241 OA
ENDBRANCH   3  22
TORSDOF 7
ENDMDL
MODEL 6
REMARK VINA RESULT:      -4.2      2.080      5.179
REMARK  7 active torsions:
REMARK  status: ('A' for Active; 'I' for Inactive)
REMARK    1  A    between atoms: C_2  and  C_3 
REMARK    2  A    between atoms: C_3  and  O_6 
REMARK    3  A    between atoms: C_3  and  C_4 
REMARK    4  A    between atoms: C_7  and  O_6 
REMARK    5  A    between atoms: C_9  and  C_10 
REMARK    6  A    between atoms: N_15  and  C_14 
REMARK    7  A    between atoms: N_20  and  C_19 
REMARK       I    between atoms: C_22  and  N_20 
ROOT
ATOM      1  C   LIG d   1      -6.030  93.288 119.902  0.00  0.00     0.161 C 
ATOM      2  C   LIG d   1      -7.062  93.902 120.630  0.00  0.00     0.016 C 
ATOM      3  C   LIG d   1      -8.297  94.286 120.056  0.00  0.00     0.038 C 
ATOM      4  C   LIG d   1      -8.642  93.941 118.741  0.00  0.00     0.028 C 
ATOM      5  C   LIG d   1      -7.436  93.769 117.824  0.00  0.00    -0.047 C 
ATOM      6  C   LIG d   1      -6.430  92.804 118.493  0.00  0.00     0.091 C 
ENDROOT
BRANCH   1   7
ATOM      7  O   LIG d   1      -5.474  92.200 120.666  0.00  0.00    -0.368 OA
BRANCH   7   8
ATOM      8  C   LIG d   1      -4.192  92.450 121.294  0.00  0.00     0.119 C 
BRANCH   8   9
ATOM      9  C   LIG d   1      -3.171  91.483 120.664  0.00  0.00     0.028 C 
ATOM     10  C   LIG d   1      -2.046  92.222 119.920  0.00  0.00     0.006 C 
ENDBRANCH   8   9
BRANCH   8  11
ATOM     11  C   LIG d   1      -4.222  92.095 122.783  0.00  0.00     0.028 C 
ATOM     12  C   LIG d   1      -5.608  91.629 123.257  0.00  0.00     0.006 C 
ENDBRANCH   8  11
ENDBRANCH   7   8
ENDBRANCH   1   7
BRANCH   6  13
ATOM     13  N   LIG d   1      -5.183  92.646 117.700  0.00  0.00    -0.311 N 
ATOM     14  C   LIG d   1      -4.733  91.469 117.269  0.00  0.00     0.210 C 
ATOM     15  C   LIG d   1      -3.418  91.527 116.486  0.00  0.00     0.109 C 
ATOM     16  O   LIG d   1      -5.315  90.386 117.433  0.00  0.00    -0.276 OA
ATOM     17  H   LIG d   1      -4.665  93.477 117.494  0.00  0.00     0.149 HD
ENDBRANCH   6  13
BRANCH   5  18
ATOM     18  N   LIG d   1      -7.931  93.277 116.524  0.00  0.00     0.381 N 
ATOM     19  H   LIG d   1      -7.707  92.308 116.421  0.00  0.00    -0.090 HD
ATOM     20  H   LIG d   1      -7.475  93.787 115.788  0.00  0.00    -0.090 HD
ATOM     21  H   LIG d   1      -8.918  93.406 116.465  0.00  0.00    -0.090 HD
ENDBRANCH   5  18
BRANCH   3  22
ATOM     22  C   LIG d   1      -9.185  95.057 120.790  0.00  0.00     0.382 C 
ATOM     23  O   LIG d   1     -10.418  94.842 120.707  0.00  0.00    -0.241 OA
ATOM     24  O   LIG d   1      -8.772  95.994 121.500  0.00  0.00    -0.241 OA
ENDBRANCH   3  22
TORSDOF 7
ENDMDL
MODEL 7
REMARK VINA RESULT:      -4.2      2.894      5.380
REMARK  7 active torsions:
REMARK  status: ('A' for Active; 'I' for Inactive)
REMARK    1  A    between atoms: C_2  and  C_3 
REMARK    2  A    between atoms: C_3  and  O_6 
REMARK    3  A    between atoms: C_3  and  C_4 
REMARK    4  A    between atoms: C_7  and  O_6 
REMARK    5  A    between atoms: C_9  and  C_10 
REMARK    6  A    between atoms: N_15  and  C_14 
REMARK    7  A    between atoms: N_20  and  C_19 
REMARK       I    between atoms: C_22  and  N_20 
ROOT
ATOM      1  C   LIG d   1      -2.697  91.882 117.731  0.00  0.00     0.161 C 
ATOM      2  C   LIG d   1      -3.802  91.343 117.052  0.00  0.00     0.016 C 
ATOM      3  C   LIG d   1      -5.142  91.678 117.356  0.00  0.00     0.038 C 
ATOM      4  C   LIG d   1      -5.463  92.697 118.265  0.00  0.00     0.028 C 
ATOM      5  C   LIG d   1      -4.399  92.911 119.336  0.00  0.00    -0.047 C 
ATOM      6  C   LIG d   1      -3.023  93.078 118.650  0.00  0.00     0.091 C 
ENDROOT
BRANCH   1   7
ATOM      7  O   LIG d   1      -1.671  92.242 116.785  0.00  0.00    -0.368 OA
BRANCH   7   8
ATOM      8  C   LIG d   1      -0.460  91.447 116.825  0.00  0.00     0.119 C 
BRANCH   8   9
ATOM      9  C   LIG d   1      -0.673  90.331 117.866  0.00  0.00     0.028 C 
ATOM     10  C   LIG d   1      -0.649  88.928 117.236  0.00  0.00     0.006 C 
ENDBRANCH   8   9
BRANCH   8  11
ATOM     11  C   LIG d   1       0.727  92.264 117.343  0.00  0.00     0.028 C 
ATOM     12  C   LIG d   1       1.470  91.570 118.496  0.00  0.00     0.006 C 
ENDBRANCH   8  11
ENDBRANCH   7   8
ENDBRANCH   1   7
BRANCH   6  13
ATOM     13  N   LIG d   1      -1.913  93.208 119.630  0.00  0.00    -0.311 N 
ATOM     14  C   LIG d   1      -1.086  94.251 119.666  0.00  0.00     0.210 C 
ATOM     15  C   LIG d   1       0.002  94.177 120.742  0.00  0.00     0.109 C 
ATOM     16  O   LIG d   1      -1.169  95.246 118.930  0.00  0.00    -0.276 OA
ATOM     17  H   LIG d   1      -1.793  92.460 120.284  0.00  0.00     0.149 HD
ENDBRANCH   6  13
BRANCH   5  18
ATOM     18  N   LIG d   1      -4.796  94.090 120.129  0.00  0.00     0.381 N 
ATOM     19  H   LIG d   1      -5.592  93.866 120.692  0.00  0.00    -0.090 HD
ATOM     20  H   LIG d   1      -5.051  94.833 119.503  0.00  0.00    -0.090 HD
ATOM     21  H   LIG d   1      -4.040  94.380 120.710  0.00  0.00    -0.090 HD
ENDBRANCH   5  18
BRANCH   3  22
ATOM     22  C   LIG d   1      -6.178  90.962 116.776  0.00  0.00     0.382 C 
ATOM     23  O   LIG d   1      -7.306  91.493 116.637  0.00  0.00    -0.241 OA
ATOM     24  O   LIG d   1      -6.011  89.777 116.430  0.00  0.00    -0.241 OA
ENDBRANCH   3  22
TORSDOF 7
ENDMDL
MODEL 8
REMARK VINA RESULT:      -4.1      2.801      4.937
REMARK  7 active torsions:
REMARK  status: ('A' for Active; 'I' for Inactive)
REMARK    1  A    between atoms: C_2  and  C_3 
REMARK    2  A    between atoms: C_3  and  O_6 
REMARK    3  A    between atoms: C_3  and  C_4 
REMARK    4  A    between atoms: C_7  and  O_6 
REMARK    5  A    between atoms: C_9  and  C_10 
REMARK    6  A    between atoms: N_15  and  C_14 
REMARK    7  A    between atoms: N_20  and  C_19 
REMARK       I    between atoms: C_22  and  N_20 
ROOT
ATOM      1  C   LIG d   1      -2.352  92.550 117.219  0.00  0.00     0.161 C 
ATOM      2  C   LIG d   1      -1.050  92.037 117.102  0.00  0.00     0.016 C 
ATOM      3  C   LIG d   1      -0.172  91.881 118.200  0.00  0.00     0.038 C 
ATOM      4  C   LIG d   1      -0.595  92.089 119.521  0.00  0.00     0.028 C 
ATOM      5  C   LIG d   1      -1.740  93.089 119.641  0.00  0.00    -0.047 C 
ATOM      6  C   LIG d   1      -2.869  92.678 118.667  0.00  0.00     0.091 C 
ENDROOT
BRANCH   1   7
ATOM      7  O   LIG d   1      -3.262  91.758 116.431  0.00  0.00    -0.368 OA
BRANCH   7   8
ATOM      8  C   LIG d   1      -3.964  90.704 117.134  0.00  0.00     0.119 C 
BRANCH   8   9
ATOM      9  C   LIG d   1      -3.133  89.415 116.984  0.00  0.00     0.028 C 
ATOM     10  C   LIG d   1      -2.687  88.843 118.341  0.00  0.00     0.006 C 
ENDBRANCH   8   9
BRANCH   8  11
ATOM     11  C   LIG d   1      -5.312  90.396 116.476  0.00  0.00     0.028 C 
ATOM     12  C   LIG d   1      -6.394  91.431 116.822  0.00  0.00     0.006 C 
ENDBRANCH   8  11
ENDBRANCH   7   8
ENDBRANCH   1   7
BRANCH   6  13
ATOM     13  N   LIG d   1      -3.992  93.651 118.660  0.00  0.00    -0.311 N 
ATOM     14  C   LIG d   1      -5.075  93.526 119.426  0.00  0.00     0.210 C 
ATOM     15  C   LIG d   1      -6.123  94.629 119.248  0.00  0.00     0.109 C 
ATOM     16  O   LIG d   1      -5.251  92.625 120.260  0.00  0.00    -0.276 OA
ATOM     17  H   LIG d   1      -3.918  94.429 118.035  0.00  0.00     0.149 HD
ENDBRANCH   6  13
BRANCH   5  18
ATOM     18  N   LIG d   1      -2.171  93.106 121.051  0.00  0.00     0.381 N 
ATOM     19  H   LIG d   1      -2.817  93.856 121.199  0.00  0.00    -0.090 HD
ATOM     20  H   LIG d   1      -1.368  93.263 121.635  0.00  0.00    -0.090 HD
ATOM     21  H   LIG d   1      -2.599  92.238 121.288  0.00  0.00    -0.090 HD
ENDBRANCH   5  18
BRANCH   3  22
ATOM     22  C   LIG d   1       1.156  91.552 117.977  0.00  0.00     0.382 C 
ATOM     23  O   LIG d   1       1.532  90.360 118.083  0.00  0.00    -0.241 OA
ATOM     24  O   LIG d   1       1.991  92.438 117.715  0.00  0.00    -0.241 OA
ENDBRANCH   3  22
TORSDOF 7
ENDMDL
MODEL 9
REMARK VINA RESULT:      -4.1      2.454      5.459
REMARK  7 active torsions:
REMARK  status: ('A' for Active; 'I' for Inactive)
REMARK    1  A    between atoms: C_2  and  C_3 
REMARK    2  A    between atoms: C_3  and  O_6 
REMARK    3  A    between atoms: C_3  and  C_4 
REMARK    4  A    between atoms: C_7  and  O_6 
REMARK    5  A    between atoms: C_9  and  C_10 
REMARK    6  A    between atoms: N_15  and  C_14 
REMARK    7  A    between atoms: N_20  and  C_19 
REMARK       I    between atoms: C_22  and  N_20 
ROOT
ATOM      1  C   LIG d   1      -4.736  93.200 119.170  0.00  0.00     0.161 C 
ATOM      2  C   LIG d   1      -6.031  93.128 118.630  0.00  0.00     0.016 C 
ATOM      3  C   LIG d   1      -6.932  94.217 118.619  0.00  0.00     0.038 C 
ATOM      4  C   LIG d   1      -6.542  95.506 119.014  0.00  0.00     0.028 C 
ATOM      5  C   LIG d   1      -5.408  95.509 120.033  0.00  0.00    -0.047 C 
ATOM      6  C   LIG d   1      -4.254  94.627 119.504  0.00  0.00     0.091 C 
ENDROOT
BRANCH   1   7
ATOM      7  O   LIG d   1      -3.802  92.550 118.286  0.00  0.00    -0.368 OA
BRANCH   7   8
ATOM      8  C   LIG d   1      -3.094  91.410 118.833  0.00  0.00     0.119 C 
BRANCH   8   9
ATOM      9  C   LIG d   1      -1.628  91.509 118.370  0.00  0.00     0.028 C 
ATOM     10  C   LIG d   1      -1.488  92.218 117.012  0.00  0.00     0.006 C 
ENDBRANCH   8   9
BRANCH   8  11
ATOM     11  C   LIG d   1      -3.617  90.095 118.247  0.00  0.00     0.028 C 
ATOM     12  C   LIG d   1      -2.870  88.864 118.784  0.00  0.00     0.006 C 
ENDBRANCH   8  11
ENDBRANCH   7   8
ENDBRANCH   1   7
BRANCH   6  13
ATOM     13  N   LIG d   1      -3.138  94.508 120.478  0.00  0.00    -0.311 N 
ATOM     14  C   LIG d   1      -1.874  94.810 120.185  0.00  0.00     0.210 C 
ATOM     15  C   LIG d   1      -0.877  94.597 121.329  0.00  0.00     0.109 C 
ATOM     16  O   LIG d   1      -1.489  95.264 119.097  0.00  0.00    -0.276 OA
ATOM     17  H   LIG d   1      -3.366  94.177 121.395  0.00  0.00     0.149 HD
ENDBRANCH   6  13
BRANCH   5  18
ATOM     18  N   LIG d   1      -5.009  96.913 120.252  0.00  0.00     0.381 N 
ATOM     19  H   LIG d   1      -5.579  97.517 119.694  0.00  0.00    -0.090 HD
ATOM     20  H   LIG d   1      -4.053  97.028 119.965  0.00  0.00    -0.090 HD
ATOM     21  H   LIG d   1      -5.105  97.149 121.215  0.00  0.00    -0.090 HD
ENDBRANCH   5  18
BRANCH   3  22
ATOM     22  C   LIG d   1      -8.252  94.014 118.247  0.00  0.00     0.382 C 
ATOM     23  O   LIG d   1      -9.138  93.881 119.126  0.00  0.00    -0.241 OA
ATOM     24  O   LIG d   1      -8.562  93.918 117.045  0.00  0.00    -0.241 OA
ENDBRANCH   3  22
TORSDOF 7
ENDMDL
