MODEL 1
REMARK VINA RESULT:      -4.5      0.000      0.000
REMARK  7 active torsions:
REMARK  status: ('A' for Active; 'I' for Inactive)
REMARK    1  A    between atoms: C_2  and  C_3 
REMARK    2  A    between atoms: C_3  and  O_6 
REMARK    3  A    between atoms: C_3  and  C_4 
REMARK    4  A    between atoms: C_7  and  O_6 
REMARK    5  A    between atoms: C_9  and  C_10 
REMARK    6  A    between atoms: N_15  and  C_14 
REMARK    7  A    between atoms: N_20  and  C_19 
REMARK       I    between atoms: C_22  and  N_20 
ROOT
ATOM      1  C   LIG d   1      -4.666  93.543 119.088  0.00  0.00     0.161 C 
ATOM      2  C   LIG d   1      -5.824  94.330 118.974  0.00  0.00     0.016 C 
ATOM      3  C   LIG d   1      -6.901  94.009 118.116  0.00  0.00     0.038 C 
ATOM      4  C   LIG d   1      -6.959  92.792 117.421  0.00  0.00     0.028 C 
ATOM      5  C   LIG d   1      -5.585  92.203 117.116  0.00  0.00    -0.047 C 
ATOM      6  C   LIG d   1      -4.759  92.154 118.422  0.00  0.00     0.091 C 
ENDROOT
BRANCH   1   7
ATOM      7  O   LIG d   1      -4.301  93.409 120.476  0.00  0.00    -0.368 OA
BRANCH   7   8
ATOM      8  C   LIG d   1      -4.854  92.265 121.173  0.00  0.00     0.119 C 
BRANCH   8   9
ATOM      9  C   LIG d   1      -5.795  92.801 122.269  0.00  0.00     0.028 C 
ATOM     10  C   LIG d   1      -7.277  92.547 121.944  0.00  0.00     0.006 C 
ENDBRANCH   8   9
BRANCH   8  11
ATOM     11  C   LIG d   1      -3.765  91.488 121.919  0.00  0.00     0.028 C 
ATOM     12  C   LIG d   1      -2.355  92.048 121.668  0.00  0.00     0.006 C 
ENDBRANCH   8  11
ENDBRANCH   7   8
ENDBRANCH   1   7
BRANCH   6  13
ATOM     13  N   LIG d   1      -3.373  91.669 118.197  0.00  0.00    -0.311 N 
ATOM     14  C   LIG d   1      -3.018  90.390 118.301  0.00  0.00     0.210 C 
ATOM     15  C   LIG d   1      -1.533  90.108 118.049  0.00  0.00     0.109 C 
ATOM     16  O   LIG d   1      -3.798  89.457 118.546  0.00  0.00    -0.276 OA
ATOM     17  H   LIG d   1      -2.682  92.355 117.964  0.00  0.00     0.149 HD
ENDBRANCH   6  13
BRANCH   5  18
ATOM     18  N   LIG d   1      -5.795  90.873 116.514  0.00  0.00     0.381 N 
ATOM     19  H   LIG d   1      -5.596  90.161 117.189  0.00  0.00    -0.090 HD
ATOM     20  H   LIG d   1      -5.161  90.762 115.742  0.00  0.00    -0.090 HD
ATOM     21  H   LIG d   1      -6.735  90.786 116.197  0.00  0.00    -0.090 HD
ENDBRANCH   5  18
BRANCH   3  22
ATOM     22  C   LIG d   1      -7.918  94.931 117.915  0.00  0.00     0.382 C 
ATOM     23  O   LIG d   1      -9.082  94.535 117.663  0.00  0.00    -0.241 OA
ATOM     24  O   LIG d   1      -7.677  96.153 117.939  0.00  0.00    -0.241 OA
ENDBRANCH   3  22
TORSDOF 7
ENDMDL
MODEL 2
REMARK VINA RESULT:      -4.2      2.082      5.014
REMARK  7 active torsions:
REMARK  status: ('A' for Active; 'I' for Inactive)
REMARK    1  A    between atoms: C_2  and  C_3 
REMARK    2  A    between atoms: C_3  and  O_6 
REMARK    3  A    between atoms: C_3  and  C_4 
REMARK    4  A    between atoms: C_7  and  O_6 
REMARK    5  A    between atoms: C_9  and  C_10 
REMARK    6  A    between atoms: N_15  and  C_14 
REMARK    7  A    between atoms: N_20  and  C_19 
REMARK       I    between atoms: C_22  and  N_20 
ROOT
ATOM      1  C   LIG d   1      -4.600  92.738 119.060  0.00  0.00     0.161 C 
ATOM      2  C   LIG d   1      -3.623  91.741 118.899  0.00  0.00     0.016 C 
ATOM      3  C   LIG d   1      -3.819  90.579 118.118  0.00  0.00     0.038 C 
ATOM      4  C   LIG d   1      -4.959  90.406 117.318  0.00  0.00     0.028 C 
ATOM      5  C   LIG d   1      -6.185  91.145 117.843  0.00  0.00    -0.047 C 
ATOM      6  C   LIG d   1      -5.807  92.621 118.106  0.00  0.00     0.091 C 
ENDROOT
BRANCH   1   7
ATOM      7  O   LIG d   1      -3.994  94.040 118.943  0.00  0.00    -0.368 OA
BRANCH   7   8
ATOM      8  C   LIG d   1      -3.867  94.797 120.172  0.00  0.00     0.119 C 
BRANCH   8   9
ATOM      9  C   LIG d   1      -4.166  96.272 119.840  0.00  0.00     0.028 C 
ATOM     10  C   LIG d   1      -5.671  96.586 119.868  0.00  0.00     0.006 C 
ENDBRANCH   8   9
BRANCH   8  11
ATOM     11  C   LIG d   1      -2.426  94.782 120.690  0.00  0.00     0.028 C 
ATOM     12  C   LIG d   1      -2.215  93.780 121.837  0.00  0.00     0.006 C 
ENDBRANCH   8  11
ENDBRANCH   7   8
ENDBRANCH   1   7
BRANCH   6  13
ATOM     13  N   LIG d   1      -6.928  93.395 118.701  0.00  0.00    -0.311 N 
ATOM     14  C   LIG d   1      -7.863  94.007 117.976  0.00  0.00     0.210 C 
ATOM     15  C   LIG d   1      -8.916  94.767 118.788  0.00  0.00     0.109 C 
ATOM     16  O   LIG d   1      -7.938  93.965 116.739  0.00  0.00    -0.276 OA
ATOM     17  H   LIG d   1      -6.961  93.454 119.700  0.00  0.00     0.149 HD
ENDBRANCH   6  13
BRANCH   5  18
ATOM     18  N   LIG d   1      -7.259  90.992 116.844  0.00  0.00     0.381 N 
ATOM     19  H   LIG d   1      -7.001  91.456 115.996  0.00  0.00    -0.090 HD
ATOM     20  H   LIG d   1      -8.095  91.424 117.197  0.00  0.00    -0.090 HD
ATOM     21  H   LIG d   1      -7.425  90.026 116.666  0.00  0.00    -0.090 HD
ENDBRANCH   5  18
BRANCH   3  22
ATOM     22  C   LIG d   1      -2.885  89.555 118.164  0.00  0.00     0.382 C 
ATOM     23  O   LIG d   1      -1.686  89.787 117.879  0.00  0.00    -0.241 OA
ATOM     24  O   LIG d   1      -3.236  88.393 118.443  0.00  0.00    -0.241 OA
ENDBRANCH   3  22
TORSDOF 7
ENDMDL
MODEL 3
REMARK VINA RESULT:      -4.2      2.540      4.383
REMARK  7 active torsions:
REMARK  status: ('A' for Active; 'I' for Inactive)
REMARK    1  A    between atoms: C_2  and  C_3 
REMARK    2  A    between atoms: C_3  and  O_6 
REMARK    3  A    between atoms: C_3  and  C_4 
REMARK    4  A    between atoms: C_7  and  O_6 
REMARK    5  A    between atoms: C_9  and  C_10 
REMARK    6  A    between atoms: N_15  and  C_14 
REMARK    7  A    between atoms: N_20  and  C_19 
REMARK       I    between atoms: C_22  and  N_20 
ROOT
ATOM      1  C   LIG d   1      -5.338  92.901 119.600  0.00  0.00     0.161 C 
ATOM      2  C   LIG d   1      -5.503  91.849 118.684  0.00  0.00     0.016 C 
ATOM      3  C   LIG d   1      -6.274  91.960 117.503  0.00  0.00     0.038 C 
ATOM      4  C   LIG d   1      -6.811  93.185 117.081  0.00  0.00     0.028 C 
ATOM      5  C   LIG d   1      -7.094  94.150 118.227  0.00  0.00    -0.047 C 
ATOM      6  C   LIG d   1      -5.824  94.277 119.100  0.00  0.00     0.091 C 
ENDROOT
BRANCH   1   7
ATOM      7  O   LIG d   1      -3.959  92.977 120.013  0.00  0.00    -0.368 OA
BRANCH   7   8
ATOM      8  C   LIG d   1      -3.416  91.791 120.643  0.00  0.00     0.119 C 
BRANCH   8   9
ATOM      9  C   LIG d   1      -3.173  92.124 122.127  0.00  0.00     0.028 C 
ATOM     10  C   LIG d   1      -3.125  93.639 122.388  0.00  0.00     0.006 C 
ENDBRANCH   8   9
BRANCH   8  11
ATOM     11  C   LIG d   1      -2.037  91.440 120.075  0.00  0.00     0.028 C 
ATOM     12  C   LIG d   1      -1.871  91.867 118.608  0.00  0.00     0.006 C 
ENDBRANCH   8  11
ENDBRANCH   7   8
ENDBRANCH   1   7
BRANCH   6  13
ATOM     13  N   LIG d   1      -6.041  95.138 120.292  0.00  0.00    -0.311 N 
ATOM     14  C   LIG d   1      -5.422  96.303 120.477  0.00  0.00     0.210 C 
ATOM     15  C   LIG d   1      -5.774  97.022 121.784  0.00  0.00     0.109 C 
ATOM     16  O   LIG d   1      -4.640  96.825 119.668  0.00  0.00    -0.276 OA
ATOM     17  H   LIG d   1      -6.683  94.806 120.985  0.00  0.00     0.149 HD
ENDBRANCH   6  13
BRANCH   5  18
ATOM     18  N   LIG d   1      -7.519  95.432 117.635  0.00  0.00     0.381 N 
ATOM     19  H   LIG d   1      -7.938  96.008 118.338  0.00  0.00    -0.090 HD
ATOM     20  H   LIG d   1      -8.207  95.251 116.926  0.00  0.00    -0.090 HD
ATOM     21  H   LIG d   1      -6.735  95.901 117.236  0.00  0.00    -0.090 HD
ENDBRANCH   5  18
BRANCH   3  22
ATOM     22  C   LIG d   1      -6.547  90.827 116.753  0.00  0.00     0.382 C 
ATOM     23  O   LIG d   1      -7.729  90.558 116.430  0.00  0.00    -0.241 OA
ATOM     24  O   LIG d   1      -5.631  90.046 116.431  0.00  0.00    -0.241 OA
ENDBRANCH   3  22
TORSDOF 7
ENDMDL
MODEL 4
REMARK VINA RESULT:      -4.2      2.738      4.630
REMARK  7 active torsions:
REMARK  status: ('A' for Active; 'I' for Inactive)
REMARK    1  A    between atoms: C_2  and  C_3 
REMARK    2  A    between atoms: C_3  and  O_6 
REMARK    3  A    between atoms: C_3  and  C_4 
REMARK    4  A    between atoms: C_7  and  O_6 
REMARK    5  A    between atoms: C_9  and  C_10 
REMARK    6  A    between atoms: N_15  and  C_14 
REMARK    7  A    between atoms: N_20  and  C_19 
REMARK       I    between atoms: C_22  and  N_20 
ROOT
ATOM      1  C   LIG d   1      -4.064  92.558 119.302  0.00  0.00     0.161 C 
ATOM      2  C   LIG d   1      -4.564  91.658 118.346  0.00  0.00     0.016 C 
ATOM      3  C   LIG d   1      -5.697  91.926 117.543  0.00  0.00     0.038 C 
ATOM      4  C   LIG d   1      -6.320  93.182 117.536  0.00  0.00     0.028 C 
ATOM      5  C   LIG d   1      -6.162  93.945 118.847  0.00  0.00    -0.047 C 
ATOM      6  C   LIG d   1      -4.664  93.978 119.230  0.00  0.00     0.091 C 
ENDROOT
BRANCH   1   7
ATOM      7  O   LIG d   1      -2.627  92.617 119.213  0.00  0.00    -0.368 OA
BRANCH   7   8
ATOM      8  C   LIG d   1      -1.971  91.431 118.700  0.00  0.00     0.119 C 
BRANCH   8   9
ATOM      9  C   LIG d   1      -1.406  90.656 119.907  0.00  0.00     0.028 C 
ATOM     10  C   LIG d   1      -2.286  89.458 120.299  0.00  0.00     0.006 C 
ENDBRANCH   8   9
BRANCH   8  11
ATOM     11  C   LIG d   1      -0.753  91.794 117.845  0.00  0.00     0.028 C 
ATOM     12  C   LIG d   1       0.233  90.626 117.687  0.00  0.00     0.006 C 
ENDBRANCH   8  11
ENDBRANCH   7   8
ENDBRANCH   1   7
BRANCH   6  13
ATOM     13  N   LIG d   1      -4.429  94.633 120.543  0.00  0.00    -0.311 N 
ATOM     14  C   LIG d   1      -3.648  95.699 120.701  0.00  0.00     0.210 C 
ATOM     15  C   LIG d   1      -3.527  96.205 122.142  0.00  0.00     0.109 C 
ATOM     16  O   LIG d   1      -3.068  96.294 119.780  0.00  0.00    -0.276 OA
ATOM     17  H   LIG d   1      -4.886  94.234 121.340  0.00  0.00     0.149 HD
ENDBRANCH   6  13
BRANCH   5  18
ATOM     18  N   LIG d   1      -6.739  95.289 118.654  0.00  0.00     0.381 N 
ATOM     19  H   LIG d   1      -7.661  95.320 119.039  0.00  0.00    -0.090 HD
ATOM     20  H   LIG d   1      -6.802  95.477 117.669  0.00  0.00    -0.090 HD
ATOM     21  H   LIG d   1      -6.164  95.973 119.094  0.00  0.00    -0.090 HD
ENDBRANCH   5  18
BRANCH   3  22
ATOM     22  C   LIG d   1      -6.241  90.916 116.765  0.00  0.00     0.382 C 
ATOM     23  O   LIG d   1      -7.449  90.964 116.430  0.00  0.00    -0.241 OA
ATOM     24  O   LIG d   1      -5.551  89.934 116.430  0.00  0.00    -0.241 OA
ENDBRANCH   3  22
TORSDOF 7
ENDMDL
MODEL 5
REMARK VINA RESULT:      -4.1      2.831      5.094
REMARK  7 active torsions:
REMARK  status: ('A' for Active; 'I' for Inactive)
REMARK    1  A    between atoms: C_2  and  C_3 
REMARK    2  A    between atoms: C_3  and  O_6 
REMARK    3  A    between atoms: C_3  and  C_4 
REMARK    4  A    between atoms: C_7  and  O_6 
REMARK    5  A    between atoms: C_9  and  C_10 
REMARK    6  A    between atoms: N_15  and  C_14 
REMARK    7  A    between atoms: N_20  and  C_19 
REMARK       I    between atoms: C_22  and  N_20 
ROOT
ATOM      1  C   LIG d   1      -6.043  93.320 120.029  0.00  0.00     0.161 C 
ATOM      2  C   LIG d   1      -5.793  92.237 119.169  0.00  0.00     0.016 C 
ATOM      3  C   LIG d   1      -6.336  92.136 117.868  0.00  0.00     0.038 C 
ATOM      4  C   LIG d   1      -7.049  93.190 117.278  0.00  0.00     0.028 C 
ATOM      5  C   LIG d   1      -7.751  94.088 118.291  0.00  0.00    -0.047 C 
ATOM      6  C   LIG d   1      -6.728  94.531 119.362  0.00  0.00     0.091 C 
ENDROOT
BRANCH   1   7
ATOM      7  O   LIG d   1      -4.818  93.727 120.670  0.00  0.00    -0.368 OA
BRANCH   7   8
ATOM      8  C   LIG d   1      -3.810  94.309 119.807  0.00  0.00     0.119 C 
BRANCH   8   9
ATOM      9  C   LIG d   1      -2.475  93.601 120.111  0.00  0.00     0.028 C 
ATOM     10  C   LIG d   1      -2.134  92.520 119.071  0.00  0.00     0.006 C 
ENDBRANCH   8   9
BRANCH   8  11
ATOM     11  C   LIG d   1      -3.572  95.784 120.144  0.00  0.00     0.028 C 
ATOM     12  C   LIG d   1      -2.413  95.990 121.133  0.00  0.00     0.006 C 
ENDBRANCH   8  11
ENDBRANCH   7   8
ENDBRANCH   1   7
BRANCH   6  13
ATOM     13  N   LIG d   1      -7.350  95.344 120.439  0.00  0.00    -0.311 N 
ATOM     14  C   LIG d   1      -7.357  96.676 120.440  0.00  0.00     0.210 C 
ATOM     15  C   LIG d   1      -8.035  97.318 121.655  0.00  0.00     0.109 C 
ATOM     16  O   LIG d   1      -6.895  97.387 119.535  0.00  0.00    -0.276 OA
ATOM     17  H   LIG d   1      -7.776  94.848 121.197  0.00  0.00     0.149 HD
ENDBRANCH   6  13
BRANCH   5  18
ATOM     18  N   LIG d   1      -8.339  95.220 117.551  0.00  0.00     0.381 N 
ATOM     19  H   LIG d   1      -7.990  96.083 117.918  0.00  0.00    -0.090 HD
ATOM     20  H   LIG d   1      -9.336  95.206 117.674  0.00  0.00    -0.090 HD
ATOM     21  H   LIG d   1      -8.115  95.148 116.583  0.00  0.00    -0.090 HD
ENDBRANCH   5  18
BRANCH   3  22
ATOM     22  C   LIG d   1      -6.201  90.953 117.157  0.00  0.00     0.382 C 
ATOM     23  O   LIG d   1      -5.125  90.309 117.209  0.00  0.00    -0.241 OA
ATOM     24  O   LIG d   1      -7.126  90.544 116.430  0.00  0.00    -0.241 OA
ENDBRANCH   3  22
TORSDOF 7
ENDMDL
MODEL 6
REMARK VINA RESULT:      -4.0      4.116      7.927
REMARK  7 active torsions:
REMARK  status: ('A' for Active; 'I' for Inactive)
REMARK    1  A    between atoms: C_2  and  C_3 
REMARK    2  A    between atoms: C_3  and  O_6 
REMARK    3  A    between atoms: C_3  and  C_4 
REMARK    4  A    between atoms: C_7  and  O_6 
REMARK    5  A    between atoms: C_9  and  C_10 
REMARK    6  A    between atoms: N_15  and  C_14 
REMARK    7  A    between atoms: N_20  and  C_19 
REMARK       I    between atoms: C_22  and  N_20 
ROOT
ATOM      1  C   LIG d   1       0.131  91.152 117.009  0.00  0.00     0.161 C 
ATOM      2  C   LIG d   1       1.529  91.148 116.869  0.00  0.00     0.016 C 
ATOM      3  C   LIG d   1       2.398  91.859 117.728  0.00  0.00     0.038 C 
ATOM      4  C   LIG d   1       1.935  92.506 118.883  0.00  0.00     0.028 C 
ATOM      5  C   LIG d   1       0.482  92.958 118.782  0.00  0.00    -0.047 C 
ATOM      6  C   LIG d   1      -0.386  91.761 118.329  0.00  0.00     0.091 C 
ENDROOT
BRANCH   1   7
ATOM      7  O   LIG d   1      -0.381  89.815 116.840  0.00  0.00    -0.368 OA
BRANCH   7   8
ATOM      8  C   LIG d   1      -0.153  88.902 117.941  0.00  0.00     0.119 C 
BRANCH   8   9
ATOM      9  C   LIG d   1       0.629  87.695 117.386  0.00  0.00     0.028 C 
ATOM     10  C   LIG d   1       0.171  86.364 118.005  0.00  0.00     0.006 C 
ENDBRANCH   8   9
BRANCH   8  11
ATOM     11  C   LIG d   1      -1.470  88.324 118.467  0.00  0.00     0.028 C 
ATOM     12  C   LIG d   1      -2.664  88.629 117.549  0.00  0.00     0.006 C 
ENDBRANCH   8  11
ENDBRANCH   7   8
ENDBRANCH   1   7
BRANCH   6  13
ATOM     13  N   LIG d   1      -1.809  92.138 118.124  0.00  0.00    -0.311 N 
ATOM     14  C   LIG d   1      -2.747  91.993 119.058  0.00  0.00     0.210 C 
ATOM     15  C   LIG d   1      -4.154  92.425 118.633  0.00  0.00     0.109 C 
ATOM     16  O   LIG d   1      -2.542  91.578 120.208  0.00  0.00    -0.276 OA
ATOM     17  H   LIG d   1      -2.057  92.513 117.229  0.00  0.00     0.149 HD
ENDBRANCH   6  13
BRANCH   5  18
ATOM     18  N   LIG d   1       0.088  93.491 120.100  0.00  0.00     0.381 N 
ATOM     19  H   LIG d   1      -0.791  93.099 120.375  0.00  0.00    -0.090 HD
ATOM     20  H   LIG d   1      -0.019  94.487 120.029  0.00  0.00    -0.090 HD
ATOM     21  H   LIG d   1       0.784  93.271 120.778  0.00  0.00    -0.090 HD
ENDBRANCH   5  18
BRANCH   3  22
ATOM     22  C   LIG d   1       3.744  91.962 117.411  0.00  0.00     0.382 C 
ATOM     23  O   LIG d   1       4.243  93.083 117.147  0.00  0.00    -0.241 OA
ATOM     24  O   LIG d   1       4.457  90.942 117.342  0.00  0.00    -0.241 OA
ENDBRANCH   3  22
TORSDOF 7
ENDMDL
MODEL 7
REMARK VINA RESULT:      -4.0      2.625      4.232
REMARK  7 active torsions:
REMARK  status: ('A' for Active; 'I' for Inactive)
REMARK    1  A    between atoms: C_2  and  C_3 
REMARK    2  A    between atoms: C_3  and  O_6 
REMARK    3  A    between atoms: C_3  and  C_4 
REMARK    4  A    between atoms: C_7  and  O_6 
REMARK    5  A    between atoms: C_9  and  C_10 
REMARK    6  A    between atoms: N_15  and  C_14 
REMARK    7  A    between atoms: N_20  and  C_19 
REMARK       I    between atoms: C_22  and  N_20 
ROOT
ATOM      1  C   LIG d   1      -5.858  93.596 120.557  0.00  0.00     0.161 C 
ATOM      2  C   LIG d   1      -7.085  93.499 119.880  0.00  0.00     0.016 C 
ATOM      3  C   LIG d   1      -7.745  94.609 119.302  0.00  0.00     0.038 C 
ATOM      4  C   LIG d   1      -7.144  95.874 119.231  0.00  0.00     0.028 C 
ATOM      5  C   LIG d   1      -6.133  96.128 120.344  0.00  0.00    -0.047 C 
ATOM      6  C   LIG d   1      -5.134  94.949 120.393  0.00  0.00     0.091 C 
ENDROOT
BRANCH   1   7
ATOM      7  O   LIG d   1      -4.993  92.514 120.160  0.00  0.00    -0.368 OA
BRANCH   7   8
ATOM      8  C   LIG d   1      -4.536  92.536 118.785  0.00  0.00     0.119 C 
BRANCH   8   9
ATOM      9  C   LIG d   1      -4.858  91.161 118.168  0.00  0.00     0.028 C 
ATOM     10  C   LIG d   1      -5.963  91.241 117.101  0.00  0.00     0.006 C 
ENDBRANCH   8   9
BRANCH   8  11
ATOM     11  C   LIG d   1      -3.012  92.668 118.707  0.00  0.00     0.028 C 
ATOM     12  C   LIG d   1      -2.308  92.217 119.996  0.00  0.00     0.006 C 
ENDBRANCH   8  11
ENDBRANCH   7   8
ENDBRANCH   1   7
BRANCH   6  13
ATOM     13  N   LIG d   1      -4.161  95.077 121.509  0.00  0.00    -0.311 N 
ATOM     14  C   LIG d   1      -2.954  95.622 121.371  0.00  0.00     0.210 C 
ATOM     15  C   LIG d   1      -2.101  95.637 122.643  0.00  0.00     0.109 C 
ATOM     16  O   LIG d   1      -2.521  96.125 120.323  0.00  0.00    -0.276 OA
ATOM     17  H   LIG d   1      -4.442  94.723 122.403  0.00  0.00     0.149 HD
ENDBRANCH   6  13
BRANCH   5  18
ATOM     18  N   LIG d   1      -5.484  97.424 120.070  0.00  0.00     0.381 N 
ATOM     19  H   LIG d   1      -6.038  98.167 120.449  0.00  0.00    -0.090 HD
ATOM     20  H   LIG d   1      -5.423  97.553 119.076  0.00  0.00    -0.090 HD
ATOM     21  H   LIG d   1      -4.573  97.441 120.472  0.00  0.00    -0.090 HD
ENDBRANCH   5  18
BRANCH   3  22
ATOM     22  C   LIG d   1      -9.038  94.466 118.823  0.00  0.00     0.382 C 
ATOM     23  O   LIG d   1      -9.943  94.036 119.579  0.00  0.00    -0.241 OA
ATOM     24  O   LIG d   1      -9.302  94.719 117.632  0.00  0.00    -0.241 OA
ENDBRANCH   3  22
TORSDOF 7
ENDMDL
MODEL 8
REMARK VINA RESULT:      -4.0      2.706      4.283
REMARK  7 active torsions:
REMARK  status: ('A' for Active; 'I' for Inactive)
REMARK    1  A    between atoms: C_2  and  C_3 
REMARK    2  A    between atoms: C_3  and  O_6 
REMARK    3  A    between atoms: C_3  and  C_4 
REMARK    4  A    between atoms: C_7  and  O_6 
REMARK    5  A    between atoms: C_9  and  C_10 
REMARK    6  A    between atoms: N_15  and  C_14 
REMARK    7  A    between atoms: N_20  and  C_19 
REMARK       I    between atoms: C_22  and  N_20 
ROOT
ATOM      1  C   LIG d   1      -3.510  91.337 119.153  0.00  0.00     0.161 C 
ATOM      2  C   LIG d   1      -4.418  90.861 118.191  0.00  0.00     0.016 C 
ATOM      3  C   LIG d   1      -5.427  91.663 117.610  0.00  0.00     0.038 C 
ATOM      4  C   LIG d   1      -5.501  93.045 117.841  0.00  0.00     0.028 C 
ATOM      5  C   LIG d   1      -4.924  93.465 119.189  0.00  0.00    -0.047 C 
ATOM      6  C   LIG d   1      -3.505  92.869 119.335  0.00  0.00     0.091 C 
ENDROOT
BRANCH   1   7
ATOM      7  O   LIG d   1      -2.183  90.864 118.848  0.00  0.00    -0.368 OA
BRANCH   7   8
ATOM      8  C   LIG d   1      -1.678  89.798 119.690  0.00  0.00     0.119 C 
BRANCH   8   9
ATOM      9  C   LIG d   1      -1.852  88.476 118.917  0.00  0.00     0.028 C 
ATOM     10  C   LIG d   1      -2.793  87.496 119.636  0.00  0.00     0.006 C 
ENDBRANCH   8   9
BRANCH   8  11
ATOM     11  C   LIG d   1      -2.523  89.641 120.958  0.00  0.00     0.028 C 
ATOM     12  C   LIG d   1      -1.774  90.070 122.230  0.00  0.00     0.006 C 
ENDBRANCH   8  11
ENDBRANCH   7   8
ENDBRANCH   1   7
BRANCH   6  13
ATOM     13  N   LIG d   1      -2.901  93.162 120.661  0.00  0.00    -0.311 N 
ATOM     14  C   LIG d   1      -1.664  93.630 120.816  0.00  0.00     0.210 C 
ATOM     15  C   LIG d   1      -1.230  93.845 122.269  0.00  0.00     0.109 C 
ATOM     16  O   LIG d   1      -0.896  93.919 119.886  0.00  0.00    -0.276 OA
ATOM     17  H   LIG d   1      -3.466  92.986 121.469  0.00  0.00     0.149 HD
ENDBRANCH   6  13
BRANCH   5  18
ATOM     18  N   LIG d   1      -4.939  94.939 119.240  0.00  0.00     0.381 N 
ATOM     19  H   LIG d   1      -5.884  95.269 119.223  0.00  0.00    -0.090 HD
ATOM     20  H   LIG d   1      -4.466  95.298 118.429  0.00  0.00    -0.090 HD
ATOM     21  H   LIG d   1      -4.484  95.257 120.067  0.00  0.00    -0.090 HD
ENDBRANCH   5  18
BRANCH   3  22
ATOM     22  C   LIG d   1      -6.400  91.075 116.817  0.00  0.00     0.382 C 
ATOM     23  O   LIG d   1      -7.439  91.714 116.522  0.00  0.00    -0.241 OA
ATOM     24  O   LIG d   1      -6.274  89.898 116.431  0.00  0.00    -0.241 OA
ENDBRANCH   3  22
TORSDOF 7
ENDMDL
MODEL 9
REMARK VINA RESULT:      -3.7      2.339      5.204
REMARK  7 active torsions:
REMARK  status: ('A' for Active; 'I' for Inactive)
REMARK    1  A    between atoms: C_2  and  C_3 
REMARK    2  A    between atoms: C_3  and  O_6 
REMARK    3  A    between atoms: C_3  and  C_4 
REMARK    4  A    between atoms: C_7  and  O_6 
REMARK    5  A    between atoms: C_9  and  C_10 
REMARK    6  A    between atoms: N_15  and  C_14 
REMARK    7  A    between atoms: N_20  and  C_19 
REMARK       I    between atoms: C_22  and  N_20 
ROOT
ATOM      1  C   LIG d   1      -4.941  94.192 119.774  0.00  0.00     0.161 C 
ATOM      2  C   LIG d   1      -3.622  93.737 119.605  0.00  0.00     0.016 C 
ATOM      3  C   LIG d   1      -3.287  92.583 118.860  0.00  0.00     0.038 C 
ATOM      4  C   LIG d   1      -4.241  91.887 118.102  0.00  0.00     0.028 C 
ATOM      5  C   LIG d   1      -5.659  92.013 118.648  0.00  0.00    -0.047 C 
ATOM      6  C   LIG d   1      -5.982  93.510 118.863  0.00  0.00     0.091 C 
ENDROOT
BRANCH   1   7
ATOM      7  O   LIG d   1      -4.988  95.623 119.605  0.00  0.00    -0.368 OA
BRANCH   7   8
ATOM      8  C   LIG d   1      -5.334  96.392 120.783  0.00  0.00     0.119 C 
BRANCH   8   9
ATOM      9  C   LIG d   1      -5.555  95.396 121.938  0.00  0.00     0.028 C 
ATOM     10  C   LIG d   1      -6.938  95.554 122.593  0.00  0.00     0.006 C 
ENDBRANCH   8   9
BRANCH   8  11
ATOM     11  C   LIG d   1      -6.675  97.111 120.605  0.00  0.00     0.028 C 
ATOM     12  C   LIG d   1      -6.990  97.430 119.135  0.00  0.00     0.006 C 
ENDBRANCH   8  11
ENDBRANCH   7   8
ENDBRANCH   1   7
BRANCH   6  13
ATOM     13  N   LIG d   1      -7.320  93.718 119.475  0.00  0.00    -0.311 N 
ATOM     14  C   LIG d   1      -8.404  94.049 118.774  0.00  0.00     0.210 C 
ATOM     15  C   LIG d   1      -9.678  94.235 119.603  0.00  0.00     0.109 C 
ATOM     16  O   LIG d   1      -8.437  94.174 117.540  0.00  0.00    -0.276 OA
ATOM     17  H   LIG d   1      -7.391  93.606 120.467  0.00  0.00     0.149 HD
ENDBRANCH   6  13
BRANCH   5  18
ATOM     18  N   LIG d   1      -6.566  91.357 117.688  0.00  0.00     0.381 N 
ATOM     19  H   LIG d   1      -6.342  90.385 117.621  0.00  0.00    -0.090 HD
ATOM     20  H   LIG d   1      -6.438  91.774 116.783  0.00  0.00    -0.090 HD
ATOM     21  H   LIG d   1      -7.512  91.468 117.983  0.00  0.00    -0.090 HD
ENDBRANCH   5  18
BRANCH   3  22
ATOM     22  C   LIG d   1      -1.991  92.091 118.901  0.00  0.00     0.382 C 
ATOM     23  O   LIG d   1      -1.685  91.074 118.232  0.00  0.00    -0.241 OA
ATOM     24  O   LIG d   1      -1.136  92.625 119.632  0.00  0.00    -0.241 OA
ENDBRANCH   3  22
TORSDOF 7
ENDMDL
