MODEL 1
REMARK VINA RESULT:      -4.6      0.000      0.000
REMARK  7 active torsions:
REMARK  status: ('A' for Active; 'I' for Inactive)
REMARK    1  A    between atoms: C_2  and  C_3 
REMARK    2  A    between atoms: C_3  and  O_6 
REMARK    3  A    between atoms: C_3  and  C_4 
REMARK    4  A    between atoms: C_7  and  O_6 
REMARK    5  A    between atoms: C_9  and  C_10 
REMARK    6  A    between atoms: N_15  and  C_14 
REMARK    7  A    between atoms: N_20  and  C_19 
REMARK       I    between atoms: C_22  and  N_20 
ROOT
ATOM      1  C   LIG d   1      -4.572  92.875 119.822  0.00  0.00     0.161 C 
ATOM      2  C   LIG d   1      -5.749  92.664 119.086  0.00  0.00     0.016 C 
ATOM      3  C   LIG d   1      -5.808  91.859 117.925  0.00  0.00     0.038 C 
ATOM      4  C   LIG d   1      -4.717  91.083 117.506  0.00  0.00     0.028 C 
ATOM      5  C   LIG d   1      -3.368  91.656 117.926  0.00  0.00    -0.047 C 
ATOM      6  C   LIG d   1      -3.398  91.948 119.444  0.00  0.00     0.091 C 
ENDROOT
BRANCH   1   7
ATOM      7  O   LIG d   1      -4.853  92.777 121.232  0.00  0.00    -0.368 OA
BRANCH   7   8
ATOM      8  C   LIG d   1      -6.217  93.059 121.631  0.00  0.00     0.119 C 
BRANCH   8   9
ATOM      9  C   LIG d   1      -6.247  94.491 122.199  0.00  0.00     0.028 C 
ATOM     10  C   LIG d   1      -7.122  95.437 121.359  0.00  0.00     0.006 C 
ENDBRANCH   8   9
BRANCH   8  11
ATOM     11  C   LIG d   1      -6.658  92.156 122.787  0.00  0.00     0.028 C 
ATOM     12  C   LIG d   1      -8.167  92.236 123.064  0.00  0.00     0.006 C 
ENDBRANCH   8  11
ENDBRANCH   7   8
ENDBRANCH   1   7
BRANCH   6  13
ATOM     13  N   LIG d   1      -2.146  92.590 119.922  0.00  0.00    -0.311 N 
ATOM     14  C   LIG d   1      -1.133  91.911 120.459  0.00  0.00     0.210 C 
ATOM     15  C   LIG d   1       0.056  92.769 120.904  0.00  0.00     0.109 C 
ATOM     16  O   LIG d   1      -1.092  90.678 120.578  0.00  0.00    -0.276 OA
ATOM     17  H   LIG d   1      -2.081  93.585 119.834  0.00  0.00     0.149 HD
ENDBRANCH   6  13
BRANCH   5  18
ATOM     18  N   LIG d   1      -2.330  90.680 117.545  0.00  0.00     0.381 N 
ATOM     19  H   LIG d   1      -1.729  91.078 116.852  0.00  0.00    -0.090 HD
ATOM     20  H   LIG d   1      -2.775  89.871 117.148  0.00  0.00    -0.090 HD
ATOM     21  H   LIG d   1      -1.799  90.417 118.346  0.00  0.00    -0.090 HD
ENDBRANCH   5  18
BRANCH   3  22
ATOM     22  C   LIG d   1      -6.956  91.856 117.148  0.00  0.00     0.382 C 
ATOM     23  O   LIG d   1      -7.225  90.863 116.430  0.00  0.00    -0.241 OA
ATOM     24  O   LIG d   1      -7.704  92.852 117.122  0.00  0.00    -0.241 OA
ENDBRANCH   3  22
TORSDOF 7
ENDMDL
MODEL 2
REMARK VINA RESULT:      -4.6      2.692      5.170
REMARK  7 active torsions:
REMARK  status: ('A' for Active; 'I' for Inactive)
REMARK    1  A    between atoms: C_2  and  C_3 
REMARK    2  A    between atoms: C_3  and  O_6 
REMARK    3  A    between atoms: C_3  and  C_4 
REMARK    4  A    between atoms: C_7  and  O_6 
REMARK    5  A    between atoms: C_9  and  C_10 
REMARK    6  A    between atoms: N_15  and  C_14 
REMARK    7  A    between atoms: N_20  and  C_19 
REMARK       I    between atoms: C_22  and  N_20 
ROOT
ATOM      1  C   LIG d   1      -4.922  92.962 120.202  0.00  0.00     0.161 C 
ATOM      2  C   LIG d   1      -3.852  92.192 119.718  0.00  0.00     0.016 C 
ATOM      3  C   LIG d   1      -3.884  91.504 118.483  0.00  0.00     0.038 C 
ATOM      4  C   LIG d   1      -4.939  91.664 117.573  0.00  0.00     0.028 C 
ATOM      5  C   LIG d   1      -6.262  92.028 118.237  0.00  0.00    -0.047 C 
ATOM      6  C   LIG d   1      -6.038  93.238 119.173  0.00  0.00     0.091 C 
ENDROOT
BRANCH   1   7
ATOM      7  O   LIG d   1      -4.426  94.201 120.747  0.00  0.00    -0.368 OA
BRANCH   7   8
ATOM      8  C   LIG d   1      -3.438  94.898 119.949  0.00  0.00     0.119 C 
BRANCH   8   9
ATOM      9  C   LIG d   1      -2.241  95.214 120.867  0.00  0.00     0.028 C 
ATOM     10  C   LIG d   1      -1.008  94.353 120.542  0.00  0.00     0.006 C 
ENDBRANCH   8   9
BRANCH   8  11
ATOM     11  C   LIG d   1      -3.960  96.259 119.480  0.00  0.00     0.028 C 
ATOM     12  C   LIG d   1      -5.196  96.725 120.264  0.00  0.00     0.006 C 
ENDBRANCH   8  11
ENDBRANCH   7   8
ENDBRANCH   1   7
BRANCH   6  13
ATOM     13  N   LIG d   1      -7.264  93.607 119.927  0.00  0.00    -0.311 N 
ATOM     14  C   LIG d   1      -8.143  94.512 119.499  0.00  0.00     0.210 C 
ATOM     15  C   LIG d   1      -9.328  94.756 120.439  0.00  0.00     0.109 C 
ATOM     16  O   LIG d   1      -8.071  95.111 118.416  0.00  0.00    -0.276 OA
ATOM     17  H   LIG d   1      -7.418  93.146 120.802  0.00  0.00     0.149 HD
ENDBRANCH   6  13
BRANCH   5  18
ATOM     18  N   LIG d   1      -7.239  92.299 117.166  0.00  0.00     0.381 N 
ATOM     19  H   LIG d   1      -8.136  91.941 117.427  0.00  0.00    -0.090 HD
ATOM     20  H   LIG d   1      -6.943  91.827 116.329  0.00  0.00    -0.090 HD
ATOM     21  H   LIG d   1      -7.300  93.279 117.000  0.00  0.00    -0.090 HD
ENDBRANCH   5  18
BRANCH   3  22
ATOM     22  C   LIG d   1      -2.869  90.613 118.166  0.00  0.00     0.382 C 
ATOM     23  O   LIG d   1      -1.670  90.944 118.331  0.00  0.00    -0.241 OA
ATOM     24  O   LIG d   1      -3.137  89.500 117.676  0.00  0.00    -0.241 OA
ENDBRANCH   3  22
TORSDOF 7
ENDMDL
MODEL 3
REMARK VINA RESULT:      -4.2      2.782      4.888
REMARK  7 active torsions:
REMARK  status: ('A' for Active; 'I' for Inactive)
REMARK    1  A    between atoms: C_2  and  C_3 
REMARK    2  A    between atoms: C_3  and  O_6 
REMARK    3  A    between atoms: C_3  and  C_4 
REMARK    4  A    between atoms: C_7  and  O_6 
REMARK    5  A    between atoms: C_9  and  C_10 
REMARK    6  A    between atoms: N_15  and  C_14 
REMARK    7  A    between atoms: N_20  and  C_19 
REMARK       I    between atoms: C_22  and  N_20 
ROOT
ATOM      1  C   LIG d   1      -4.993  93.181 119.883  0.00  0.00     0.161 C 
ATOM      2  C   LIG d   1      -3.895  92.442 119.412  0.00  0.00     0.016 C 
ATOM      3  C   LIG d   1      -3.952  91.599 118.279  0.00  0.00     0.038 C 
ATOM      4  C   LIG d   1      -5.080  91.554 117.445  0.00  0.00     0.028 C 
ATOM      5  C   LIG d   1      -6.380  91.895 118.165  0.00  0.00    -0.047 C 
ATOM      6  C   LIG d   1      -6.199  93.231 118.921  0.00  0.00     0.091 C 
ENDROOT
BRANCH   1   7
ATOM      7  O   LIG d   1      -4.572  94.515 120.228  0.00  0.00    -0.368 OA
BRANCH   7   8
ATOM      8  C   LIG d   1      -4.455  94.801 121.644  0.00  0.00     0.119 C 
BRANCH   8   9
ATOM      9  C   LIG d   1      -5.635  95.714 122.031  0.00  0.00     0.028 C 
ATOM     10  C   LIG d   1      -5.968  96.739 120.934  0.00  0.00     0.006 C 
ENDBRANCH   8   9
BRANCH   8  11
ATOM     11  C   LIG d   1      -3.195  95.617 121.946  0.00  0.00     0.028 C 
ATOM     12  C   LIG d   1      -2.245  94.907 122.924  0.00  0.00     0.006 C 
ENDBRANCH   8  11
ENDBRANCH   7   8
ENDBRANCH   1   7
BRANCH   6  13
ATOM     13  N   LIG d   1      -7.397  93.596 119.721  0.00  0.00    -0.311 N 
ATOM     14  C   LIG d   1      -8.426  94.284 119.229  0.00  0.00     0.210 C 
ATOM     15  C   LIG d   1      -9.550  94.571 120.229  0.00  0.00     0.109 C 
ATOM     16  O   LIG d   1      -8.528  94.656 118.050  0.00  0.00    -0.276 OA
ATOM     17  H   LIG d   1      -7.411  93.306 120.680  0.00  0.00     0.149 HD
ENDBRANCH   6  13
BRANCH   5  18
ATOM     18  N   LIG d   1      -7.451  91.945 117.151  0.00  0.00     0.381 N 
ATOM     19  H   LIG d   1      -7.179  91.418 116.345  0.00  0.00    -0.090 HD
ATOM     20  H   LIG d   1      -7.589  92.900 116.872  0.00  0.00    -0.090 HD
ATOM     21  H   LIG d   1      -8.295  91.576 117.529  0.00  0.00    -0.090 HD
ENDBRANCH   5  18
BRANCH   3  22
ATOM     22  C   LIG d   1      -2.888  90.758 117.993  0.00  0.00     0.382 C 
ATOM     23  O   LIG d   1      -3.099  89.558 117.693  0.00  0.00    -0.241 OA
ATOM     24  O   LIG d   1      -1.716  91.173 118.074  0.00  0.00    -0.241 OA
ENDBRANCH   3  22
TORSDOF 7
ENDMDL
MODEL 4
REMARK VINA RESULT:      -4.2      1.682      2.336
REMARK  7 active torsions:
REMARK  status: ('A' for Active; 'I' for Inactive)
REMARK    1  A    between atoms: C_2  and  C_3 
REMARK    2  A    between atoms: C_3  and  O_6 
REMARK    3  A    between atoms: C_3  and  C_4 
REMARK    4  A    between atoms: C_7  and  O_6 
REMARK    5  A    between atoms: C_9  and  C_10 
REMARK    6  A    between atoms: N_15  and  C_14 
REMARK    7  A    between atoms: N_20  and  C_19 
REMARK       I    between atoms: C_22  and  N_20 
ROOT
ATOM      1  C   LIG d   1      -2.844  92.874 119.324  0.00  0.00     0.161 C 
ATOM      2  C   LIG d   1      -4.061  92.450 118.765  0.00  0.00     0.016 C 
ATOM      3  C   LIG d   1      -4.181  91.315 117.931  0.00  0.00     0.038 C 
ATOM      4  C   LIG d   1      -3.110  90.433 117.720  0.00  0.00     0.028 C 
ATOM      5  C   LIG d   1      -1.744  91.098 117.853  0.00  0.00    -0.047 C 
ATOM      6  C   LIG d   1      -1.686  91.862 119.195  0.00  0.00     0.091 C 
ENDROOT
BRANCH   1   7
ATOM      7  O   LIG d   1      -3.041  93.238 120.704  0.00  0.00    -0.368 OA
BRANCH   7   8
ATOM      8  C   LIG d   1      -4.156  92.604 121.378  0.00  0.00     0.119 C 
BRANCH   8   9
ATOM      9  C   LIG d   1      -5.106  93.721 121.852  0.00  0.00     0.028 C 
ATOM     10  C   LIG d   1      -6.582  93.394 121.569  0.00  0.00     0.006 C 
ENDBRANCH   8   9
BRANCH   8  11
ATOM     11  C   LIG d   1      -3.702  91.889 122.654  0.00  0.00     0.028 C 
ATOM     12  C   LIG d   1      -2.827  90.658 122.369  0.00  0.00     0.006 C 
ENDBRANCH   8  11
ENDBRANCH   7   8
ENDBRANCH   1   7
BRANCH   6  13
ATOM     13  N   LIG d   1      -0.414  92.611 119.367  0.00  0.00    -0.311 N 
ATOM     14  C   LIG d   1       0.643  92.122 120.013  0.00  0.00     0.210 C 
ATOM     15  C   LIG d   1       1.847  93.066 120.093  0.00  0.00     0.109 C 
ATOM     16  O   LIG d   1       0.710  90.983 120.500  0.00  0.00    -0.276 OA
ATOM     17  H   LIG d   1      -0.370  93.532 118.976  0.00  0.00     0.149 HD
ENDBRANCH   6  13
BRANCH   5  18
ATOM     18  N   LIG d   1      -0.721  90.040 117.746  0.00  0.00     0.381 N 
ATOM     19  H   LIG d   1      -1.140  89.198 117.405  0.00  0.00    -0.090 HD
ATOM     20  H   LIG d   1      -0.346  89.857 118.660  0.00  0.00    -0.090 HD
ATOM     21  H   LIG d   1       0.007  90.330 117.132  0.00  0.00    -0.090 HD
ENDBRANCH   5  18
BRANCH   3  22
ATOM     22  C   LIG d   1      -5.373  91.074 117.265  0.00  0.00     0.382 C 
ATOM     23  O   LIG d   1      -6.363  91.818 117.463  0.00  0.00    -0.241 OA
ATOM     24  O   LIG d   1      -5.484  90.095 116.503  0.00  0.00    -0.241 OA
ENDBRANCH   3  22
TORSDOF 7
ENDMDL
MODEL 5
REMARK VINA RESULT:      -4.1      3.324      4.978
REMARK  7 active torsions:
REMARK  status: ('A' for Active; 'I' for Inactive)
REMARK    1  A    between atoms: C_2  and  C_3 
REMARK    2  A    between atoms: C_3  and  O_6 
REMARK    3  A    between atoms: C_3  and  C_4 
REMARK    4  A    between atoms: C_7  and  O_6 
REMARK    5  A    between atoms: C_9  and  C_10 
REMARK    6  A    between atoms: N_15  and  C_14 
REMARK    7  A    between atoms: N_20  and  C_19 
REMARK       I    between atoms: C_22  and  N_20 
ROOT
ATOM      1  C   LIG d   1      -0.780  91.904 118.666  0.00  0.00     0.161 C 
ATOM      2  C   LIG d   1      -2.185  91.930 118.655  0.00  0.00     0.016 C 
ATOM      3  C   LIG d   1      -2.976  90.951 118.012  0.00  0.00     0.038 C 
ATOM      4  C   LIG d   1      -2.415  89.789 117.462  0.00  0.00     0.028 C 
ATOM      5  C   LIG d   1      -0.971  89.970 117.007  0.00  0.00    -0.047 C 
ATOM      6  C   LIG d   1      -0.154  90.586 118.166  0.00  0.00     0.091 C 
ENDROOT
BRANCH   1   7
ATOM      7  O   LIG d   1      -0.296  92.220 119.987  0.00  0.00    -0.368 OA
BRANCH   7   8
ATOM      8  C   LIG d   1      -0.333  91.141 120.954  0.00  0.00     0.119 C 
BRANCH   8   9
ATOM      9  C   LIG d   1      -1.260  91.582 122.103  0.00  0.00     0.028 C 
ATOM     10  C   LIG d   1      -2.599  90.825 122.100  0.00  0.00     0.006 C 
ENDBRANCH   8   9
BRANCH   8  11
ATOM     11  C   LIG d   1       1.039  90.925 121.600  0.00  0.00     0.028 C 
ATOM     12  C   LIG d   1       2.059  92.005 121.208  0.00  0.00     0.006 C 
ENDBRANCH   8  11
ENDBRANCH   7   8
ENDBRANCH   1   7
BRANCH   6  13
ATOM     13  N   LIG d   1       1.252  90.874 117.779  0.00  0.00    -0.311 N 
ATOM     14  C   LIG d   1       2.265  90.046 118.025  0.00  0.00     0.210 C 
ATOM     15  C   LIG d   1       3.636  90.545 117.559  0.00  0.00     0.109 C 
ATOM     16  O   LIG d   1       2.154  88.930 118.556  0.00  0.00    -0.276 OA
ATOM     17  H   LIG d   1       1.428  91.744 117.315  0.00  0.00     0.149 HD
ENDBRANCH   6  13
BRANCH   5  18
ATOM     18  N   LIG d   1      -0.468  88.650 116.583  0.00  0.00     0.381 N 
ATOM     19  H   LIG d   1      -0.883  87.933 117.144  0.00  0.00    -0.090 HD
ATOM     20  H   LIG d   1       0.527  88.621 116.721  0.00  0.00    -0.090 HD
ATOM     21  H   LIG d   1      -0.682  88.496 115.622  0.00  0.00    -0.090 HD
ENDBRANCH   5  18
BRANCH   3  22
ATOM     22  C   LIG d   1      -4.342  91.149 117.881  0.00  0.00     0.382 C 
ATOM     23  O   LIG d   1      -4.997  90.469 117.055  0.00  0.00    -0.241 OA
ATOM     24  O   LIG d   1      -4.920  92.029 118.546  0.00  0.00    -0.241 OA
ENDBRANCH   3  22
TORSDOF 7
ENDMDL
MODEL 6
REMARK VINA RESULT:      -4.1      3.577      5.428
REMARK  7 active torsions:
REMARK  status: ('A' for Active; 'I' for Inactive)
REMARK    1  A    between atoms: C_2  and  C_3 
REMARK    2  A    between atoms: C_3  and  O_6 
REMARK    3  A    between atoms: C_3  and  C_4 
REMARK    4  A    between atoms: C_7  and  O_6 
REMARK    5  A    between atoms: C_9  and  C_10 
REMARK    6  A    between atoms: N_15  and  C_14 
REMARK    7  A    between atoms: N_20  and  C_19 
REMARK       I    between atoms: C_22  and  N_20 
ROOT
ATOM      1  C   LIG d   1      -0.536  92.184 118.534  0.00  0.00     0.161 C 
ATOM      2  C   LIG d   1      -1.940  92.159 118.579  0.00  0.00     0.016 C 
ATOM      3  C   LIG d   1      -2.715  91.082 118.090  0.00  0.00     0.038 C 
ATOM      4  C   LIG d   1      -2.128  89.883 117.657  0.00  0.00     0.028 C 
ATOM      5  C   LIG d   1      -0.710  90.060 117.125  0.00  0.00    -0.047 C 
ATOM      6  C   LIG d   1       0.124  90.838 118.167  0.00  0.00     0.091 C 
ENDROOT
BRANCH   1   7
ATOM      7  O   LIG d   1      -0.016  92.673 119.786  0.00  0.00    -0.368 OA
BRANCH   7   8
ATOM      8  C   LIG d   1       0.805  93.864 119.714  0.00  0.00     0.119 C 
BRANCH   8   9
ATOM      9  C   LIG d   1       2.219  93.482 120.193  0.00  0.00     0.028 C 
ATOM     10  C   LIG d   1       2.209  92.276 121.147  0.00  0.00     0.006 C 
ENDBRANCH   8   9
BRANCH   8  11
ATOM     11  C   LIG d   1       0.321  94.935 120.695  0.00  0.00     0.028 C 
ATOM     12  C   LIG d   1      -1.209  94.955 120.848  0.00  0.00     0.006 C 
ENDBRANCH   8  11
ENDBRANCH   7   8
ENDBRANCH   1   7
BRANCH   6  13
ATOM     13  N   LIG d   1       1.501  91.128 117.689  0.00  0.00    -0.311 N 
ATOM     14  C   LIG d   1       2.555  90.369 117.985  0.00  0.00     0.210 C 
ATOM     15  C   LIG d   1       3.886  90.858 117.407  0.00  0.00     0.109 C 
ATOM     16  O   LIG d   1       2.507  89.319 118.644  0.00  0.00    -0.276 OA
ATOM     17  H   LIG d   1       1.625  91.944 117.122  0.00  0.00     0.149 HD
ENDBRANCH   6  13
BRANCH   5  18
ATOM     18  N   LIG d   1      -0.171  88.717 116.838  0.00  0.00     0.381 N 
ATOM     19  H   LIG d   1      -0.905  88.039 116.892  0.00  0.00    -0.090 HD
ATOM     20  H   LIG d   1       0.520  88.490 117.532  0.00  0.00    -0.090 HD
ATOM     21  H   LIG d   1       0.240  88.701 115.931  0.00  0.00    -0.090 HD
ENDBRANCH   5  18
BRANCH   3  22
ATOM     22  C   LIG d   1      -4.091  91.214 117.994  0.00  0.00     0.382 C 
ATOM     23  O   LIG d   1      -4.686  92.089 118.668  0.00  0.00    -0.241 OA
ATOM     24  O   LIG d   1      -4.752  90.440 117.275  0.00  0.00    -0.241 OA
ENDBRANCH   3  22
TORSDOF 7
ENDMDL
MODEL 7
REMARK VINA RESULT:      -4.1      2.767      4.683
REMARK  7 active torsions:
REMARK  status: ('A' for Active; 'I' for Inactive)
REMARK    1  A    between atoms: C_2  and  C_3 
REMARK    2  A    between atoms: C_3  and  O_6 
REMARK    3  A    between atoms: C_3  and  C_4 
REMARK    4  A    between atoms: C_7  and  O_6 
REMARK    5  A    between atoms: C_9  and  C_10 
REMARK    6  A    between atoms: N_15  and  C_14 
REMARK    7  A    between atoms: N_20  and  C_19 
REMARK       I    between atoms: C_22  and  N_20 
ROOT
ATOM      1  C   LIG d   1      -4.993  93.683 120.110  0.00  0.00     0.161 C 
ATOM      2  C   LIG d   1      -6.239  93.527 119.482  0.00  0.00     0.016 C 
ATOM      3  C   LIG d   1      -7.181  94.573 119.351  0.00  0.00     0.038 C 
ATOM      4  C   LIG d   1      -6.876  95.895 119.710  0.00  0.00     0.028 C 
ATOM      5  C   LIG d   1      -5.823  95.996 120.808  0.00  0.00    -0.047 C 
ATOM      6  C   LIG d   1      -4.597  95.144 120.408  0.00  0.00     0.091 C 
ENDROOT
BRANCH   1   7
ATOM      7  O   LIG d   1      -3.968  93.035 119.331  0.00  0.00    -0.368 OA
BRANCH   7   8
ATOM      8  C   LIG d   1      -3.679  91.658 119.676  0.00  0.00     0.119 C 
BRANCH   8   9
ATOM      9  C   LIG d   1      -2.379  91.652 120.505  0.00  0.00     0.028 C 
ATOM     10  C   LIG d   1      -2.648  91.556 122.016  0.00  0.00     0.006 C 
ENDBRANCH   8   9
BRANCH   8  11
ATOM     11  C   LIG d   1      -3.368  90.824 118.430  0.00  0.00     0.028 C 
ATOM     12  C   LIG d   1      -1.890  90.412 118.341  0.00  0.00     0.006 C 
ENDBRANCH   8  11
ENDBRANCH   7   8
ENDBRANCH   1   7
BRANCH   6  13
ATOM     13  N   LIG d   1      -3.554  95.121 121.466  0.00  0.00    -0.311 N 
ATOM     14  C   LIG d   1      -2.279  95.440 121.247  0.00  0.00     0.210 C 
ATOM     15  C   LIG d   1      -1.365  95.330 122.471  0.00  0.00     0.109 C 
ATOM     16  O   LIG d   1      -1.826  95.834 120.162  0.00  0.00    -0.276 OA
ATOM     17  H   LIG d   1      -3.841  94.842 122.384  0.00  0.00     0.149 HD
ENDBRANCH   6  13
BRANCH   5  18
ATOM     18  N   LIG d   1      -5.501  97.425 120.986  0.00  0.00     0.381 N 
ATOM     19  H   LIG d   1      -6.004  97.790 121.770  0.00  0.00    -0.090 HD
ATOM     20  H   LIG d   1      -5.789  97.928 120.164  0.00  0.00    -0.090 HD
ATOM     21  H   LIG d   1      -4.522  97.539 121.127  0.00  0.00    -0.090 HD
ENDBRANCH   5  18
BRANCH   3  22
ATOM     22  C   LIG d   1      -8.460  94.293 118.893  0.00  0.00     0.382 C 
ATOM     23  O   LIG d   1      -9.436  94.360 119.679  0.00  0.00    -0.241 OA
ATOM     24  O   LIG d   1      -8.645  93.932 117.716  0.00  0.00    -0.241 OA
ENDBRANCH   3  22
TORSDOF 7
ENDMDL
MODEL 8
REMARK VINA RESULT:      -4.1      2.884      5.307
REMARK  7 active torsions:
REMARK  status: ('A' for Active; 'I' for Inactive)
REMARK    1  A    between atoms: C_2  and  C_3 
REMARK    2  A    between atoms: C_3  and  O_6 
REMARK    3  A    between atoms: C_3  and  C_4 
REMARK    4  A    between atoms: C_7  and  O_6 
REMARK    5  A    between atoms: C_9  and  C_10 
REMARK    6  A    between atoms: N_15  and  C_14 
REMARK    7  A    between atoms: N_20  and  C_19 
REMARK       I    between atoms: C_22  and  N_20 
ROOT
ATOM      1  C   LIG d   1      -2.891  93.506 120.072  0.00  0.00     0.161 C 
ATOM      2  C   LIG d   1      -2.344  92.403 119.395  0.00  0.00     0.016 C 
ATOM      3  C   LIG d   1      -3.107  91.532 118.583  0.00  0.00     0.038 C 
ATOM      4  C   LIG d   1      -4.449  91.795 118.270  0.00  0.00     0.028 C 
ATOM      5  C   LIG d   1      -5.170  92.615 119.334  0.00  0.00    -0.047 C 
ATOM      6  C   LIG d   1      -4.330  93.873 119.653  0.00  0.00     0.091 C 
ENDROOT
BRANCH   1   7
ATOM      7  O   LIG d   1      -2.022  94.647 119.930  0.00  0.00    -0.368 OA
BRANCH   7   8
ATOM      8  C   LIG d   1      -1.205  94.972 121.081  0.00  0.00     0.119 C 
BRANCH   8   9
ATOM      9  C   LIG d   1      -1.711  96.315 121.643  0.00  0.00     0.028 C 
ATOM     10  C   LIG d   1      -2.282  97.232 120.549  0.00  0.00     0.006 C 
ENDBRANCH   8   9
BRANCH   8  11
ATOM     11  C   LIG d   1       0.251  95.225 120.677  0.00  0.00     0.028 C 
ATOM     12  C   LIG d   1       1.218  95.176 121.871  0.00  0.00     0.006 C 
ENDBRANCH   8  11
ENDBRANCH   7   8
ENDBRANCH   1   7
BRANCH   6  13
ATOM     13  N   LIG d   1      -4.923  94.688 120.745  0.00  0.00    -0.311 N 
ATOM     14  C   LIG d   1      -5.725  95.730 120.531  0.00  0.00     0.210 C 
ATOM     15  C   LIG d   1      -6.210  96.444 121.796  0.00  0.00     0.109 C 
ATOM     16  O   LIG d   1      -6.106  96.110 119.414  0.00  0.00    -0.276 OA
ATOM     17  H   LIG d   1      -4.691  94.430 121.684  0.00  0.00     0.149 HD
ENDBRANCH   6  13
BRANCH   5  18
ATOM     18  N   LIG d   1      -6.514  92.933 118.817  0.00  0.00     0.381 N 
ATOM     19  H   LIG d   1      -7.210  92.568 119.436  0.00  0.00    -0.090 HD
ATOM     20  H   LIG d   1      -6.629  92.495 117.920  0.00  0.00    -0.090 HD
ATOM     21  H   LIG d   1      -6.622  93.919 118.730  0.00  0.00    -0.090 HD
ENDBRANCH   5  18
BRANCH   3  22
ATOM     22  C   LIG d   1      -2.537  90.361 118.108  0.00  0.00     0.382 C 
ATOM     23  O   LIG d   1      -1.290  90.221 118.120  0.00  0.00    -0.241 OA
ATOM     24  O   LIG d   1      -3.251  89.461 117.626  0.00  0.00    -0.241 OA
ENDBRANCH   3  22
TORSDOF 7
ENDMDL
MODEL 9
REMARK VINA RESULT:      -4.0      1.933      2.771
REMARK  7 active torsions:
REMARK  status: ('A' for Active; 'I' for Inactive)
REMARK    1  A    between atoms: C_2  and  C_3 
REMARK    2  A    between atoms: C_3  and  O_6 
REMARK    3  A    between atoms: C_3  and  C_4 
REMARK    4  A    between atoms: C_7  and  O_6 
REMARK    5  A    between atoms: C_9  and  C_10 
REMARK    6  A    between atoms: N_15  and  C_14 
REMARK    7  A    between atoms: N_20  and  C_19 
REMARK       I    between atoms: C_22  and  N_20 
ROOT
ATOM      1  C   LIG d   1      -5.310  93.431 120.080  0.00  0.00     0.161 C 
ATOM      2  C   LIG d   1      -6.020  92.747 119.080  0.00  0.00     0.016 C 
ATOM      3  C   LIG d   1      -5.405  91.901 118.128  0.00  0.00     0.038 C 
ATOM      4  C   LIG d   1      -4.046  91.561 118.207  0.00  0.00     0.028 C 
ATOM      5  C   LIG d   1      -3.195  92.624 118.895  0.00  0.00    -0.047 C 
ATOM      6  C   LIG d   1      -3.842  92.985 120.251  0.00  0.00     0.091 C 
ENDROOT
BRANCH   1   7
ATOM      7  O   LIG d   1      -6.013  93.330 121.334  0.00  0.00    -0.368 OA
BRANCH   7   8
ATOM      8  C   LIG d   1      -6.585  94.560 121.845  0.00  0.00     0.119 C 
BRANCH   8   9
ATOM      9  C   LIG d   1      -8.086  94.307 122.085  0.00  0.00     0.028 C 
ATOM     10  C   LIG d   1      -8.379  92.853 122.488  0.00  0.00     0.006 C 
ENDBRANCH   8   9
BRANCH   8  11
ATOM     11  C   LIG d   1      -6.524  95.678 120.800  0.00  0.00     0.028 C 
ATOM     12  C   LIG d   1      -5.972  96.995 121.369  0.00  0.00     0.006 C 
ENDBRANCH   8  11
ENDBRANCH   7   8
ENDBRANCH   1   7
BRANCH   6  13
ATOM     13  N   LIG d   1      -3.119  94.078 120.951  0.00  0.00    -0.311 N 
ATOM     14  C   LIG d   1      -2.899  95.275 120.411  0.00  0.00     0.210 C 
ATOM     15  C   LIG d   1      -2.116  96.250 121.296  0.00  0.00     0.109 C 
ATOM     16  O   LIG d   1      -3.306  95.633 119.296  0.00  0.00    -0.276 OA
ATOM     17  H   LIG d   1      -2.781  93.884 121.874  0.00  0.00     0.149 HD
ENDBRANCH   6  13
BRANCH   5  18
ATOM     18  N   LIG d   1      -1.830  92.081 119.032  0.00  0.00     0.381 N 
ATOM     19  H   LIG d   1      -1.629  91.909 119.997  0.00  0.00    -0.090 HD
ATOM     20  H   LIG d   1      -1.174  92.761 118.690  0.00  0.00    -0.090 HD
ATOM     21  H   LIG d   1      -1.745  91.236 118.511  0.00  0.00    -0.090 HD
ENDBRANCH   5  18
BRANCH   3  22
ATOM     22  C   LIG d   1      -6.143  91.418 117.059  0.00  0.00     0.382 C 
ATOM     23  O   LIG d   1      -7.227  91.967 116.747  0.00  0.00    -0.241 OA
ATOM     24  O   LIG d   1      -5.762  90.412 116.431  0.00  0.00    -0.241 OA
ENDBRANCH   3  22
TORSDOF 7
ENDMDL
