MODEL 1
REMARK VINA RESULT:      -5.3      0.000      0.000
REMARK  7 active torsions:
REMARK  status: ('A' for Active; 'I' for Inactive)
REMARK    1  A    between atoms: C_2  and  C_3 
REMARK    2  A    between atoms: C_3  and  O_6 
REMARK    3  A    between atoms: C_3  and  C_4 
REMARK    4  A    between atoms: C_7  and  O_6 
REMARK    5  A    between atoms: C_9  and  C_10 
REMARK    6  A    between atoms: N_15  and  C_14 
REMARK    7  A    between atoms: N_20  and  C_19 
REMARK       I    between atoms: C_22  and  N_20 
ROOT
ATOM      1  C   LIG d   1      -5.020  89.963 118.661  0.00  0.00     0.161 C 
ATOM      2  C   LIG d   1      -3.765  90.595 118.648  0.00  0.00     0.016 C 
ATOM      3  C   LIG d   1      -3.579  91.947 118.278  0.00  0.00     0.038 C 
ATOM      4  C   LIG d   1      -4.662  92.806 118.039  0.00  0.00     0.028 C 
ATOM      5  C   LIG d   1      -5.912  92.084 117.550  0.00  0.00    -0.047 C 
ATOM      6  C   LIG d   1      -6.225  90.914 118.511  0.00  0.00     0.091 C 
ENDROOT
BRANCH   1   7
ATOM      7  O   LIG d   1      -5.154  89.169 119.856  0.00  0.00    -0.368 OA
BRANCH   7   8
ATOM      8  C   LIG d   1      -4.004  89.143 120.737  0.00  0.00     0.119 C 
BRANCH   8   9
ATOM      9  C   LIG d   1      -3.541  87.678 120.853  0.00  0.00     0.028 C 
ATOM     10  C   LIG d   1      -2.592  87.271 119.714  0.00  0.00     0.006 C 
ENDBRANCH   8   9
BRANCH   8  11
ATOM     11  C   LIG d   1      -4.383  89.562 122.161  0.00  0.00     0.028 C 
ATOM     12  C   LIG d   1      -5.766  90.228 122.238  0.00  0.00     0.006 C 
ENDBRANCH   8  11
ENDBRANCH   7   8
ENDBRANCH   1   7
BRANCH   6  13
ATOM     13  N   LIG d   1      -7.385  90.103 118.059  0.00  0.00    -0.311 N 
ATOM     14  C   LIG d   1      -7.320  89.223 117.061  0.00  0.00     0.210 C 
ATOM     15  C   LIG d   1      -8.636  88.508 116.742  0.00  0.00     0.109 C 
ATOM     16  O   LIG d   1      -6.289  88.945 116.430  0.00  0.00    -0.276 OA
ATOM     17  H   LIG d   1      -8.254  90.243 118.536  0.00  0.00     0.149 HD
ENDBRANCH   6  13
BRANCH   5  18
ATOM     18  N   LIG d   1      -7.000  93.077 117.474  0.00  0.00     0.381 N 
ATOM     19  H   LIG d   1      -6.839  93.807 118.139  0.00  0.00    -0.090 HD
ATOM     20  H   LIG d   1      -7.868  92.626 117.704  0.00  0.00    -0.090 HD
ATOM     21  H   LIG d   1      -7.050  93.459 116.555  0.00  0.00    -0.090 HD
ENDBRANCH   5  18
BRANCH   3  22
ATOM     22  C   LIG d   1      -2.295  92.441 118.104  0.00  0.00     0.382 C 
ATOM     23  O   LIG d   1      -2.111  93.676 117.979  0.00  0.00    -0.241 OA
ATOM     24  O   LIG d   1      -1.324  91.665 118.027  0.00  0.00    -0.241 OA
ENDBRANCH   3  22
TORSDOF 7
ENDMDL
MODEL 2
REMARK VINA RESULT:      -5.1      2.835      4.382
REMARK  7 active torsions:
REMARK  status: ('A' for Active; 'I' for Inactive)
REMARK    1  A    between atoms: C_2  and  C_3 
REMARK    2  A    between atoms: C_3  and  O_6 
REMARK    3  A    between atoms: C_3  and  C_4 
REMARK    4  A    between atoms: C_7  and  O_6 
REMARK    5  A    between atoms: C_9  and  C_10 
REMARK    6  A    between atoms: N_15  and  C_14 
REMARK    7  A    between atoms: N_20  and  C_19 
REMARK       I    between atoms: C_22  and  N_20 
ROOT
ATOM      1  C   LIG d   1      -1.532  91.470 117.942  0.00  0.00     0.161 C 
ATOM      2  C   LIG d   1      -0.148  91.556 118.164  0.00  0.00     0.016 C 
ATOM      3  C   LIG d   1       0.530  92.776 118.389  0.00  0.00     0.038 C 
ATOM      4  C   LIG d   1      -0.158  93.986 118.559  0.00  0.00     0.028 C 
ATOM      5  C   LIG d   1      -1.504  94.023 117.842  0.00  0.00    -0.047 C 
ATOM      6  C   LIG d   1      -2.315  92.767 118.233  0.00  0.00     0.091 C 
ENDROOT
BRANCH   1   7
ATOM      7  O   LIG d   1      -2.081  90.373 118.698  0.00  0.00    -0.368 OA
BRANCH   7   8
ATOM      8  C   LIG d   1      -2.496  89.215 117.931  0.00  0.00     0.119 C 
BRANCH   8   9
ATOM      9  C   LIG d   1      -4.017  89.056 118.120  0.00  0.00     0.028 C 
ATOM     10  C   LIG d   1      -4.779  89.077 116.784  0.00  0.00     0.006 C 
ENDBRANCH   8   9
BRANCH   8  11
ATOM     11  C   LIG d   1      -1.881  87.928 118.489  0.00  0.00     0.028 C 
ATOM     12  C   LIG d   1      -2.682  87.347 119.666  0.00  0.00     0.006 C 
ENDBRANCH   8  11
ENDBRANCH   7   8
ENDBRANCH   1   7
BRANCH   6  13
ATOM     13  N   LIG d   1      -3.611  92.682 117.511  0.00  0.00    -0.311 N 
ATOM     14  C   LIG d   1      -4.793  92.655 118.125  0.00  0.00     0.210 C 
ATOM     15  C   LIG d   1      -6.004  92.545 117.194  0.00  0.00     0.109 C 
ATOM     16  O   LIG d   1      -4.954  92.745 119.352  0.00  0.00    -0.276 OA
ATOM     17  H   LIG d   1      -3.574  92.637 116.511  0.00  0.00     0.149 HD
ENDBRANCH   6  13
BRANCH   5  18
ATOM     18  N   LIG d   1      -2.173  95.284 118.215  0.00  0.00     0.381 N 
ATOM     19  H   LIG d   1      -1.488  95.985 118.414  0.00  0.00    -0.090 HD
ATOM     20  H   LIG d   1      -2.717  95.129 119.045  0.00  0.00    -0.090 HD
ATOM     21  H   LIG d   1      -2.764  95.588 117.473  0.00  0.00    -0.090 HD
ENDBRANCH   5  18
BRANCH   3  22
ATOM     22  C   LIG d   1       1.917  92.799 118.408  0.00  0.00     0.382 C 
ATOM     23  O   LIG d   1       2.562  92.523 117.367  0.00  0.00    -0.241 OA
ATOM     24  O   LIG d   1       2.531  93.048 119.462  0.00  0.00    -0.241 OA
ENDBRANCH   3  22
TORSDOF 7
ENDMDL
MODEL 3
REMARK VINA RESULT:      -5.1      3.182      5.391
REMARK  7 active torsions:
REMARK  status: ('A' for Active; 'I' for Inactive)
REMARK    1  A    between atoms: C_2  and  C_3 
REMARK    2  A    between atoms: C_3  and  O_6 
REMARK    3  A    between atoms: C_3  and  C_4 
REMARK    4  A    between atoms: C_7  and  O_6 
REMARK    5  A    between atoms: C_9  and  C_10 
REMARK    6  A    between atoms: N_15  and  C_14 
REMARK    7  A    between atoms: N_20  and  C_19 
REMARK       I    between atoms: C_22  and  N_20 
ROOT
ATOM      1  C   LIG d   1      -5.673  92.232 119.491  0.00  0.00     0.161 C 
ATOM      2  C   LIG d   1      -6.916  92.883 119.408  0.00  0.00     0.016 C 
ATOM      3  C   LIG d   1      -7.053  94.274 119.195  0.00  0.00     0.038 C 
ATOM      4  C   LIG d   1      -5.952  95.091 118.898  0.00  0.00     0.028 C 
ATOM      5  C   LIG d   1      -4.638  94.568 119.470  0.00  0.00    -0.047 C 
ATOM      6  C   LIG d   1      -4.465  93.089 119.058  0.00  0.00     0.091 C 
ENDROOT
BRANCH   1   7
ATOM      7  O   LIG d   1      -5.713  91.005 118.736  0.00  0.00    -0.368 OA
BRANCH   7   8
ATOM      8  C   LIG d   1      -5.394  91.112 117.327  0.00  0.00     0.119 C 
BRANCH   8   9
ATOM      9  C   LIG d   1      -6.661  90.737 116.535  0.00  0.00     0.028 C 
ATOM     10  C   LIG d   1      -7.315  89.445 117.052  0.00  0.00     0.006 C 
ENDBRANCH   8   9
BRANCH   8  11
ATOM     11  C   LIG d   1      -4.338  90.082 116.915  0.00  0.00     0.028 C 
ATOM     12  C   LIG d   1      -3.828  89.246 118.099  0.00  0.00     0.006 C 
ENDBRANCH   8  11
ENDBRANCH   7   8
ENDBRANCH   1   7
BRANCH   6  13
ATOM     13  N   LIG d   1      -3.246  92.476 119.647  0.00  0.00    -0.311 N 
ATOM     14  C   LIG d   1      -2.080  92.403 119.007  0.00  0.00     0.210 C 
ATOM     15  C   LIG d   1      -0.956  91.713 119.788  0.00  0.00     0.109 C 
ATOM     16  O   LIG d   1      -1.860  92.872 117.881  0.00  0.00    -0.276 OA
ATOM     17  H   LIG d   1      -3.326  92.097 120.571  0.00  0.00     0.149 HD
ENDBRANCH   6  13
BRANCH   5  18
ATOM     18  N   LIG d   1      -3.557  95.438 118.970  0.00  0.00     0.381 N 
ATOM     19  H   LIG d   1      -3.408  96.195 119.608  0.00  0.00    -0.090 HD
ATOM     20  H   LIG d   1      -3.833  95.823 118.084  0.00  0.00    -0.090 HD
ATOM     21  H   LIG d   1      -2.717  94.913 118.865  0.00  0.00    -0.090 HD
ENDBRANCH   5  18
BRANCH   3  22
ATOM     22  C   LIG d   1      -8.300  94.868 119.318  0.00  0.00     0.382 C 
ATOM     23  O   LIG d   1      -9.219  94.567 118.519  0.00  0.00    -0.241 OA
ATOM     24  O   LIG d   1      -8.503  95.734 120.190  0.00  0.00    -0.241 OA
ENDBRANCH   3  22
TORSDOF 7
ENDMDL
MODEL 4
REMARK VINA RESULT:      -5.0      2.635      5.508
REMARK  7 active torsions:
REMARK  status: ('A' for Active; 'I' for Inactive)
REMARK    1  A    between atoms: C_2  and  C_3 
REMARK    2  A    between atoms: C_3  and  O_6 
REMARK    3  A    between atoms: C_3  and  C_4 
REMARK    4  A    between atoms: C_7  and  O_6 
REMARK    5  A    between atoms: C_9  and  C_10 
REMARK    6  A    between atoms: N_15  and  C_14 
REMARK    7  A    between atoms: N_20  and  C_19 
REMARK       I    between atoms: C_22  and  N_20 
ROOT
ATOM      1  C   LIG d   1      -5.926  92.995 118.721  0.00  0.00     0.161 C 
ATOM      2  C   LIG d   1      -6.535  91.808 118.280  0.00  0.00     0.016 C 
ATOM      3  C   LIG d   1      -5.815  90.724 117.726  0.00  0.00     0.038 C 
ATOM      4  C   LIG d   1      -4.413  90.693 117.715  0.00  0.00     0.028 C 
ATOM      5  C   LIG d   1      -3.777  92.078 117.686  0.00  0.00    -0.047 C 
ATOM      6  C   LIG d   1      -4.387  92.935 118.819  0.00  0.00     0.091 C 
ENDROOT
BRANCH   1   7
ATOM      7  O   LIG d   1      -6.494  93.395 119.984  0.00  0.00    -0.368 OA
BRANCH   7   8
ATOM      8  C   LIG d   1      -7.235  92.377 120.700  0.00  0.00     0.119 C 
BRANCH   8   9
ATOM      9  C   LIG d   1      -8.502  93.044 121.270  0.00  0.00     0.028 C 
ATOM     10  C   LIG d   1      -9.137  92.223 122.406  0.00  0.00     0.006 C 
ENDBRANCH   8   9
BRANCH   8  11
ATOM     11  C   LIG d   1      -6.457  91.875 121.920  0.00  0.00     0.028 C 
ATOM     12  C   LIG d   1      -5.895  90.458 121.726  0.00  0.00     0.006 C 
ENDBRANCH   8  11
ENDBRANCH   7   8
ENDBRANCH   1   7
BRANCH   6  13
ATOM     13  N   LIG d   1      -3.881  94.332 118.809  0.00  0.00    -0.311 N 
ATOM     14  C   LIG d   1      -2.839  94.739 119.531  0.00  0.00     0.210 C 
ATOM     15  C   LIG d   1      -2.495  96.225 119.390  0.00  0.00     0.109 C 
ATOM     16  O   LIG d   1      -2.146  94.004 120.251  0.00  0.00    -0.276 OA
ATOM     17  H   LIG d   1      -4.365  94.989 118.229  0.00  0.00     0.149 HD
ENDBRANCH   6  13
BRANCH   5  18
ATOM     18  N   LIG d   1      -2.318  91.902 117.817  0.00  0.00     0.381 N 
ATOM     19  H   LIG d   1      -1.843  92.566 117.239  0.00  0.00    -0.090 HD
ATOM     20  H   LIG d   1      -2.073  90.979 117.503  0.00  0.00    -0.090 HD
ATOM     21  H   LIG d   1      -2.044  92.021 118.767  0.00  0.00    -0.090 HD
ENDBRANCH   5  18
BRANCH   3  22
ATOM     22  C   LIG d   1      -6.502  89.672 117.139  0.00  0.00     0.382 C 
ATOM     23  O   LIG d   1      -5.871  88.765 116.544  0.00  0.00    -0.241 OA
ATOM     24  O   LIG d   1      -7.747  89.641 117.159  0.00  0.00    -0.241 OA
ENDBRANCH   3  22
TORSDOF 7
ENDMDL
MODEL 5
REMARK VINA RESULT:      -5.0      2.604      5.427
REMARK  7 active torsions:
REMARK  status: ('A' for Active; 'I' for Inactive)
REMARK    1  A    between atoms: C_2  and  C_3 
REMARK    2  A    between atoms: C_3  and  O_6 
REMARK    3  A    between atoms: C_3  and  C_4 
REMARK    4  A    between atoms: C_7  and  O_6 
REMARK    5  A    between atoms: C_9  and  C_10 
REMARK    6  A    between atoms: N_15  and  C_14 
REMARK    7  A    between atoms: N_20  and  C_19 
REMARK       I    between atoms: C_22  and  N_20 
ROOT
ATOM      1  C   LIG d   1      -4.132  92.341 119.686  0.00  0.00     0.161 C 
ATOM      2  C   LIG d   1      -4.757  91.308 118.968  0.00  0.00     0.016 C 
ATOM      3  C   LIG d   1      -5.836  91.521 118.079  0.00  0.00     0.038 C 
ATOM      4  C   LIG d   1      -6.266  92.810 117.731  0.00  0.00     0.028 C 
ATOM      5  C   LIG d   1      -5.999  93.851 118.813  0.00  0.00    -0.047 C 
ATOM      6  C   LIG d   1      -4.514  93.766 119.235  0.00  0.00     0.091 C 
ENDROOT
BRANCH   1   7
ATOM      7  O   LIG d   1      -2.701  92.169 119.644  0.00  0.00    -0.368 OA
BRANCH   7   8
ATOM      8  C   LIG d   1      -2.116  92.025 118.326  0.00  0.00     0.119 C 
BRANCH   8   9
ATOM      9  C   LIG d   1      -0.997  90.971 118.429  0.00  0.00     0.028 C 
ATOM     10  C   LIG d   1      -1.283  89.726 117.573  0.00  0.00     0.006 C 
ENDBRANCH   8   9
BRANCH   8  11
ATOM     11  C   LIG d   1      -1.419  93.315 117.883  0.00  0.00     0.028 C 
ATOM     12  C   LIG d   1      -0.651  94.000 119.024  0.00  0.00     0.006 C 
ENDBRANCH   8  11
ENDBRANCH   7   8
ENDBRANCH   1   7
BRANCH   6  13
ATOM     13  N   LIG d   1      -4.188  94.693 120.350  0.00  0.00    -0.311 N 
ATOM     14  C   LIG d   1      -3.668  95.905 120.167  0.00  0.00     0.210 C 
ATOM     15  C   LIG d   1      -3.389  96.690 121.453  0.00  0.00     0.109 C 
ATOM     16  O   LIG d   1      -3.440  96.417 119.061  0.00  0.00    -0.276 OA
ATOM     17  H   LIG d   1      -4.371  94.370 121.280  0.00  0.00     0.149 HD
ENDBRANCH   6  13
BRANCH   5  18
ATOM     18  N   LIG d   1      -6.370  95.169 118.265  0.00  0.00     0.381 N 
ATOM     19  H   LIG d   1      -6.101  95.224 117.303  0.00  0.00    -0.090 HD
ATOM     20  H   LIG d   1      -5.875  95.882 118.771  0.00  0.00    -0.090 HD
ATOM     21  H   LIG d   1      -7.352  95.311 118.352  0.00  0.00    -0.090 HD
ENDBRANCH   5  18
BRANCH   3  22
ATOM     22  C   LIG d   1      -6.522  90.435 117.558  0.00  0.00     0.382 C 
ATOM     23  O   LIG d   1      -6.237  89.273 117.937  0.00  0.00    -0.241 OA
ATOM     24  O   LIG d   1      -7.391  90.598 116.681  0.00  0.00    -0.241 OA
ENDBRANCH   3  22
TORSDOF 7
ENDMDL
MODEL 6
REMARK VINA RESULT:      -4.9      2.454      5.329
REMARK  7 active torsions:
REMARK  status: ('A' for Active; 'I' for Inactive)
REMARK    1  A    between atoms: C_2  and  C_3 
REMARK    2  A    between atoms: C_3  and  O_6 
REMARK    3  A    between atoms: C_3  and  C_4 
REMARK    4  A    between atoms: C_7  and  O_6 
REMARK    5  A    between atoms: C_9  and  C_10 
REMARK    6  A    between atoms: N_15  and  C_14 
REMARK    7  A    between atoms: N_20  and  C_19 
REMARK       I    between atoms: C_22  and  N_20 
ROOT
ATOM      1  C   LIG d   1      -3.403  91.386 118.388  0.00  0.00     0.161 C 
ATOM      2  C   LIG d   1      -4.308  90.538 117.727  0.00  0.00     0.016 C 
ATOM      3  C   LIG d   1      -5.588  90.953 117.292  0.00  0.00     0.038 C 
ATOM      4  C   LIG d   1      -5.993  92.294 117.355  0.00  0.00     0.028 C 
ATOM      5  C   LIG d   1      -5.313  93.081 118.470  0.00  0.00    -0.047 C 
ATOM      6  C   LIG d   1      -3.784  92.881 118.365  0.00  0.00     0.091 C 
ENDROOT
BRANCH   1   7
ATOM      7  O   LIG d   1      -2.078  91.198 117.853  0.00  0.00    -0.368 OA
BRANCH   7   8
ATOM      8  C   LIG d   1      -1.148  90.473 118.694  0.00  0.00     0.119 C 
BRANCH   8   9
ATOM      9  C   LIG d   1       0.124  91.333 118.826  0.00  0.00     0.028 C 
ATOM     10  C   LIG d   1       0.560  91.947 117.485  0.00  0.00     0.006 C 
ENDBRANCH   8   9
BRANCH   8  11
ATOM     11  C   LIG d   1      -0.690  89.173 118.026  0.00  0.00     0.028 C 
ATOM     12  C   LIG d   1      -1.552  87.964 118.423  0.00  0.00     0.006 C 
ENDBRANCH   8  11
ENDBRANCH   7   8
ENDBRANCH   1   7
BRANCH   6  13
ATOM     13  N   LIG d   1      -3.048  93.549 119.470  0.00  0.00    -0.311 N 
ATOM     14  C   LIG d   1      -2.014  94.365 119.274  0.00  0.00     0.210 C 
ATOM     15  C   LIG d   1      -1.386  94.932 120.551  0.00  0.00     0.109 C 
ATOM     16  O   LIG d   1      -1.577  94.699 118.162  0.00  0.00    -0.276 OA
ATOM     17  H   LIG d   1      -3.356  93.359 120.404  0.00  0.00     0.149 HD
ENDBRANCH   6  13
BRANCH   5  18
ATOM     18  N   LIG d   1      -5.723  94.492 118.334  0.00  0.00     0.381 N 
ATOM     19  H   LIG d   1      -6.058  94.834 119.212  0.00  0.00    -0.090 HD
ATOM     20  H   LIG d   1      -6.471  94.550 117.666  0.00  0.00    -0.090 HD
ATOM     21  H   LIG d   1      -4.951  95.042 118.027  0.00  0.00    -0.090 HD
ENDBRANCH   5  18
BRANCH   3  22
ATOM     22  C   LIG d   1      -6.493  90.012 116.824  0.00  0.00     0.382 C 
ATOM     23  O   LIG d   1      -6.141  88.815 116.692  0.00  0.00    -0.241 OA
ATOM     24  O   LIG d   1      -7.643  90.354 116.490  0.00  0.00    -0.241 OA
ENDBRANCH   3  22
TORSDOF 7
ENDMDL
MODEL 7
REMARK VINA RESULT:      -4.9      3.091      5.952
REMARK  7 active torsions:
REMARK  status: ('A' for Active; 'I' for Inactive)
REMARK    1  A    between atoms: C_2  and  C_3 
REMARK    2  A    between atoms: C_3  and  O_6 
REMARK    3  A    between atoms: C_3  and  C_4 
REMARK    4  A    between atoms: C_7  and  O_6 
REMARK    5  A    between atoms: C_9  and  C_10 
REMARK    6  A    between atoms: N_15  and  C_14 
REMARK    7  A    between atoms: N_20  and  C_19 
REMARK       I    between atoms: C_22  and  N_20 
ROOT
ATOM      1  C   LIG d   1      -5.981  93.062 118.584  0.00  0.00     0.161 C 
ATOM      2  C   LIG d   1      -6.573  91.877 118.116  0.00  0.00     0.016 C 
ATOM      3  C   LIG d   1      -5.831  90.786 117.606  0.00  0.00     0.038 C 
ATOM      4  C   LIG d   1      -4.431  90.747 117.670  0.00  0.00     0.028 C 
ATOM      5  C   LIG d   1      -3.785  92.129 117.669  0.00  0.00    -0.047 C 
ATOM      6  C   LIG d   1      -4.450  92.993 118.764  0.00  0.00     0.091 C 
ENDROOT
BRANCH   1   7
ATOM      7  O   LIG d   1      -6.613  93.471 119.813  0.00  0.00    -0.368 OA
BRANCH   7   8
ATOM      8  C   LIG d   1      -7.598  94.527 119.703  0.00  0.00     0.119 C 
BRANCH   8   9
ATOM      9  C   LIG d   1      -6.961  95.815 120.261  0.00  0.00     0.028 C 
ATOM     10  C   LIG d   1      -6.105  95.551 121.511  0.00  0.00     0.006 C 
ENDBRANCH   8   9
BRANCH   8  11
ATOM     11  C   LIG d   1      -8.811  94.254 120.598  0.00  0.00     0.028 C 
ATOM     12  C   LIG d   1      -8.760  92.870 121.263  0.00  0.00     0.006 C 
ENDBRANCH   8  11
ENDBRANCH   7   8
ENDBRANCH   1   7
BRANCH   6  13
ATOM     13  N   LIG d   1      -3.936  94.388 118.776  0.00  0.00    -0.311 N 
ATOM     14  C   LIG d   1      -2.946  94.798 119.566  0.00  0.00     0.210 C 
ATOM     15  C   LIG d   1      -2.584  96.280 119.434  0.00  0.00     0.109 C 
ATOM     16  O   LIG d   1      -2.311  94.067 120.342  0.00  0.00    -0.276 OA
ATOM     17  H   LIG d   1      -4.373  95.040 118.154  0.00  0.00     0.149 HD
ENDBRANCH   6  13
BRANCH   5  18
ATOM     18  N   LIG d   1      -2.337  91.944 117.878  0.00  0.00     0.381 N 
ATOM     19  H   LIG d   1      -1.950  92.762 118.306  0.00  0.00    -0.090 HD
ATOM     20  H   LIG d   1      -1.894  91.816 116.985  0.00  0.00    -0.090 HD
ATOM     21  H   LIG d   1      -2.174  91.149 118.455  0.00  0.00    -0.090 HD
ENDBRANCH   5  18
BRANCH   3  22
ATOM     22  C   LIG d   1      -6.492  89.735 116.987  0.00  0.00     0.382 C 
ATOM     23  O   LIG d   1      -7.742  89.756 116.882  0.00  0.00    -0.241 OA
ATOM     24  O   LIG d   1      -5.858  88.747 116.573  0.00  0.00    -0.241 OA
ENDBRANCH   3  22
TORSDOF 7
ENDMDL
MODEL 8
REMARK VINA RESULT:      -4.9      2.946      5.831
REMARK  7 active torsions:
REMARK  status: ('A' for Active; 'I' for Inactive)
REMARK    1  A    between atoms: C_2  and  C_3 
REMARK    2  A    between atoms: C_3  and  O_6 
REMARK    3  A    between atoms: C_3  and  C_4 
REMARK    4  A    between atoms: C_7  and  O_6 
REMARK    5  A    between atoms: C_9  and  C_10 
REMARK    6  A    between atoms: N_15  and  C_14 
REMARK    7  A    between atoms: N_20  and  C_19 
REMARK       I    between atoms: C_22  and  N_20 
ROOT
ATOM      1  C   LIG d   1      -4.304  92.156 118.176  0.00  0.00     0.161 C 
ATOM      2  C   LIG d   1      -5.552  91.564 117.920  0.00  0.00     0.016 C 
ATOM      3  C   LIG d   1      -5.706  90.221 117.504  0.00  0.00     0.038 C 
ATOM      4  C   LIG d   1      -4.623  89.330 117.461  0.00  0.00     0.028 C 
ATOM      5  C   LIG d   1      -3.282  90.017 117.224  0.00  0.00    -0.047 C 
ATOM      6  C   LIG d   1      -3.121  91.168 118.242  0.00  0.00     0.091 C 
ENDROOT
BRANCH   1   7
ATOM      7  O   LIG d   1      -4.373  92.937 119.386  0.00  0.00    -0.368 OA
BRANCH   7   8
ATOM      8  C   LIG d   1      -4.564  94.363 119.214  0.00  0.00     0.119 C 
BRANCH   8   9
ATOM      9  C   LIG d   1      -3.394  95.076 119.918  0.00  0.00     0.028 C 
ATOM     10  C   LIG d   1      -2.296  95.514 118.935  0.00  0.00     0.006 C 
ENDBRANCH   8   9
BRANCH   8  11
ATOM     11  C   LIG d   1      -5.826  94.847 119.934  0.00  0.00     0.028 C 
ATOM     12  C   LIG d   1      -7.083  94.767 119.053  0.00  0.00     0.006 C 
ENDBRANCH   8  11
ENDBRANCH   7   8
ENDBRANCH   1   7
BRANCH   6  13
ATOM     13  N   LIG d   1      -1.873  91.946 118.025  0.00  0.00    -0.311 N 
ATOM     14  C   LIG d   1      -0.735  91.701 118.672  0.00  0.00     0.210 C 
ATOM     15  C   LIG d   1       0.426  92.634 118.313  0.00  0.00     0.109 C 
ATOM     16  O   LIG d   1      -0.567  90.779 119.484  0.00  0.00    -0.276 OA
ATOM     17  H   LIG d   1      -1.911  92.693 117.360  0.00  0.00     0.149 HD
ENDBRANCH   6  13
BRANCH   5  18
ATOM     18  N   LIG d   1      -2.229  88.990 117.340  0.00  0.00     0.381 N 
ATOM     19  H   LIG d   1      -1.517  89.157 116.657  0.00  0.00    -0.090 HD
ATOM     20  H   LIG d   1      -2.634  88.088 117.161  0.00  0.00    -0.090 HD
ATOM     21  H   LIG d   1      -1.834  89.010 118.254  0.00  0.00    -0.090 HD
ENDBRANCH   5  18
BRANCH   3  22
ATOM     22  C   LIG d   1      -6.948  89.769 117.087  0.00  0.00     0.382 C 
ATOM     23  O   LIG d   1      -7.703  90.526 116.430  0.00  0.00    -0.241 OA
ATOM     24  O   LIG d   1      -7.342  88.629 117.397  0.00  0.00    -0.241 OA
ENDBRANCH   3  22
TORSDOF 7
ENDMDL
MODEL 9
REMARK VINA RESULT:      -4.8      1.518      1.904
REMARK  7 active torsions:
REMARK  status: ('A' for Active; 'I' for Inactive)
REMARK    1  A    between atoms: C_2  and  C_3 
REMARK    2  A    between atoms: C_3  and  O_6 
REMARK    3  A    between atoms: C_3  and  C_4 
REMARK    4  A    between atoms: C_7  and  O_6 
REMARK    5  A    between atoms: C_9  and  C_10 
REMARK    6  A    between atoms: N_15  and  C_14 
REMARK    7  A    between atoms: N_20  and  C_19 
REMARK       I    between atoms: C_22  and  N_20 
ROOT
ATOM      1  C   LIG d   1      -4.328  90.039 118.086  0.00  0.00     0.161 C 
ATOM      2  C   LIG d   1      -3.378  91.067 118.203  0.00  0.00     0.016 C 
ATOM      3  C   LIG d   1      -3.658  92.324 118.786  0.00  0.00     0.038 C 
ATOM      4  C   LIG d   1      -4.875  92.586 119.433  0.00  0.00     0.028 C 
ATOM      5  C   LIG d   1      -6.037  91.757 118.897  0.00  0.00    -0.047 C 
ATOM      6  C   LIG d   1      -5.628  90.267 118.886  0.00  0.00     0.091 C 
ENDROOT
BRANCH   1   7
ATOM      7  O   LIG d   1      -3.731  88.779 118.449  0.00  0.00    -0.368 OA
BRANCH   7   8
ATOM      8  C   LIG d   1      -2.887  88.788 119.626  0.00  0.00     0.119 C 
BRANCH   8   9
ATOM      9  C   LIG d   1      -1.611  87.993 119.287  0.00  0.00     0.028 C 
ATOM     10  C   LIG d   1      -1.223  88.110 117.804  0.00  0.00     0.006 C 
ENDBRANCH   8   9
BRANCH   8  11
ATOM     11  C   LIG d   1      -3.540  88.031 120.786  0.00  0.00     0.028 C 
ATOM     12  C   LIG d   1      -3.135  86.549 120.835  0.00  0.00     0.006 C 
ENDBRANCH   8  11
ENDBRANCH   7   8
ENDBRANCH   1   7
BRANCH   6  13
ATOM     13  N   LIG d   1      -6.677  89.395 118.297  0.00  0.00    -0.311 N 
ATOM     14  C   LIG d   1      -7.374  89.720 117.209  0.00  0.00     0.210 C 
ATOM     15  C   LIG d   1      -8.422  88.688 116.780  0.00  0.00     0.109 C 
ATOM     16  O   LIG d   1      -7.202  90.750 116.540  0.00  0.00    -0.276 OA
ATOM     17  H   LIG d   1      -6.860  88.526 118.758  0.00  0.00     0.149 HD
ENDBRANCH   6  13
BRANCH   5  18
ATOM     18  N   LIG d   1      -7.210  92.029 119.750  0.00  0.00     0.381 N 
ATOM     19  H   LIG d   1      -7.810  91.229 119.765  0.00  0.00    -0.090 HD
ATOM     20  H   LIG d   1      -7.722  92.801 119.361  0.00  0.00    -0.090 HD
ATOM     21  H   LIG d   1      -6.914  92.249 120.675  0.00  0.00    -0.090 HD
ENDBRANCH   5  18
BRANCH   3  22
ATOM     22  C   LIG d   1      -2.729  93.349 118.690  0.00  0.00     0.382 C 
ATOM     23  O   LIG d   1      -2.843  94.368 119.413  0.00  0.00    -0.241 OA
ATOM     24  O   LIG d   1      -1.804  93.287 117.859  0.00  0.00    -0.241 OA
ENDBRANCH   3  22
TORSDOF 7
ENDMDL
