MODEL 1
REMARK VINA RESULT:      -4.6      0.000      0.000
REMARK  7 active torsions:
REMARK  status: ('A' for Active; 'I' for Inactive)
REMARK    1  A    between atoms: C_2  and  C_3 
REMARK    2  A    between atoms: C_3  and  O_6 
REMARK    3  A    between atoms: C_3  and  C_4 
REMARK    4  A    between atoms: C_7  and  O_6 
REMARK    5  A    between atoms: C_9  and  C_10 
REMARK    6  A    between atoms: N_15  and  C_14 
REMARK    7  A    between atoms: N_20  and  C_19 
REMARK       I    between atoms: C_22  and  N_20 
ROOT
ATOM      1  C   LIG d   1      -3.384  92.416 118.292  0.00  0.00     0.161 C 
ATOM      2  C   LIG d   1      -2.590  91.281 118.057  0.00  0.00     0.016 C 
ATOM      3  C   LIG d   1      -3.094  90.077 117.515  0.00  0.00     0.038 C 
ATOM      4  C   LIG d   1      -4.406  89.975 117.027  0.00  0.00     0.028 C 
ATOM      5  C   LIG d   1      -5.380  90.932 117.706  0.00  0.00    -0.047 C 
ATOM      6  C   LIG d   1      -4.792  92.361 117.663  0.00  0.00     0.091 C 
ENDROOT
BRANCH   1   7
ATOM      7  O   LIG d   1      -2.687  93.600 117.856  0.00  0.00    -0.368 OA
BRANCH   7   8
ATOM      8  C   LIG d   1      -2.050  94.383 118.896  0.00  0.00     0.119 C 
BRANCH   8   9
ATOM      9  C   LIG d   1      -2.706  95.778 118.891  0.00  0.00     0.028 C 
ATOM     10  C   LIG d   1      -3.746  95.941 120.012  0.00  0.00     0.006 C 
ENDBRANCH   8   9
BRANCH   8  11
ATOM     11  C   LIG d   1      -0.572  94.629 118.581  0.00  0.00     0.028 C 
ATOM     12  C   LIG d   1      -0.102  96.035 118.989  0.00  0.00     0.006 C 
ENDBRANCH   8  11
ENDBRANCH   7   8
ENDBRANCH   1   7
BRANCH   6  13
ATOM     13  N   LIG d   1      -5.644  93.346 118.380  0.00  0.00    -0.311 N 
ATOM     14  C   LIG d   1      -6.614  94.043 117.790  0.00  0.00     0.210 C 
ATOM     15  C   LIG d   1      -7.357  95.019 118.707  0.00  0.00     0.109 C 
ATOM     16  O   LIG d   1      -6.950  93.922 116.603  0.00  0.00    -0.276 OA
ATOM     17  H   LIG d   1      -5.460  93.484 119.355  0.00  0.00     0.149 HD
ENDBRANCH   6  13
BRANCH   5  18
ATOM     18  N   LIG d   1      -6.675  90.818 117.008  0.00  0.00     0.381 N 
ATOM     19  H   LIG d   1      -6.867  91.665 116.511  0.00  0.00    -0.090 HD
ATOM     20  H   LIG d   1      -7.401  90.682 117.690  0.00  0.00    -0.090 HD
ATOM     21  H   LIG d   1      -6.655  90.049 116.375  0.00  0.00    -0.090 HD
ENDBRANCH   5  18
BRANCH   3  22
ATOM     22  C   LIG d   1      -2.294  88.945 117.494  0.00  0.00     0.382 C 
ATOM     23  O   LIG d   1      -2.820  87.806 117.486  0.00  0.00    -0.241 OA
ATOM     24  O   LIG d   1      -1.053  89.048 117.528  0.00  0.00    -0.241 OA
ENDBRANCH   3  22
TORSDOF 7
ENDMDL
MODEL 2
REMARK VINA RESULT:      -4.4      2.440      4.802
REMARK  7 active torsions:
REMARK  status: ('A' for Active; 'I' for Inactive)
REMARK    1  A    between atoms: C_2  and  C_3 
REMARK    2  A    between atoms: C_3  and  O_6 
REMARK    3  A    between atoms: C_3  and  C_4 
REMARK    4  A    between atoms: C_7  and  O_6 
REMARK    5  A    between atoms: C_9  and  C_10 
REMARK    6  A    between atoms: N_15  and  C_14 
REMARK    7  A    between atoms: N_20  and  C_19 
REMARK       I    between atoms: C_22  and  N_20 
ROOT
ATOM      1  C   LIG d   1      -5.432  93.537 118.407  0.00  0.00     0.161 C 
ATOM      2  C   LIG d   1      -5.930  92.317 117.922  0.00  0.00     0.016 C 
ATOM      3  C   LIG d   1      -5.106  91.286 117.415  0.00  0.00     0.038 C 
ATOM      4  C   LIG d   1      -3.707  91.346 117.500  0.00  0.00     0.028 C 
ATOM      5  C   LIG d   1      -3.162  92.770 117.519  0.00  0.00    -0.047 C 
ATOM      6  C   LIG d   1      -3.902  93.576 118.611  0.00  0.00     0.091 C 
ENDROOT
BRANCH   1   7
ATOM      7  O   LIG d   1      -6.109  93.890 119.630  0.00  0.00    -0.368 OA
BRANCH   7   8
ATOM      8  C   LIG d   1      -7.359  93.205 119.886  0.00  0.00     0.119 C 
BRANCH   8   9
ATOM      9  C   LIG d   1      -8.487  94.253 119.801  0.00  0.00     0.028 C 
ATOM     10  C   LIG d   1      -8.996  94.680 121.188  0.00  0.00     0.006 C 
ENDBRANCH   8   9
BRANCH   8  11
ATOM     11  C   LIG d   1      -7.415  92.664 121.318  0.00  0.00     0.028 C 
ATOM     12  C   LIG d   1      -6.461  91.481 121.545  0.00  0.00     0.006 C 
ENDBRANCH   8  11
ENDBRANCH   7   8
ENDBRANCH   1   7
BRANCH   6  13
ATOM     13  N   LIG d   1      -3.489  95.004 118.640  0.00  0.00    -0.311 N 
ATOM     14  C   LIG d   1      -2.510  95.467 119.415  0.00  0.00     0.210 C 
ATOM     15  C   LIG d   1      -2.258  96.974 119.306  0.00  0.00     0.109 C 
ATOM     16  O   LIG d   1      -1.804  94.768 120.157  0.00  0.00    -0.276 OA
ATOM     17  H   LIG d   1      -3.988  95.635 118.045  0.00  0.00     0.149 HD
ENDBRANCH   6  13
BRANCH   5  18
ATOM     18  N   LIG d   1      -1.707  92.687 117.749  0.00  0.00     0.381 N 
ATOM     19  H   LIG d   1      -1.262  93.513 117.401  0.00  0.00    -0.090 HD
ATOM     20  H   LIG d   1      -1.343  91.897 117.247  0.00  0.00    -0.090 HD
ATOM     21  H   LIG d   1      -1.521  92.586 118.722  0.00  0.00    -0.090 HD
ENDBRANCH   5  18
BRANCH   3  22
ATOM     22  C   LIG d   1      -5.681  90.196 116.779  0.00  0.00     0.382 C 
ATOM     23  O   LIG d   1      -4.985  89.187 116.512  0.00  0.00    -0.241 OA
ATOM     24  O   LIG d   1      -6.876  90.227 116.430  0.00  0.00    -0.241 OA
ENDBRANCH   3  22
TORSDOF 7
ENDMDL
MODEL 3
REMARK VINA RESULT:      -4.3      2.393      5.599
REMARK  7 active torsions:
REMARK  status: ('A' for Active; 'I' for Inactive)
REMARK    1  A    between atoms: C_2  and  C_3 
REMARK    2  A    between atoms: C_3  and  O_6 
REMARK    3  A    between atoms: C_3  and  C_4 
REMARK    4  A    between atoms: C_7  and  O_6 
REMARK    5  A    between atoms: C_9  and  C_10 
REMARK    6  A    between atoms: N_15  and  C_14 
REMARK    7  A    between atoms: N_20  and  C_19 
REMARK       I    between atoms: C_22  and  N_20 
ROOT
ATOM      1  C   LIG d   1      -4.447  92.430 119.975  0.00  0.00     0.161 C 
ATOM      2  C   LIG d   1      -5.848  92.338 119.959  0.00  0.00     0.016 C 
ATOM      3  C   LIG d   1      -6.694  93.403 119.572  0.00  0.00     0.038 C 
ATOM      4  C   LIG d   1      -6.187  94.592 119.027  0.00  0.00     0.028 C 
ATOM      5  C   LIG d   1      -4.773  94.919 119.496  0.00  0.00    -0.047 C 
ATOM      6  C   LIG d   1      -3.873  93.681 119.277  0.00  0.00     0.091 C 
ENDROOT
BRANCH   1   7
ATOM      7  O   LIG d   1      -3.872  91.234 119.411  0.00  0.00    -0.368 OA
BRANCH   7   8
ATOM      8  C   LIG d   1      -3.622  91.259 117.984  0.00  0.00     0.119 C 
BRANCH   8   9
ATOM      9  C   LIG d   1      -4.693  90.380 117.311  0.00  0.00     0.028 C 
ATOM     10  C   LIG d   1      -5.657  91.197 116.434  0.00  0.00     0.006 C 
ENDBRANCH   8   9
BRANCH   8  11
ATOM     11  C   LIG d   1      -2.282  90.600 117.642  0.00  0.00     0.028 C 
ATOM     12  C   LIG d   1      -1.410  90.345 118.881  0.00  0.00     0.006 C 
ENDBRANCH   8  11
ENDBRANCH   7   8
ENDBRANCH   1   7
BRANCH   6  13
ATOM     13  N   LIG d   1      -2.492  93.887 119.788  0.00  0.00    -0.311 N 
ATOM     14  C   LIG d   1      -1.433  94.040 118.995  0.00  0.00     0.210 C 
ATOM     15  C   LIG d   1      -0.099  94.220 119.727  0.00  0.00     0.109 C 
ATOM     16  O   LIG d   1      -1.476  94.077 117.756  0.00  0.00    -0.276 OA
ATOM     17  H   LIG d   1      -2.371  93.902 120.782  0.00  0.00     0.149 HD
ENDBRANCH   6  13
BRANCH   5  18
ATOM     18  N   LIG d   1      -4.317  96.105 118.746  0.00  0.00     0.381 N 
ATOM     19  H   LIG d   1      -4.657  96.062 117.806  0.00  0.00    -0.090 HD
ATOM     20  H   LIG d   1      -3.313  96.106 118.719  0.00  0.00    -0.090 HD
ATOM     21  H   LIG d   1      -4.646  96.935 119.189  0.00  0.00    -0.090 HD
ENDBRANCH   5  18
BRANCH   3  22
ATOM     22  C   LIG d   1      -8.063  93.299 119.767  0.00  0.00     0.382 C 
ATOM     23  O   LIG d   1      -8.850  93.970 119.056  0.00  0.00    -0.241 OA
ATOM     24  O   LIG d   1      -8.519  92.577 120.673  0.00  0.00    -0.241 OA
ENDBRANCH   3  22
TORSDOF 7
ENDMDL
MODEL 4
REMARK VINA RESULT:      -4.2      2.735      4.539
REMARK  7 active torsions:
REMARK  status: ('A' for Active; 'I' for Inactive)
REMARK    1  A    between atoms: C_2  and  C_3 
REMARK    2  A    between atoms: C_3  and  O_6 
REMARK    3  A    between atoms: C_3  and  C_4 
REMARK    4  A    between atoms: C_7  and  O_6 
REMARK    5  A    between atoms: C_9  and  C_10 
REMARK    6  A    between atoms: N_15  and  C_14 
REMARK    7  A    between atoms: N_20  and  C_19 
REMARK       I    between atoms: C_22  and  N_20 
ROOT
ATOM      1  C   LIG d   1      -5.508  93.552 118.513  0.00  0.00     0.161 C 
ATOM      2  C   LIG d   1      -5.959  92.315 118.023  0.00  0.00     0.016 C 
ATOM      3  C   LIG d   1      -5.101  91.343 117.458  0.00  0.00     0.038 C 
ATOM      4  C   LIG d   1      -3.706  91.481 117.483  0.00  0.00     0.028 C 
ATOM      5  C   LIG d   1      -3.241  92.933 117.510  0.00  0.00    -0.047 C 
ATOM      6  C   LIG d   1      -3.976  93.674 118.650  0.00  0.00     0.091 C 
ENDROOT
BRANCH   1   7
ATOM      7  O   LIG d   1      -6.148  93.842 119.772  0.00  0.00    -0.368 OA
BRANCH   7   8
ATOM      8  C   LIG d   1      -6.489  92.697 120.591  0.00  0.00     0.119 C 
BRANCH   8   9
ATOM      9  C   LIG d   1      -7.921  92.916 121.119  0.00  0.00     0.028 C 
ATOM     10  C   LIG d   1      -8.048  92.599 122.619  0.00  0.00     0.006 C 
ENDBRANCH   8   9
BRANCH   8  11
ATOM     11  C   LIG d   1      -5.605  92.621 121.839  0.00  0.00     0.028 C 
ATOM     12  C   LIG d   1      -4.354  91.752 121.631  0.00  0.00     0.006 C 
ENDBRANCH   8  11
ENDBRANCH   7   8
ENDBRANCH   1   7
BRANCH   6  13
ATOM     13  N   LIG d   1      -3.642  95.122 118.693  0.00  0.00    -0.311 N 
ATOM     14  C   LIG d   1      -3.014  95.700 119.715  0.00  0.00     0.210 C 
ATOM     15  C   LIG d   1      -2.785  97.207 119.565  0.00  0.00     0.109 C 
ATOM     16  O   LIG d   1      -2.596  95.101 120.718  0.00  0.00    -0.276 OA
ATOM     17  H   LIG d   1      -3.917  95.677 117.906  0.00  0.00     0.149 HD
ENDBRANCH   6  13
BRANCH   5  18
ATOM     18  N   LIG d   1      -1.775  92.929 117.673  0.00  0.00     0.381 N 
ATOM     19  H   LIG d   1      -1.531  92.477 118.532  0.00  0.00    -0.090 HD
ATOM     20  H   LIG d   1      -1.450  93.879 117.713  0.00  0.00    -0.090 HD
ATOM     21  H   LIG d   1      -1.348  92.456 116.907  0.00  0.00    -0.090 HD
ENDBRANCH   5  18
BRANCH   3  22
ATOM     22  C   LIG d   1      -5.643  90.235 116.824  0.00  0.00     0.382 C 
ATOM     23  O   LIG d   1      -6.840  90.249 116.451  0.00  0.00    -0.241 OA
ATOM     24  O   LIG d   1      -4.961  89.205 116.660  0.00  0.00    -0.241 OA
ENDBRANCH   3  22
TORSDOF 7
ENDMDL
MODEL 5
REMARK VINA RESULT:      -4.0      2.312      4.999
REMARK  7 active torsions:
REMARK  status: ('A' for Active; 'I' for Inactive)
REMARK    1  A    between atoms: C_2  and  C_3 
REMARK    2  A    between atoms: C_3  and  O_6 
REMARK    3  A    between atoms: C_3  and  C_4 
REMARK    4  A    between atoms: C_7  and  O_6 
REMARK    5  A    between atoms: C_9  and  C_10 
REMARK    6  A    between atoms: N_15  and  C_14 
REMARK    7  A    between atoms: N_20  and  C_19 
REMARK       I    between atoms: C_22  and  N_20 
ROOT
ATOM      1  C   LIG d   1      -2.285  92.295 117.773  0.00  0.00     0.161 C 
ATOM      2  C   LIG d   1      -3.601  92.764 117.917  0.00  0.00     0.016 C 
ATOM      3  C   LIG d   1      -4.742  91.970 117.661  0.00  0.00     0.038 C 
ATOM      4  C   LIG d   1      -4.645  90.597 117.387  0.00  0.00     0.028 C 
ATOM      5  C   LIG d   1      -3.323  90.202 116.737  0.00  0.00    -0.047 C 
ATOM      6  C   LIG d   1      -2.159  90.769 117.582  0.00  0.00     0.091 C 
ENDROOT
BRANCH   1   7
ATOM      7  O   LIG d   1      -1.486  92.727 118.893  0.00  0.00    -0.368 OA
BRANCH   7   8
ATOM      8  C   LIG d   1      -0.395  93.629 118.587  0.00  0.00     0.119 C 
BRANCH   8   9
ATOM      9  C   LIG d   1       0.776  93.274 119.523  0.00  0.00     0.028 C 
ATOM     10  C   LIG d   1       0.493  92.019 120.366  0.00  0.00     0.006 C 
ENDBRANCH   8   9
BRANCH   8  11
ATOM     11  C   LIG d   1      -0.759  95.078 118.925  0.00  0.00     0.028 C 
ATOM     12  C   LIG d   1      -1.616  95.197 120.195  0.00  0.00     0.006 C 
ENDBRANCH   8  11
ENDBRANCH   7   8
ENDBRANCH   1   7
BRANCH   6  13
ATOM     13  N   LIG d   1      -0.831  90.499 116.971  0.00  0.00    -0.311 N 
ATOM     14  C   LIG d   1       0.072  89.683 117.511  0.00  0.00     0.210 C 
ATOM     15  C   LIG d   1       1.384  89.562 116.728  0.00  0.00     0.109 C 
ATOM     16  O   LIG d   1      -0.101  89.022 118.546  0.00  0.00    -0.276 OA
ATOM     17  H   LIG d   1      -0.620  90.970 116.113  0.00  0.00     0.149 HD
ENDBRANCH   6  13
BRANCH   5  18
ATOM     18  N   LIG d   1      -3.299  88.731 116.633  0.00  0.00     0.381 N 
ATOM     19  H   LIG d   1      -2.593  88.360 117.237  0.00  0.00    -0.090 HD
ATOM     20  H   LIG d   1      -3.073  88.475 115.688  0.00  0.00    -0.090 HD
ATOM     21  H   LIG d   1      -4.189  88.357 116.882  0.00  0.00    -0.090 HD
ENDBRANCH   5  18
BRANCH   3  22
ATOM     22  C   LIG d   1      -5.998  92.558 117.639  0.00  0.00     0.382 C 
ATOM     23  O   LIG d   1      -6.757  92.453 118.632  0.00  0.00    -0.241 OA
ATOM     24  O   LIG d   1      -6.398  93.154 116.621  0.00  0.00    -0.241 OA
ENDBRANCH   3  22
TORSDOF 7
ENDMDL
MODEL 6
REMARK VINA RESULT:      -3.7      2.731      6.596
REMARK  7 active torsions:
REMARK  status: ('A' for Active; 'I' for Inactive)
REMARK    1  A    between atoms: C_2  and  C_3 
REMARK    2  A    between atoms: C_3  and  O_6 
REMARK    3  A    between atoms: C_3  and  C_4 
REMARK    4  A    between atoms: C_7  and  O_6 
REMARK    5  A    between atoms: C_9  and  C_10 
REMARK    6  A    between atoms: N_15  and  C_14 
REMARK    7  A    between atoms: N_20  and  C_19 
REMARK       I    between atoms: C_22  and  N_20 
ROOT
ATOM      1  C   LIG d   1      -2.477  93.304 118.358  0.00  0.00     0.161 C 
ATOM      2  C   LIG d   1      -2.668  94.667 118.637  0.00  0.00     0.016 C 
ATOM      3  C   LIG d   1      -1.608  95.561 118.913  0.00  0.00     0.038 C 
ATOM      4  C   LIG d   1      -0.265  95.182 118.777  0.00  0.00     0.028 C 
ATOM      5  C   LIG d   1      -0.032  93.690 118.991  0.00  0.00    -0.047 C 
ATOM      6  C   LIG d   1      -1.012  92.896 118.097  0.00  0.00     0.091 C 
ENDROOT
BRANCH   1   7
ATOM      7  O   LIG d   1      -3.312  92.910 117.251  0.00  0.00    -0.368 OA
BRANCH   7   8
ATOM      8  C   LIG d   1      -4.509  92.168 117.587  0.00  0.00     0.119 C 
BRANCH   8   9
ATOM      9  C   LIG d   1      -4.432  90.811 116.861  0.00  0.00     0.028 C 
ATOM     10  C   LIG d   1      -5.820  90.189 116.630  0.00  0.00     0.006 C 
ENDBRANCH   8   9
BRANCH   8  11
ATOM     11  C   LIG d   1      -5.763  92.852 117.035  0.00  0.00     0.028 C 
ATOM     12  C   LIG d   1      -6.354  93.887 118.006  0.00  0.00     0.006 C 
ENDBRANCH   8  11
ENDBRANCH   7   8
ENDBRANCH   1   7
BRANCH   6  13
ATOM     13  N   LIG d   1      -0.909  91.429 118.307  0.00  0.00    -0.311 N 
ATOM     14  C   LIG d   1      -0.125  90.637 117.577  0.00  0.00     0.210 C 
ATOM     15  C   LIG d   1      -0.184  89.151 117.946  0.00  0.00     0.109 C 
ATOM     16  O   LIG d   1       0.636  91.028 116.679  0.00  0.00    -0.276 OA
ATOM     17  H   LIG d   1      -1.470  91.031 119.035  0.00  0.00     0.149 HD
ENDBRANCH   6  13
BRANCH   5  18
ATOM     18  N   LIG d   1       1.384  93.412 118.685  0.00  0.00     0.381 N 
ATOM     19  H   LIG d   1       1.590  93.692 117.747  0.00  0.00    -0.090 HD
ATOM     20  H   LIG d   1       1.545  92.423 118.762  0.00  0.00    -0.090 HD
ATOM     21  H   LIG d   1       1.973  93.901 119.323  0.00  0.00    -0.090 HD
ENDBRANCH   5  18
BRANCH   3  22
ATOM     22  C   LIG d   1      -1.889  96.841 119.367  0.00  0.00     0.382 C 
ATOM     23  O   LIG d   1      -1.122  97.396 120.190  0.00  0.00    -0.241 OA
ATOM     24  O   LIG d   1      -2.923  97.429 118.998  0.00  0.00    -0.241 OA
ENDBRANCH   3  22
TORSDOF 7
ENDMDL
MODEL 7
REMARK VINA RESULT:      -3.7      3.110      5.772
REMARK  7 active torsions:
REMARK  status: ('A' for Active; 'I' for Inactive)
REMARK    1  A    between atoms: C_2  and  C_3 
REMARK    2  A    between atoms: C_3  and  O_6 
REMARK    3  A    between atoms: C_3  and  C_4 
REMARK    4  A    between atoms: C_7  and  O_6 
REMARK    5  A    between atoms: C_9  and  C_10 
REMARK    6  A    between atoms: N_15  and  C_14 
REMARK    7  A    between atoms: N_20  and  C_19 
REMARK       I    between atoms: C_22  and  N_20 
ROOT
ATOM      1  C   LIG d   1      -1.700  91.029 119.775  0.00  0.00     0.161 C 
ATOM      2  C   LIG d   1      -1.387  92.389 119.934  0.00  0.00     0.016 C 
ATOM      3  C   LIG d   1      -0.604  93.121 119.012  0.00  0.00     0.038 C 
ATOM      4  C   LIG d   1      -0.205  92.577 117.782  0.00  0.00     0.028 C 
ATOM      5  C   LIG d   1      -0.069  91.058 117.808  0.00  0.00    -0.047 C 
ATOM      6  C   LIG d   1      -1.366  90.448 118.385  0.00  0.00     0.091 C 
ENDROOT
BRANCH   1   7
ATOM      7  O   LIG d   1      -3.088  90.807 120.091  0.00  0.00    -0.368 OA
BRANCH   7   8
ATOM      8  C   LIG d   1      -4.005  91.862 119.712  0.00  0.00     0.119 C 
BRANCH   8   9
ATOM      9  C   LIG d   1      -4.979  92.074 120.887  0.00  0.00     0.028 C 
ATOM     10  C   LIG d   1      -6.444  91.839 120.485  0.00  0.00     0.006 C 
ENDBRANCH   8   9
BRANCH   8  11
ATOM     11  C   LIG d   1      -4.883  91.440 118.529  0.00  0.00     0.028 C 
ATOM     12  C   LIG d   1      -4.493  92.141 117.218  0.00  0.00     0.006 C 
ENDBRANCH   8  11
ENDBRANCH   7   8
ENDBRANCH   1   7
BRANCH   6  13
ATOM     13  N   LIG d   1      -1.285  88.970 118.523  0.00  0.00    -0.311 N 
ATOM     14  C   LIG d   1      -2.194  88.136 118.020  0.00  0.00     0.210 C 
ATOM     15  C   LIG d   1      -1.930  86.652 118.294  0.00  0.00     0.109 C 
ATOM     16  O   LIG d   1      -3.176  88.482 117.346  0.00  0.00    -0.276 OA
ATOM     17  H   LIG d   1      -0.504  88.602 119.029  0.00  0.00     0.149 HD
ENDBRANCH   6  13
BRANCH   5  18
ATOM     18  N   LIG d   1       0.217  90.613 116.431  0.00  0.00     0.381 N 
ATOM     19  H   LIG d   1       0.490  89.650 116.436  0.00  0.00    -0.090 HD
ATOM     20  H   LIG d   1       0.980  91.155 116.066  0.00  0.00    -0.090 HD
ATOM     21  H   LIG d   1      -0.590  90.735 115.859  0.00  0.00    -0.090 HD
ENDBRANCH   5  18
BRANCH   3  22
ATOM     22  C   LIG d   1      -0.179  94.401 119.335  0.00  0.00     0.382 C 
ATOM     23  O   LIG d   1       0.438  94.604 120.408  0.00  0.00    -0.241 OA
ATOM     24  O   LIG d   1      -0.444  95.362 118.588  0.00  0.00    -0.241 OA
ENDBRANCH   3  22
TORSDOF 7
ENDMDL
MODEL 8
REMARK VINA RESULT:      -3.6      1.902      4.785
REMARK  7 active torsions:
REMARK  status: ('A' for Active; 'I' for Inactive)
REMARK    1  A    between atoms: C_2  and  C_3 
REMARK    2  A    between atoms: C_3  and  O_6 
REMARK    3  A    between atoms: C_3  and  C_4 
REMARK    4  A    between atoms: C_7  and  O_6 
REMARK    5  A    between atoms: C_9  and  C_10 
REMARK    6  A    between atoms: N_15  and  C_14 
REMARK    7  A    between atoms: N_20  and  C_19 
REMARK       I    between atoms: C_22  and  N_20 
ROOT
ATOM      1  C   LIG d   1      -3.364  93.548 118.811  0.00  0.00     0.161 C 
ATOM      2  C   LIG d   1      -4.594  94.221 118.908  0.00  0.00     0.016 C 
ATOM      3  C   LIG d   1      -5.770  93.789 118.254  0.00  0.00     0.038 C 
ATOM      4  C   LIG d   1      -5.834  92.562 117.576  0.00  0.00     0.028 C 
ATOM      5  C   LIG d   1      -4.487  92.101 117.030  0.00  0.00    -0.047 C 
ATOM      6  C   LIG d   1      -3.441  92.148 118.167  0.00  0.00     0.091 C 
ENDROOT
BRANCH   1   7
ATOM      7  O   LIG d   1      -2.747  93.468 120.111  0.00  0.00    -0.368 OA
BRANCH   7   8
ATOM      8  C   LIG d   1      -1.564  94.281 120.307  0.00  0.00     0.119 C 
BRANCH   8   9
ATOM      9  C   LIG d   1      -1.916  95.370 121.339  0.00  0.00     0.028 C 
ATOM     10  C   LIG d   1      -3.021  94.922 122.311  0.00  0.00     0.006 C 
ENDBRANCH   8   9
BRANCH   8  11
ATOM     11  C   LIG d   1      -1.191  95.039 119.029  0.00  0.00     0.028 C 
ATOM     12  C   LIG d   1      -1.092  96.557 119.245  0.00  0.00     0.006 C 
ENDBRANCH   8  11
ENDBRANCH   7   8
ENDBRANCH   1   7
BRANCH   6  13
ATOM     13  N   LIG d   1      -2.077  91.793 117.698  0.00  0.00    -0.311 N 
ATOM     14  C   LIG d   1      -1.567  90.565 117.786  0.00  0.00     0.210 C 
ATOM     15  C   LIG d   1      -0.136  90.420 117.261  0.00  0.00     0.109 C 
ATOM     16  O   LIG d   1      -2.177  89.576 118.219  0.00  0.00    -0.276 OA
ATOM     17  H   LIG d   1      -1.524  92.529 117.303  0.00  0.00     0.149 HD
ENDBRANCH   6  13
BRANCH   5  18
ATOM     18  N   LIG d   1      -4.672  90.749 116.470  0.00  0.00     0.381 N 
ATOM     19  H   LIG d   1      -4.299  90.712 115.542  0.00  0.00    -0.090 HD
ATOM     20  H   LIG d   1      -5.656  90.549 116.422  0.00  0.00    -0.090 HD
ATOM     21  H   LIG d   1      -4.216  90.076 117.046  0.00  0.00    -0.090 HD
ENDBRANCH   5  18
BRANCH   3  22
ATOM     22  C   LIG d   1      -6.889  94.607 118.240  0.00  0.00     0.382 C 
ATOM     23  O   LIG d   1      -7.045  95.471 119.137  0.00  0.00    -0.241 OA
ATOM     24  O   LIG d   1      -7.767  94.464 117.368  0.00  0.00    -0.241 OA
ENDBRANCH   3  22
TORSDOF 7
ENDMDL
MODEL 9
REMARK VINA RESULT:      -3.6      4.201      7.196
REMARK  7 active torsions:
REMARK  status: ('A' for Active; 'I' for Inactive)
REMARK    1  A    between atoms: C_2  and  C_3 
REMARK    2  A    between atoms: C_3  and  O_6 
REMARK    3  A    between atoms: C_3  and  C_4 
REMARK    4  A    between atoms: C_7  and  O_6 
REMARK    5  A    between atoms: C_9  and  C_10 
REMARK    6  A    between atoms: N_15  and  C_14 
REMARK    7  A    between atoms: N_20  and  C_19 
REMARK       I    between atoms: C_22  and  N_20 
ROOT
ATOM      1  C   LIG d   1       0.944  89.360 116.587  0.00  0.00     0.161 C 
ATOM      2  C   LIG d   1       2.311  89.671 116.686  0.00  0.00     0.016 C 
ATOM      3  C   LIG d   1       2.797  90.866 117.265  0.00  0.00     0.038 C 
ATOM      4  C   LIG d   1       1.949  91.769 117.924  0.00  0.00     0.028 C 
ATOM      5  C   LIG d   1       0.516  91.742 117.406  0.00  0.00    -0.047 C 
ATOM      6  C   LIG d   1       0.011  90.281 117.400  0.00  0.00     0.091 C 
ENDROOT
BRANCH   1   7
ATOM      7  O   LIG d   1       0.729  87.982 116.950  0.00  0.00    -0.368 OA
BRANCH   7   8
ATOM      8  C   LIG d   1       0.391  87.734 118.337  0.00  0.00     0.119 C 
BRANCH   8   9
ATOM      9  C   LIG d   1       1.605  87.050 118.994  0.00  0.00     0.028 C 
ATOM     10  C   LIG d   1       1.863  85.643 118.430  0.00  0.00     0.006 C 
ENDBRANCH   8   9
BRANCH   8  11
ATOM     11  C   LIG d   1      -0.757  86.727 118.459  0.00  0.00     0.028 C 
ATOM     12  C   LIG d   1      -1.534  86.547 117.145  0.00  0.00     0.006 C 
ENDBRANCH   8  11
ENDBRANCH   7   8
ENDBRANCH   1   7
BRANCH   6  13
ATOM     13  N   LIG d   1      -1.355  90.156 116.828  0.00  0.00    -0.311 N 
ATOM     14  C   LIG d   1      -2.461  90.125 117.569  0.00  0.00     0.210 C 
ATOM     15  C   LIG d   1      -3.765  89.970 116.780  0.00  0.00     0.109 C 
ATOM     16  O   LIG d   1      -2.488  90.243 118.804  0.00  0.00    -0.276 OA
ATOM     17  H   LIG d   1      -1.427  90.086 115.831  0.00  0.00     0.149 HD
ENDBRANCH   6  13
BRANCH   5  18
ATOM     18  N   LIG d   1      -0.287  92.628 118.270  0.00  0.00     0.381 N 
ATOM     19  H   LIG d   1      -1.180  92.792 117.850  0.00  0.00    -0.090 HD
ATOM     20  H   LIG d   1       0.186  93.510 118.361  0.00  0.00    -0.090 HD
ATOM     21  H   LIG d   1      -0.405  92.212 119.168  0.00  0.00    -0.090 HD
ENDBRANCH   5  18
BRANCH   3  22
ATOM     22  C   LIG d   1       4.141  91.187 117.152  0.00  0.00     0.382 C 
ATOM     23  O   LIG d   1       5.015  90.313 117.369  0.00  0.00    -0.241 OA
ATOM     24  O   LIG d   1       4.492  92.350 116.879  0.00  0.00    -0.241 OA
ENDBRANCH   3  22
TORSDOF 7
ENDMDL
