MODEL 1
REMARK VINA RESULT:      -4.6      0.000      0.000
REMARK  7 active torsions:
REMARK  status: ('A' for Active; 'I' for Inactive)
REMARK    1  A    between atoms: C_2  and  C_3 
REMARK    2  A    between atoms: C_3  and  O_6 
REMARK    3  A    between atoms: C_3  and  C_4 
REMARK    4  A    between atoms: C_7  and  O_6 
REMARK    5  A    between atoms: C_9  and  C_10 
REMARK    6  A    between atoms: N_15  and  C_14 
REMARK    7  A    between atoms: N_20  and  C_19 
REMARK       I    between atoms: C_22  and  N_20 
ROOT
ATOM      1  C   LIG d   1      -5.669  93.767 119.303  0.00  0.00     0.161 C 
ATOM      2  C   LIG d   1      -4.588  92.948 118.935  0.00  0.00     0.016 C 
ATOM      3  C   LIG d   1      -4.618  92.075 117.823  0.00  0.00     0.038 C 
ATOM      4  C   LIG d   1      -5.682  92.073 116.909  0.00  0.00     0.028 C 
ATOM      5  C   LIG d   1      -7.007  92.516 117.522  0.00  0.00    -0.047 C 
ATOM      6  C   LIG d   1      -6.796  93.861 118.254  0.00  0.00     0.091 C 
ENDROOT
BRANCH   1   7
ATOM      7  O   LIG d   1      -5.190  95.084 119.643  0.00  0.00    -0.368 OA
BRANCH   7   8
ATOM      8  C   LIG d   1      -4.440  95.190 120.878  0.00  0.00     0.119 C 
BRANCH   8   9
ATOM      9  C   LIG d   1      -5.256  96.074 121.841  0.00  0.00     0.028 C 
ATOM     10  C   LIG d   1      -6.233  97.002 121.099  0.00  0.00     0.006 C 
ENDBRANCH   8   9
BRANCH   8  11
ATOM     11  C   LIG d   1      -3.118  95.934 120.665  0.00  0.00     0.028 C 
ATOM     12  C   LIG d   1      -2.875  96.308 119.195  0.00  0.00     0.006 C 
ENDBRANCH   8  11
ENDBRANCH   7   8
ENDBRANCH   1   7
BRANCH   6  13
ATOM     13  N   LIG d   1      -8.023  94.324 118.953  0.00  0.00    -0.311 N 
ATOM     14  C   LIG d   1      -8.606  95.497 118.711  0.00  0.00     0.210 C 
ATOM     15  C   LIG d   1      -9.851  95.787 119.557  0.00  0.00     0.109 C 
ATOM     16  O   LIG d   1      -8.230  96.311 117.854  0.00  0.00    -0.276 OA
ATOM     17  H   LIG d   1      -8.414  93.712 119.642  0.00  0.00     0.149 HD
ENDBRANCH   6  13
BRANCH   5  18
ATOM     18  N   LIG d   1      -7.996  92.601 116.430  0.00  0.00     0.381 N 
ATOM     19  H   LIG d   1      -8.712  91.916 116.569  0.00  0.00    -0.090 HD
ATOM     20  H   LIG d   1      -7.536  92.404 115.559  0.00  0.00    -0.090 HD
ATOM     21  H   LIG d   1      -8.398  93.512 116.405  0.00  0.00    -0.090 HD
ENDBRANCH   5  18
BRANCH   3  22
ATOM     22  C   LIG d   1      -3.590  91.162 117.639  0.00  0.00     0.382 C 
ATOM     23  O   LIG d   1      -3.823  90.059 117.089  0.00  0.00    -0.241 OA
ATOM     24  O   LIG d   1      -2.443  91.409 118.057  0.00  0.00    -0.241 OA
ENDBRANCH   3  22
TORSDOF 7
ENDMDL
MODEL 2
REMARK VINA RESULT:      -4.2      4.560      7.424
REMARK  7 active torsions:
REMARK  status: ('A' for Active; 'I' for Inactive)
REMARK    1  A    between atoms: C_2  and  C_3 
REMARK    2  A    between atoms: C_3  and  O_6 
REMARK    3  A    between atoms: C_3  and  C_4 
REMARK    4  A    between atoms: C_7  and  O_6 
REMARK    5  A    between atoms: C_9  and  C_10 
REMARK    6  A    between atoms: N_15  and  C_14 
REMARK    7  A    between atoms: N_20  and  C_19 
REMARK       I    between atoms: C_22  and  N_20 
ROOT
ATOM      1  C   LIG d   1      -0.946  89.791 117.064  0.00  0.00     0.161 C 
ATOM      2  C   LIG d   1       0.443  89.596 116.983  0.00  0.00     0.016 C 
ATOM      3  C   LIG d   1       1.390  90.557 117.404  0.00  0.00     0.038 C 
ATOM      4  C   LIG d   1       1.009  91.727 118.079  0.00  0.00     0.028 C 
ATOM      5  C   LIG d   1      -0.399  92.197 117.730  0.00  0.00    -0.047 C 
ATOM      6  C   LIG d   1      -1.379  91.014 117.900  0.00  0.00     0.091 C 
ENDROOT
BRANCH   1   7
ATOM      7  O   LIG d   1      -1.580  88.595 117.560  0.00  0.00    -0.368 OA
BRANCH   7   8
ATOM      8  C   LIG d   1      -1.270  88.230 118.928  0.00  0.00     0.119 C 
BRANCH   8   9
ATOM      9  C   LIG d   1      -0.679  86.807 118.904  0.00  0.00     0.028 C 
ATOM     10  C   LIG d   1      -1.546  85.798 119.675  0.00  0.00     0.006 C 
ENDBRANCH   8   9
BRANCH   8  11
ATOM     11  C   LIG d   1      -2.539  88.128 119.778  0.00  0.00     0.028 C 
ATOM     12  C   LIG d   1      -2.574  89.153 120.923  0.00  0.00     0.006 C 
ENDBRANCH   8  11
ENDBRANCH   7   8
ENDBRANCH   1   7
BRANCH   6  13
ATOM     13  N   LIG d   1      -2.766  91.365 117.498  0.00  0.00    -0.311 N 
ATOM     14  C   LIG d   1      -3.648  91.929 118.322  0.00  0.00     0.210 C 
ATOM     15  C   LIG d   1      -5.029  92.189 117.712  0.00  0.00     0.109 C 
ATOM     16  O   LIG d   1      -3.408  92.267 119.491  0.00  0.00    -0.276 OA
ATOM     17  H   LIG d   1      -3.036  91.153 116.557  0.00  0.00     0.149 HD
ENDBRANCH   6  13
BRANCH   5  18
ATOM     18  N   LIG d   1      -0.717  93.341 118.605  0.00  0.00     0.381 N 
ATOM     19  H   LIG d   1      -1.155  93.015 119.443  0.00  0.00    -0.090 HD
ATOM     20  H   LIG d   1      -1.361  93.946 118.127  0.00  0.00    -0.090 HD
ATOM     21  H   LIG d   1       0.116  93.840 118.829  0.00  0.00    -0.090 HD
ENDBRANCH   5  18
BRANCH   3  22
ATOM     22  C   LIG d   1       2.733  90.372 117.114  0.00  0.00     0.382 C 
ATOM     23  O   LIG d   1       3.462  91.361 116.862  0.00  0.00    -0.241 OA
ATOM     24  O   LIG d   1       3.214  89.225 117.058  0.00  0.00    -0.241 OA
ENDBRANCH   3  22
TORSDOF 7
ENDMDL
MODEL 3
REMARK VINA RESULT:      -4.0      5.131      8.170
REMARK  7 active torsions:
REMARK  status: ('A' for Active; 'I' for Inactive)
REMARK    1  A    between atoms: C_2  and  C_3 
REMARK    2  A    between atoms: C_3  and  O_6 
REMARK    3  A    between atoms: C_3  and  C_4 
REMARK    4  A    between atoms: C_7  and  O_6 
REMARK    5  A    between atoms: C_9  and  C_10 
REMARK    6  A    between atoms: N_15  and  C_14 
REMARK    7  A    between atoms: N_20  and  C_19 
REMARK       I    between atoms: C_22  and  N_20 
ROOT
ATOM      1  C   LIG d   1       0.224  90.986 117.008  0.00  0.00     0.161 C 
ATOM      2  C   LIG d   1       1.618  90.869 117.137  0.00  0.00     0.016 C 
ATOM      3  C   LIG d   1       2.335  91.312 118.273  0.00  0.00     0.038 C 
ATOM      4  C   LIG d   1       1.684  91.768 119.429  0.00  0.00     0.028 C 
ATOM      5  C   LIG d   1       0.312  92.374 119.152  0.00  0.00    -0.047 C 
ATOM      6  C   LIG d   1      -0.514  91.379 118.305  0.00  0.00     0.091 C 
ENDROOT
BRANCH   1   7
ATOM      7  O   LIG d   1      -0.322  89.765 116.471  0.00  0.00    -0.368 OA
BRANCH   7   8
ATOM      8  C   LIG d   1      -0.337  88.626 117.367  0.00  0.00     0.119 C 
BRANCH   8   9
ATOM      9  C   LIG d   1       0.220  87.418 116.589  0.00  0.00     0.028 C 
ATOM     10  C   LIG d   1       1.691  87.128 116.930  0.00  0.00     0.006 C 
ENDBRANCH   8   9
BRANCH   8  11
ATOM     11  C   LIG d   1      -1.768  88.237 117.750  0.00  0.00     0.028 C 
ATOM     12  C   LIG d   1      -1.902  87.840 119.228  0.00  0.00     0.006 C 
ENDBRANCH   8  11
ENDBRANCH   7   8
ENDBRANCH   1   7
BRANCH   6  13
ATOM     13  N   LIG d   1      -1.840  91.929 117.919  0.00  0.00    -0.311 N 
ATOM     14  C   LIG d   1      -2.948  91.741 118.633  0.00  0.00     0.210 C 
ATOM     15  C   LIG d   1      -4.212  92.378 118.046  0.00  0.00     0.109 C 
ATOM     16  O   LIG d   1      -2.998  91.135 119.714  0.00  0.00    -0.276 OA
ATOM     17  H   LIG d   1      -1.884  92.460 117.071  0.00  0.00     0.149 HD
ENDBRANCH   6  13
BRANCH   5  18
ATOM     18  N   LIG d   1      -0.310  92.680 120.454  0.00  0.00     0.381 N 
ATOM     19  H   LIG d   1      -0.051  91.985 121.126  0.00  0.00    -0.090 HD
ATOM     20  H   LIG d   1      -1.309  92.660 120.350  0.00  0.00    -0.090 HD
ATOM     21  H   LIG d   1      -0.020  93.580 120.767  0.00  0.00    -0.090 HD
ENDBRANCH   5  18
BRANCH   3  22
ATOM     22  C   LIG d   1       3.721  91.338 118.243  0.00  0.00     0.382 C 
ATOM     23  O   LIG d   1       4.377  90.923 119.229  0.00  0.00    -0.241 OA
ATOM     24  O   LIG d   1       4.323  91.812 117.262  0.00  0.00    -0.241 OA
ENDBRANCH   3  22
TORSDOF 7
ENDMDL
MODEL 4
REMARK VINA RESULT:      -3.9      2.986      4.724
REMARK  7 active torsions:
REMARK  status: ('A' for Active; 'I' for Inactive)
REMARK    1  A    between atoms: C_2  and  C_3 
REMARK    2  A    between atoms: C_3  and  O_6 
REMARK    3  A    between atoms: C_3  and  C_4 
REMARK    4  A    between atoms: C_7  and  O_6 
REMARK    5  A    between atoms: C_9  and  C_10 
REMARK    6  A    between atoms: N_15  and  C_14 
REMARK    7  A    between atoms: N_20  and  C_19 
REMARK       I    between atoms: C_22  and  N_20 
ROOT
ATOM      1  C   LIG d   1      -4.663  94.253 119.667  0.00  0.00     0.161 C 
ATOM      2  C   LIG d   1      -5.244  93.278 118.840  0.00  0.00     0.016 C 
ATOM      3  C   LIG d   1      -4.503  92.482 117.936  0.00  0.00     0.038 C 
ATOM      4  C   LIG d   1      -3.101  92.503 117.908  0.00  0.00     0.028 C 
ATOM      5  C   LIG d   1      -2.506  93.830 118.365  0.00  0.00    -0.047 C 
ATOM      6  C   LIG d   1      -3.122  94.213 119.730  0.00  0.00     0.091 C 
ENDROOT
BRANCH   1   7
ATOM      7  O   LIG d   1      -5.221  94.165 120.993  0.00  0.00    -0.368 OA
BRANCH   7   8
ATOM      8  C   LIG d   1      -6.499  93.491 121.103  0.00  0.00     0.119 C 
BRANCH   8   9
ATOM      9  C   LIG d   1      -7.563  94.564 121.408  0.00  0.00     0.028 C 
ATOM     10  C   LIG d   1      -8.410  94.918 120.174  0.00  0.00     0.006 C 
ENDBRANCH   8   9
BRANCH   8  11
ATOM     11  C   LIG d   1      -6.526  92.541 122.304  0.00  0.00     0.028 C 
ATOM     12  C   LIG d   1      -5.126  92.058 122.714  0.00  0.00     0.006 C 
ENDBRANCH   8  11
ENDBRANCH   7   8
ENDBRANCH   1   7
BRANCH   6  13
ATOM     13  N   LIG d   1      -2.656  95.540 120.210  0.00  0.00    -0.311 N 
ATOM     14  C   LIG d   1      -1.591  95.705 120.992  0.00  0.00     0.210 C 
ATOM     15  C   LIG d   1      -1.297  97.155 121.388  0.00  0.00     0.109 C 
ATOM     16  O   LIG d   1      -0.843  94.791 121.370  0.00  0.00    -0.276 OA
ATOM     17  H   LIG d   1      -3.187  96.340 119.925  0.00  0.00     0.149 HD
ENDBRANCH   6  13
BRANCH   5  18
ATOM     18  N   LIG d   1      -1.041  93.667 118.417  0.00  0.00     0.381 N 
ATOM     19  H   LIG d   1      -0.595  94.520 118.143  0.00  0.00    -0.090 HD
ATOM     20  H   LIG d   1      -0.770  92.948 117.769  0.00  0.00    -0.090 HD
ATOM     21  H   LIG d   1      -0.758  93.417 119.339  0.00  0.00    -0.090 HD
ENDBRANCH   5  18
BRANCH   3  22
ATOM     22  C   LIG d   1      -5.169  91.681 117.020  0.00  0.00     0.382 C 
ATOM     23  O   LIG d   1      -4.687  90.571 116.691  0.00  0.00    -0.241 OA
ATOM     24  O   LIG d   1      -6.223  92.075 116.486  0.00  0.00    -0.241 OA
ENDBRANCH   3  22
TORSDOF 7
ENDMDL
MODEL 5
REMARK VINA RESULT:      -3.8      2.591      5.357
REMARK  7 active torsions:
REMARK  status: ('A' for Active; 'I' for Inactive)
REMARK    1  A    between atoms: C_2  and  C_3 
REMARK    2  A    between atoms: C_3  and  O_6 
REMARK    3  A    between atoms: C_3  and  C_4 
REMARK    4  A    between atoms: C_7  and  O_6 
REMARK    5  A    between atoms: C_9  and  C_10 
REMARK    6  A    between atoms: N_15  and  C_14 
REMARK    7  A    between atoms: N_20  and  C_19 
REMARK       I    between atoms: C_22  and  N_20 
ROOT
ATOM      1  C   LIG d   1      -6.694  95.150 120.690  0.00  0.00     0.161 C 
ATOM      2  C   LIG d   1      -8.022  95.529 120.943  0.00  0.00     0.016 C 
ATOM      3  C   LIG d   1      -9.086  95.284 120.044  0.00  0.00     0.038 C 
ATOM      4  C   LIG d   1      -8.917  94.503 118.890  0.00  0.00     0.028 C 
ATOM      5  C   LIG d   1      -7.494  94.531 118.343  0.00  0.00    -0.047 C 
ATOM      6  C   LIG d   1      -6.510  94.199 119.488  0.00  0.00     0.091 C 
ENDROOT
BRANCH   1   7
ATOM      7  O   LIG d   1      -6.116  94.573 121.878  0.00  0.00    -0.368 OA
BRANCH   7   8
ATOM      8  C   LIG d   1      -6.329  93.152 122.065  0.00  0.00     0.119 C 
BRANCH   8   9
ATOM      9  C   LIG d   1      -7.125  92.972 123.372  0.00  0.00     0.028 C 
ATOM     10  C   LIG d   1      -8.584  92.555 123.118  0.00  0.00     0.006 C 
ENDBRANCH   8   9
BRANCH   8  11
ATOM     11  C   LIG d   1      -5.006  92.415 122.292  0.00  0.00     0.028 C 
ATOM     12  C   LIG d   1      -3.797  93.362 122.338  0.00  0.00     0.006 C 
ENDBRANCH   8  11
ENDBRANCH   7   8
ENDBRANCH   1   7
BRANCH   6  13
ATOM     13  N   LIG d   1      -5.090  94.287 119.058  0.00  0.00    -0.311 N 
ATOM     14  C   LIG d   1      -4.390  93.242 118.622  0.00  0.00     0.210 C 
ATOM     15  C   LIG d   1      -2.936  93.547 118.248  0.00  0.00     0.109 C 
ATOM     16  O   LIG d   1      -4.844  92.097 118.478  0.00  0.00    -0.276 OA
ATOM     17  H   LIG d   1      -4.652  95.186 119.113  0.00  0.00     0.149 HD
ENDBRANCH   6  13
BRANCH   5  18
ATOM     18  N   LIG d   1      -7.427  93.570 117.226  0.00  0.00     0.381 N 
ATOM     19  H   LIG d   1      -8.326  93.155 117.082  0.00  0.00    -0.090 HD
ATOM     20  H   LIG d   1      -6.778  92.840 117.464  0.00  0.00    -0.090 HD
ATOM     21  H   LIG d   1      -7.129  94.032 116.396  0.00  0.00    -0.090 HD
ENDBRANCH   5  18
BRANCH   3  22
ATOM     22  C   LIG d   1     -10.327  95.857 120.275  0.00  0.00     0.382 C 
ATOM     23  O   LIG d   1     -11.359  95.144 120.261  0.00  0.00    -0.241 OA
ATOM     24  O   LIG d   1     -10.433  97.085 120.455  0.00  0.00    -0.241 OA
ENDBRANCH   3  22
TORSDOF 7
ENDMDL
MODEL 6
REMARK VINA RESULT:      -3.8      4.142      7.439
REMARK  7 active torsions:
REMARK  status: ('A' for Active; 'I' for Inactive)
REMARK    1  A    between atoms: C_2  and  C_3 
REMARK    2  A    between atoms: C_3  and  O_6 
REMARK    3  A    between atoms: C_3  and  C_4 
REMARK    4  A    between atoms: C_7  and  O_6 
REMARK    5  A    between atoms: C_9  and  C_10 
REMARK    6  A    between atoms: N_15  and  C_14 
REMARK    7  A    between atoms: N_20  and  C_19 
REMARK       I    between atoms: C_22  and  N_20 
ROOT
ATOM      1  C   LIG d   1      -1.543  91.327 119.789  0.00  0.00     0.161 C 
ATOM      2  C   LIG d   1      -2.876  91.721 119.992  0.00  0.00     0.016 C 
ATOM      3  C   LIG d   1      -3.529  92.694 119.201  0.00  0.00     0.038 C 
ATOM      4  C   LIG d   1      -2.937  93.234 118.050  0.00  0.00     0.028 C 
ATOM      5  C   LIG d   1      -1.412  93.240 118.100  0.00  0.00    -0.047 C 
ATOM      6  C   LIG d   1      -0.916  91.823 118.469  0.00  0.00     0.091 C 
ENDROOT
BRANCH   1   7
ATOM      7  O   LIG d   1      -1.438  89.893 119.885  0.00  0.00    -0.368 OA
BRANCH   7   8
ATOM      8  C   LIG d   1      -2.468  89.131 119.209  0.00  0.00     0.119 C 
BRANCH   8   9
ATOM      9  C   LIG d   1      -2.861  87.962 120.133  0.00  0.00     0.028 C 
ATOM     10  C   LIG d   1      -2.774  88.337 121.622  0.00  0.00     0.006 C 
ENDBRANCH   8   9
BRANCH   8  11
ATOM     11  C   LIG d   1      -1.930  88.475 117.934  0.00  0.00     0.028 C 
ATOM     12  C   LIG d   1      -0.706  87.583 118.193  0.00  0.00     0.006 C 
ENDBRANCH   8  11
ENDBRANCH   7   8
ENDBRANCH   1   7
BRANCH   6  13
ATOM     13  N   LIG d   1       0.561  91.762 118.622  0.00  0.00    -0.311 N 
ATOM     14  C   LIG d   1       1.350  91.036 117.832  0.00  0.00     0.210 C 
ATOM     15  C   LIG d   1       2.841  91.098 118.175  0.00  0.00     0.109 C 
ATOM     16  O   LIG d   1       0.959  90.372 116.859  0.00  0.00    -0.276 OA
ATOM     17  H   LIG d   1       0.965  92.295 119.367  0.00  0.00     0.149 HD
ENDBRANCH   6  13
BRANCH   5  18
ATOM     18  N   LIG d   1      -0.925  93.699 116.786  0.00  0.00     0.381 N 
ATOM     19  H   LIG d   1      -0.005  93.342 116.622  0.00  0.00    -0.090 HD
ATOM     20  H   LIG d   1      -0.878  94.703 116.789  0.00  0.00    -0.090 HD
ATOM     21  H   LIG d   1      -1.542  93.390 116.067  0.00  0.00    -0.090 HD
ENDBRANCH   5  18
BRANCH   3  22
ATOM     22  C   LIG d   1      -4.776  93.166 119.584  0.00  0.00     0.382 C 
ATOM     23  O   LIG d   1      -5.731  93.146 118.770  0.00  0.00    -0.241 OA
ATOM     24  O   LIG d   1      -4.946  93.654 120.717  0.00  0.00    -0.241 OA
ENDBRANCH   3  22
TORSDOF 7
ENDMDL
MODEL 7
REMARK VINA RESULT:      -3.8      3.005      5.895
REMARK  7 active torsions:
REMARK  status: ('A' for Active; 'I' for Inactive)
REMARK    1  A    between atoms: C_2  and  C_3 
REMARK    2  A    between atoms: C_3  and  O_6 
REMARK    3  A    between atoms: C_3  and  C_4 
REMARK    4  A    between atoms: C_7  and  O_6 
REMARK    5  A    between atoms: C_9  and  C_10 
REMARK    6  A    between atoms: N_15  and  C_14 
REMARK    7  A    between atoms: N_20  and  C_19 
REMARK       I    between atoms: C_22  and  N_20 
ROOT
ATOM      1  C   LIG d   1      -2.829  92.737 119.625  0.00  0.00     0.161 C 
ATOM      2  C   LIG d   1      -3.810  93.665 120.015  0.00  0.00     0.016 C 
ATOM      3  C   LIG d   1      -5.064  93.788 119.373  0.00  0.00     0.038 C 
ATOM      4  C   LIG d   1      -5.484  92.883 118.388  0.00  0.00     0.028 C 
ATOM      5  C   LIG d   1      -4.332  92.248 117.616  0.00  0.00    -0.047 C 
ATOM      6  C   LIG d   1      -3.314  91.667 118.624  0.00  0.00     0.091 C 
ENDROOT
BRANCH   1   7
ATOM      7  O   LIG d   1      -2.258  92.111 120.790  0.00  0.00    -0.368 OA
BRANCH   7   8
ATOM      8  C   LIG d   1      -2.983  90.976 121.324  0.00  0.00     0.119 C 
BRANCH   8   9
ATOM      9  C   LIG d   1      -3.381  91.321 122.772  0.00  0.00     0.028 C 
ATOM     10  C   LIG d   1      -4.887  91.598 122.917  0.00  0.00     0.006 C 
ENDBRANCH   8   9
BRANCH   8  11
ATOM     11  C   LIG d   1      -2.084  89.741 121.434  0.00  0.00     0.028 C 
ATOM     12  C   LIG d   1      -2.856  88.424 121.254  0.00  0.00     0.006 C 
ENDBRANCH   8  11
ENDBRANCH   7   8
ENDBRANCH   1   7
BRANCH   6  13
ATOM     13  N   LIG d   1      -2.113  91.102 117.954  0.00  0.00    -0.311 N 
ATOM     14  C   LIG d   1      -1.999  89.820 117.614  0.00  0.00     0.210 C 
ATOM     15  C   LIG d   1      -0.671  89.442 116.951  0.00  0.00     0.109 C 
ATOM     16  O   LIG d   1      -2.885  88.965 117.768  0.00  0.00    -0.276 OA
ATOM     17  H   LIG d   1      -1.359  91.732 117.762  0.00  0.00     0.149 HD
ENDBRANCH   6  13
BRANCH   5  18
ATOM     18  N   LIG d   1      -4.905  91.227 116.719  0.00  0.00     0.381 N 
ATOM     19  H   LIG d   1      -4.216  90.531 116.514  0.00  0.00    -0.090 HD
ATOM     20  H   LIG d   1      -5.175  91.667 115.857  0.00  0.00    -0.090 HD
ATOM     21  H   LIG d   1      -5.698  90.804 117.147  0.00  0.00    -0.090 HD
ENDBRANCH   5  18
BRANCH   3  22
ATOM     22  C   LIG d   1      -5.896  94.851 119.690  0.00  0.00     0.382 C 
ATOM     23  O   LIG d   1      -7.055  94.904 119.211  0.00  0.00    -0.241 OA
ATOM     24  O   LIG d   1      -5.488  95.780 120.412  0.00  0.00    -0.241 OA
ENDBRANCH   3  22
TORSDOF 7
ENDMDL
MODEL 8
REMARK VINA RESULT:      -3.8      3.258      5.795
REMARK  7 active torsions:
REMARK  status: ('A' for Active; 'I' for Inactive)
REMARK    1  A    between atoms: C_2  and  C_3 
REMARK    2  A    between atoms: C_3  and  O_6 
REMARK    3  A    between atoms: C_3  and  C_4 
REMARK    4  A    between atoms: C_7  and  O_6 
REMARK    5  A    between atoms: C_9  and  C_10 
REMARK    6  A    between atoms: N_15  and  C_14 
REMARK    7  A    between atoms: N_20  and  C_19 
REMARK       I    between atoms: C_22  and  N_20 
ROOT
ATOM      1  C   LIG d   1      -2.926  92.939 120.128  0.00  0.00     0.161 C 
ATOM      2  C   LIG d   1      -2.872  94.333 120.292  0.00  0.00     0.016 C 
ATOM      3  C   LIG d   1      -2.174  95.194 119.415  0.00  0.00     0.038 C 
ATOM      4  C   LIG d   1      -1.604  94.730 118.220  0.00  0.00     0.028 C 
ATOM      5  C   LIG d   1      -1.201  93.261 118.271  0.00  0.00    -0.047 C 
ATOM      6  C   LIG d   1      -2.403  92.427 118.769  0.00  0.00     0.091 C 
ENDROOT
BRANCH   1   7
ATOM      7  O   LIG d   1      -4.270  92.472 120.356  0.00  0.00    -0.368 OA
BRANCH   7   8
ATOM      8  C   LIG d   1      -5.198  93.442 120.901  0.00  0.00     0.119 C 
BRANCH   8   9
ATOM      9  C   LIG d   1      -5.661  92.919 122.275  0.00  0.00     0.028 C 
ATOM     10  C   LIG d   1      -7.116  92.421 122.254  0.00  0.00     0.006 C 
ENDBRANCH   8   9
BRANCH   8  11
ATOM     11  C   LIG d   1      -6.470  93.533 120.053  0.00  0.00     0.028 C 
ATOM     12  C   LIG d   1      -6.218  93.237 118.566  0.00  0.00     0.006 C 
ENDBRANCH   8  11
ENDBRANCH   7   8
ENDBRANCH   1   7
BRANCH   6  13
ATOM     13  N   LIG d   1      -2.069  90.988 118.929  0.00  0.00    -0.311 N 
ATOM     14  C   LIG d   1      -2.716  90.011 118.297  0.00  0.00     0.210 C 
ATOM     15  C   LIG d   1      -2.224  88.596 118.620  0.00  0.00     0.109 C 
ATOM     16  O   LIG d   1      -3.629  90.182 117.476  0.00  0.00    -0.276 OA
ATOM     17  H   LIG d   1      -1.320  90.761 119.554  0.00  0.00     0.149 HD
ENDBRANCH   6  13
BRANCH   5  18
ATOM     18  N   LIG d   1      -0.750  92.874 116.921  0.00  0.00     0.381 N 
ATOM     19  H   LIG d   1      -1.066  91.949 116.710  0.00  0.00    -0.090 HD
ATOM     20  H   LIG d   1       0.255  92.877 116.900  0.00  0.00    -0.090 HD
ATOM     21  H   LIG d   1      -1.105  93.516 116.246  0.00  0.00    -0.090 HD
ENDBRANCH   5  18
BRANCH   3  22
ATOM     22  C   LIG d   1      -2.006  96.529 119.750  0.00  0.00     0.382 C 
ATOM     23  O   LIG d   1      -1.572  96.841 120.885  0.00  0.00    -0.241 OA
ATOM     24  O   LIG d   1      -2.326  97.427 118.947  0.00  0.00    -0.241 OA
ENDBRANCH   3  22
TORSDOF 7
ENDMDL
MODEL 9
REMARK VINA RESULT:      -3.8      4.073      6.594
REMARK  7 active torsions:
REMARK  status: ('A' for Active; 'I' for Inactive)
REMARK    1  A    between atoms: C_2  and  C_3 
REMARK    2  A    between atoms: C_3  and  O_6 
REMARK    3  A    between atoms: C_3  and  C_4 
REMARK    4  A    between atoms: C_7  and  O_6 
REMARK    5  A    between atoms: C_9  and  C_10 
REMARK    6  A    between atoms: N_15  and  C_14 
REMARK    7  A    between atoms: N_20  and  C_19 
REMARK       I    between atoms: C_22  and  N_20 
ROOT
ATOM      1  C   LIG d   1      -1.790  90.481 119.089  0.00  0.00     0.161 C 
ATOM      2  C   LIG d   1      -0.554  90.699 119.722  0.00  0.00     0.016 C 
ATOM      3  C   LIG d   1       0.069  91.965 119.798  0.00  0.00     0.038 C 
ATOM      4  C   LIG d   1      -0.577  93.136 119.375  0.00  0.00     0.028 C 
ATOM      5  C   LIG d   1      -1.606  92.897 118.275  0.00  0.00    -0.047 C 
ATOM      6  C   LIG d   1      -2.561  91.765 118.720  0.00  0.00     0.091 C 
ENDROOT
BRANCH   1   7
ATOM      7  O   LIG d   1      -2.610  89.620 119.902  0.00  0.00    -0.368 OA
BRANCH   7   8
ATOM      8  C   LIG d   1      -2.836  88.284 119.389  0.00  0.00     0.119 C 
BRANCH   8   9
ATOM      9  C   LIG d   1      -3.121  87.367 120.593  0.00  0.00     0.028 C 
ATOM     10  C   LIG d   1      -3.279  88.154 121.906  0.00  0.00     0.006 C 
ENDBRANCH   8   9
BRANCH   8  11
ATOM     11  C   LIG d   1      -1.572  87.716 118.737  0.00  0.00     0.028 C 
ATOM     12  C   LIG d   1      -1.124  86.386 119.364  0.00  0.00     0.006 C 
ENDBRANCH   8  11
ENDBRANCH   7   8
ENDBRANCH   1   7
BRANCH   6  13
ATOM     13  N   LIG d   1      -3.548  91.410 117.666  0.00  0.00    -0.311 N 
ATOM     14  C   LIG d   1      -4.760  91.955 117.584  0.00  0.00     0.210 C 
ATOM     15  C   LIG d   1      -5.627  91.432 116.433  0.00  0.00     0.109 C 
ATOM     16  O   LIG d   1      -5.189  92.844 118.334  0.00  0.00    -0.276 OA
ATOM     17  H   LIG d   1      -3.271  90.719 116.997  0.00  0.00     0.149 HD
ENDBRANCH   6  13
BRANCH   5  18
ATOM     18  N   LIG d   1      -2.300  94.175 118.028  0.00  0.00     0.381 N 
ATOM     19  H   LIG d   1      -1.734  94.935 118.349  0.00  0.00    -0.090 HD
ATOM     20  H   LIG d   1      -3.161  94.183 118.545  0.00  0.00    -0.090 HD
ATOM     21  H   LIG d   1      -2.487  94.279 117.055  0.00  0.00    -0.090 HD
ENDBRANCH   5  18
BRANCH   3  22
ATOM     22  C   LIG d   1       1.371  92.064 120.266  0.00  0.00     0.382 C 
ATOM     23  O   LIG d   1       1.631  92.809 121.241  0.00  0.00    -0.241 OA
ATOM     24  O   LIG d   1       2.294  91.451 119.698  0.00  0.00    -0.241 OA
ENDBRANCH   3  22
TORSDOF 7
ENDMDL
