MODEL 1
REMARK VINA RESULT:      -4.6      0.000      0.000
REMARK  7 active torsions:
REMARK  status: ('A' for Active; 'I' for Inactive)
REMARK    1  A    between atoms: C_2  and  C_3 
REMARK    2  A    between atoms: C_3  and  O_6 
REMARK    3  A    between atoms: C_3  and  C_4 
REMARK    4  A    between atoms: C_7  and  O_6 
REMARK    5  A    between atoms: C_9  and  C_10 
REMARK    6  A    between atoms: N_15  and  C_14 
REMARK    7  A    between atoms: N_20  and  C_19 
REMARK       I    between atoms: C_22  and  N_20 
ROOT
ATOM      1  C   LIG d   1      -3.070  92.412 118.204  0.00  0.00     0.161 C 
ATOM      2  C   LIG d   1      -1.872  91.761 117.862  0.00  0.00     0.016 C 
ATOM      3  C   LIG d   1      -0.597  92.354 118.004  0.00  0.00     0.038 C 
ATOM      4  C   LIG d   1      -0.421  93.590 118.643  0.00  0.00     0.028 C 
ATOM      5  C   LIG d   1      -1.639  94.502 118.546  0.00  0.00    -0.047 C 
ATOM      6  C   LIG d   1      -2.890  93.718 119.006  0.00  0.00     0.091 C 
ENDROOT
BRANCH   1   7
ATOM      7  O   LIG d   1      -3.934  91.503 118.913  0.00  0.00    -0.368 OA
BRANCH   7   8
ATOM      8  C   LIG d   1      -5.142  91.101 118.221  0.00  0.00     0.119 C 
BRANCH   8   9
ATOM      9  C   LIG d   1      -5.149  91.809 116.852  0.00  0.00     0.028 C 
ATOM     10  C   LIG d   1      -6.444  92.600 116.607  0.00  0.00     0.006 C 
ENDBRANCH   8   9
BRANCH   8  11
ATOM     11  C   LIG d   1      -6.394  91.608 118.945  0.00  0.00     0.028 C 
ATOM     12  C   LIG d   1      -6.160  91.843 120.446  0.00  0.00     0.006 C 
ENDBRANCH   8  11
ENDBRANCH   7   8
ENDBRANCH   1   7
BRANCH   6  13
ATOM     13  N   LIG d   1      -4.140  94.509 118.863  0.00  0.00    -0.311 N 
ATOM     14  C   LIG d   1      -4.680  95.212 119.856  0.00  0.00     0.210 C 
ATOM     15  C   LIG d   1      -5.981  95.940 119.501  0.00  0.00     0.109 C 
ATOM     16  O   LIG d   1      -4.189  95.328 120.989  0.00  0.00    -0.276 OA
ATOM     17  H   LIG d   1      -4.587  94.496 117.967  0.00  0.00     0.149 HD
ENDBRANCH   6  13
BRANCH   5  18
ATOM     18  N   LIG d   1      -1.370  95.695 119.370  0.00  0.00     0.381 N 
ATOM     19  H   LIG d   1      -1.546  96.522 118.835  0.00  0.00    -0.090 HD
ATOM     20  H   LIG d   1      -0.402  95.693 119.638  0.00  0.00    -0.090 HD
ATOM     21  H   LIG d   1      -1.947  95.687 120.182  0.00  0.00    -0.090 HD
ENDBRANCH   5  18
BRANCH   3  22
ATOM     22  C   LIG d   1       0.517  91.726 117.467  0.00  0.00     0.382 C 
ATOM     23  O   LIG d   1       1.656  92.227 117.624  0.00  0.00    -0.241 OA
ATOM     24  O   LIG d   1       0.391  90.688 116.790  0.00  0.00    -0.241 OA
ENDBRANCH   3  22
TORSDOF 7
ENDMDL
MODEL 2
REMARK VINA RESULT:      -4.6      2.251      3.322
REMARK  7 active torsions:
REMARK  status: ('A' for Active; 'I' for Inactive)
REMARK    1  A    between atoms: C_2  and  C_3 
REMARK    2  A    between atoms: C_3  and  O_6 
REMARK    3  A    between atoms: C_3  and  C_4 
REMARK    4  A    between atoms: C_7  and  O_6 
REMARK    5  A    between atoms: C_9  and  C_10 
REMARK    6  A    between atoms: N_15  and  C_14 
REMARK    7  A    between atoms: N_20  and  C_19 
REMARK       I    between atoms: C_22  and  N_20 
ROOT
ATOM      1  C   LIG d   1      -1.750  91.127 117.556  0.00  0.00     0.161 C 
ATOM      2  C   LIG d   1      -0.372  91.068 117.825  0.00  0.00     0.016 C 
ATOM      3  C   LIG d   1       0.396  92.193 118.201  0.00  0.00     0.038 C 
ATOM      4  C   LIG d   1      -0.195  93.434 118.484  0.00  0.00     0.028 C 
ATOM      5  C   LIG d   1      -1.506  93.664 117.739  0.00  0.00    -0.047 C 
ATOM      6  C   LIG d   1      -2.433  92.448 117.967  0.00  0.00     0.091 C 
ENDROOT
BRANCH   1   7
ATOM      7  O   LIG d   1      -2.416  90.006 118.171  0.00  0.00    -0.368 OA
BRANCH   7   8
ATOM      8  C   LIG d   1      -1.809  89.489 119.381  0.00  0.00     0.119 C 
BRANCH   8   9
ATOM      9  C   LIG d   1      -1.779  87.953 119.264  0.00  0.00     0.028 C 
ATOM     10  C   LIG d   1      -2.850  87.277 120.136  0.00  0.00     0.006 C 
ENDBRANCH   8   9
BRANCH   8  11
ATOM     11  C   LIG d   1      -2.673  89.785 120.610  0.00  0.00     0.028 C 
ATOM     12  C   LIG d   1      -2.205  91.029 121.382  0.00  0.00     0.006 C 
ENDBRANCH   8  11
ENDBRANCH   7   8
ENDBRANCH   1   7
BRANCH   6  13
ATOM     13  N   LIG d   1      -3.704  92.554 117.205  0.00  0.00    -0.311 N 
ATOM     14  C   LIG d   1      -4.907  92.433 117.764  0.00  0.00     0.210 C 
ATOM     15  C   LIG d   1      -6.086  92.556 116.794  0.00  0.00     0.109 C 
ATOM     16  O   LIG d   1      -5.110  92.269 118.977  0.00  0.00    -0.276 OA
ATOM     17  H   LIG d   1      -3.633  92.717 116.220  0.00  0.00     0.149 HD
ENDBRANCH   6  13
BRANCH   5  18
ATOM     18  N   LIG d   1      -2.081  94.930 118.230  0.00  0.00     0.381 N 
ATOM     19  H   LIG d   1      -2.639  94.756 119.043  0.00  0.00    -0.090 HD
ATOM     20  H   LIG d   1      -2.674  95.316 117.517  0.00  0.00    -0.090 HD
ATOM     21  H   LIG d   1      -1.353  95.573 118.450  0.00  0.00    -0.090 HD
ENDBRANCH   5  18
BRANCH   3  22
ATOM     22  C   LIG d   1       1.778  92.094 118.260  0.00  0.00     0.382 C 
ATOM     23  O   LIG d   1       2.379  92.343 119.332  0.00  0.00    -0.241 OA
ATOM     24  O   LIG d   1       2.434  91.801 117.242  0.00  0.00    -0.241 OA
ENDBRANCH   3  22
TORSDOF 7
ENDMDL
MODEL 3
REMARK VINA RESULT:      -4.5      2.444      5.444
REMARK  7 active torsions:
REMARK  status: ('A' for Active; 'I' for Inactive)
REMARK    1  A    between atoms: C_2  and  C_3 
REMARK    2  A    between atoms: C_3  and  O_6 
REMARK    3  A    between atoms: C_3  and  C_4 
REMARK    4  A    between atoms: C_7  and  O_6 
REMARK    5  A    between atoms: C_9  and  C_10 
REMARK    6  A    between atoms: N_15  and  C_14 
REMARK    7  A    between atoms: N_20  and  C_19 
REMARK       I    between atoms: C_22  and  N_20 
ROOT
ATOM      1  C   LIG d   1      -2.738  90.661 118.170  0.00  0.00     0.161 C 
ATOM      2  C   LIG d   1      -4.025  90.379 117.681  0.00  0.00     0.016 C 
ATOM      3  C   LIG d   1      -5.046  91.351 117.574  0.00  0.00     0.038 C 
ATOM      4  C   LIG d   1      -4.802  92.712 117.808  0.00  0.00     0.028 C 
ATOM      5  C   LIG d   1      -3.659  92.963 118.786  0.00  0.00    -0.047 C 
ATOM      6  C   LIG d   1      -2.420  92.163 118.325  0.00  0.00     0.091 C 
ENDROOT
BRANCH   1   7
ATOM      7  O   LIG d   1      -1.749  90.023 117.338  0.00  0.00    -0.368 OA
BRANCH   7   8
ATOM      8  C   LIG d   1      -1.062  88.888 117.921  0.00  0.00     0.119 C 
BRANCH   8   9
ATOM      9  C   LIG d   1      -1.583  88.721 119.361  0.00  0.00     0.028 C 
ATOM     10  C   LIG d   1      -2.179  87.326 119.612  0.00  0.00     0.006 C 
ENDBRANCH   8   9
BRANCH   8  11
ATOM     11  C   LIG d   1       0.439  89.157 118.061  0.00  0.00     0.028 C 
ATOM     12  C   LIG d   1       0.924  90.311 117.168  0.00  0.00     0.006 C 
ENDBRANCH   8  11
ENDBRANCH   7   8
ENDBRANCH   1   7
BRANCH   6  13
ATOM     13  N   LIG d   1      -1.281  92.285 119.273  0.00  0.00    -0.311 N 
ATOM     14  C   LIG d   1      -0.291  93.163 119.120  0.00  0.00     0.210 C 
ATOM     15  C   LIG d   1       0.793  93.110 120.201  0.00  0.00     0.109 C 
ATOM     16  O   LIG d   1      -0.225  94.004 118.210  0.00  0.00    -0.276 OA
ATOM     17  H   LIG d   1      -1.271  91.663 120.057  0.00  0.00     0.149 HD
ENDBRANCH   6  13
BRANCH   5  18
ATOM     18  N   LIG d   1      -3.423  94.419 118.832  0.00  0.00     0.381 N 
ATOM     19  H   LIG d   1      -3.349  94.779 117.902  0.00  0.00    -0.090 HD
ATOM     20  H   LIG d   1      -2.555  94.592 119.307  0.00  0.00    -0.090 HD
ATOM     21  H   LIG d   1      -4.170  94.870 119.313  0.00  0.00    -0.090 HD
ENDBRANCH   5  18
BRANCH   3  22
ATOM     22  C   LIG d   1      -6.340  90.957 117.267  0.00  0.00     0.382 C 
ATOM     23  O   LIG d   1      -7.312  91.476 117.867  0.00  0.00    -0.241 OA
ATOM     24  O   LIG d   1      -6.544  90.058 116.430  0.00  0.00    -0.241 OA
ENDBRANCH   3  22
TORSDOF 7
ENDMDL
MODEL 4
REMARK VINA RESULT:      -4.5      2.440      5.705
REMARK  7 active torsions:
REMARK  status: ('A' for Active; 'I' for Inactive)
REMARK    1  A    between atoms: C_2  and  C_3 
REMARK    2  A    between atoms: C_3  and  O_6 
REMARK    3  A    between atoms: C_3  and  C_4 
REMARK    4  A    between atoms: C_7  and  O_6 
REMARK    5  A    between atoms: C_9  and  C_10 
REMARK    6  A    between atoms: N_15  and  C_14 
REMARK    7  A    between atoms: N_20  and  C_19 
REMARK       I    between atoms: C_22  and  N_20 
ROOT
ATOM      1  C   LIG d   1      -3.117  92.706 117.914  0.00  0.00     0.161 C 
ATOM      2  C   LIG d   1      -4.509  92.525 117.954  0.00  0.00     0.016 C 
ATOM      3  C   LIG d   1      -5.130  91.256 117.926  0.00  0.00     0.038 C 
ATOM      4  C   LIG d   1      -4.391  90.067 118.009  0.00  0.00     0.028 C 
ATOM      5  C   LIG d   1      -2.973  90.195 117.461  0.00  0.00    -0.047 C 
ATOM      6  C   LIG d   1      -2.292  91.418 118.116  0.00  0.00     0.091 C 
ENDROOT
BRANCH   1   7
ATOM      7  O   LIG d   1      -2.726  93.708 118.874  0.00  0.00    -0.368 OA
BRANCH   7   8
ATOM      8  C   LIG d   1      -2.833  93.329 120.269  0.00  0.00     0.119 C 
BRANCH   8   9
ATOM      9  C   LIG d   1      -3.797  94.322 120.945  0.00  0.00     0.028 C 
ATOM     10  C   LIG d   1      -3.952  95.627 120.146  0.00  0.00     0.006 C 
ENDBRANCH   8   9
BRANCH   8  11
ATOM     11  C   LIG d   1      -1.496  93.502 120.996  0.00  0.00     0.028 C 
ATOM     12  C   LIG d   1      -0.445  94.232 120.146  0.00  0.00     0.006 C 
ENDBRANCH   8  11
ENDBRANCH   7   8
ENDBRANCH   1   7
BRANCH   6  13
ATOM     13  N   LIG d   1      -0.930  91.666 117.574  0.00  0.00    -0.311 N 
ATOM     14  C   LIG d   1       0.183  91.222 118.156  0.00  0.00     0.210 C 
ATOM     15  C   LIG d   1       1.483  91.607 117.442  0.00  0.00     0.109 C 
ATOM     16  O   LIG d   1       0.215  90.519 119.177  0.00  0.00    -0.276 OA
ATOM     17  H   LIG d   1      -0.866  92.202 116.731  0.00  0.00     0.149 HD
ENDBRANCH   6  13
BRANCH   5  18
ATOM     18  N   LIG d   1      -2.273  88.927 117.735  0.00  0.00     0.381 N 
ATOM     19  H   LIG d   1      -1.298  89.102 117.880  0.00  0.00    -0.090 HD
ATOM     20  H   LIG d   1      -2.370  88.323 116.938  0.00  0.00    -0.090 HD
ATOM     21  H   LIG d   1      -2.662  88.490 118.542  0.00  0.00    -0.090 HD
ENDBRANCH   5  18
BRANCH   3  22
ATOM     22  C   LIG d   1      -6.506  91.166 117.773  0.00  0.00     0.382 C 
ATOM     23  O   LIG d   1      -7.261  91.900 118.456  0.00  0.00    -0.241 OA
ATOM     24  O   LIG d   1      -7.002  90.331 116.994  0.00  0.00    -0.241 OA
ENDBRANCH   3  22
TORSDOF 7
ENDMDL
MODEL 5
REMARK VINA RESULT:      -4.5      2.574      4.340
REMARK  7 active torsions:
REMARK  status: ('A' for Active; 'I' for Inactive)
REMARK    1  A    between atoms: C_2  and  C_3 
REMARK    2  A    between atoms: C_3  and  O_6 
REMARK    3  A    between atoms: C_3  and  C_4 
REMARK    4  A    between atoms: C_7  and  O_6 
REMARK    5  A    between atoms: C_9  and  C_10 
REMARK    6  A    between atoms: N_15  and  C_14 
REMARK    7  A    between atoms: N_20  and  C_19 
REMARK       I    between atoms: C_22  and  N_20 
ROOT
ATOM      1  C   LIG d   1      -0.025  90.719 117.100  0.00  0.00     0.161 C 
ATOM      2  C   LIG d   1       1.371  90.668 117.247  0.00  0.00     0.016 C 
ATOM      3  C   LIG d   1       2.109  91.610 118.000  0.00  0.00     0.038 C 
ATOM      4  C   LIG d   1       1.480  92.587 118.786  0.00  0.00     0.028 C 
ATOM      5  C   LIG d   1       0.104  92.988 118.268  0.00  0.00    -0.047 C 
ATOM      6  C   LIG d   1      -0.739  91.712 118.041  0.00  0.00     0.091 C 
ENDROOT
BRANCH   1   7
ATOM      7  O   LIG d   1      -0.581  89.397 117.252  0.00  0.00    -0.368 OA
BRANCH   7   8
ATOM      8  C   LIG d   1      -1.045  89.050 118.580  0.00  0.00     0.119 C 
BRANCH   8   9
ATOM      9  C   LIG d   1      -0.159  87.898 119.093  0.00  0.00     0.028 C 
ATOM     10  C   LIG d   1       0.891  88.375 120.111  0.00  0.00     0.006 C 
ENDBRANCH   8   9
BRANCH   8  11
ATOM     11  C   LIG d   1      -2.467  88.481 118.542  0.00  0.00     0.028 C 
ATOM     12  C   LIG d   1      -2.838  87.718 119.823  0.00  0.00     0.006 C 
ENDBRANCH   8  11
ENDBRANCH   7   8
ENDBRANCH   1   7
BRANCH   6  13
ATOM     13  N   LIG d   1      -2.072  92.009 117.455  0.00  0.00    -0.311 N 
ATOM     14  C   LIG d   1      -3.184  92.114 118.179  0.00  0.00     0.210 C 
ATOM     15  C   LIG d   1      -4.455  92.405 117.374  0.00  0.00     0.109 C 
ATOM     16  O   LIG d   1      -3.235  92.025 119.415  0.00  0.00    -0.276 OA
ATOM     17  H   LIG d   1      -2.117  92.127 116.462  0.00  0.00     0.149 HD
ENDBRANCH   6  13
BRANCH   5  18
ATOM     18  N   LIG d   1      -0.494  93.908 119.255  0.00  0.00     0.381 N 
ATOM     19  H   LIG d   1      -1.026  94.611 118.783  0.00  0.00    -0.090 HD
ATOM     20  H   LIG d   1       0.244  94.360 119.765  0.00  0.00    -0.090 HD
ATOM     21  H   LIG d   1      -1.080  93.401 119.881  0.00  0.00    -0.090 HD
ENDBRANCH   5  18
BRANCH   3  22
ATOM     22  C   LIG d   1       3.494  91.605 117.939  0.00  0.00     0.382 C 
ATOM     23  O   LIG d   1       4.135  90.598 118.327  0.00  0.00    -0.241 OA
ATOM     24  O   LIG d   1       4.113  92.611 117.542  0.00  0.00    -0.241 OA
ENDBRANCH   3  22
TORSDOF 7
ENDMDL
MODEL 6
REMARK VINA RESULT:      -4.3      2.579      4.898
REMARK  7 active torsions:
REMARK  status: ('A' for Active; 'I' for Inactive)
REMARK    1  A    between atoms: C_2  and  C_3 
REMARK    2  A    between atoms: C_3  and  O_6 
REMARK    3  A    between atoms: C_3  and  C_4 
REMARK    4  A    between atoms: C_7  and  O_6 
REMARK    5  A    between atoms: C_9  and  C_10 
REMARK    6  A    between atoms: N_15  and  C_14 
REMARK    7  A    between atoms: N_20  and  C_19 
REMARK       I    between atoms: C_22  and  N_20 
ROOT
ATOM      1  C   LIG d   1      -4.986  93.010 119.730  0.00  0.00     0.161 C 
ATOM      2  C   LIG d   1      -5.075  91.937 118.828  0.00  0.00     0.016 C 
ATOM      3  C   LIG d   1      -5.949  91.924 117.717  0.00  0.00     0.038 C 
ATOM      4  C   LIG d   1      -6.690  93.055 117.344  0.00  0.00     0.028 C 
ATOM      5  C   LIG d   1      -7.012  93.981 118.512  0.00  0.00    -0.047 C 
ATOM      6  C   LIG d   1      -5.706  94.298 119.276  0.00  0.00     0.091 C 
ENDROOT
BRANCH   1   7
ATOM      7  O   LIG d   1      -3.603  93.287 120.025  0.00  0.00    -0.368 OA
BRANCH   7   8
ATOM      8  C   LIG d   1      -2.901  94.118 119.068  0.00  0.00     0.119 C 
BRANCH   8   9
ATOM      9  C   LIG d   1      -1.765  93.270 118.464  0.00  0.00     0.028 C 
ATOM     10  C   LIG d   1      -0.543  94.118 118.073  0.00  0.00     0.006 C 
ENDBRANCH   8   9
BRANCH   8  11
ATOM     11  C   LIG d   1      -2.205  95.296 119.758  0.00  0.00     0.028 C 
ATOM     12  C   LIG d   1      -2.336  95.252 121.288  0.00  0.00     0.006 C 
ENDBRANCH   8  11
ENDBRANCH   7   8
ENDBRANCH   1   7
BRANCH   6  13
ATOM     13  N   LIG d   1      -5.943  95.131 120.483  0.00  0.00    -0.311 N 
ATOM     14  C   LIG d   1      -5.813  96.456 120.497  0.00  0.00     0.210 C 
ATOM     15  C   LIG d   1      -6.085  97.119 121.851  0.00  0.00     0.109 C 
ATOM     16  O   LIG d   1      -5.529  97.149 119.508  0.00  0.00    -0.276 OA
ATOM     17  H   LIG d   1      -6.207  94.653 121.323  0.00  0.00     0.149 HD
ENDBRANCH   6  13
BRANCH   5  18
ATOM     18  N   LIG d   1      -7.665  95.183 117.961  0.00  0.00     0.381 N 
ATOM     19  H   LIG d   1      -8.228  95.616 118.665  0.00  0.00    -0.090 HD
ATOM     20  H   LIG d   1      -8.264  94.909 117.202  0.00  0.00    -0.090 HD
ATOM     21  H   LIG d   1      -6.977  95.826 117.634  0.00  0.00    -0.090 HD
ENDBRANCH   5  18
BRANCH   3  22
ATOM     22  C   LIG d   1      -6.119  90.756 116.990  0.00  0.00     0.382 C 
ATOM     23  O   LIG d   1      -5.133  90.216 116.431  0.00  0.00    -0.241 OA
ATOM     24  O   LIG d   1      -7.252  90.259 116.848  0.00  0.00    -0.241 OA
ENDBRANCH   3  22
TORSDOF 7
ENDMDL
MODEL 7
REMARK VINA RESULT:      -4.2      2.394      4.237
REMARK  7 active torsions:
REMARK  status: ('A' for Active; 'I' for Inactive)
REMARK    1  A    between atoms: C_2  and  C_3 
REMARK    2  A    between atoms: C_3  and  O_6 
REMARK    3  A    between atoms: C_3  and  C_4 
REMARK    4  A    between atoms: C_7  and  O_6 
REMARK    5  A    between atoms: C_9  and  C_10 
REMARK    6  A    between atoms: N_15  and  C_14 
REMARK    7  A    between atoms: N_20  and  C_19 
REMARK       I    between atoms: C_22  and  N_20 
ROOT
ATOM      1  C   LIG d   1      -4.637  92.808 119.898  0.00  0.00     0.161 C 
ATOM      2  C   LIG d   1      -3.718  91.882 119.380  0.00  0.00     0.016 C 
ATOM      3  C   LIG d   1      -3.859  91.271 118.112  0.00  0.00     0.038 C 
ATOM      4  C   LIG d   1      -4.857  91.663 117.208  0.00  0.00     0.028 C 
ATOM      5  C   LIG d   1      -6.101  92.228 117.886  0.00  0.00    -0.047 C 
ATOM      6  C   LIG d   1      -5.673  93.331 118.881  0.00  0.00     0.091 C 
ENDROOT
BRANCH   1   7
ATOM      7  O   LIG d   1      -3.932  93.909 120.506  0.00  0.00    -0.368 OA
BRANCH   7   8
ATOM      8  C   LIG d   1      -3.534  94.980 119.615  0.00  0.00     0.119 C 
BRANCH   8   9
ATOM      9  C   LIG d   1      -1.994  95.035 119.617  0.00  0.00     0.028 C 
ATOM     10  C   LIG d   1      -1.391  94.660 118.252  0.00  0.00     0.006 C 
ENDBRANCH   8   9
BRANCH   8  11
ATOM     11  C   LIG d   1      -3.989  96.343 120.144  0.00  0.00     0.028 C 
ATOM     12  C   LIG d   1      -4.705  96.247 121.500  0.00  0.00     0.006 C 
ENDBRANCH   8  11
ENDBRANCH   7   8
ENDBRANCH   1   7
BRANCH   6  13
ATOM     13  N   LIG d   1      -6.821  93.879 119.648  0.00  0.00    -0.311 N 
ATOM     14  C   LIG d   1      -7.476  94.984 119.299  0.00  0.00     0.210 C 
ATOM     15  C   LIG d   1      -8.617  95.385 120.240  0.00  0.00     0.109 C 
ATOM     16  O   LIG d   1      -7.242  95.653 118.281  0.00  0.00    -0.276 OA
ATOM     17  H   LIG d   1      -7.099  93.381 120.471  0.00  0.00     0.149 HD
ENDBRANCH   6  13
BRANCH   5  18
ATOM     18  N   LIG d   1      -7.000  92.722 116.826  0.00  0.00     0.381 N 
ATOM     19  H   LIG d   1      -6.627  93.561 116.429  0.00  0.00    -0.090 HD
ATOM     20  H   LIG d   1      -7.894  92.936 117.233  0.00  0.00    -0.090 HD
ATOM     21  H   LIG d   1      -7.106  92.029 116.118  0.00  0.00    -0.090 HD
ENDBRANCH   5  18
BRANCH   3  22
ATOM     22  C   LIG d   1      -3.018  90.228 117.755  0.00  0.00     0.382 C 
ATOM     23  O   LIG d   1      -1.859  90.472 117.341  0.00  0.00    -0.241 OA
ATOM     24  O   LIG d   1      -3.419  89.050 117.798  0.00  0.00    -0.241 OA
ENDBRANCH   3  22
TORSDOF 7
ENDMDL
MODEL 8
REMARK VINA RESULT:      -4.2      2.423      4.647
REMARK  7 active torsions:
REMARK  status: ('A' for Active; 'I' for Inactive)
REMARK    1  A    between atoms: C_2  and  C_3 
REMARK    2  A    between atoms: C_3  and  O_6 
REMARK    3  A    between atoms: C_3  and  C_4 
REMARK    4  A    between atoms: C_7  and  O_6 
REMARK    5  A    between atoms: C_9  and  C_10 
REMARK    6  A    between atoms: N_15  and  C_14 
REMARK    7  A    between atoms: N_20  and  C_19 
REMARK       I    between atoms: C_22  and  N_20 
ROOT
ATOM      1  C   LIG d   1      -4.342  92.758 119.434  0.00  0.00     0.161 C 
ATOM      2  C   LIG d   1      -3.398  91.831 118.963  0.00  0.00     0.016 C 
ATOM      3  C   LIG d   1      -3.718  90.774 118.080  0.00  0.00     0.038 C 
ATOM      4  C   LIG d   1      -4.984  90.663 117.485  0.00  0.00     0.028 C 
ATOM      5  C   LIG d   1      -6.102  91.277 118.321  0.00  0.00    -0.047 C 
ATOM      6  C   LIG d   1      -5.704  92.719 118.709  0.00  0.00     0.091 C 
ENDROOT
BRANCH   1   7
ATOM      7  O   LIG d   1      -3.787  94.088 119.386  0.00  0.00    -0.368 OA
BRANCH   7   8
ATOM      8  C   LIG d   1      -2.370  94.197 119.669  0.00  0.00     0.119 C 
BRANCH   8   9
ATOM      9  C   LIG d   1      -2.224  94.897 121.034  0.00  0.00     0.028 C 
ATOM     10  C   LIG d   1      -2.129  96.426 120.902  0.00  0.00     0.006 C 
ENDBRANCH   8   9
BRANCH   8  11
ATOM     11  C   LIG d   1      -1.671  95.117 118.664  0.00  0.00     0.028 C 
ATOM     12  C   LIG d   1      -0.956  94.344 117.545  0.00  0.00     0.006 C 
ENDBRANCH   8  11
ENDBRANCH   7   8
ENDBRANCH   1   7
BRANCH   6  13
ATOM     13  N   LIG d   1      -6.705  93.364 119.598  0.00  0.00    -0.311 N 
ATOM     14  C   LIG d   1      -7.288  94.529 119.322  0.00  0.00     0.210 C 
ATOM     15  C   LIG d   1      -8.276  95.026 120.382  0.00  0.00     0.109 C 
ATOM     16  O   LIG d   1      -7.105  95.183 118.284  0.00  0.00    -0.276 OA
ATOM     17  H   LIG d   1      -6.936  92.886 120.447  0.00  0.00     0.149 HD
ENDBRANCH   6  13
BRANCH   5  18
ATOM     18  N   LIG d   1      -7.341  91.214 117.523  0.00  0.00     0.381 N 
ATOM     19  H   LIG d   1      -7.882  92.043 117.671  0.00  0.00    -0.090 HD
ATOM     20  H   LIG d   1      -7.884  90.425 117.827  0.00  0.00    -0.090 HD
ATOM     21  H   LIG d   1      -7.120  91.122 116.556  0.00  0.00    -0.090 HD
ENDBRANCH   5  18
BRANCH   3  22
ATOM     22  C   LIG d   1      -2.778  89.790 117.815  0.00  0.00     0.382 C 
ATOM     23  O   LIG d   1      -3.019  88.596 118.113  0.00  0.00    -0.241 OA
ATOM     24  O   LIG d   1      -1.673  90.089 117.323  0.00  0.00    -0.241 OA
ENDBRANCH   3  22
TORSDOF 7
ENDMDL
MODEL 9
REMARK VINA RESULT:      -4.2      1.761      2.501
REMARK  7 active torsions:
REMARK  status: ('A' for Active; 'I' for Inactive)
REMARK    1  A    between atoms: C_2  and  C_3 
REMARK    2  A    between atoms: C_3  and  O_6 
REMARK    3  A    between atoms: C_3  and  C_4 
REMARK    4  A    between atoms: C_7  and  O_6 
REMARK    5  A    between atoms: C_9  and  C_10 
REMARK    6  A    between atoms: N_15  and  C_14 
REMARK    7  A    between atoms: N_20  and  C_19 
REMARK       I    between atoms: C_22  and  N_20 
ROOT
ATOM      1  C   LIG d   1      -2.366  92.017 118.560  0.00  0.00     0.161 C 
ATOM      2  C   LIG d   1      -0.983  91.786 118.656  0.00  0.00     0.016 C 
ATOM      3  C   LIG d   1      -0.039  92.809 118.903  0.00  0.00     0.038 C 
ATOM      4  C   LIG d   1      -0.430  94.117 119.224  0.00  0.00     0.028 C 
ATOM      5  C   LIG d   1      -1.786  94.504 118.642  0.00  0.00    -0.047 C 
ATOM      6  C   LIG d   1      -2.820  93.419 119.017  0.00  0.00     0.091 C 
ENDROOT
BRANCH   1   7
ATOM      7  O   LIG d   1      -3.083  90.997 119.283  0.00  0.00    -0.368 OA
BRANCH   7   8
ATOM      8  C   LIG d   1      -3.787  90.020 118.478  0.00  0.00     0.119 C 
BRANCH   8   9
ATOM      9  C   LIG d   1      -2.902  88.761 118.399  0.00  0.00     0.028 C 
ATOM     10  C   LIG d   1      -2.951  87.928 119.691  0.00  0.00     0.006 C 
ENDBRANCH   8   9
BRANCH   8  11
ATOM     11  C   LIG d   1      -3.941  90.498 117.031  0.00  0.00     0.028 C 
ATOM     12  C   LIG d   1      -5.407  90.735 116.635  0.00  0.00     0.006 C 
ENDBRANCH   8  11
ENDBRANCH   7   8
ENDBRANCH   1   7
BRANCH   6  13
ATOM     13  N   LIG d   1      -4.155  93.677 118.417  0.00  0.00    -0.311 N 
ATOM     14  C   LIG d   1      -5.288  93.673 119.118  0.00  0.00     0.210 C 
ATOM     15  C   LIG d   1      -6.555  93.943 118.300  0.00  0.00     0.109 C 
ATOM     16  O   LIG d   1      -5.360  93.504 120.344  0.00  0.00    -0.276 OA
ATOM     17  H   LIG d   1      -4.186  93.854 117.432  0.00  0.00     0.149 HD
ENDBRANCH   6  13
BRANCH   5  18
ATOM     18  N   LIG d   1      -2.131  95.839 119.167  0.00  0.00     0.381 N 
ATOM     19  H   LIG d   1      -1.760  96.546 118.565  0.00  0.00    -0.090 HD
ATOM     20  H   LIG d   1      -1.716  95.948 120.076  0.00  0.00    -0.090 HD
ATOM     21  H   LIG d   1      -3.121  95.934 119.233  0.00  0.00    -0.090 HD
ENDBRANCH   5  18
BRANCH   3  22
ATOM     22  C   LIG d   1       1.316  92.535 118.792  0.00  0.00     0.382 C 
ATOM     23  O   LIG d   1       2.054  92.598 119.804  0.00  0.00    -0.241 OA
ATOM     24  O   LIG d   1       1.817  92.269 117.683  0.00  0.00    -0.241 OA
ENDBRANCH   3  22
TORSDOF 7
ENDMDL
