MODEL 1
REMARK VINA RESULT:      -4.6      0.000      0.000
REMARK  7 active torsions:
REMARK  status: ('A' for Active; 'I' for Inactive)
REMARK    1  A    between atoms: C_2  and  C_3 
REMARK    2  A    between atoms: C_3  and  O_6 
REMARK    3  A    between atoms: C_3  and  C_4 
REMARK    4  A    between atoms: C_7  and  O_6 
REMARK    5  A    between atoms: C_9  and  C_10 
REMARK    6  A    between atoms: N_15  and  C_14 
REMARK    7  A    between atoms: N_20  and  C_19 
REMARK       I    between atoms: C_22  and  N_20 
ROOT
ATOM      1  C   LIG d   1      -2.872  91.046 118.690  0.00  0.00     0.161 C 
ATOM      2  C   LIG d   1      -3.823  90.737 117.703  0.00  0.00     0.016 C 
ATOM      3  C   LIG d   1      -5.151  91.220 117.724  0.00  0.00     0.038 C 
ATOM      4  C   LIG d   1      -5.578  92.175 118.659  0.00  0.00     0.028 C 
ATOM      5  C   LIG d   1      -4.800  92.129 119.970  0.00  0.00    -0.047 C 
ATOM      6  C   LIG d   1      -3.287  92.174 119.657  0.00  0.00     0.091 C 
ENDROOT
BRANCH   1   7
ATOM      7  O   LIG d   1      -1.608  91.356 118.070  0.00  0.00    -0.368 OA
BRANCH   7   8
ATOM      8  C   LIG d   1      -0.575  90.347 118.188  0.00  0.00     0.119 C 
BRANCH   8   9
ATOM      9  C   LIG d   1       0.607  90.981 118.945  0.00  0.00     0.028 C 
ATOM     10  C   LIG d   1       1.346  92.035 118.104  0.00  0.00     0.006 C 
ENDBRANCH   8   9
BRANCH   8  11
ATOM     11  C   LIG d   1      -0.016  89.959 116.815  0.00  0.00     0.028 C 
ATOM     12  C   LIG d   1       0.647  88.573 116.812  0.00  0.00     0.006 C 
ENDBRANCH   8  11
ENDBRANCH   7   8
ENDBRANCH   1   7
BRANCH   6  13
ATOM     13  N   LIG d   1      -2.451  92.049 120.879  0.00  0.00    -0.311 N 
ATOM     14  C   LIG d   1      -1.546  92.954 121.245  0.00  0.00     0.210 C 
ATOM     15  C   LIG d   1      -0.779  92.621 122.529  0.00  0.00     0.109 C 
ATOM     16  O   LIG d   1      -1.327  94.018 120.645  0.00  0.00    -0.276 OA
ATOM     17  H   LIG d   1      -2.585  91.231 121.442  0.00  0.00     0.149 HD
ENDBRANCH   6  13
BRANCH   5  18
ATOM     18  N   LIG d   1      -5.253  93.263 120.797  0.00  0.00     0.381 N 
ATOM     19  H   LIG d   1      -4.498  93.904 120.936  0.00  0.00    -0.090 HD
ATOM     20  H   LIG d   1      -5.541  92.915 121.695  0.00  0.00    -0.090 HD
ATOM     21  H   LIG d   1      -6.015  93.726 120.353  0.00  0.00    -0.090 HD
ENDBRANCH   5  18
BRANCH   3  22
ATOM     22  C   LIG d   1      -6.080  90.718 116.825  0.00  0.00     0.382 C 
ATOM     23  O   LIG d   1      -7.031  91.438 116.438  0.00  0.00    -0.241 OA
ATOM     24  O   LIG d   1      -6.003  89.539 116.430  0.00  0.00    -0.241 OA
ENDBRANCH   3  22
TORSDOF 7
ENDMDL
MODEL 2
REMARK VINA RESULT:      -4.6      2.310      4.408
REMARK  7 active torsions:
REMARK  status: ('A' for Active; 'I' for Inactive)
REMARK    1  A    between atoms: C_2  and  C_3 
REMARK    2  A    between atoms: C_3  and  O_6 
REMARK    3  A    between atoms: C_3  and  C_4 
REMARK    4  A    between atoms: C_7  and  O_6 
REMARK    5  A    between atoms: C_9  and  C_10 
REMARK    6  A    between atoms: N_15  and  C_14 
REMARK    7  A    between atoms: N_20  and  C_19 
REMARK       I    between atoms: C_22  and  N_20 
ROOT
ATOM      1  C   LIG d   1      -3.959  91.386 120.215  0.00  0.00     0.161 C 
ATOM      2  C   LIG d   1      -3.125  90.666 119.343  0.00  0.00     0.016 C 
ATOM      3  C   LIG d   1      -3.428  90.450 117.978  0.00  0.00     0.038 C 
ATOM      4  C   LIG d   1      -4.518  91.073 117.353  0.00  0.00     0.028 C 
ATOM      5  C   LIG d   1      -5.661  91.396 118.309  0.00  0.00    -0.047 C 
ATOM      6  C   LIG d   1      -5.097  92.166 119.525  0.00  0.00     0.091 C 
ENDROOT
BRANCH   1   7
ATOM      7  O   LIG d   1      -3.165  92.272 121.029  0.00  0.00    -0.368 OA
BRANCH   7   8
ATOM      8  C   LIG d   1      -2.536  93.379 120.338  0.00  0.00     0.119 C 
BRANCH   8   9
ATOM      9  C   LIG d   1      -1.026  93.316 120.643  0.00  0.00     0.028 C 
ATOM     10  C   LIG d   1      -0.215  92.736 119.472  0.00  0.00     0.006 C 
ENDBRANCH   8   9
BRANCH   8  11
ATOM     11  C   LIG d   1      -3.007  94.725 120.898  0.00  0.00     0.028 C 
ATOM     12  C   LIG d   1      -3.571  95.656 119.813  0.00  0.00     0.006 C 
ENDBRANCH   8  11
ENDBRANCH   7   8
ENDBRANCH   1   7
BRANCH   6  13
ATOM     13  N   LIG d   1      -6.136  92.447 120.550  0.00  0.00    -0.311 N 
ATOM     14  C   LIG d   1      -6.857  93.567 120.575  0.00  0.00     0.210 C 
ATOM     15  C   LIG d   1      -7.860  93.664 121.729  0.00  0.00     0.109 C 
ATOM     16  O   LIG d   1      -6.785  94.474 119.732  0.00  0.00    -0.276 OA
ATOM     17  H   LIG d   1      -6.282  91.751 121.254  0.00  0.00     0.149 HD
ENDBRANCH   6  13
BRANCH   5  18
ATOM     18  N   LIG d   1      -6.670  92.164 117.555  0.00  0.00     0.381 N 
ATOM     19  H   LIG d   1      -6.233  92.636 116.789  0.00  0.00    -0.090 HD
ATOM     20  H   LIG d   1      -7.073  92.855 118.163  0.00  0.00    -0.090 HD
ATOM     21  H   LIG d   1      -7.381  91.553 117.217  0.00  0.00    -0.090 HD
ENDBRANCH   5  18
BRANCH   3  22
ATOM     22  C   LIG d   1      -2.656  89.571 117.234  0.00  0.00     0.382 C 
ATOM     23  O   LIG d   1      -3.206  88.780 116.430  0.00  0.00    -0.241 OA
ATOM     24  O   LIG d   1      -1.421  89.528 117.389  0.00  0.00    -0.241 OA
ENDBRANCH   3  22
TORSDOF 7
ENDMDL
MODEL 3
REMARK VINA RESULT:      -4.5      2.508      3.973
REMARK  7 active torsions:
REMARK  status: ('A' for Active; 'I' for Inactive)
REMARK    1  A    between atoms: C_2  and  C_3 
REMARK    2  A    between atoms: C_3  and  O_6 
REMARK    3  A    between atoms: C_3  and  C_4 
REMARK    4  A    between atoms: C_7  and  O_6 
REMARK    5  A    between atoms: C_9  and  C_10 
REMARK    6  A    between atoms: N_15  and  C_14 
REMARK    7  A    between atoms: N_20  and  C_19 
REMARK       I    between atoms: C_22  and  N_20 
ROOT
ATOM      1  C   LIG d   1      -5.225  92.729 119.840  0.00  0.00     0.161 C 
ATOM      2  C   LIG d   1      -6.536  93.030 119.434  0.00  0.00     0.016 C 
ATOM      3  C   LIG d   1      -7.257  94.152 119.904  0.00  0.00     0.038 C 
ATOM      4  C   LIG d   1      -6.658  95.139 120.700  0.00  0.00     0.028 C 
ATOM      5  C   LIG d   1      -5.498  94.617 121.541  0.00  0.00    -0.047 C 
ATOM      6  C   LIG d   1      -4.515  93.854 120.622  0.00  0.00     0.091 C 
ENDROOT
BRANCH   1   7
ATOM      7  O   LIG d   1      -4.437  92.340 118.697  0.00  0.00    -0.368 OA
BRANCH   7   8
ATOM      8  C   LIG d   1      -4.379  90.919 118.418  0.00  0.00     0.119 C 
BRANCH   8   9
ATOM      9  C   LIG d   1      -2.925  90.462 118.645  0.00  0.00     0.028 C 
ATOM     10  C   LIG d   1      -2.742  89.735 119.988  0.00  0.00     0.006 C 
ENDBRANCH   8   9
BRANCH   8  11
ATOM     11  C   LIG d   1      -4.669  90.630 116.942  0.00  0.00     0.028 C 
ATOM     12  C   LIG d   1      -6.154  90.795 116.583  0.00  0.00     0.006 C 
ENDBRANCH   8  11
ENDBRANCH   7   8
ENDBRANCH   1   7
BRANCH   6  13
ATOM     13  N   LIG d   1      -3.394  93.239 121.378  0.00  0.00    -0.311 N 
ATOM     14  C   LIG d   1      -2.119  93.329 121.002  0.00  0.00     0.210 C 
ATOM     15  C   LIG d   1      -1.123  92.605 121.913  0.00  0.00     0.109 C 
ATOM     16  O   LIG d   1      -1.716  93.968 120.018  0.00  0.00    -0.276 OA
ATOM     17  H   LIG d   1      -3.628  92.728 122.207  0.00  0.00     0.149 HD
ENDBRANCH   6  13
BRANCH   5  18
ATOM     18  N   LIG d   1      -4.879  95.774 122.214  0.00  0.00     0.381 N 
ATOM     19  H   LIG d   1      -5.484  96.568 122.148  0.00  0.00    -0.090 HD
ATOM     20  H   LIG d   1      -4.015  95.996 121.752  0.00  0.00    -0.090 HD
ATOM     21  H   LIG d   1      -4.706  95.559 123.172  0.00  0.00    -0.090 HD
ENDBRANCH   5  18
BRANCH   3  22
ATOM     22  C   LIG d   1      -8.607  94.273 119.608  0.00  0.00     0.382 C 
ATOM     23  O   LIG d   1      -9.459  93.682 120.314  0.00  0.00    -0.241 OA
ATOM     24  O   LIG d   1      -8.980  94.931 118.618  0.00  0.00    -0.241 OA
ENDBRANCH   3  22
TORSDOF 7
ENDMDL
MODEL 4
REMARK VINA RESULT:      -4.5      1.300      1.943
REMARK  7 active torsions:
REMARK  status: ('A' for Active; 'I' for Inactive)
REMARK    1  A    between atoms: C_2  and  C_3 
REMARK    2  A    between atoms: C_3  and  O_6 
REMARK    3  A    between atoms: C_3  and  C_4 
REMARK    4  A    between atoms: C_7  and  O_6 
REMARK    5  A    between atoms: C_9  and  C_10 
REMARK    6  A    between atoms: N_15  and  C_14 
REMARK    7  A    between atoms: N_20  and  C_19 
REMARK       I    between atoms: C_22  and  N_20 
ROOT
ATOM      1  C   LIG d   1      -2.819  90.118 119.523  0.00  0.00     0.161 C 
ATOM      2  C   LIG d   1      -3.673  90.136 118.408  0.00  0.00     0.016 C 
ATOM      3  C   LIG d   1      -4.759  91.031 118.273  0.00  0.00     0.038 C 
ATOM      4  C   LIG d   1      -4.975  92.077 119.183  0.00  0.00     0.028 C 
ATOM      5  C   LIG d   1      -4.445  91.781 120.582  0.00  0.00    -0.047 C 
ATOM      6  C   LIG d   1      -2.972  91.324 120.474  0.00  0.00     0.091 C 
ENDROOT
BRANCH   1   7
ATOM      7  O   LIG d   1      -1.450  89.992 119.090  0.00  0.00    -0.368 OA
BRANCH   7   8
ATOM      8  C   LIG d   1      -1.169  90.424 117.736  0.00  0.00     0.119 C 
BRANCH   8   9
ATOM      9  C   LIG d   1      -0.389  89.291 117.041  0.00  0.00     0.028 C 
ATOM     10  C   LIG d   1       1.096  89.638 116.840  0.00  0.00     0.006 C 
ENDBRANCH   8   9
BRANCH   8  11
ATOM     11  C   LIG d   1      -0.228  91.632 117.721  0.00  0.00     0.028 C 
ATOM     12  C   LIG d   1      -0.978  92.973 117.770  0.00  0.00     0.006 C 
ENDBRANCH   8  11
ENDBRANCH   7   8
ENDBRANCH   1   7
BRANCH   6  13
ATOM     13  N   LIG d   1      -2.402  90.934 121.790  0.00  0.00    -0.311 N 
ATOM     14  C   LIG d   1      -1.316  91.500 122.315  0.00  0.00     0.210 C 
ATOM     15  C   LIG d   1      -0.885  90.935 123.672  0.00  0.00     0.109 C 
ATOM     16  O   LIG d   1      -0.688  92.437 121.800  0.00  0.00    -0.276 OA
ATOM     17  H   LIG d   1      -2.867  90.202 122.290  0.00  0.00     0.149 HD
ENDBRANCH   6  13
BRANCH   5  18
ATOM     18  N   LIG d   1      -4.612  93.004 121.390  0.00  0.00     0.381 N 
ATOM     19  H   LIG d   1      -3.717  93.340 121.686  0.00  0.00    -0.090 HD
ATOM     20  H   LIG d   1      -5.152  92.782 122.208  0.00  0.00    -0.090 HD
ATOM     21  H   LIG d   1      -5.078  93.705 120.856  0.00  0.00    -0.090 HD
ENDBRANCH   5  18
BRANCH   3  22
ATOM     22  C   LIG d   1      -5.667  90.860 117.239  0.00  0.00     0.382 C 
ATOM     23  O   LIG d   1      -5.524  89.911 116.431  0.00  0.00    -0.241 OA
ATOM     24  O   LIG d   1      -6.601  91.668 117.078  0.00  0.00    -0.241 OA
ENDBRANCH   3  22
TORSDOF 7
ENDMDL
MODEL 5
REMARK VINA RESULT:      -4.4      2.467      5.586
REMARK  7 active torsions:
REMARK  status: ('A' for Active; 'I' for Inactive)
REMARK    1  A    between atoms: C_2  and  C_3 
REMARK    2  A    between atoms: C_3  and  O_6 
REMARK    3  A    between atoms: C_3  and  C_4 
REMARK    4  A    between atoms: C_7  and  O_6 
REMARK    5  A    between atoms: C_9  and  C_10 
REMARK    6  A    between atoms: N_15  and  C_14 
REMARK    7  A    between atoms: N_20  and  C_19 
REMARK       I    between atoms: C_22  and  N_20 
ROOT
ATOM      1  C   LIG d   1      -0.362  92.514 118.321  0.00  0.00     0.161 C 
ATOM      2  C   LIG d   1       0.758  92.195 117.536  0.00  0.00     0.016 C 
ATOM      3  C   LIG d   1       2.061  92.044 118.065  0.00  0.00     0.038 C 
ATOM      4  C   LIG d   1       2.306  92.053 119.446  0.00  0.00     0.028 C 
ATOM      5  C   LIG d   1       1.291  92.872 120.236  0.00  0.00    -0.047 C 
ATOM      6  C   LIG d   1      -0.134  92.418 119.844  0.00  0.00     0.091 C 
ENDROOT
BRANCH   1   7
ATOM      7  O   LIG d   1      -1.482  91.695 117.930  0.00  0.00    -0.368 OA
BRANCH   7   8
ATOM      8  C   LIG d   1      -1.458  90.321 118.390  0.00  0.00     0.119 C 
BRANCH   8   9
ATOM      9  C   LIG d   1      -1.271  89.422 117.152  0.00  0.00     0.028 C 
ATOM     10  C   LIG d   1       0.155  88.854 117.050  0.00  0.00     0.006 C 
ENDBRANCH   8   9
BRANCH   8  11
ATOM     11  C   LIG d   1      -2.806  89.910 118.989  0.00  0.00     0.028 C 
ATOM     12  C   LIG d   1      -3.887  90.990 118.820  0.00  0.00     0.006 C 
ENDBRANCH   8  11
ENDBRANCH   7   8
ENDBRANCH   1   7
BRANCH   6  13
ATOM     13  N   LIG d   1      -1.189  93.227 120.509  0.00  0.00    -0.311 N 
ATOM     14  C   LIG d   1      -1.985  92.750 121.464  0.00  0.00     0.210 C 
ATOM     15  C   LIG d   1      -3.019  93.745 122.001  0.00  0.00     0.109 C 
ATOM     16  O   LIG d   1      -1.912  91.607 121.940  0.00  0.00    -0.276 OA
ATOM     17  H   LIG d   1      -1.296  94.175 120.205  0.00  0.00     0.149 HD
ENDBRANCH   6  13
BRANCH   5  18
ATOM     18  N   LIG d   1       1.584  92.683 121.669  0.00  0.00     0.381 N 
ATOM     19  H   LIG d   1       2.218  93.391 121.982  0.00  0.00    -0.090 HD
ATOM     20  H   LIG d   1       2.024  91.788 121.796  0.00  0.00    -0.090 HD
ATOM     21  H   LIG d   1       0.741  92.724 122.198  0.00  0.00    -0.090 HD
ENDBRANCH   5  18
BRANCH   3  22
ATOM     22  C   LIG d   1       3.141  91.920 117.205  0.00  0.00     0.382 C 
ATOM     23  O   LIG d   1       3.902  92.899 117.009  0.00  0.00    -0.241 OA
ATOM     24  O   LIG d   1       3.339  90.857 116.588  0.00  0.00    -0.241 OA
ENDBRANCH   3  22
TORSDOF 7
ENDMDL
MODEL 6
REMARK VINA RESULT:      -4.4      2.883      4.466
REMARK  7 active torsions:
REMARK  status: ('A' for Active; 'I' for Inactive)
REMARK    1  A    between atoms: C_2  and  C_3 
REMARK    2  A    between atoms: C_3  and  O_6 
REMARK    3  A    between atoms: C_3  and  C_4 
REMARK    4  A    between atoms: C_7  and  O_6 
REMARK    5  A    between atoms: C_9  and  C_10 
REMARK    6  A    between atoms: N_15  and  C_14 
REMARK    7  A    between atoms: N_20  and  C_19 
REMARK       I    between atoms: C_22  and  N_20 
ROOT
ATOM      1  C   LIG d   1      -5.624  92.890 120.643  0.00  0.00     0.161 C 
ATOM      2  C   LIG d   1      -6.924  93.321 120.329  0.00  0.00     0.016 C 
ATOM      3  C   LIG d   1      -7.242  94.658 119.996  0.00  0.00     0.038 C 
ATOM      4  C   LIG d   1      -6.249  95.630 119.805  0.00  0.00     0.028 C 
ATOM      5  C   LIG d   1      -4.976  95.362 120.602  0.00  0.00    -0.047 C 
ATOM      6  C   LIG d   1      -4.511  93.912 120.331  0.00  0.00     0.091 C 
ENDROOT
BRANCH   1   7
ATOM      7  O   LIG d   1      -5.353  91.637 119.983  0.00  0.00    -0.368 OA
BRANCH   7   8
ATOM      8  C   LIG d   1      -4.776  91.727 118.657  0.00  0.00     0.119 C 
BRANCH   8   9
ATOM      9  C   LIG d   1      -5.897  91.426 117.644  0.00  0.00     0.028 C 
ATOM     10  C   LIG d   1      -5.393  90.627 116.430  0.00  0.00     0.006 C 
ENDBRANCH   8   9
BRANCH   8  11
ATOM     11  C   LIG d   1      -3.724  90.637 118.433  0.00  0.00     0.028 C 
ATOM     12  C   LIG d   1      -3.079  90.153 119.741  0.00  0.00     0.006 C 
ENDBRANCH   8  11
ENDBRANCH   7   8
ENDBRANCH   1   7
BRANCH   6  13
ATOM     13  N   LIG d   1      -3.320  93.539 121.137  0.00  0.00    -0.311 N 
ATOM     14  C   LIG d   1      -2.076  93.568 120.663  0.00  0.00     0.210 C 
ATOM     15  C   LIG d   1      -0.995  93.126 121.655  0.00  0.00     0.109 C 
ATOM     16  O   LIG d   1      -1.761  93.949 119.525  0.00  0.00    -0.276 OA
ATOM     17  H   LIG d   1      -3.481  93.248 122.082  0.00  0.00     0.149 HD
ENDBRANCH   6  13
BRANCH   5  18
ATOM     18  N   LIG d   1      -3.979  96.373 120.204  0.00  0.00     0.381 N 
ATOM     19  H   LIG d   1      -3.649  96.178 119.280  0.00  0.00    -0.090 HD
ATOM     20  H   LIG d   1      -3.198  96.325 120.834  0.00  0.00    -0.090 HD
ATOM     21  H   LIG d   1      -4.385  97.282 120.235  0.00  0.00    -0.090 HD
ENDBRANCH   5  18
BRANCH   3  22
ATOM     22  C   LIG d   1      -8.569  95.043 119.890  0.00  0.00     0.382 C 
ATOM     23  O   LIG d   1      -8.919  96.194 120.248  0.00  0.00    -0.241 OA
ATOM     24  O   LIG d   1      -9.429  94.240 119.482  0.00  0.00    -0.241 OA
ENDBRANCH   3  22
TORSDOF 7
ENDMDL
MODEL 7
REMARK VINA RESULT:      -4.4      2.982      4.989
REMARK  7 active torsions:
REMARK  status: ('A' for Active; 'I' for Inactive)
REMARK    1  A    between atoms: C_2  and  C_3 
REMARK    2  A    between atoms: C_3  and  O_6 
REMARK    3  A    between atoms: C_3  and  C_4 
REMARK    4  A    between atoms: C_7  and  O_6 
REMARK    5  A    between atoms: C_9  and  C_10 
REMARK    6  A    between atoms: N_15  and  C_14 
REMARK    7  A    between atoms: N_20  and  C_19 
REMARK       I    between atoms: C_22  and  N_20 
ROOT
ATOM      1  C   LIG d   1      -0.482  92.368 117.973  0.00  0.00     0.161 C 
ATOM      2  C   LIG d   1      -1.743  91.750 117.933  0.00  0.00     0.016 C 
ATOM      3  C   LIG d   1      -1.925  90.370 117.686  0.00  0.00     0.038 C 
ATOM      4  C   LIG d   1      -0.843  89.481 117.610  0.00  0.00     0.028 C 
ATOM      5  C   LIG d   1       0.450  90.139 117.141  0.00  0.00    -0.047 C 
ATOM      6  C   LIG d   1       0.715  91.395 118.003  0.00  0.00     0.091 C 
ENDROOT
BRANCH   1   7
ATOM      7  O   LIG d   1      -0.418  93.276 119.091  0.00  0.00    -0.368 OA
BRANCH   7   8
ATOM      8  C   LIG d   1      -0.622  92.690 120.400  0.00  0.00     0.119 C 
BRANCH   8   9
ATOM      9  C   LIG d   1      -1.526  93.648 121.200  0.00  0.00     0.028 C 
ATOM     10  C   LIG d   1      -2.715  94.162 120.370  0.00  0.00     0.006 C 
ENDBRANCH   8   9
BRANCH   8  11
ATOM     11  C   LIG d   1       0.689  92.617 121.188  0.00  0.00     0.028 C 
ATOM     12  C   LIG d   1       1.602  93.828 120.939  0.00  0.00     0.006 C 
ENDBRANCH   8  11
ENDBRANCH   7   8
ENDBRANCH   1   7
BRANCH   6  13
ATOM     13  N   LIG d   1       1.917  92.146 117.556  0.00  0.00    -0.311 N 
ATOM     14  C   LIG d   1       3.126  91.979 118.088  0.00  0.00     0.210 C 
ATOM     15  C   LIG d   1       4.223  92.868 117.494  0.00  0.00     0.109 C 
ATOM     16  O   LIG d   1       3.401  91.156 118.974  0.00  0.00    -0.276 OA
ATOM     17  H   LIG d   1       1.790  92.813 116.819  0.00  0.00     0.149 HD
ENDBRANCH   6  13
BRANCH   5  18
ATOM     18  N   LIG d   1       1.524  89.133 117.240  0.00  0.00     0.381 N 
ATOM     19  H   LIG d   1       1.214  88.267 116.847  0.00  0.00    -0.090 HD
ATOM     20  H   LIG d   1       1.738  88.980 118.210  0.00  0.00    -0.090 HD
ATOM     21  H   LIG d   1       2.336  89.453 116.760  0.00  0.00    -0.090 HD
ENDBRANCH   5  18
BRANCH   3  22
ATOM     22  C   LIG d   1      -3.202  89.873 117.471  0.00  0.00     0.382 C 
ATOM     23  O   LIG d   1      -4.123  90.142 118.280  0.00  0.00    -0.241 OA
ATOM     24  O   LIG d   1      -3.434  89.124 116.504  0.00  0.00    -0.241 OA
ENDBRANCH   3  22
TORSDOF 7
ENDMDL
MODEL 8
REMARK VINA RESULT:      -4.3      2.222      4.173
REMARK  7 active torsions:
REMARK  status: ('A' for Active; 'I' for Inactive)
REMARK    1  A    between atoms: C_2  and  C_3 
REMARK    2  A    between atoms: C_3  and  O_6 
REMARK    3  A    between atoms: C_3  and  C_4 
REMARK    4  A    between atoms: C_7  and  O_6 
REMARK    5  A    between atoms: C_9  and  C_10 
REMARK    6  A    between atoms: N_15  and  C_14 
REMARK    7  A    between atoms: N_20  and  C_19 
REMARK       I    between atoms: C_22  and  N_20 
ROOT
ATOM      1  C   LIG d   1      -2.892  92.102 119.438  0.00  0.00     0.161 C 
ATOM      2  C   LIG d   1      -4.193  91.891 118.953  0.00  0.00     0.016 C 
ATOM      3  C   LIG d   1      -4.497  90.989 117.907  0.00  0.00     0.038 C 
ATOM      4  C   LIG d   1      -3.533  90.120 117.374  0.00  0.00     0.028 C 
ATOM      5  C   LIG d   1      -2.109  90.655 117.483  0.00  0.00    -0.047 C 
ATOM      6  C   LIG d   1      -1.844  91.082 118.945  0.00  0.00     0.091 C 
ENDROOT
BRANCH   1   7
ATOM      7  O   LIG d   1      -2.909  92.146 120.878  0.00  0.00    -0.368 OA
BRANCH   7   8
ATOM      8  C   LIG d   1      -3.598  91.057 121.541  0.00  0.00     0.119 C 
BRANCH   8   9
ATOM      9  C   LIG d   1      -4.529  91.676 122.602  0.00  0.00     0.028 C 
ATOM     10  C   LIG d   1      -5.954  91.906 122.069  0.00  0.00     0.006 C 
ENDBRANCH   8   9
BRANCH   8  11
ATOM     11  C   LIG d   1      -2.621  90.175 122.325  0.00  0.00     0.028 C 
ATOM     12  C   LIG d   1      -2.413  88.797 121.677  0.00  0.00     0.006 C 
ENDBRANCH   8  11
ENDBRANCH   7   8
ENDBRANCH   1   7
BRANCH   6  13
ATOM     13  N   LIG d   1      -0.502  91.695 119.121  0.00  0.00    -0.311 N 
ATOM     14  C   LIG d   1       0.568  91.012 119.525  0.00  0.00     0.210 C 
ATOM     15  C   LIG d   1       1.850  91.840 119.661  0.00  0.00     0.109 C 
ATOM     16  O   LIG d   1       0.585  89.793 119.753  0.00  0.00    -0.276 OA
ATOM     17  H   LIG d   1      -0.419  92.674 118.928  0.00  0.00     0.149 HD
ENDBRANCH   6  13
BRANCH   5  18
ATOM     18  N   LIG d   1      -1.198  89.593 117.017  0.00  0.00     0.381 N 
ATOM     19  H   LIG d   1      -0.322  89.665 117.494  0.00  0.00    -0.090 HD
ATOM     20  H   LIG d   1      -1.032  89.716 116.033  0.00  0.00    -0.090 HD
ATOM     21  H   LIG d   1      -1.603  88.698 117.183  0.00  0.00    -0.090 HD
ENDBRANCH   5  18
BRANCH   3  22
ATOM     22  C   LIG d   1      -5.770  90.979 117.356  0.00  0.00     0.382 C 
ATOM     23  O   LIG d   1      -6.557  91.930 117.579  0.00  0.00    -0.241 OA
ATOM     24  O   LIG d   1      -6.156  90.010 116.675  0.00  0.00    -0.241 OA
ENDBRANCH   3  22
TORSDOF 7
ENDMDL
MODEL 9
REMARK VINA RESULT:      -4.2      2.630      6.336
REMARK  7 active torsions:
REMARK  status: ('A' for Active; 'I' for Inactive)
REMARK    1  A    between atoms: C_2  and  C_3 
REMARK    2  A    between atoms: C_3  and  O_6 
REMARK    3  A    between atoms: C_3  and  C_4 
REMARK    4  A    between atoms: C_7  and  O_6 
REMARK    5  A    between atoms: C_9  and  C_10 
REMARK    6  A    between atoms: N_15  and  C_14 
REMARK    7  A    between atoms: N_20  and  C_19 
REMARK       I    between atoms: C_22  and  N_20 
ROOT
ATOM      1  C   LIG d   1      -2.051  91.745 119.507  0.00  0.00     0.161 C 
ATOM      2  C   LIG d   1      -1.093  91.321 120.442  0.00  0.00     0.016 C 
ATOM      3  C   LIG d   1      -0.026  90.450 120.123  0.00  0.00     0.038 C 
ATOM      4  C   LIG d   1       0.245  90.062 118.803  0.00  0.00     0.028 C 
ATOM      5  C   LIG d   1      -0.990  90.058 117.908  0.00  0.00    -0.047 C 
ATOM      6  C   LIG d   1      -1.708  91.421 118.038  0.00  0.00     0.091 C 
ENDROOT
BRANCH   1   7
ATOM      7  O   LIG d   1      -2.296  93.156 119.664  0.00  0.00    -0.368 OA
BRANCH   7   8
ATOM      8  C   LIG d   1      -3.340  93.521 120.600  0.00  0.00     0.119 C 
BRANCH   8   9
ATOM      9  C   LIG d   1      -4.689  93.132 119.964  0.00  0.00     0.028 C 
ATOM     10  C   LIG d   1      -5.443  92.075 120.787  0.00  0.00     0.006 C 
ENDBRANCH   8   9
BRANCH   8  11
ATOM     11  C   LIG d   1      -3.407  95.039 120.796  0.00  0.00     0.028 C 
ATOM     12  C   LIG d   1      -4.562  95.690 120.018  0.00  0.00     0.006 C 
ENDBRANCH   8  11
ENDBRANCH   7   8
ENDBRANCH   1   7
BRANCH   6  13
ATOM     13  N   LIG d   1      -2.973  91.471 117.259  0.00  0.00    -0.311 N 
ATOM     14  C   LIG d   1      -3.961  90.590 117.407  0.00  0.00     0.210 C 
ATOM     15  C   LIG d   1      -5.168  90.813 116.491  0.00  0.00     0.109 C 
ATOM     16  O   LIG d   1      -3.965  89.665 118.232  0.00  0.00    -0.276 OA
ATOM     17  H   LIG d   1      -3.066  92.209 116.589  0.00  0.00     0.149 HD
ENDBRANCH   6  13
BRANCH   5  18
ATOM     18  N   LIG d   1      -0.542  89.770 116.532  0.00  0.00     0.381 N 
ATOM     19  H   LIG d   1       0.433  89.545 116.533  0.00  0.00    -0.090 HD
ATOM     20  H   LIG d   1      -0.676  90.590 115.968  0.00  0.00    -0.090 HD
ATOM     21  H   LIG d   1      -1.065  89.010 116.155  0.00  0.00    -0.090 HD
ENDBRANCH   5  18
BRANCH   3  22
ATOM     22  C   LIG d   1       0.761  89.926 121.138  0.00  0.00     0.382 C 
ATOM     23  O   LIG d   1       0.788  88.687 121.334  0.00  0.00    -0.241 OA
ATOM     24  O   LIG d   1       1.409  90.680 121.888  0.00  0.00    -0.241 OA
ENDBRANCH   3  22
TORSDOF 7
ENDMDL
