MODEL 1
REMARK VINA RESULT:      -4.6      0.000      0.000
REMARK  7 active torsions:
REMARK  status: ('A' for Active; 'I' for Inactive)
REMARK    1  A    between atoms: C_2  and  C_3 
REMARK    2  A    between atoms: C_3  and  O_6 
REMARK    3  A    between atoms: C_3  and  C_4 
REMARK    4  A    between atoms: C_7  and  O_6 
REMARK    5  A    between atoms: C_9  and  C_10 
REMARK    6  A    between atoms: N_15  and  C_14 
REMARK    7  A    between atoms: N_20  and  C_19 
REMARK       I    between atoms: C_22  and  N_20 
ROOT
ATOM      1  C   LIG d   1       0.404  90.790 116.670  0.00  0.00     0.161 C 
ATOM      2  C   LIG d   1       1.808  90.765 116.619  0.00  0.00     0.016 C 
ATOM      3  C   LIG d   1       2.632  91.518 117.488  0.00  0.00     0.038 C 
ATOM      4  C   LIG d   1       2.105  92.234 118.573  0.00  0.00     0.028 C 
ATOM      5  C   LIG d   1       0.667  92.692 118.356  0.00  0.00    -0.047 C 
ATOM      6  C   LIG d   1      -0.185  91.479 117.918  0.00  0.00     0.091 C 
ENDROOT
BRANCH   1   7
ATOM      7  O   LIG d   1      -0.112  89.450 116.546  0.00  0.00    -0.368 OA
BRANCH   7   8
ATOM      8  C   LIG d   1      -0.407  88.763 117.787  0.00  0.00     0.119 C 
BRANCH   8   9
ATOM      9  C   LIG d   1       0.477  87.502 117.839  0.00  0.00     0.028 C 
ATOM     10  C   LIG d   1       0.852  86.990 116.438  0.00  0.00     0.006 C 
ENDBRANCH   8   9
BRANCH   8  11
ATOM     11  C   LIG d   1      -1.849  88.249 117.811  0.00  0.00     0.028 C 
ATOM     12  C   LIG d   1      -2.315  87.847 119.220  0.00  0.00     0.006 C 
ENDBRANCH   8  11
ENDBRANCH   7   8
ENDBRANCH   1   7
BRANCH   6  13
ATOM     13  N   LIG d   1      -1.588  91.856 117.603  0.00  0.00    -0.311 N 
ATOM     14  C   LIG d   1      -2.583  91.780 118.486  0.00  0.00     0.210 C 
ATOM     15  C   LIG d   1      -3.956  92.197 117.949  0.00  0.00     0.109 C 
ATOM     16  O   LIG d   1      -2.453  91.436 119.670  0.00  0.00    -0.276 OA
ATOM     17  H   LIG d   1      -1.777  92.175 116.673  0.00  0.00     0.149 HD
ENDBRANCH   6  13
BRANCH   5  18
ATOM     18  N   LIG d   1       0.199  93.304 119.614  0.00  0.00     0.381 N 
ATOM     19  H   LIG d   1       0.420  92.705 120.384  0.00  0.00    -0.090 HD
ATOM     20  H   LIG d   1      -0.799  93.409 119.573  0.00  0.00    -0.090 HD
ATOM     21  H   LIG d   1       0.629  94.193 119.741  0.00  0.00    -0.090 HD
ENDBRANCH   5  18
BRANCH   3  22
ATOM     22  C   LIG d   1       3.996  91.590 117.250  0.00  0.00     0.382 C 
ATOM     23  O   LIG d   1       4.556  92.708 117.151  0.00  0.00    -0.241 OA
ATOM     24  O   LIG d   1       4.665  90.552 117.090  0.00  0.00    -0.241 OA
ENDBRANCH   3  22
TORSDOF 7
ENDMDL
MODEL 2
REMARK VINA RESULT:      -4.5      4.434      7.157
REMARK  7 active torsions:
REMARK  status: ('A' for Active; 'I' for Inactive)
REMARK    1  A    between atoms: C_2  and  C_3 
REMARK    2  A    between atoms: C_3  and  O_6 
REMARK    3  A    between atoms: C_3  and  C_4 
REMARK    4  A    between atoms: C_7  and  O_6 
REMARK    5  A    between atoms: C_9  and  C_10 
REMARK    6  A    between atoms: N_15  and  C_14 
REMARK    7  A    between atoms: N_20  and  C_19 
REMARK       I    between atoms: C_22  and  N_20 
ROOT
ATOM      1  C   LIG d   1      -3.613  92.916 119.439  0.00  0.00     0.161 C 
ATOM      2  C   LIG d   1      -3.562  91.871 118.501  0.00  0.00     0.016 C 
ATOM      3  C   LIG d   1      -4.710  91.327 117.880  0.00  0.00     0.038 C 
ATOM      4  C   LIG d   1      -5.981  91.897 118.042  0.00  0.00     0.028 C 
ATOM      5  C   LIG d   1      -6.151  92.631 119.368  0.00  0.00    -0.047 C 
ATOM      6  C   LIG d   1      -4.979  93.624 119.545  0.00  0.00     0.091 C 
ENDROOT
BRANCH   1   7
ATOM      7  O   LIG d   1      -2.572  93.874 119.160  0.00  0.00    -0.368 OA
BRANCH   7   8
ATOM      8  C   LIG d   1      -1.477  93.919 120.107  0.00  0.00     0.119 C 
BRANCH   8   9
ATOM      9  C   LIG d   1      -1.358  95.372 120.608  0.00  0.00     0.028 C 
ATOM     10  C   LIG d   1      -2.133  96.363 119.723  0.00  0.00     0.006 C 
ENDBRANCH   8   9
BRANCH   8  11
ATOM     11  C   LIG d   1      -0.139  93.614 119.427  0.00  0.00     0.028 C 
ATOM     12  C   LIG d   1      -0.262  93.489 117.900  0.00  0.00     0.006 C 
ENDBRANCH   8  11
ENDBRANCH   7   8
ENDBRANCH   1   7
BRANCH   6  13
ATOM     13  N   LIG d   1      -5.023  94.324 120.856  0.00  0.00    -0.311 N 
ATOM     14  C   LIG d   1      -5.575  95.523 121.028  0.00  0.00     0.210 C 
ATOM     15  C   LIG d   1      -5.494  96.073 122.456  0.00  0.00     0.109 C 
ATOM     16  O   LIG d   1      -6.153  96.170 120.142  0.00  0.00    -0.276 OA
ATOM     17  H   LIG d   1      -4.604  93.857 121.636  0.00  0.00     0.149 HD
ENDBRANCH   6  13
BRANCH   5  18
ATOM     18  N   LIG d   1      -7.470  93.292 119.346  0.00  0.00     0.381 N 
ATOM     19  H   LIG d   1      -7.843  93.272 118.418  0.00  0.00    -0.090 HD
ATOM     20  H   LIG d   1      -7.357  94.252 119.621  0.00  0.00    -0.090 HD
ATOM     21  H   LIG d   1      -8.092  92.830 119.972  0.00  0.00    -0.090 HD
ENDBRANCH   5  18
BRANCH   3  22
ATOM     22  C   LIG d   1      -4.597  90.176 117.116  0.00  0.00     0.382 C 
ATOM     23  O   LIG d   1      -5.570  89.780 116.430  0.00  0.00    -0.241 OA
ATOM     24  O   LIG d   1      -3.549  89.503 117.138  0.00  0.00    -0.241 OA
ENDBRANCH   3  22
TORSDOF 7
ENDMDL
MODEL 3
REMARK VINA RESULT:      -4.5      4.273      6.813
REMARK  7 active torsions:
REMARK  status: ('A' for Active; 'I' for Inactive)
REMARK    1  A    between atoms: C_2  and  C_3 
REMARK    2  A    between atoms: C_3  and  O_6 
REMARK    3  A    between atoms: C_3  and  C_4 
REMARK    4  A    between atoms: C_7  and  O_6 
REMARK    5  A    between atoms: C_9  and  C_10 
REMARK    6  A    between atoms: N_15  and  C_14 
REMARK    7  A    between atoms: N_20  and  C_19 
REMARK       I    between atoms: C_22  and  N_20 
ROOT
ATOM      1  C   LIG d   1      -3.785  92.682 120.036  0.00  0.00     0.161 C 
ATOM      2  C   LIG d   1      -3.484  91.562 119.242  0.00  0.00     0.016 C 
ATOM      3  C   LIG d   1      -4.247  91.179 118.115  0.00  0.00     0.038 C 
ATOM      4  C   LIG d   1      -5.281  91.982 117.613  0.00  0.00     0.028 C 
ATOM      5  C   LIG d   1      -5.941  92.855 118.675  0.00  0.00    -0.047 C 
ATOM      6  C   LIG d   1      -4.844  93.632 119.438  0.00  0.00     0.091 C 
ENDROOT
BRANCH   1   7
ATOM      7  O   LIG d   1      -2.576  93.405 120.339  0.00  0.00    -0.368 OA
BRANCH   7   8
ATOM      8  C   LIG d   1      -2.001  94.170 119.251  0.00  0.00     0.119 C 
BRANCH   8   9
ATOM      9  C   LIG d   1      -0.569  93.648 119.024  0.00  0.00     0.028 C 
ATOM     10  C   LIG d   1      -0.347  93.151 117.586  0.00  0.00     0.006 C 
ENDBRANCH   8   9
BRANCH   8  11
ATOM     11  C   LIG d   1      -1.840  95.645 119.631  0.00  0.00     0.028 C 
ATOM     12  C   LIG d   1      -1.740  95.862 121.149  0.00  0.00     0.006 C 
ENDBRANCH   8  11
ENDBRANCH   7   8
ENDBRANCH   1   7
BRANCH   6  13
ATOM     13  N   LIG d   1      -5.396  94.447 120.551  0.00  0.00    -0.311 N 
ATOM     14  C   LIG d   1      -5.520  95.772 120.498  0.00  0.00     0.210 C 
ATOM     15  C   LIG d   1      -6.095  96.419 121.762  0.00  0.00     0.109 C 
ATOM     16  O   LIG d   1      -5.239  96.470 119.512  0.00  0.00    -0.276 OA
ATOM     17  H   LIG d   1      -5.679  93.958 121.378  0.00  0.00     0.149 HD
ENDBRANCH   6  13
BRANCH   5  18
ATOM     18  N   LIG d   1      -6.904  93.738 117.991  0.00  0.00     0.381 N 
ATOM     19  H   LIG d   1      -7.833  93.528 118.297  0.00  0.00    -0.090 HD
ATOM     20  H   LIG d   1      -6.853  93.570 117.001  0.00  0.00    -0.090 HD
ATOM     21  H   LIG d   1      -6.691  94.692 118.185  0.00  0.00    -0.090 HD
ENDBRANCH   5  18
BRANCH   3  22
ATOM     22  C   LIG d   1      -4.002  89.960 117.502  0.00  0.00     0.382 C 
ATOM     23  O   LIG d   1      -4.585  89.669 116.430  0.00  0.00    -0.241 OA
ATOM     24  O   LIG d   1      -3.239  89.129 118.030  0.00  0.00    -0.241 OA
ENDBRANCH   3  22
TORSDOF 7
ENDMDL
MODEL 4
REMARK VINA RESULT:      -4.5      3.698      6.476
REMARK  7 active torsions:
REMARK  status: ('A' for Active; 'I' for Inactive)
REMARK    1  A    between atoms: C_2  and  C_3 
REMARK    2  A    between atoms: C_3  and  O_6 
REMARK    3  A    between atoms: C_3  and  C_4 
REMARK    4  A    between atoms: C_7  and  O_6 
REMARK    5  A    between atoms: C_9  and  C_10 
REMARK    6  A    between atoms: N_15  and  C_14 
REMARK    7  A    between atoms: N_20  and  C_19 
REMARK       I    between atoms: C_22  and  N_20 
ROOT
ATOM      1  C   LIG d   1      -3.894  92.057 119.878  0.00  0.00     0.161 C 
ATOM      2  C   LIG d   1      -2.951  91.188 119.304  0.00  0.00     0.016 C 
ATOM      3  C   LIG d   1      -3.189  90.454 118.119  0.00  0.00     0.038 C 
ATOM      4  C   LIG d   1      -4.338  90.657 117.340  0.00  0.00     0.028 C 
ATOM      5  C   LIG d   1      -5.536  91.149 118.144  0.00  0.00    -0.047 C 
ATOM      6  C   LIG d   1      -5.109  92.376 118.982  0.00  0.00     0.091 C 
ENDROOT
BRANCH   1   7
ATOM      7  O   LIG d   1      -3.245  93.275 120.294  0.00  0.00    -0.368 OA
BRANCH   7   8
ATOM      8  C   LIG d   1      -2.778  94.143 119.233  0.00  0.00     0.119 C 
BRANCH   8   9
ATOM      9  C   LIG d   1      -1.257  94.319 119.415  0.00  0.00     0.028 C 
ATOM     10  C   LIG d   1      -0.450  93.641 118.295  0.00  0.00     0.006 C 
ENDBRANCH   8   9
BRANCH   8  11
ATOM     11  C   LIG d   1      -3.367  95.551 119.364  0.00  0.00     0.028 C 
ATOM     12  C   LIG d   1      -2.315  96.605 119.743  0.00  0.00     0.006 C 
ENDBRANCH   8  11
ENDBRANCH   7   8
ENDBRANCH   1   7
BRANCH   6  13
ATOM     13  N   LIG d   1      -6.200  92.869 119.862  0.00  0.00    -0.311 N 
ATOM     14  C   LIG d   1      -7.109  93.762 119.474  0.00  0.00     0.210 C 
ATOM     15  C   LIG d   1      -8.134  94.148 120.544  0.00  0.00     0.109 C 
ATOM     16  O   LIG d   1      -7.182  94.246 118.335  0.00  0.00    -0.276 OA
ATOM     17  H   LIG d   1      -6.234  92.504 120.794  0.00  0.00     0.149 HD
ENDBRANCH   6  13
BRANCH   5  18
ATOM     18  N   LIG d   1      -6.620  91.450 117.189  0.00  0.00     0.381 N 
ATOM     19  H   LIG d   1      -7.318  90.734 117.232  0.00  0.00    -0.090 HD
ATOM     20  H   LIG d   1      -6.239  91.465 116.259  0.00  0.00    -0.090 HD
ATOM     21  H   LIG d   1      -7.027  92.334 117.403  0.00  0.00    -0.090 HD
ENDBRANCH   5  18
BRANCH   3  22
ATOM     22  C   LIG d   1      -2.289  89.476 117.724  0.00  0.00     0.382 C 
ATOM     23  O   LIG d   1      -2.625  88.268 117.751  0.00  0.00    -0.241 OA
ATOM     24  O   LIG d   1      -1.131  89.783 117.384  0.00  0.00    -0.241 OA
ENDBRANCH   3  22
TORSDOF 7
ENDMDL
MODEL 5
REMARK VINA RESULT:      -4.4      4.543      7.997
REMARK  7 active torsions:
REMARK  status: ('A' for Active; 'I' for Inactive)
REMARK    1  A    between atoms: C_2  and  C_3 
REMARK    2  A    between atoms: C_3  and  O_6 
REMARK    3  A    between atoms: C_3  and  C_4 
REMARK    4  A    between atoms: C_7  and  O_6 
REMARK    5  A    between atoms: C_9  and  C_10 
REMARK    6  A    between atoms: N_15  and  C_14 
REMARK    7  A    between atoms: N_20  and  C_19 
REMARK       I    between atoms: C_22  and  N_20 
ROOT
ATOM      1  C   LIG d   1      -4.805  93.540 120.385  0.00  0.00     0.161 C 
ATOM      2  C   LIG d   1      -6.110  93.470 119.868  0.00  0.00     0.016 C 
ATOM      3  C   LIG d   1      -6.841  94.604 119.446  0.00  0.00     0.038 C 
ATOM      4  C   LIG d   1      -6.257  95.877 119.371  0.00  0.00     0.028 C 
ATOM      5  C   LIG d   1      -5.110  96.077 120.357  0.00  0.00    -0.047 C 
ATOM      6  C   LIG d   1      -4.111  94.906 120.207  0.00  0.00     0.091 C 
ENDROOT
BRANCH   1   7
ATOM      7  O   LIG d   1      -3.998  92.490 119.816  0.00  0.00    -0.368 OA
BRANCH   7   8
ATOM      8  C   LIG d   1      -3.743  92.582 118.393  0.00  0.00     0.119 C 
BRANCH   8   9
ATOM      9  C   LIG d   1      -4.266  91.285 117.744  0.00  0.00     0.028 C 
ATOM     10  C   LIG d   1      -5.429  91.543 116.772  0.00  0.00     0.006 C 
ENDBRANCH   8   9
BRANCH   8  11
ATOM     11  C   LIG d   1      -2.241  92.607 118.096  0.00  0.00     0.028 C 
ATOM     12  C   LIG d   1      -1.400  91.987 119.223  0.00  0.00     0.006 C 
ENDBRANCH   8  11
ENDBRANCH   7   8
ENDBRANCH   1   7
BRANCH   6  13
ATOM     13  N   LIG d   1      -3.002  94.979 121.193  0.00  0.00    -0.311 N 
ATOM     14  C   LIG d   1      -1.748  95.288 120.865  0.00  0.00     0.210 C 
ATOM     15  C   LIG d   1      -0.756  95.287 122.032  0.00  0.00     0.109 C 
ATOM     16  O   LIG d   1      -1.371  95.595 119.724  0.00  0.00    -0.276 OA
ATOM     17  H   LIG d   1      -3.226  94.775 122.147  0.00  0.00     0.149 HD
ENDBRANCH   6  13
BRANCH   5  18
ATOM     18  N   LIG d   1      -4.505  97.392 120.077  0.00  0.00     0.381 N 
ATOM     19  H   LIG d   1      -3.524  97.362 120.268  0.00  0.00    -0.090 HD
ATOM     20  H   LIG d   1      -4.923  98.078 120.681  0.00  0.00    -0.090 HD
ATOM     21  H   LIG d   1      -4.658  97.642 119.124  0.00  0.00    -0.090 HD
ENDBRANCH   5  18
BRANCH   3  22
ATOM     22  C   LIG d   1      -8.185  94.477 119.131  0.00  0.00     0.382 C 
ATOM     23  O   LIG d   1      -8.921  93.726 119.815  0.00  0.00    -0.241 OA
ATOM     24  O   LIG d   1      -8.662  95.068 118.143  0.00  0.00    -0.241 OA
ENDBRANCH   3  22
TORSDOF 7
ENDMDL
MODEL 6
REMARK VINA RESULT:      -4.3      3.462      6.356
REMARK  7 active torsions:
REMARK  status: ('A' for Active; 'I' for Inactive)
REMARK    1  A    between atoms: C_2  and  C_3 
REMARK    2  A    between atoms: C_3  and  O_6 
REMARK    3  A    between atoms: C_3  and  C_4 
REMARK    4  A    between atoms: C_7  and  O_6 
REMARK    5  A    between atoms: C_9  and  C_10 
REMARK    6  A    between atoms: N_15  and  C_14 
REMARK    7  A    between atoms: N_20  and  C_19 
REMARK       I    between atoms: C_22  and  N_20 
ROOT
ATOM      1  C   LIG d   1      -2.588  93.045 118.703  0.00  0.00     0.161 C 
ATOM      2  C   LIG d   1      -3.319  92.112 117.949  0.00  0.00     0.016 C 
ATOM      3  C   LIG d   1      -4.730  92.018 117.983  0.00  0.00     0.038 C 
ATOM      4  C   LIG d   1      -5.519  92.958 118.664  0.00  0.00     0.028 C 
ATOM      5  C   LIG d   1      -4.804  93.608 119.844  0.00  0.00    -0.047 C 
ATOM      6  C   LIG d   1      -3.437  94.150 119.366  0.00  0.00     0.091 C 
ENDROOT
BRANCH   1   7
ATOM      7  O   LIG d   1      -1.554  93.630 117.887  0.00  0.00    -0.368 OA
BRANCH   7   8
ATOM      8  C   LIG d   1      -0.194  93.247 118.210  0.00  0.00     0.119 C 
BRANCH   8   9
ATOM      9  C   LIG d   1       0.272  92.245 117.135  0.00  0.00     0.028 C 
ATOM     10  C   LIG d   1       0.211  90.788 117.625  0.00  0.00     0.006 C 
ENDBRANCH   8   9
BRANCH   8  11
ATOM     11  C   LIG d   1      -0.131  92.480 119.534  0.00  0.00     0.028 C 
ATOM     12  C   LIG d   1       0.719  93.194 120.596  0.00  0.00     0.006 C 
ENDBRANCH   8  11
ENDBRANCH   7   8
ENDBRANCH   1   7
BRANCH   6  13
ATOM     13  N   LIG d   1      -2.637  94.727 120.476  0.00  0.00    -0.311 N 
ATOM     14  C   LIG d   1      -2.008  95.899 120.395  0.00  0.00     0.210 C 
ATOM     15  C   LIG d   1      -1.222  96.299 121.647  0.00  0.00     0.109 C 
ATOM     16  O   LIG d   1      -2.053  96.659 119.416  0.00  0.00    -0.276 OA
ATOM     17  H   LIG d   1      -2.573  94.191 121.320  0.00  0.00     0.149 HD
ENDBRANCH   6  13
BRANCH   5  18
ATOM     18  N   LIG d   1      -5.689  94.661 120.375  0.00  0.00     0.381 N 
ATOM     19  H   LIG d   1      -5.155  95.312 120.915  0.00  0.00    -0.090 HD
ATOM     20  H   LIG d   1      -6.373  94.238 120.978  0.00  0.00    -0.090 HD
ATOM     21  H   LIG d   1      -6.144  95.135 119.626  0.00  0.00    -0.090 HD
ENDBRANCH   5  18
BRANCH   3  22
ATOM     22  C   LIG d   1      -5.363  90.952 117.364  0.00  0.00     0.382 C 
ATOM     23  O   LIG d   1      -4.725  89.899 117.121  0.00  0.00    -0.241 OA
ATOM     24  O   LIG d   1      -6.552  91.045 117.004  0.00  0.00    -0.241 OA
ENDBRANCH   3  22
TORSDOF 7
ENDMDL
MODEL 7
REMARK VINA RESULT:      -4.2      4.141      6.925
REMARK  7 active torsions:
REMARK  status: ('A' for Active; 'I' for Inactive)
REMARK    1  A    between atoms: C_2  and  C_3 
REMARK    2  A    between atoms: C_3  and  O_6 
REMARK    3  A    between atoms: C_3  and  C_4 
REMARK    4  A    between atoms: C_7  and  O_6 
REMARK    5  A    between atoms: C_9  and  C_10 
REMARK    6  A    between atoms: N_15  and  C_14 
REMARK    7  A    between atoms: N_20  and  C_19 
REMARK       I    between atoms: C_22  and  N_20 
ROOT
ATOM      1  C   LIG d   1      -4.194  92.516 118.950  0.00  0.00     0.161 C 
ATOM      2  C   LIG d   1      -3.265  91.474 118.797  0.00  0.00     0.016 C 
ATOM      3  C   LIG d   1      -3.489  90.346 117.975  0.00  0.00     0.038 C 
ATOM      4  C   LIG d   1      -4.602  90.256 117.127  0.00  0.00     0.028 C 
ATOM      5  C   LIG d   1      -5.809  91.045 117.625  0.00  0.00    -0.047 C 
ATOM      6  C   LIG d   1      -5.366  92.490 117.947  0.00  0.00     0.091 C 
ENDROOT
BRANCH   1   7
ATOM      7  O   LIG d   1      -3.516  93.787 118.896  0.00  0.00    -0.368 OA
BRANCH   7   8
ATOM      8  C   LIG d   1      -3.292  94.445 120.168  0.00  0.00     0.119 C 
BRANCH   8   9
ATOM      9  C   LIG d   1      -4.241  95.657 120.235  0.00  0.00     0.028 C 
ATOM     10  C   LIG d   1      -5.045  95.701 121.545  0.00  0.00     0.006 C 
ENDBRANCH   8   9
BRANCH   8  11
ATOM     11  C   LIG d   1      -1.879  95.030 120.251  0.00  0.00     0.028 C 
ATOM     12  C   LIG d   1      -0.918  94.416 119.220  0.00  0.00     0.006 C 
ENDBRANCH   8  11
ENDBRANCH   7   8
ENDBRANCH   1   7
BRANCH   6  13
ATOM     13  N   LIG d   1      -6.467  93.306 118.520  0.00  0.00    -0.311 N 
ATOM     14  C   LIG d   1      -6.998  93.081 119.721  0.00  0.00     0.210 C 
ATOM     15  C   LIG d   1      -8.137  94.027 120.112  0.00  0.00     0.109 C 
ATOM     16  O   LIG d   1      -6.612  92.208 120.513  0.00  0.00    -0.276 OA
ATOM     17  H   LIG d   1      -6.820  94.056 117.958  0.00  0.00     0.149 HD
ENDBRANCH   6  13
BRANCH   5  18
ATOM     18  N   LIG d   1      -6.848  90.977 116.581  0.00  0.00     0.381 N 
ATOM     19  H   LIG d   1      -7.200  91.895 116.393  0.00  0.00    -0.090 HD
ATOM     20  H   LIG d   1      -7.608  90.410 116.914  0.00  0.00    -0.090 HD
ATOM     21  H   LIG d   1      -6.470  90.582 115.748  0.00  0.00    -0.090 HD
ENDBRANCH   5  18
BRANCH   3  22
ATOM     22  C   LIG d   1      -2.613  89.272 118.027  0.00  0.00     0.382 C 
ATOM     23  O   LIG d   1      -2.911  88.250 118.691  0.00  0.00    -0.241 OA
ATOM     24  O   LIG d   1      -1.508  89.331 117.455  0.00  0.00    -0.241 OA
ENDBRANCH   3  22
TORSDOF 7
ENDMDL
MODEL 8
REMARK VINA RESULT:      -4.2      3.234      7.549
REMARK  7 active torsions:
REMARK  status: ('A' for Active; 'I' for Inactive)
REMARK    1  A    between atoms: C_2  and  C_3 
REMARK    2  A    between atoms: C_3  and  O_6 
REMARK    3  A    between atoms: C_3  and  C_4 
REMARK    4  A    between atoms: C_7  and  O_6 
REMARK    5  A    between atoms: C_9  and  C_10 
REMARK    6  A    between atoms: N_15  and  C_14 
REMARK    7  A    between atoms: N_20  and  C_19 
REMARK       I    between atoms: C_22  and  N_20 
ROOT
ATOM      1  C   LIG d   1      -3.465  93.599 119.205  0.00  0.00     0.161 C 
ATOM      2  C   LIG d   1      -4.785  93.826 119.629  0.00  0.00     0.016 C 
ATOM      3  C   LIG d   1      -5.881  93.030 119.221  0.00  0.00     0.038 C 
ATOM      4  C   LIG d   1      -5.706  91.855 118.475  0.00  0.00     0.028 C 
ATOM      5  C   LIG d   1      -4.454  91.869 117.606  0.00  0.00    -0.047 C 
ATOM      6  C   LIG d   1      -3.240  92.255 118.481  0.00  0.00     0.091 C 
ENDROOT
BRANCH   1   7
ATOM      7  O   LIG d   1      -2.565  93.723 120.324  0.00  0.00    -0.368 OA
BRANCH   7   8
ATOM      8  C   LIG d   1      -1.438  94.615 120.140  0.00  0.00     0.119 C 
BRANCH   8   9
ATOM      9  C   LIG d   1      -0.213  93.956 120.803  0.00  0.00     0.028 C 
ATOM     10  C   LIG d   1      -0.604  92.812 121.753  0.00  0.00     0.006 C 
ENDBRANCH   8   9
BRANCH   8  11
ATOM     11  C   LIG d   1      -1.644  95.935 120.889  0.00  0.00     0.028 C 
ATOM     12  C   LIG d   1      -2.170  97.059 119.983  0.00  0.00     0.006 C 
ENDBRANCH   8  11
ENDBRANCH   7   8
ENDBRANCH   1   7
BRANCH   6  13
ATOM     13  N   LIG d   1      -1.986  92.374 117.691  0.00  0.00    -0.311 N 
ATOM     14  C   LIG d   1      -0.886  91.671 117.952  0.00  0.00     0.210 C 
ATOM     15  C   LIG d   1       0.301  91.961 117.028  0.00  0.00     0.109 C 
ATOM     16  O   LIG d   1      -0.790  90.810 118.840  0.00  0.00    -0.276 OA
ATOM     17  H   LIG d   1      -1.986  93.027 116.932  0.00  0.00     0.149 HD
ENDBRANCH   6  13
BRANCH   5  18
ATOM     18  N   LIG d   1      -4.322  90.534 116.992  0.00  0.00     0.381 N 
ATOM     19  H   LIG d   1      -3.752  89.950 117.570  0.00  0.00    -0.090 HD
ATOM     20  H   LIG d   1      -3.872  90.630 116.099  0.00  0.00    -0.090 HD
ATOM     21  H   LIG d   1      -5.222  90.122 116.876  0.00  0.00    -0.090 HD
ENDBRANCH   5  18
BRANCH   3  22
ATOM     22  C   LIG d   1      -7.172  93.432 119.525  0.00  0.00     0.382 C 
ATOM     23  O   LIG d   1      -7.730  94.323 118.841  0.00  0.00    -0.241 OA
ATOM     24  O   LIG d   1      -7.771  92.945 120.503  0.00  0.00    -0.241 OA
ENDBRANCH   3  22
TORSDOF 7
ENDMDL
MODEL 9
REMARK VINA RESULT:      -4.2      3.106      7.248
REMARK  7 active torsions:
REMARK  status: ('A' for Active; 'I' for Inactive)
REMARK    1  A    between atoms: C_2  and  C_3 
REMARK    2  A    between atoms: C_3  and  O_6 
REMARK    3  A    between atoms: C_3  and  C_4 
REMARK    4  A    between atoms: C_7  and  O_6 
REMARK    5  A    between atoms: C_9  and  C_10 
REMARK    6  A    between atoms: N_15  and  C_14 
REMARK    7  A    between atoms: N_20  and  C_19 
REMARK       I    between atoms: C_22  and  N_20 
ROOT
ATOM      1  C   LIG d   1      -3.301  92.713 119.250  0.00  0.00     0.161 C 
ATOM      2  C   LIG d   1      -4.564  93.240 119.566  0.00  0.00     0.016 C 
ATOM      3  C   LIG d   1      -5.762  92.816 118.945  0.00  0.00     0.038 C 
ATOM      4  C   LIG d   1      -5.795  91.722 118.067  0.00  0.00     0.028 C 
ATOM      5  C   LIG d   1      -4.475  91.490 117.339  0.00  0.00    -0.047 C 
ATOM      6  C   LIG d   1      -3.331  91.442 118.376  0.00  0.00     0.091 C 
ENDROOT
BRANCH   1   7
ATOM      7  O   LIG d   1      -2.556  92.472 120.461  0.00  0.00    -0.368 OA
BRANCH   7   8
ATOM      8  C   LIG d   1      -1.393  93.309 120.671  0.00  0.00     0.119 C 
BRANCH   8   9
ATOM      9  C   LIG d   1      -1.333  94.319 119.508  0.00  0.00     0.028 C 
ATOM     10  C   LIG d   1      -1.605  95.761 119.969  0.00  0.00     0.006 C 
ENDBRANCH   8   9
BRANCH   8  11
ATOM     11  C   LIG d   1      -0.097  92.499 120.570  0.00  0.00     0.028 C 
ATOM     12  C   LIG d   1       0.803  92.956 119.412  0.00  0.00     0.006 C 
ENDBRANCH   8  11
ENDBRANCH   7   8
ENDBRANCH   1   7
BRANCH   6  13
ATOM     13  N   LIG d   1      -1.995  91.302 117.740  0.00  0.00    -0.311 N 
ATOM     14  C   LIG d   1      -1.360  90.138 117.616  0.00  0.00     0.210 C 
ATOM     15  C   LIG d   1       0.016  90.219 116.948  0.00  0.00     0.109 C 
ATOM     16  O   LIG d   1      -1.820  89.040 117.967  0.00  0.00    -0.276 OA
ATOM     17  H   LIG d   1      -1.562  92.138 117.400  0.00  0.00     0.149 HD
ENDBRANCH   6  13
BRANCH   5  18
ATOM     18  N   LIG d   1      -4.607  90.242 116.565  0.00  0.00     0.381 N 
ATOM     19  H   LIG d   1      -4.293  89.467 117.115  0.00  0.00    -0.090 HD
ATOM     20  H   LIG d   1      -4.027  90.303 115.747  0.00  0.00    -0.090 HD
ATOM     21  H   LIG d   1      -5.557  90.105 116.297  0.00  0.00    -0.090 HD
ENDBRANCH   5  18
BRANCH   3  22
ATOM     22  C   LIG d   1      -6.937  93.516 119.170  0.00  0.00     0.382 C 
ATOM     23  O   LIG d   1      -7.617  93.286 120.199  0.00  0.00    -0.241 OA
ATOM     24  O   LIG d   1      -7.350  94.343 118.334  0.00  0.00    -0.241 OA
ENDBRANCH   3  22
TORSDOF 7
ENDMDL
