MODEL 1
REMARK VINA RESULT:      -4.7      0.000      0.000
REMARK  7 active torsions:
REMARK  status: ('A' for Active; 'I' for Inactive)
REMARK    1  A    between atoms: C_2  and  C_3 
REMARK    2  A    between atoms: C_3  and  O_6 
REMARK    3  A    between atoms: C_3  and  C_4 
REMARK    4  A    between atoms: C_7  and  O_6 
REMARK    5  A    between atoms: C_9  and  C_10 
REMARK    6  A    between atoms: N_15  and  C_14 
REMARK    7  A    between atoms: N_20  and  C_19 
REMARK       I    between atoms: C_22  and  N_20 
ROOT
ATOM      1  C   LIG d   1      -2.738  92.604 117.270  0.00  0.00     0.161 C 
ATOM      2  C   LIG d   1      -4.142  92.572 117.261  0.00  0.00     0.016 C 
ATOM      3  C   LIG d   1      -4.892  91.391 117.057  0.00  0.00     0.038 C 
ATOM      4  C   LIG d   1      -4.285  90.128 116.997  0.00  0.00     0.028 C 
ATOM      5  C   LIG d   1      -2.845  90.172 116.496  0.00  0.00    -0.047 C 
ATOM      6  C   LIG d   1      -2.059  91.219 117.317  0.00  0.00     0.091 C 
ENDROOT
BRANCH   1   7
ATOM      7  O   LIG d   1      -2.274  93.427 118.359  0.00  0.00    -0.368 OA
BRANCH   7   8
ATOM      8  C   LIG d   1      -1.586  94.646 117.989  0.00  0.00     0.119 C 
BRANCH   8   9
ATOM      9  C   LIG d   1      -0.124  94.513 118.457  0.00  0.00     0.028 C 
ATOM     10  C   LIG d   1       0.013  93.635 119.712  0.00  0.00     0.006 C 
ENDBRANCH   8   9
BRANCH   8  11
ATOM     11  C   LIG d   1      -2.146  95.854 118.746  0.00  0.00     0.028 C 
ATOM     12  C   LIG d   1      -1.429  97.166 118.388  0.00  0.00     0.006 C 
ENDBRANCH   8  11
ENDBRANCH   7   8
ENDBRANCH   1   7
BRANCH   6  13
ATOM     13  N   LIG d   1      -0.663  91.386 116.835  0.00  0.00    -0.311 N 
ATOM     14  C   LIG d   1       0.376  90.743 117.365  0.00  0.00     0.210 C 
ATOM     15  C   LIG d   1       1.732  91.074 116.732  0.00  0.00     0.109 C 
ATOM     16  O   LIG d   1       0.301  89.906 118.277  0.00  0.00    -0.276 OA
ATOM     17  H   LIG d   1      -0.515  92.023 116.077  0.00  0.00     0.149 HD
ENDBRANCH   6  13
BRANCH   5  18
ATOM     18  N   LIG d   1      -2.291  88.810 116.614  0.00  0.00     0.381 N 
ATOM     19  H   LIG d   1      -1.300  88.835 116.482  0.00  0.00    -0.090 HD
ATOM     20  H   LIG d   1      -2.691  88.232 115.896  0.00  0.00    -0.090 HD
ATOM     21  H   LIG d   1      -2.504  88.432 117.511  0.00  0.00    -0.090 HD
ENDBRANCH   5  18
BRANCH   3  22
ATOM     22  C   LIG d   1      -6.264  91.472 116.870  0.00  0.00     0.382 C 
ATOM     23  O   LIG d   1      -6.804  92.585 116.662  0.00  0.00    -0.241 OA
ATOM     24  O   LIG d   1      -6.974  90.452 116.952  0.00  0.00    -0.241 OA
ENDBRANCH   3  22
TORSDOF 7
ENDMDL
MODEL 2
REMARK VINA RESULT:      -4.4      1.315      1.887
REMARK  7 active torsions:
REMARK  status: ('A' for Active; 'I' for Inactive)
REMARK    1  A    between atoms: C_2  and  C_3 
REMARK    2  A    between atoms: C_3  and  O_6 
REMARK    3  A    between atoms: C_3  and  C_4 
REMARK    4  A    between atoms: C_7  and  O_6 
REMARK    5  A    between atoms: C_9  and  C_10 
REMARK    6  A    between atoms: N_15  and  C_14 
REMARK    7  A    between atoms: N_20  and  C_19 
REMARK       I    between atoms: C_22  and  N_20 
ROOT
ATOM      1  C   LIG d   1      -2.902  92.746 117.333  0.00  0.00     0.161 C 
ATOM      2  C   LIG d   1      -4.297  92.604 117.257  0.00  0.00     0.016 C 
ATOM      3  C   LIG d   1      -4.941  91.373 116.991  0.00  0.00     0.038 C 
ATOM      4  C   LIG d   1      -4.232  90.164 116.933  0.00  0.00     0.028 C 
ATOM      5  C   LIG d   1      -2.779  90.333 116.502  0.00  0.00    -0.047 C 
ATOM      6  C   LIG d   1      -2.118  91.418 117.382  0.00  0.00     0.091 C 
ENDROOT
BRANCH   1   7
ATOM      7  O   LIG d   1      -2.556  93.574 118.461  0.00  0.00    -0.368 OA
BRANCH   7   8
ATOM      8  C   LIG d   1      -2.376  92.888 119.724  0.00  0.00     0.119 C 
BRANCH   8   9
ATOM      9  C   LIG d   1      -3.432  93.436 120.703  0.00  0.00     0.028 C 
ATOM     10  C   LIG d   1      -4.603  92.460 120.911  0.00  0.00     0.006 C 
ENDBRANCH   8   9
BRANCH   8  11
ATOM     11  C   LIG d   1      -1.023  93.228 120.356  0.00  0.00     0.028 C 
ATOM     12  C   LIG d   1      -0.237  94.276 119.552  0.00  0.00     0.006 C 
ENDBRANCH   8  11
ENDBRANCH   7   8
ENDBRANCH   1   7
BRANCH   6  13
ATOM     13  N   LIG d   1      -0.719  91.706 116.971  0.00  0.00    -0.311 N 
ATOM     14  C   LIG d   1       0.344  91.138 117.539  0.00  0.00     0.210 C 
ATOM     15  C   LIG d   1       1.696  91.591 116.978  0.00  0.00     0.109 C 
ATOM     16  O   LIG d   1       0.294  90.279 118.432  0.00  0.00    -0.276 OA
ATOM     17  H   LIG d   1      -0.588  92.369 116.232  0.00  0.00     0.149 HD
ENDBRANCH   6  13
BRANCH   5  18
ATOM     18  N   LIG d   1      -2.124  89.017 116.617  0.00  0.00     0.381 N 
ATOM     19  H   LIG d   1      -1.900  88.832 117.574  0.00  0.00    -0.090 HD
ATOM     20  H   LIG d   1      -1.268  89.032 116.090  0.00  0.00    -0.090 HD
ATOM     21  H   LIG d   1      -2.725  88.304 116.265  0.00  0.00    -0.090 HD
ENDBRANCH   5  18
BRANCH   3  22
ATOM     22  C   LIG d   1      -6.304  91.350 116.742  0.00  0.00     0.382 C 
ATOM     23  O   LIG d   1      -6.902  92.408 116.430  0.00  0.00    -0.241 OA
ATOM     24  O   LIG d   1      -6.952  90.294 116.867  0.00  0.00    -0.241 OA
ENDBRANCH   3  22
TORSDOF 7
ENDMDL
MODEL 3
REMARK VINA RESULT:      -4.3      2.838      6.649
REMARK  7 active torsions:
REMARK  status: ('A' for Active; 'I' for Inactive)
REMARK    1  A    between atoms: C_2  and  C_3 
REMARK    2  A    between atoms: C_3  and  O_6 
REMARK    3  A    between atoms: C_3  and  C_4 
REMARK    4  A    between atoms: C_7  and  O_6 
REMARK    5  A    between atoms: C_9  and  C_10 
REMARK    6  A    between atoms: N_15  and  C_14 
REMARK    7  A    between atoms: N_20  and  C_19 
REMARK       I    between atoms: C_22  and  N_20 
ROOT
ATOM      1  C   LIG d   1      -0.559  91.766 117.357  0.00  0.00     0.161 C 
ATOM      2  C   LIG d   1       0.749  91.389 117.009  0.00  0.00     0.016 C 
ATOM      3  C   LIG d   1       1.902  92.075 117.454  0.00  0.00     0.038 C 
ATOM      4  C   LIG d   1       1.831  93.103 118.407  0.00  0.00     0.028 C 
ATOM      5  C   LIG d   1       0.499  93.846 118.398  0.00  0.00    -0.047 C 
ATOM      6  C   LIG d   1      -0.650  92.816 118.484  0.00  0.00     0.091 C 
ENDROOT
BRANCH   1   7
ATOM      7  O   LIG d   1      -1.331  90.598 117.697  0.00  0.00    -0.368 OA
BRANCH   7   8
ATOM      8  C   LIG d   1      -1.739  89.759 116.588  0.00  0.00     0.119 C 
BRANCH   8   9
ATOM      9  C   LIG d   1      -3.278  89.690 116.602  0.00  0.00     0.028 C 
ATOM     10  C   LIG d   1      -3.892  90.496 117.760  0.00  0.00     0.006 C 
ENDBRANCH   8   9
BRANCH   8  11
ATOM     11  C   LIG d   1      -1.267  88.314 116.779  0.00  0.00     0.028 C 
ATOM     12  C   LIG d   1      -1.447  87.815 118.221  0.00  0.00     0.006 C 
ENDBRANCH   8  11
ENDBRANCH   7   8
ENDBRANCH   1   7
BRANCH   6  13
ATOM     13  N   LIG d   1      -1.990  93.454 118.396  0.00  0.00    -0.311 N 
ATOM     14  C   LIG d   1      -2.711  93.794 119.463  0.00  0.00     0.210 C 
ATOM     15  C   LIG d   1      -4.073  94.421 119.150  0.00  0.00     0.109 C 
ATOM     16  O   LIG d   1      -2.338  93.666 120.639  0.00  0.00    -0.276 OA
ATOM     17  H   LIG d   1      -2.356  93.623 117.480  0.00  0.00     0.149 HD
ENDBRANCH   6  13
BRANCH   5  18
ATOM     18  N   LIG d   1       0.511  94.794 119.528  0.00  0.00     0.381 N 
ATOM     19  H   LIG d   1      -0.383  95.236 119.609  0.00  0.00    -0.090 HD
ATOM     20  H   LIG d   1       1.199  95.505 119.349  0.00  0.00    -0.090 HD
ATOM     21  H   LIG d   1       0.731  94.315 120.373  0.00  0.00    -0.090 HD
ENDBRANCH   5  18
BRANCH   3  22
ATOM     22  C   LIG d   1       3.140  91.761 116.914  0.00  0.00     0.382 C 
ATOM     23  O   LIG d   1       4.043  92.631 116.869  0.00  0.00    -0.241 OA
ATOM     24  O   LIG d   1       3.351  90.632 116.433  0.00  0.00    -0.241 OA
ENDBRANCH   3  22
TORSDOF 7
ENDMDL
MODEL 4
REMARK VINA RESULT:      -4.1      4.337      6.192
REMARK  7 active torsions:
REMARK  status: ('A' for Active; 'I' for Inactive)
REMARK    1  A    between atoms: C_2  and  C_3 
REMARK    2  A    between atoms: C_3  and  O_6 
REMARK    3  A    between atoms: C_3  and  C_4 
REMARK    4  A    between atoms: C_7  and  O_6 
REMARK    5  A    between atoms: C_9  and  C_10 
REMARK    6  A    between atoms: N_15  and  C_14 
REMARK    7  A    between atoms: N_20  and  C_19 
REMARK       I    between atoms: C_22  and  N_20 
ROOT
ATOM      1  C   LIG d   1      -6.055  93.205 120.815  0.00  0.00     0.161 C 
ATOM      2  C   LIG d   1      -7.452  93.133 120.685  0.00  0.00     0.016 C 
ATOM      3  C   LIG d   1      -8.276  94.266 120.498  0.00  0.00     0.038 C 
ATOM      4  C   LIG d   1      -7.740  95.544 120.276  0.00  0.00     0.028 C 
ATOM      5  C   LIG d   1      -6.364  95.740 120.902  0.00  0.00    -0.047 C 
ATOM      6  C   LIG d   1      -5.443  94.578 120.465  0.00  0.00     0.091 C 
ENDROOT
BRANCH   1   7
ATOM      7  O   LIG d   1      -5.437  92.166 120.031  0.00  0.00    -0.368 OA
BRANCH   7   8
ATOM      8  C   LIG d   1      -4.989  92.548 118.707  0.00  0.00     0.119 C 
BRANCH   8   9
ATOM      9  C   LIG d   1      -5.895  91.831 117.687  0.00  0.00     0.028 C 
ATOM     10  C   LIG d   1      -6.318  92.751 116.530  0.00  0.00     0.006 C 
ENDBRANCH   8   9
BRANCH   8  11
ATOM     11  C   LIG d   1      -3.575  92.031 118.426  0.00  0.00     0.028 C 
ATOM     12  C   LIG d   1      -2.781  92.950 117.484  0.00  0.00     0.006 C 
ENDBRANCH   8  11
ENDBRANCH   7   8
ENDBRANCH   1   7
BRANCH   6  13
ATOM     13  N   LIG d   1      -4.101  94.648 121.100  0.00  0.00    -0.311 N 
ATOM     14  C   LIG d   1      -3.047  95.224 120.525  0.00  0.00     0.210 C 
ATOM     15  C   LIG d   1      -1.753  95.167 121.343  0.00  0.00     0.109 C 
ATOM     16  O   LIG d   1      -3.068  95.804 119.429  0.00  0.00    -0.276 OA
ATOM     17  H   LIG d   1      -4.002  94.229 122.004  0.00  0.00     0.149 HD
ENDBRANCH   6  13
BRANCH   5  18
ATOM     18  N   LIG d   1      -5.866  97.063 120.478  0.00  0.00     0.381 N 
ATOM     19  H   LIG d   1      -5.275  97.446 121.188  0.00  0.00    -0.090 HD
ATOM     20  H   LIG d   1      -6.649  97.680 120.352  0.00  0.00    -0.090 HD
ATOM     21  H   LIG d   1      -5.359  96.979 119.624  0.00  0.00    -0.090 HD
ENDBRANCH   5  18
BRANCH   3  22
ATOM     22  C   LIG d   1      -9.654  94.134 120.572  0.00  0.00     0.382 C 
ATOM     23  O   LIG d   1     -10.167  93.388 121.441  0.00  0.00    -0.241 OA
ATOM     24  O   LIG d   1     -10.390  94.716 119.752  0.00  0.00    -0.241 OA
ENDBRANCH   3  22
TORSDOF 7
ENDMDL
MODEL 5
REMARK VINA RESULT:      -4.1      2.575      6.813
REMARK  7 active torsions:
REMARK  status: ('A' for Active; 'I' for Inactive)
REMARK    1  A    between atoms: C_2  and  C_3 
REMARK    2  A    between atoms: C_3  and  O_6 
REMARK    3  A    between atoms: C_3  and  C_4 
REMARK    4  A    between atoms: C_7  and  O_6 
REMARK    5  A    between atoms: C_9  and  C_10 
REMARK    6  A    between atoms: N_15  and  C_14 
REMARK    7  A    between atoms: N_20  and  C_19 
REMARK       I    between atoms: C_22  and  N_20 
ROOT
ATOM      1  C   LIG d   1       0.128  91.046 116.528  0.00  0.00     0.161 C 
ATOM      2  C   LIG d   1       1.528  90.984 116.632  0.00  0.00     0.016 C 
ATOM      3  C   LIG d   1       2.277  91.770 117.539  0.00  0.00     0.038 C 
ATOM      4  C   LIG d   1       1.659  92.567 118.514  0.00  0.00     0.028 C 
ATOM      5  C   LIG d   1       0.268  93.046 118.113  0.00  0.00    -0.047 C 
ATOM      6  C   LIG d   1      -0.570  91.829 117.660  0.00  0.00     0.091 C 
ENDROOT
BRANCH   1   7
ATOM      7  O   LIG d   1      -0.414  89.715 116.430  0.00  0.00    -0.368 OA
BRANCH   7   8
ATOM      8  C   LIG d   1       0.175  88.721 117.304  0.00  0.00     0.119 C 
BRANCH   8   9
ATOM      9  C   LIG d   1       0.408  87.448 116.467  0.00  0.00     0.028 C 
ATOM     10  C   LIG d   1       1.853  86.931 116.575  0.00  0.00     0.006 C 
ENDBRANCH   8   9
BRANCH   8  11
ATOM     11  C   LIG d   1      -0.798  88.305 118.411  0.00  0.00     0.028 C 
ATOM     12  C   LIG d   1      -2.271  88.463 118.000  0.00  0.00     0.006 C 
ENDBRANCH   8  11
ENDBRANCH   7   8
ENDBRANCH   1   7
BRANCH   6  13
ATOM     13  N   LIG d   1      -1.918  92.219 117.171  0.00  0.00    -0.311 N 
ATOM     14  C   LIG d   1      -3.018  92.147 117.919  0.00  0.00     0.210 C 
ATOM     15  C   LIG d   1      -4.308  92.580 117.214  0.00  0.00     0.109 C 
ATOM     16  O   LIG d   1      -3.043  91.797 119.108  0.00  0.00    -0.276 OA
ATOM     17  H   LIG d   1      -1.984  92.545 116.227  0.00  0.00     0.149 HD
ENDBRANCH   6  13
BRANCH   5  18
ATOM     18  N   LIG d   1      -0.313  93.748 119.273  0.00  0.00     0.381 N 
ATOM     19  H   LIG d   1      -0.184  93.200 120.100  0.00  0.00    -0.090 HD
ATOM     20  H   LIG d   1      -1.299  93.864 119.122  0.00  0.00    -0.090 HD
ATOM     21  H   LIG d   1       0.120  94.638 119.385  0.00  0.00    -0.090 HD
ENDBRANCH   5  18
BRANCH   3  22
ATOM     22  C   LIG d   1       3.660  91.793 117.448  0.00  0.00     0.382 C 
ATOM     23  O   LIG d   1       4.231  92.708 116.807  0.00  0.00    -0.241 OA
ATOM     24  O   LIG d   1       4.342  90.886 117.961  0.00  0.00    -0.241 OA
ENDBRANCH   3  22
TORSDOF 7
ENDMDL
MODEL 6
REMARK VINA RESULT:      -4.1      2.482      5.294
REMARK  7 active torsions:
REMARK  status: ('A' for Active; 'I' for Inactive)
REMARK    1  A    between atoms: C_2  and  C_3 
REMARK    2  A    between atoms: C_3  and  O_6 
REMARK    3  A    between atoms: C_3  and  C_4 
REMARK    4  A    between atoms: C_7  and  O_6 
REMARK    5  A    between atoms: C_9  and  C_10 
REMARK    6  A    between atoms: N_15  and  C_14 
REMARK    7  A    between atoms: N_20  and  C_19 
REMARK       I    between atoms: C_22  and  N_20 
ROOT
ATOM      1  C   LIG d   1      -3.417  92.450 118.115  0.00  0.00     0.161 C 
ATOM      2  C   LIG d   1      -2.928  91.195 117.716  0.00  0.00     0.016 C 
ATOM      3  C   LIG d   1      -1.567  90.948 117.424  0.00  0.00     0.038 C 
ATOM      4  C   LIG d   1      -0.572  91.908 117.659  0.00  0.00     0.028 C 
ATOM      5  C   LIG d   1      -1.084  93.342 117.580  0.00  0.00    -0.047 C 
ATOM      6  C   LIG d   1      -2.330  93.481 118.484  0.00  0.00     0.091 C 
ENDROOT
BRANCH   1   7
ATOM      7  O   LIG d   1      -4.345  92.288 119.207  0.00  0.00    -0.368 OA
BRANCH   7   8
ATOM      8  C   LIG d   1      -5.748  92.438 118.878  0.00  0.00     0.119 C 
BRANCH   8   9
ATOM      9  C   LIG d   1      -5.860  92.504 117.343  0.00  0.00     0.028 C 
ATOM     10  C   LIG d   1      -6.571  91.275 116.753  0.00  0.00     0.006 C 
ENDBRANCH   8   9
BRANCH   8  11
ATOM     11  C   LIG d   1      -6.299  93.775 119.382  0.00  0.00     0.028 C 
ATOM     12  C   LIG d   1      -6.590  94.767 118.245  0.00  0.00     0.006 C 
ENDBRANCH   8  11
ENDBRANCH   7   8
ENDBRANCH   1   7
BRANCH   6  13
ATOM     13  N   LIG d   1      -2.944  94.831 118.400  0.00  0.00    -0.311 N 
ATOM     14  C   LIG d   1      -3.063  95.649 119.445  0.00  0.00     0.210 C 
ATOM     15  C   LIG d   1      -3.745  96.987 119.144  0.00  0.00     0.109 C 
ATOM     16  O   LIG d   1      -2.640  95.406 120.585  0.00  0.00    -0.276 OA
ATOM     17  H   LIG d   1      -3.286  95.122 117.505  0.00  0.00     0.149 HD
ENDBRANCH   6  13
BRANCH   5  18
ATOM     18  N   LIG d   1       0.022  94.233 117.980  0.00  0.00     0.381 N 
ATOM     19  H   LIG d   1      -0.117  94.544 118.921  0.00  0.00    -0.090 HD
ATOM     20  H   LIG d   1       0.024  95.038 117.379  0.00  0.00    -0.090 HD
ATOM     21  H   LIG d   1       0.891  93.752 117.906  0.00  0.00    -0.090 HD
ENDBRANCH   5  18
BRANCH   3  22
ATOM     22  C   LIG d   1      -1.195  89.740 116.854  0.00  0.00     0.382 C 
ATOM     23  O   LIG d   1      -2.015  88.792 116.802  0.00  0.00    -0.241 OA
ATOM     24  O   LIG d   1      -0.035  89.572 116.430  0.00  0.00    -0.241 OA
ENDBRANCH   3  22
TORSDOF 7
ENDMDL
MODEL 7
REMARK VINA RESULT:      -4.0      2.581      6.060
REMARK  7 active torsions:
REMARK  status: ('A' for Active; 'I' for Inactive)
REMARK    1  A    between atoms: C_2  and  C_3 
REMARK    2  A    between atoms: C_3  and  O_6 
REMARK    3  A    between atoms: C_3  and  C_4 
REMARK    4  A    between atoms: C_7  and  O_6 
REMARK    5  A    between atoms: C_9  and  C_10 
REMARK    6  A    between atoms: N_15  and  C_14 
REMARK    7  A    between atoms: N_20  and  C_19 
REMARK       I    between atoms: C_22  and  N_20 
ROOT
ATOM      1  C   LIG d   1      -2.007  91.342 117.303  0.00  0.00     0.161 C 
ATOM      2  C   LIG d   1      -0.616  91.148 117.257  0.00  0.00     0.016 C 
ATOM      3  C   LIG d   1       0.321  92.196 117.408  0.00  0.00     0.038 C 
ATOM      4  C   LIG d   1      -0.070  93.495 117.767  0.00  0.00     0.028 C 
ATOM      5  C   LIG d   1      -1.488  93.844 117.328  0.00  0.00    -0.047 C 
ATOM      6  C   LIG d   1      -2.450  92.732 117.806  0.00  0.00     0.091 C 
ENDROOT
BRANCH   1   7
ATOM      7  O   LIG d   1      -2.618  90.305 118.096  0.00  0.00    -0.368 OA
BRANCH   7   8
ATOM      8  C   LIG d   1      -1.721  89.515 118.915  0.00  0.00     0.119 C 
BRANCH   8   9
ATOM      9  C   LIG d   1      -2.103  88.034 118.724  0.00  0.00     0.028 C 
ATOM     10  C   LIG d   1      -0.871  87.119 118.624  0.00  0.00     0.006 C 
ENDBRANCH   8   9
BRANCH   8  11
ATOM     11  C   LIG d   1      -1.931  89.800 120.405  0.00  0.00     0.028 C 
ATOM     12  C   LIG d   1      -0.939  90.834 120.959  0.00  0.00     0.006 C 
ENDBRANCH   8  11
ENDBRANCH   7   8
ENDBRANCH   1   7
BRANCH   6  13
ATOM     13  N   LIG d   1      -3.845  92.953 117.345  0.00  0.00    -0.311 N 
ATOM     14  C   LIG d   1      -4.881  93.070 118.174  0.00  0.00     0.210 C 
ATOM     15  C   LIG d   1      -6.237  93.273 117.490  0.00  0.00     0.109 C 
ATOM     16  O   LIG d   1      -4.802  93.057 119.411  0.00  0.00    -0.276 OA
ATOM     17  H   LIG d   1      -3.996  93.008 116.356  0.00  0.00     0.149 HD
ENDBRANCH   6  13
BRANCH   5  18
ATOM     18  N   LIG d   1      -1.814  95.170 117.886  0.00  0.00     0.381 N 
ATOM     19  H   LIG d   1      -2.308  95.062 118.749  0.00  0.00    -0.090 HD
ATOM     20  H   LIG d   1      -2.411  95.656 117.240  0.00  0.00    -0.090 HD
ATOM     21  H   LIG d   1      -0.979  95.691 118.036  0.00  0.00    -0.090 HD
ENDBRANCH   5  18
BRANCH   3  22
ATOM     22  C   LIG d   1       1.664  91.959 117.158  0.00  0.00     0.382 C 
ATOM     23  O   LIG d   1       2.535  92.733 117.622  0.00  0.00    -0.241 OA
ATOM     24  O   LIG d   1       2.013  91.004 116.437  0.00  0.00    -0.241 OA
ENDBRANCH   3  22
TORSDOF 7
ENDMDL
MODEL 8
REMARK VINA RESULT:      -4.0      3.056      4.609
REMARK  7 active torsions:
REMARK  status: ('A' for Active; 'I' for Inactive)
REMARK    1  A    between atoms: C_2  and  C_3 
REMARK    2  A    between atoms: C_3  and  O_6 
REMARK    3  A    between atoms: C_3  and  C_4 
REMARK    4  A    between atoms: C_7  and  O_6 
REMARK    5  A    between atoms: C_9  and  C_10 
REMARK    6  A    between atoms: N_15  and  C_14 
REMARK    7  A    between atoms: N_20  and  C_19 
REMARK       I    between atoms: C_22  and  N_20 
ROOT
ATOM      1  C   LIG d   1      -4.863  93.975 118.801  0.00  0.00     0.161 C 
ATOM      2  C   LIG d   1      -5.631  92.902 118.320  0.00  0.00     0.016 C 
ATOM      3  C   LIG d   1      -5.096  91.851 117.539  0.00  0.00     0.038 C 
ATOM      4  C   LIG d   1      -3.717  91.723 117.314  0.00  0.00     0.028 C 
ATOM      5  C   LIG d   1      -2.970  93.051 117.354  0.00  0.00    -0.047 C 
ATOM      6  C   LIG d   1      -3.337  93.794 118.659  0.00  0.00     0.091 C 
ENDROOT
BRANCH   1   7
ATOM      7  O   LIG d   1      -5.209  94.246 120.174  0.00  0.00    -0.368 OA
BRANCH   7   8
ATOM      8  C   LIG d   1      -5.509  93.091 120.996  0.00  0.00     0.119 C 
BRANCH   8   9
ATOM      9  C   LIG d   1      -6.839  93.372 121.721  0.00  0.00     0.028 C 
ATOM     10  C   LIG d   1      -7.186  94.870 121.753  0.00  0.00     0.006 C 
ENDBRANCH   8   9
BRANCH   8  11
ATOM     11  C   LIG d   1      -4.471  92.914 122.108  0.00  0.00     0.028 C 
ATOM     12  C   LIG d   1      -3.417  91.846 121.774  0.00  0.00     0.006 C 
ENDBRANCH   8  11
ENDBRANCH   7   8
ENDBRANCH   1   7
BRANCH   6  13
ATOM     13  N   LIG d   1      -2.715  95.141 118.739  0.00  0.00    -0.311 N 
ATOM     14  C   LIG d   1      -1.989  95.553 119.777  0.00  0.00     0.210 C 
ATOM     15  C   LIG d   1      -1.456  96.985 119.666  0.00  0.00     0.109 C 
ATOM     16  O   LIG d   1      -1.708  94.857 120.765  0.00  0.00    -0.276 OA
ATOM     17  H   LIG d   1      -2.865  95.760 117.966  0.00  0.00     0.149 HD
ENDBRANCH   6  13
BRANCH   5  18
ATOM     18  N   LIG d   1      -1.529  92.757 117.241  0.00  0.00     0.381 N 
ATOM     19  H   LIG d   1      -1.030  93.592 117.010  0.00  0.00    -0.090 HD
ATOM     20  H   LIG d   1      -1.391  92.091 116.502  0.00  0.00    -0.090 HD
ATOM     21  H   LIG d   1      -1.189  92.385 118.101  0.00  0.00    -0.090 HD
ENDBRANCH   5  18
BRANCH   3  22
ATOM     22  C   LIG d   1      -5.949  90.936 116.942  0.00  0.00     0.382 C 
ATOM     23  O   LIG d   1      -7.188  91.134 116.952  0.00  0.00    -0.241 OA
ATOM     24  O   LIG d   1      -5.499  89.892 116.432  0.00  0.00    -0.241 OA
ENDBRANCH   3  22
TORSDOF 7
ENDMDL
MODEL 9
REMARK VINA RESULT:      -3.9      2.107      4.193
REMARK  7 active torsions:
REMARK  status: ('A' for Active; 'I' for Inactive)
REMARK    1  A    between atoms: C_2  and  C_3 
REMARK    2  A    between atoms: C_3  and  O_6 
REMARK    3  A    between atoms: C_3  and  C_4 
REMARK    4  A    between atoms: C_7  and  O_6 
REMARK    5  A    between atoms: C_9  and  C_10 
REMARK    6  A    between atoms: N_15  and  C_14 
REMARK    7  A    between atoms: N_20  and  C_19 
REMARK       I    between atoms: C_22  and  N_20 
ROOT
ATOM      1  C   LIG d   1      -2.521  91.556 117.861  0.00  0.00     0.161 C 
ATOM      2  C   LIG d   1      -3.762  91.295 117.257  0.00  0.00     0.016 C 
ATOM      3  C   LIG d   1      -4.888  92.139 117.396  0.00  0.00     0.038 C 
ATOM      4  C   LIG d   1      -4.805  93.388 118.031  0.00  0.00     0.028 C 
ATOM      5  C   LIG d   1      -3.707  93.459 119.087  0.00  0.00    -0.047 C 
ATOM      6  C   LIG d   1      -2.380  92.969 118.464  0.00  0.00     0.091 C 
ENDROOT
BRANCH   1   7
ATOM      7  O   LIG d   1      -1.458  91.304 116.921  0.00  0.00    -0.368 OA
BRANCH   7   8
ATOM      8  C   LIG d   1      -0.521  90.260 117.284  0.00  0.00     0.119 C 
BRANCH   8   9
ATOM      9  C   LIG d   1       0.818  90.578 116.590  0.00  0.00     0.028 C 
ATOM     10  C   LIG d   1       2.005  90.553 117.567  0.00  0.00     0.006 C 
ENDBRANCH   8   9
BRANCH   8  11
ATOM     11  C   LIG d   1      -0.956  88.903 116.723  0.00  0.00     0.028 C 
ATOM     12  C   LIG d   1      -1.430  87.931 117.816  0.00  0.00     0.006 C 
ENDBRANCH   8  11
ENDBRANCH   7   8
ENDBRANCH   1   7
BRANCH   6  13
ATOM     13  N   LIG d   1      -1.272  92.927 119.454  0.00  0.00    -0.311 N 
ATOM     14  C   LIG d   1      -0.110  93.556 119.281  0.00  0.00     0.210 C 
ATOM     15  C   LIG d   1       0.903  93.365 120.414  0.00  0.00     0.109 C 
ATOM     16  O   LIG d   1       0.165  94.280 118.312  0.00  0.00    -0.276 OA
ATOM     17  H   LIG d   1      -1.422  92.388 120.284  0.00  0.00     0.149 HD
ENDBRANCH   6  13
BRANCH   5  18
ATOM     18  N   LIG d   1      -3.642  94.851 119.568  0.00  0.00     0.381 N 
ATOM     19  H   LIG d   1      -2.764  95.013 120.020  0.00  0.00    -0.090 HD
ATOM     20  H   LIG d   1      -4.374  94.998 120.241  0.00  0.00    -0.090 HD
ATOM     21  H   LIG d   1      -3.752  95.482 118.805  0.00  0.00    -0.090 HD
ENDBRANCH   5  18
BRANCH   3  22
ATOM     22  C   LIG d   1      -6.125  91.717 116.932  0.00  0.00     0.382 C 
ATOM     23  O   LIG d   1      -6.923  92.546 116.431  0.00  0.00    -0.241 OA
ATOM     24  O   LIG d   1      -6.471  90.526 117.049  0.00  0.00    -0.241 OA
ENDBRANCH   3  22
TORSDOF 7
ENDMDL
