MODEL 1
REMARK VINA RESULT:      -4.8      0.000      0.000
REMARK  7 active torsions:
REMARK  status: ('A' for Active; 'I' for Inactive)
REMARK    1  A    between atoms: C_2  and  C_3 
REMARK    2  A    between atoms: C_3  and  O_6 
REMARK    3  A    between atoms: C_3  and  C_4 
REMARK    4  A    between atoms: C_7  and  O_6 
REMARK    5  A    between atoms: C_9  and  C_10 
REMARK    6  A    between atoms: N_15  and  C_14 
REMARK    7  A    between atoms: N_20  and  C_19 
REMARK       I    between atoms: C_22  and  N_20 
ROOT
ATOM      1  C   LIG d   1      -5.052  93.079 118.951  0.00  0.00     0.161 C 
ATOM      2  C   LIG d   1      -6.284  93.721 118.744  0.00  0.00     0.016 C 
ATOM      3  C   LIG d   1      -7.268  93.247 117.846  0.00  0.00     0.038 C 
ATOM      4  C   LIG d   1      -7.146  92.007 117.201  0.00  0.00     0.028 C 
ATOM      5  C   LIG d   1      -5.700  91.572 116.992  0.00  0.00    -0.047 C 
ATOM      6  C   LIG d   1      -4.948  91.666 118.339  0.00  0.00     0.091 C 
ENDROOT
BRANCH   1   7
ATOM      7  O   LIG d   1      -4.752  93.038 120.360  0.00  0.00    -0.368 OA
BRANCH   7   8
ATOM      8  C   LIG d   1      -5.354  91.953 121.108  0.00  0.00     0.119 C 
BRANCH   8   9
ATOM      9  C   LIG d   1      -6.268  92.580 122.178  0.00  0.00     0.028 C 
ATOM     10  C   LIG d   1      -7.759  92.329 121.896  0.00  0.00     0.006 C 
ENDBRANCH   8   9
BRANCH   8  11
ATOM     11  C   LIG d   1      -4.299  91.162 121.888  0.00  0.00     0.028 C 
ATOM     12  C   LIG d   1      -2.899  91.791 121.803  0.00  0.00     0.006 C 
ENDBRANCH   8  11
ENDBRANCH   7   8
ENDBRANCH   1   7
BRANCH   6  13
ATOM     13  N   LIG d   1      -3.504  91.338 118.206  0.00  0.00    -0.311 N 
ATOM     14  C   LIG d   1      -3.001  90.132 118.459  0.00  0.00     0.210 C 
ATOM     15  C   LIG d   1      -1.484  90.013 118.279  0.00  0.00     0.109 C 
ATOM     16  O   LIG d   1      -3.670  89.139 118.784  0.00  0.00    -0.276 OA
ATOM     17  H   LIG d   1      -2.894  92.077 117.917  0.00  0.00     0.149 HD
ENDBRANCH   6  13
BRANCH   5  18
ATOM     18  N   LIG d   1      -5.722  90.206 116.436  0.00  0.00     0.381 N 
ATOM     19  H   LIG d   1      -4.793  89.833 116.417  0.00  0.00    -0.090 HD
ATOM     20  H   LIG d   1      -6.066  90.244 115.493  0.00  0.00    -0.090 HD
ATOM     21  H   LIG d   1      -6.310  89.622 116.989  0.00  0.00    -0.090 HD
ENDBRANCH   5  18
BRANCH   3  22
ATOM     22  C   LIG d   1      -8.370  94.036 117.555  0.00  0.00     0.382 C 
ATOM     23  O   LIG d   1      -8.661  95.004 118.298  0.00  0.00    -0.241 OA
ATOM     24  O   LIG d   1      -9.103  93.765 116.585  0.00  0.00    -0.241 OA
ENDBRANCH   3  22
TORSDOF 7
ENDMDL
MODEL 2
REMARK VINA RESULT:      -4.6      2.873      4.745
REMARK  7 active torsions:
REMARK  status: ('A' for Active; 'I' for Inactive)
REMARK    1  A    between atoms: C_2  and  C_3 
REMARK    2  A    between atoms: C_3  and  O_6 
REMARK    3  A    between atoms: C_3  and  C_4 
REMARK    4  A    between atoms: C_7  and  O_6 
REMARK    5  A    between atoms: C_9  and  C_10 
REMARK    6  A    between atoms: N_15  and  C_14 
REMARK    7  A    between atoms: N_20  and  C_19 
REMARK       I    between atoms: C_22  and  N_20 
ROOT
ATOM      1  C   LIG d   1      -3.342  91.448 118.245  0.00  0.00     0.161 C 
ATOM      2  C   LIG d   1      -4.323  90.769 117.503  0.00  0.00     0.016 C 
ATOM      3  C   LIG d   1      -5.627  91.272 117.293  0.00  0.00     0.038 C 
ATOM      4  C   LIG d   1      -5.995  92.567 117.687  0.00  0.00     0.028 C 
ATOM      5  C   LIG d   1      -5.198  93.087 118.878  0.00  0.00    -0.047 C 
ATOM      6  C   LIG d   1      -3.689  92.912 118.588  0.00  0.00     0.091 C 
ENDROOT
BRANCH   1   7
ATOM      7  O   LIG d   1      -2.076  91.381 117.559  0.00  0.00    -0.368 OA
BRANCH   7   8
ATOM      8  C   LIG d   1      -1.174  90.332 117.988  0.00  0.00     0.119 C 
BRANCH   8   9
ATOM      9  C   LIG d   1      -1.232  90.271 119.526  0.00  0.00     0.028 C 
ATOM     10  C   LIG d   1       0.109  89.845 120.148  0.00  0.00     0.006 C 
ENDBRANCH   8   9
BRANCH   8  11
ATOM     11  C   LIG d   1       0.280  90.675 117.650  0.00  0.00     0.028 C 
ATOM     12  C   LIG d   1       0.460  92.135 117.205  0.00  0.00     0.006 C 
ENDBRANCH   8  11
ENDBRANCH   7   8
ENDBRANCH   1   7
BRANCH   6  13
ATOM     13  N   LIG d   1      -2.840  93.318 119.738  0.00  0.00    -0.311 N 
ATOM     14  C   LIG d   1      -1.848  94.201 119.641  0.00  0.00     0.210 C 
ATOM     15  C   LIG d   1      -1.085  94.462 120.943  0.00  0.00     0.109 C 
ATOM     16  O   LIG d   1      -1.549  94.818 118.607  0.00  0.00    -0.276 OA
ATOM     17  H   LIG d   1      -3.034  92.889 120.622  0.00  0.00     0.149 HD
ENDBRANCH   6  13
BRANCH   5  18
ATOM     18  N   LIG d   1      -5.585  94.493 119.095  0.00  0.00     0.381 N 
ATOM     19  H   LIG d   1      -6.330  94.739 118.473  0.00  0.00    -0.090 HD
ATOM     20  H   LIG d   1      -4.797  95.083 118.891  0.00  0.00    -0.090 HD
ATOM     21  H   LIG d   1      -5.874  94.626 120.039  0.00  0.00    -0.090 HD
ENDBRANCH   5  18
BRANCH   3  22
ATOM     22  C   LIG d   1      -6.593  90.460 116.717  0.00  0.00     0.382 C 
ATOM     23  O   LIG d   1      -6.323  89.267 116.437  0.00  0.00    -0.241 OA
ATOM     24  O   LIG d   1      -7.716  90.917 116.433  0.00  0.00    -0.241 OA
ENDBRANCH   3  22
TORSDOF 7
ENDMDL
MODEL 3
REMARK VINA RESULT:      -4.6      1.632      2.150
REMARK  7 active torsions:
REMARK  status: ('A' for Active; 'I' for Inactive)
REMARK    1  A    between atoms: C_2  and  C_3 
REMARK    2  A    between atoms: C_3  and  O_6 
REMARK    3  A    between atoms: C_3  and  C_4 
REMARK    4  A    between atoms: C_7  and  O_6 
REMARK    5  A    between atoms: C_9  and  C_10 
REMARK    6  A    between atoms: N_15  and  C_14 
REMARK    7  A    between atoms: N_20  and  C_19 
REMARK       I    between atoms: C_22  and  N_20 
ROOT
ATOM      1  C   LIG d   1      -4.960  93.092 118.891  0.00  0.00     0.161 C 
ATOM      2  C   LIG d   1      -6.191  93.751 118.731  0.00  0.00     0.016 C 
ATOM      3  C   LIG d   1      -7.218  93.285 117.879  0.00  0.00     0.038 C 
ATOM      4  C   LIG d   1      -7.142  92.039 117.239  0.00  0.00     0.028 C 
ATOM      5  C   LIG d   1      -5.712  91.581 116.973  0.00  0.00    -0.047 C 
ATOM      6  C   LIG d   1      -4.903  91.674 118.287  0.00  0.00     0.091 C 
ENDROOT
BRANCH   1   7
ATOM      7  O   LIG d   1      -4.603  93.057 120.287  0.00  0.00    -0.368 OA
BRANCH   7   8
ATOM      8  C   LIG d   1      -3.442  93.837 120.667  0.00  0.00     0.119 C 
BRANCH   8   9
ATOM      9  C   LIG d   1      -3.938  95.019 121.522  0.00  0.00     0.028 C 
ATOM     10  C   LIG d   1      -4.121  96.304 120.696  0.00  0.00     0.006 C 
ENDBRANCH   8   9
BRANCH   8  11
ATOM     11  C   LIG d   1      -2.773  94.472 119.445  0.00  0.00     0.028 C 
ATOM     12  C   LIG d   1      -1.303  94.052 119.285  0.00  0.00     0.006 C 
ENDBRANCH   8  11
ENDBRANCH   7   8
ENDBRANCH   1   7
BRANCH   6  13
ATOM     13  N   LIG d   1      -3.471  91.323 118.097  0.00  0.00    -0.311 N 
ATOM     14  C   LIG d   1      -2.981  90.103 118.309  0.00  0.00     0.210 C 
ATOM     15  C   LIG d   1      -1.474  89.962 118.073  0.00  0.00     0.109 C 
ATOM     16  O   LIG d   1      -3.657  89.117 118.639  0.00  0.00    -0.276 OA
ATOM     17  H   LIG d   1      -2.858  92.057 117.800  0.00  0.00     0.149 HD
ENDBRANCH   6  13
BRANCH   5  18
ATOM     18  N   LIG d   1      -5.777  90.211 116.430  0.00  0.00     0.381 N 
ATOM     19  H   LIG d   1      -6.135  90.233 115.496  0.00  0.00    -0.090 HD
ATOM     20  H   LIG d   1      -6.405  89.666 116.995  0.00  0.00    -0.090 HD
ATOM     21  H   LIG d   1      -4.870  89.798 116.436  0.00  0.00    -0.090 HD
ENDBRANCH   5  18
BRANCH   3  22
ATOM     22  C   LIG d   1      -8.320  94.088 117.628  0.00  0.00     0.382 C 
ATOM     23  O   LIG d   1      -9.134  93.773 116.727  0.00  0.00    -0.241 OA
ATOM     24  O   LIG d   1      -8.487  95.148 118.261  0.00  0.00    -0.241 OA
ENDBRANCH   3  22
TORSDOF 7
ENDMDL
MODEL 4
REMARK VINA RESULT:      -4.5      2.290      3.240
REMARK  7 active torsions:
REMARK  status: ('A' for Active; 'I' for Inactive)
REMARK    1  A    between atoms: C_2  and  C_3 
REMARK    2  A    between atoms: C_3  and  O_6 
REMARK    3  A    between atoms: C_3  and  C_4 
REMARK    4  A    between atoms: C_7  and  O_6 
REMARK    5  A    between atoms: C_9  and  C_10 
REMARK    6  A    between atoms: N_15  and  C_14 
REMARK    7  A    between atoms: N_20  and  C_19 
REMARK       I    between atoms: C_22  and  N_20 
ROOT
ATOM      1  C   LIG d   1      -4.325  92.598 118.419  0.00  0.00     0.161 C 
ATOM      2  C   LIG d   1      -5.535  92.040 117.973  0.00  0.00     0.016 C 
ATOM      3  C   LIG d   1      -5.620  90.790 117.319  0.00  0.00     0.038 C 
ATOM      4  C   LIG d   1      -4.512  89.937 117.202  0.00  0.00     0.028 C 
ATOM      5  C   LIG d   1      -3.179  90.676 117.187  0.00  0.00    -0.047 C 
ATOM      6  C   LIG d   1      -3.122  91.633 118.400  0.00  0.00     0.091 C 
ENDROOT
BRANCH   1   7
ATOM      7  O   LIG d   1      -4.501  93.153 119.738  0.00  0.00    -0.368 OA
BRANCH   7   8
ATOM      8  C   LIG d   1      -5.867  93.422 120.140  0.00  0.00     0.119 C 
BRANCH   8   9
ATOM      9  C   LIG d   1      -6.046  94.952 120.178  0.00  0.00     0.028 C 
ATOM     10  C   LIG d   1      -6.898  95.472 119.008  0.00  0.00     0.006 C 
ENDBRANCH   8   9
BRANCH   8  11
ATOM     11  C   LIG d   1      -6.129  92.947 121.572  0.00  0.00     0.028 C 
ATOM     12  C   LIG d   1      -6.460  91.448 121.652  0.00  0.00     0.006 C 
ENDBRANCH   8  11
ENDBRANCH   7   8
ENDBRANCH   1   7
BRANCH   6  13
ATOM     13  N   LIG d   1      -1.885  92.457 118.414  0.00  0.00    -0.311 N 
ATOM     14  C   LIG d   1      -0.934  92.335 119.339  0.00  0.00     0.210 C 
ATOM     15  C   LIG d   1       0.249  93.295 119.180  0.00  0.00     0.109 C 
ATOM     16  O   LIG d   1      -0.942  91.501 120.257  0.00  0.00    -0.276 OA
ATOM     17  H   LIG d   1      -1.781  93.137 117.687  0.00  0.00     0.149 HD
ENDBRANCH   6  13
BRANCH   5  18
ATOM     18  N   LIG d   1      -2.107  89.662 117.200  0.00  0.00     0.381 N 
ATOM     19  H   LIG d   1      -2.385  88.883 117.763  0.00  0.00    -0.090 HD
ATOM     20  H   LIG d   1      -1.282  90.067 117.606  0.00  0.00    -0.090 HD
ATOM     21  H   LIG d   1      -1.915  89.358 116.271  0.00  0.00    -0.090 HD
ENDBRANCH   5  18
BRANCH   3  22
ATOM     22  C   LIG d   1      -6.817  90.398 116.739  0.00  0.00     0.382 C 
ATOM     23  O   LIG d   1      -7.000  89.196 116.430  0.00  0.00    -0.241 OA
ATOM     24  O   LIG d   1      -7.699  91.239 116.480  0.00  0.00    -0.241 OA
ENDBRANCH   3  22
TORSDOF 7
ENDMDL
MODEL 5
REMARK VINA RESULT:      -4.5      2.446      4.130
REMARK  7 active torsions:
REMARK  status: ('A' for Active; 'I' for Inactive)
REMARK    1  A    between atoms: C_2  and  C_3 
REMARK    2  A    between atoms: C_3  and  O_6 
REMARK    3  A    between atoms: C_3  and  C_4 
REMARK    4  A    between atoms: C_7  and  O_6 
REMARK    5  A    between atoms: C_9  and  C_10 
REMARK    6  A    between atoms: N_15  and  C_14 
REMARK    7  A    between atoms: N_20  and  C_19 
REMARK       I    between atoms: C_22  and  N_20 
ROOT
ATOM      1  C   LIG d   1      -5.370  92.795 118.880  0.00  0.00     0.161 C 
ATOM      2  C   LIG d   1      -6.594  93.375 118.506  0.00  0.00     0.016 C 
ATOM      3  C   LIG d   1      -6.970  94.692 118.855  0.00  0.00     0.038 C 
ATOM      4  C   LIG d   1      -6.078  95.577 119.478  0.00  0.00     0.028 C 
ATOM      5  C   LIG d   1      -5.018  94.875 120.321  0.00  0.00    -0.047 C 
ATOM      6  C   LIG d   1      -4.339  93.782 119.465  0.00  0.00     0.091 C 
ENDROOT
BRANCH   1   7
ATOM      7  O   LIG d   1      -4.804  92.083 117.762  0.00  0.00    -0.368 OA
BRANCH   7   8
ATOM      8  C   LIG d   1      -4.996  90.647 117.758  0.00  0.00     0.119 C 
BRANCH   8   9
ATOM      9  C   LIG d   1      -3.603  89.994 117.840  0.00  0.00     0.028 C 
ATOM     10  C   LIG d   1      -3.271  89.495 119.256  0.00  0.00     0.006 C 
ENDBRANCH   8   9
BRANCH   8  11
ATOM     11  C   LIG d   1      -5.591  90.168 116.430  0.00  0.00     0.028 C 
ATOM     12  C   LIG d   1      -7.128  90.171 116.430  0.00  0.00     0.006 C 
ENDBRANCH   8  11
ENDBRANCH   7   8
ENDBRANCH   1   7
BRANCH   6  13
ATOM     13  N   LIG d   1      -3.347  92.991 120.238  0.00  0.00    -0.311 N 
ATOM     14  C   LIG d   1      -2.035  93.037 120.012  0.00  0.00     0.210 C 
ATOM     15  C   LIG d   1      -1.192  92.127 120.910  0.00  0.00     0.109 C 
ATOM     16  O   LIG d   1      -1.487  93.769 119.175  0.00  0.00    -0.276 OA
ATOM     17  H   LIG d   1      -3.702  92.393 120.959  0.00  0.00     0.149 HD
ENDBRANCH   6  13
BRANCH   5  18
ATOM     18  N   LIG d   1      -4.076  95.905 120.799  0.00  0.00     0.381 N 
ATOM     19  H   LIG d   1      -3.141  95.550 120.765  0.00  0.00    -0.090 HD
ATOM     20  H   LIG d   1      -4.294  96.127 121.754  0.00  0.00    -0.090 HD
ATOM     21  H   LIG d   1      -4.149  96.722 120.235  0.00  0.00    -0.090 HD
ENDBRANCH   5  18
BRANCH   3  22
ATOM     22  C   LIG d   1      -8.266  95.123 118.615  0.00  0.00     0.382 C 
ATOM     23  O   LIG d   1      -8.489  96.333 118.372  0.00  0.00    -0.241 OA
ATOM     24  O   LIG d   1      -9.220  94.325 118.684  0.00  0.00    -0.241 OA
ENDBRANCH   3  22
TORSDOF 7
ENDMDL
MODEL 6
REMARK VINA RESULT:      -4.5      2.319      3.880
REMARK  7 active torsions:
REMARK  status: ('A' for Active; 'I' for Inactive)
REMARK    1  A    between atoms: C_2  and  C_3 
REMARK    2  A    between atoms: C_3  and  O_6 
REMARK    3  A    between atoms: C_3  and  C_4 
REMARK    4  A    between atoms: C_7  and  O_6 
REMARK    5  A    between atoms: C_9  and  C_10 
REMARK    6  A    between atoms: N_15  and  C_14 
REMARK    7  A    between atoms: N_20  and  C_19 
REMARK       I    between atoms: C_22  and  N_20 
ROOT
ATOM      1  C   LIG d   1      -4.710  92.495 118.589  0.00  0.00     0.161 C 
ATOM      2  C   LIG d   1      -5.915  92.656 117.886  0.00  0.00     0.016 C 
ATOM      3  C   LIG d   1      -6.866  93.657 118.191  0.00  0.00     0.038 C 
ATOM      4  C   LIG d   1      -6.604  94.667 119.128  0.00  0.00     0.028 C 
ATOM      5  C   LIG d   1      -5.618  94.247 120.213  0.00  0.00    -0.047 C 
ATOM      6  C   LIG d   1      -4.356  93.656 119.542  0.00  0.00     0.091 C 
ENDROOT
BRANCH   1   7
ATOM      7  O   LIG d   1      -3.631  92.262 117.662  0.00  0.00    -0.368 OA
BRANCH   7   8
ATOM      8  C   LIG d   1      -3.068  90.927 117.661  0.00  0.00     0.119 C 
BRANCH   8   9
ATOM      9  C   LIG d   1      -3.873  90.085 118.670  0.00  0.00     0.028 C 
ATOM     10  C   LIG d   1      -3.004  89.571 119.831  0.00  0.00     0.006 C 
ENDBRANCH   8   9
BRANCH   8  11
ATOM     11  C   LIG d   1      -1.631  90.928 118.189  0.00  0.00     0.028 C 
ATOM     12  C   LIG d   1      -0.822  92.146 117.715  0.00  0.00     0.006 C 
ENDBRANCH   8  11
ENDBRANCH   7   8
ENDBRANCH   1   7
BRANCH   6  13
ATOM     13  N   LIG d   1      -3.375  93.142 120.533  0.00  0.00    -0.311 N 
ATOM     14  C   LIG d   1      -2.171  93.681 120.719  0.00  0.00     0.210 C 
ATOM     15  C   LIG d   1      -1.308  92.984 121.776  0.00  0.00     0.109 C 
ATOM     16  O   LIG d   1      -1.748  94.688 120.132  0.00  0.00    -0.276 OA
ATOM     17  H   LIG d   1      -3.648  92.346 121.075  0.00  0.00     0.149 HD
ENDBRANCH   6  13
BRANCH   5  18
ATOM     18  N   LIG d   1      -5.331  95.434 121.039  0.00  0.00     0.381 N 
ATOM     19  H   LIG d   1      -4.972  96.170 120.463  0.00  0.00    -0.090 HD
ATOM     20  H   LIG d   1      -4.630  95.196 121.718  0.00  0.00    -0.090 HD
ATOM     21  H   LIG d   1      -6.160  95.738 121.500  0.00  0.00    -0.090 HD
ENDBRANCH   5  18
BRANCH   3  22
ATOM     22  C   LIG d   1      -8.111  93.631 117.582  0.00  0.00     0.382 C 
ATOM     23  O   LIG d   1      -9.123  94.032 118.206  0.00  0.00    -0.241 OA
ATOM     24  O   LIG d   1      -8.243  93.169 116.433  0.00  0.00    -0.241 OA
ENDBRANCH   3  22
TORSDOF 7
ENDMDL
MODEL 7
REMARK VINA RESULT:      -4.5      2.268      2.955
REMARK  7 active torsions:
REMARK  status: ('A' for Active; 'I' for Inactive)
REMARK    1  A    between atoms: C_2  and  C_3 
REMARK    2  A    between atoms: C_3  and  O_6 
REMARK    3  A    between atoms: C_3  and  C_4 
REMARK    4  A    between atoms: C_7  and  O_6 
REMARK    5  A    between atoms: C_9  and  C_10 
REMARK    6  A    between atoms: N_15  and  C_14 
REMARK    7  A    between atoms: N_20  and  C_19 
REMARK       I    between atoms: C_22  and  N_20 
ROOT
ATOM      1  C   LIG d   1      -4.680  92.590 118.900  0.00  0.00     0.161 C 
ATOM      2  C   LIG d   1      -5.757  91.894 118.327  0.00  0.00     0.016 C 
ATOM      3  C   LIG d   1      -5.597  90.864 117.371  0.00  0.00     0.038 C 
ATOM      4  C   LIG d   1      -4.335  90.355 117.034  0.00  0.00     0.028 C 
ATOM      5  C   LIG d   1      -3.207  91.366 117.209  0.00  0.00    -0.047 C 
ATOM      6  C   LIG d   1      -3.292  91.973 118.628  0.00  0.00     0.091 C 
ENDROOT
BRANCH   1   7
ATOM      7  O   LIG d   1      -4.893  92.738 120.318  0.00  0.00    -0.368 OA
BRANCH   7   8
ATOM      8  C   LIG d   1      -5.440  91.585 121.004  0.00  0.00     0.119 C 
BRANCH   8   9
ATOM      9  C   LIG d   1      -6.760  92.024 121.668  0.00  0.00     0.028 C 
ATOM     10  C   LIG d   1      -7.205  91.062 122.781  0.00  0.00     0.006 C 
ENDBRANCH   8   9
BRANCH   8  11
ATOM     11  C   LIG d   1      -4.535  91.140 122.156  0.00  0.00     0.028 C 
ATOM     12  C   LIG d   1      -3.528  90.057 121.739  0.00  0.00     0.006 C 
ENDBRANCH   8  11
ENDBRANCH   7   8
ENDBRANCH   1   7
BRANCH   6  13
ATOM     13  N   LIG d   1      -2.276  93.033 118.853  0.00  0.00    -0.311 N 
ATOM     14  C   LIG d   1      -1.379  92.992 119.837  0.00  0.00     0.210 C 
ATOM     15  C   LIG d   1      -0.436  94.197 119.903  0.00  0.00     0.109 C 
ATOM     16  O   LIG d   1      -1.254  92.057 120.641  0.00  0.00    -0.276 OA
ATOM     17  H   LIG d   1      -2.285  93.815 118.227  0.00  0.00     0.149 HD
ENDBRANCH   6  13
BRANCH   5  18
ATOM     18  N   LIG d   1      -1.935  90.663 116.956  0.00  0.00     0.381 N 
ATOM     19  H   LIG d   1      -2.028  90.071 116.155  0.00  0.00    -0.090 HD
ATOM     20  H   LIG d   1      -1.718  90.087 117.750  0.00  0.00    -0.090 HD
ATOM     21  H   LIG d   1      -1.204  91.324 116.806  0.00  0.00    -0.090 HD
ENDBRANCH   5  18
BRANCH   3  22
ATOM     22  C   LIG d   1      -6.708  90.361 116.711  0.00  0.00     0.382 C 
ATOM     23  O   LIG d   1      -7.669  91.118 116.433  0.00  0.00    -0.241 OA
ATOM     24  O   LIG d   1      -6.781  89.150 116.430  0.00  0.00    -0.241 OA
ENDBRANCH   3  22
TORSDOF 7
ENDMDL
MODEL 8
REMARK VINA RESULT:      -4.3      2.254      4.879
REMARK  7 active torsions:
REMARK  status: ('A' for Active; 'I' for Inactive)
REMARK    1  A    between atoms: C_2  and  C_3 
REMARK    2  A    between atoms: C_3  and  O_6 
REMARK    3  A    between atoms: C_3  and  C_4 
REMARK    4  A    between atoms: C_7  and  O_6 
REMARK    5  A    between atoms: C_9  and  C_10 
REMARK    6  A    between atoms: N_15  and  C_14 
REMARK    7  A    between atoms: N_20  and  C_19 
REMARK       I    between atoms: C_22  and  N_20 
ROOT
ATOM      1  C   LIG d   1      -5.041  92.788 119.303  0.00  0.00     0.161 C 
ATOM      2  C   LIG d   1      -3.862  92.184 118.836  0.00  0.00     0.016 C 
ATOM      3  C   LIG d   1      -3.842  91.192 117.829  0.00  0.00     0.038 C 
ATOM      4  C   LIG d   1      -4.995  90.841 117.111  0.00  0.00     0.028 C 
ATOM      5  C   LIG d   1      -6.286  91.058 117.893  0.00  0.00    -0.047 C 
ATOM      6  C   LIG d   1      -6.296  92.499 118.454  0.00  0.00     0.091 C 
ENDROOT
BRANCH   1   7
ATOM      7  O   LIG d   1      -4.843  94.209 119.436  0.00  0.00    -0.368 OA
BRANCH   7   8
ATOM      8  C   LIG d   1      -4.573  94.693 120.775  0.00  0.00     0.119 C 
BRANCH   8   9
ATOM      9  C   LIG d   1      -5.848  95.396 121.279  0.00  0.00     0.028 C 
ATOM     10  C   LIG d   1      -6.622  94.546 122.301  0.00  0.00     0.006 C 
ENDBRANCH   8   9
BRANCH   8  11
ATOM     11  C   LIG d   1      -3.489  95.775 120.769  0.00  0.00     0.028 C 
ATOM     12  C   LIG d   1      -2.466  95.586 119.638  0.00  0.00     0.006 C 
ENDBRANCH   8  11
ENDBRANCH   7   8
ENDBRANCH   1   7
BRANCH   6  13
ATOM     13  N   LIG d   1      -7.486  92.768 119.303  0.00  0.00    -0.311 N 
ATOM     14  C   LIG d   1      -8.606  93.320 118.842  0.00  0.00     0.210 C 
ATOM     15  C   LIG d   1      -9.704  93.528 119.890  0.00  0.00     0.109 C 
ATOM     16  O   LIG d   1      -8.807  93.629 117.657  0.00  0.00    -0.276 OA
ATOM     17  H   LIG d   1      -7.421  92.520 120.271  0.00  0.00     0.149 HD
ENDBRANCH   6  13
BRANCH   5  18
ATOM     18  N   LIG d   1      -7.412  90.785 116.980  0.00  0.00     0.381 N 
ATOM     19  H   LIG d   1      -8.238  90.590 117.510  0.00  0.00    -0.090 HD
ATOM     20  H   LIG d   1      -7.193  89.974 116.428  0.00  0.00    -0.090 HD
ATOM     21  H   LIG d   1      -7.567  91.569 116.386  0.00  0.00    -0.090 HD
ENDBRANCH   5  18
BRANCH   3  22
ATOM     22  C   LIG d   1      -2.666  90.509 117.560  0.00  0.00     0.382 C 
ATOM     23  O   LIG d   1      -2.679  89.260 117.440  0.00  0.00    -0.241 OA
ATOM     24  O   LIG d   1      -1.584  91.122 117.480  0.00  0.00    -0.241 OA
ENDBRANCH   3  22
TORSDOF 7
ENDMDL
MODEL 9
REMARK VINA RESULT:      -4.3      1.980      2.270
REMARK  7 active torsions:
REMARK  status: ('A' for Active; 'I' for Inactive)
REMARK    1  A    between atoms: C_2  and  C_3 
REMARK    2  A    between atoms: C_3  and  O_6 
REMARK    3  A    between atoms: C_3  and  C_4 
REMARK    4  A    between atoms: C_7  and  O_6 
REMARK    5  A    between atoms: C_9  and  C_10 
REMARK    6  A    between atoms: N_15  and  C_14 
REMARK    7  A    between atoms: N_20  and  C_19 
REMARK       I    between atoms: C_22  and  N_20 
ROOT
ATOM      1  C   LIG d   1      -5.644  93.716 120.501  0.00  0.00     0.161 C 
ATOM      2  C   LIG d   1      -7.012  93.816 120.804  0.00  0.00     0.016 C 
ATOM      3  C   LIG d   1      -8.038  93.579 119.860  0.00  0.00     0.038 C 
ATOM      4  C   LIG d   1      -7.765  93.075 118.580  0.00  0.00     0.028 C 
ATOM      5  C   LIG d   1      -6.375  93.441 118.068  0.00  0.00    -0.047 C 
ATOM      6  C   LIG d   1      -5.329  93.060 119.141  0.00  0.00     0.091 C 
ENDROOT
BRANCH   1   7
ATOM      7  O   LIG d   1      -4.958  93.023 121.562  0.00  0.00    -0.368 OA
BRANCH   7   8
ATOM      8  C   LIG d   1      -5.141  91.587 121.609  0.00  0.00     0.119 C 
BRANCH   8   9
ATOM      9  C   LIG d   1      -5.715  91.238 122.996  0.00  0.00     0.028 C 
ATOM     10  C   LIG d   1      -7.218  90.915 122.945  0.00  0.00     0.006 C 
ENDBRANCH   8   9
BRANCH   8  11
ATOM     11  C   LIG d   1      -3.801  90.851 121.528  0.00  0.00     0.028 C 
ATOM     12  C   LIG d   1      -2.597  91.780 121.751  0.00  0.00     0.006 C 
ENDBRANCH   8  11
ENDBRANCH   7   8
ENDBRANCH   1   7
BRANCH   6  13
ATOM     13  N   LIG d   1      -3.951  93.462 118.756  0.00  0.00    -0.311 N 
ATOM     14  C   LIG d   1      -3.082  92.635 118.176  0.00  0.00     0.210 C 
ATOM     15  C   LIG d   1      -1.708  93.246 117.881  0.00  0.00     0.109 C 
ATOM     16  O   LIG d   1      -3.328  91.465 117.850  0.00  0.00    -0.276 OA
ATOM     17  H   LIG d   1      -3.678  94.404 118.956  0.00  0.00     0.149 HD
ENDBRANCH   6  13
BRANCH   5  18
ATOM     18  N   LIG d   1      -6.173  92.739 116.787  0.00  0.00     0.381 N 
ATOM     19  H   LIG d   1      -5.457  92.048 116.890  0.00  0.00    -0.090 HD
ATOM     20  H   LIG d   1      -5.873  93.404 116.096  0.00  0.00    -0.090 HD
ATOM     21  H   LIG d   1      -7.022  92.307 116.497  0.00  0.00    -0.090 HD
ENDBRANCH   5  18
BRANCH   3  22
ATOM     22  C   LIG d   1      -9.351  93.885 120.181  0.00  0.00     0.382 C 
ATOM     23  O   LIG d   1     -10.254  93.030 120.010  0.00  0.00    -0.241 OA
ATOM     24  O   LIG d   1      -9.652  95.019 120.599  0.00  0.00    -0.241 OA
ENDBRANCH   3  22
TORSDOF 7
ENDMDL
