MODEL 1
REMARK VINA RESULT:      -4.6      0.000      0.000
REMARK  7 active torsions:
REMARK  status: ('A' for Active; 'I' for Inactive)
REMARK    1  A    between atoms: C_2  and  C_3 
REMARK    2  A    between atoms: C_3  and  O_6 
REMARK    3  A    between atoms: C_3  and  C_4 
REMARK    4  A    between atoms: C_7  and  O_6 
REMARK    5  A    between atoms: C_9  and  C_10 
REMARK    6  A    between atoms: N_15  and  C_14 
REMARK    7  A    between atoms: N_20  and  C_19 
REMARK       I    between atoms: C_22  and  N_20 
ROOT
ATOM      1  C   LIG d   1      -3.437  92.681 117.938  0.00  0.00     0.161 C 
ATOM      2  C   LIG d   1      -4.693  92.124 117.645  0.00  0.00     0.016 C 
ATOM      3  C   LIG d   1      -4.904  90.739 117.455  0.00  0.00     0.038 C 
ATOM      4  C   LIG d   1      -3.895  89.795 117.696  0.00  0.00     0.028 C 
ATOM      5  C   LIG d   1      -2.488  90.350 117.500  0.00  0.00    -0.047 C 
ATOM      6  C   LIG d   1      -2.346  91.657 118.313  0.00  0.00     0.091 C 
ENDROOT
BRANCH   1   7
ATOM      7  O   LIG d   1      -3.572  93.672 118.976  0.00  0.00    -0.368 OA
BRANCH   7   8
ATOM      8  C   LIG d   1      -4.806  93.637 119.734  0.00  0.00     0.119 C 
BRANCH   8   9
ATOM      9  C   LIG d   1      -5.335  95.081 119.826  0.00  0.00     0.028 C 
ATOM     10  C   LIG d   1      -6.638  95.280 119.033  0.00  0.00     0.006 C 
ENDBRANCH   8   9
BRANCH   8  11
ATOM     11  C   LIG d   1      -4.557  93.204 121.182  0.00  0.00     0.028 C 
ATOM     12  C   LIG d   1      -4.684  91.685 121.380  0.00  0.00     0.006 C 
ENDBRANCH   8  11
ENDBRANCH   7   8
ENDBRANCH   1   7
BRANCH   6  13
ATOM     13  N   LIG d   1      -1.027  92.310 118.111  0.00  0.00    -0.311 N 
ATOM     14  C   LIG d   1       0.016  92.122 118.918  0.00  0.00     0.210 C 
ATOM     15  C   LIG d   1       1.276  92.907 118.541  0.00  0.00     0.109 C 
ATOM     16  O   LIG d   1       0.027  91.355 119.893  0.00  0.00    -0.276 OA
ATOM     17  H   LIG d   1      -0.938  92.925 117.326  0.00  0.00     0.149 HD
ENDBRANCH   6  13
BRANCH   5  18
ATOM     18  N   LIG d   1      -1.534  89.304 117.916  0.00  0.00     0.381 N 
ATOM     19  H   LIG d   1      -1.644  89.114 118.892  0.00  0.00    -0.090 HD
ATOM     20  H   LIG d   1      -0.599  89.637 117.763  0.00  0.00    -0.090 HD
ATOM     21  H   LIG d   1      -1.689  88.472 117.390  0.00  0.00    -0.090 HD
ENDBRANCH   5  18
BRANCH   3  22
ATOM     22  C   LIG d   1      -6.127  90.289 116.981  0.00  0.00     0.382 C 
ATOM     23  O   LIG d   1      -7.158  90.985 117.147  0.00  0.00    -0.241 OA
ATOM     24  O   LIG d   1      -6.220  89.176 116.430  0.00  0.00    -0.241 OA
ENDBRANCH   3  22
TORSDOF 7
ENDMDL
MODEL 2
REMARK VINA RESULT:      -4.6      2.154      2.866
REMARK  7 active torsions:
REMARK  status: ('A' for Active; 'I' for Inactive)
REMARK    1  A    between atoms: C_2  and  C_3 
REMARK    2  A    between atoms: C_3  and  O_6 
REMARK    3  A    between atoms: C_3  and  C_4 
REMARK    4  A    between atoms: C_7  and  O_6 
REMARK    5  A    between atoms: C_9  and  C_10 
REMARK    6  A    between atoms: N_15  and  C_14 
REMARK    7  A    between atoms: N_20  and  C_19 
REMARK       I    between atoms: C_22  and  N_20 
ROOT
ATOM      1  C   LIG d   1      -5.699  93.206 118.923  0.00  0.00     0.161 C 
ATOM      2  C   LIG d   1      -6.222  92.050 118.321  0.00  0.00     0.016 C 
ATOM      3  C   LIG d   1      -5.426  91.095 117.648  0.00  0.00     0.038 C 
ATOM      4  C   LIG d   1      -4.024  91.155 117.664  0.00  0.00     0.028 C 
ATOM      5  C   LIG d   1      -3.480  92.570 117.826  0.00  0.00    -0.047 C 
ATOM      6  C   LIG d   1      -4.161  93.232 119.046  0.00  0.00     0.091 C 
ENDROOT
BRANCH   1   7
ATOM      7  O   LIG d   1      -6.308  93.403 120.215  0.00  0.00    -0.368 OA
BRANCH   7   8
ATOM      8  C   LIG d   1      -6.800  92.211 120.875  0.00  0.00     0.119 C 
BRANCH   8   9
ATOM      9  C   LIG d   1      -8.169  92.556 121.493  0.00  0.00     0.028 C 
ATOM     10  C   LIG d   1      -9.100  93.267 120.497  0.00  0.00     0.006 C 
ENDBRANCH   8   9
BRANCH   8  11
ATOM     11  C   LIG d   1      -5.909  91.820 122.057  0.00  0.00     0.028 C 
ATOM     12  C   LIG d   1      -5.111  93.007 122.620  0.00  0.00     0.006 C 
ENDBRANCH   8  11
ENDBRANCH   7   8
ENDBRANCH   1   7
BRANCH   6  13
ATOM     13  N   LIG d   1      -3.748  94.648 119.227  0.00  0.00    -0.311 N 
ATOM     14  C   LIG d   1      -2.758  95.026 120.034  0.00  0.00     0.210 C 
ATOM     15  C   LIG d   1      -2.508  96.536 120.088  0.00  0.00     0.109 C 
ATOM     16  O   LIG d   1      -2.041  94.250 120.685  0.00  0.00    -0.276 OA
ATOM     17  H   LIG d   1      -4.255  95.340 118.712  0.00  0.00     0.149 HD
ENDBRANCH   6  13
BRANCH   5  18
ATOM     18  N   LIG d   1      -2.015  92.471 117.965  0.00  0.00     0.381 N 
ATOM     19  H   LIG d   1      -1.578  92.677 117.089  0.00  0.00    -0.090 HD
ATOM     20  H   LIG d   1      -1.776  91.530 118.223  0.00  0.00    -0.090 HD
ATOM     21  H   LIG d   1      -1.695  93.107 118.662  0.00  0.00    -0.090 HD
ENDBRANCH   5  18
BRANCH   3  22
ATOM     22  C   LIG d   1      -6.034  90.086 116.917  0.00  0.00     0.382 C 
ATOM     23  O   LIG d   1      -7.281  90.076 116.778  0.00  0.00    -0.241 OA
ATOM     24  O   LIG d   1      -5.356  89.161 116.430  0.00  0.00    -0.241 OA
ENDBRANCH   3  22
TORSDOF 7
ENDMDL
MODEL 3
REMARK VINA RESULT:      -4.6      2.740      4.929
REMARK  7 active torsions:
REMARK  status: ('A' for Active; 'I' for Inactive)
REMARK    1  A    between atoms: C_2  and  C_3 
REMARK    2  A    between atoms: C_3  and  O_6 
REMARK    3  A    between atoms: C_3  and  C_4 
REMARK    4  A    between atoms: C_7  and  O_6 
REMARK    5  A    between atoms: C_9  and  C_10 
REMARK    6  A    between atoms: N_15  and  C_14 
REMARK    7  A    between atoms: N_20  and  C_19 
REMARK       I    between atoms: C_22  and  N_20 
ROOT
ATOM      1  C   LIG d   1      -4.793  91.616 119.895  0.00  0.00     0.161 C 
ATOM      2  C   LIG d   1      -3.686  90.861 119.472  0.00  0.00     0.016 C 
ATOM      3  C   LIG d   1      -3.647  90.157 118.247  0.00  0.00     0.038 C 
ATOM      4  C   LIG d   1      -4.661  90.284 117.286  0.00  0.00     0.028 C 
ATOM      5  C   LIG d   1      -6.021  90.631 117.883  0.00  0.00    -0.047 C 
ATOM      6  C   LIG d   1      -5.864  91.857 118.811  0.00  0.00     0.091 C 
ENDROOT
BRANCH   1   7
ATOM      7  O   LIG d   1      -4.346  92.871 120.446  0.00  0.00    -0.368 OA
BRANCH   7   8
ATOM      8  C   LIG d   1      -4.084  93.929 119.492  0.00  0.00     0.119 C 
BRANCH   8   9
ATOM      9  C   LIG d   1      -2.583  94.267 119.576  0.00  0.00     0.028 C 
ATOM     10  C   LIG d   1      -1.818  93.859 118.305  0.00  0.00     0.006 C 
ENDBRANCH   8   9
BRANCH   8  11
ATOM     11  C   LIG d   1      -4.813  95.220 119.877  0.00  0.00     0.028 C 
ATOM     12  C   LIG d   1      -5.599  95.090 121.191  0.00  0.00     0.006 C 
ENDBRANCH   8  11
ENDBRANCH   7   8
ENDBRANCH   1   7
BRANCH   6  13
ATOM     13  N   LIG d   1      -7.131  92.212 119.501  0.00  0.00    -0.311 N 
ATOM     14  C   LIG d   1      -7.965  93.154 119.065  0.00  0.00     0.210 C 
ATOM     15  C   LIG d   1      -9.205  93.375 119.937  0.00  0.00     0.109 C 
ATOM     16  O   LIG d   1      -7.812  93.806 118.021  0.00  0.00    -0.276 OA
ATOM     17  H   LIG d   1      -7.349  91.710 120.340  0.00  0.00     0.149 HD
ENDBRANCH   6  13
BRANCH   5  18
ATOM     18  N   LIG d   1      -6.952  90.870 116.763  0.00  0.00     0.381 N 
ATOM     19  H   LIG d   1      -7.868  91.057 117.118  0.00  0.00    -0.090 HD
ATOM     20  H   LIG d   1      -6.996  90.042 116.196  0.00  0.00    -0.090 HD
ATOM     21  H   LIG d   1      -6.636  91.640 116.215  0.00  0.00    -0.090 HD
ENDBRANCH   5  18
BRANCH   3  22
ATOM     22  C   LIG d   1      -2.603  89.282 117.990  0.00  0.00     0.382 C 
ATOM     23  O   LIG d   1      -2.830  88.055 117.859  0.00  0.00    -0.241 OA
ATOM     24  O   LIG d   1      -1.430  89.698 117.930  0.00  0.00    -0.241 OA
ENDBRANCH   3  22
TORSDOF 7
ENDMDL
MODEL 4
REMARK VINA RESULT:      -4.5      2.811      4.858
REMARK  7 active torsions:
REMARK  status: ('A' for Active; 'I' for Inactive)
REMARK    1  A    between atoms: C_2  and  C_3 
REMARK    2  A    between atoms: C_3  and  O_6 
REMARK    3  A    between atoms: C_3  and  C_4 
REMARK    4  A    between atoms: C_7  and  O_6 
REMARK    5  A    between atoms: C_9  and  C_10 
REMARK    6  A    between atoms: N_15  and  C_14 
REMARK    7  A    between atoms: N_20  and  C_19 
REMARK       I    between atoms: C_22  and  N_20 
ROOT
ATOM      1  C   LIG d   1      -5.247  92.130 119.502  0.00  0.00     0.161 C 
ATOM      2  C   LIG d   1      -5.127  91.035 118.631  0.00  0.00     0.016 C 
ATOM      3  C   LIG d   1      -5.920  90.871 117.472  0.00  0.00     0.038 C 
ATOM      4  C   LIG d   1      -6.789  91.876 117.020  0.00  0.00     0.028 C 
ATOM      5  C   LIG d   1      -7.310  92.774 118.137  0.00  0.00    -0.047 C 
ATOM      6  C   LIG d   1      -6.111  93.291 118.965  0.00  0.00     0.091 C 
ENDROOT
BRANCH   1   7
ATOM      7  O   LIG d   1      -3.938  92.609 119.868  0.00  0.00    -0.368 OA
BRANCH   7   8
ATOM      8  C   LIG d   1      -3.317  93.537 118.946  0.00  0.00     0.119 C 
BRANCH   8   9
ATOM      9  C   LIG d   1      -2.062  92.851 118.372  0.00  0.00     0.028 C 
ATOM     10  C   LIG d   1      -1.431  91.859 119.363  0.00  0.00     0.006 C 
ENDBRANCH   8   9
BRANCH   8  11
ATOM     11  C   LIG d   1      -2.801  94.783 119.672  0.00  0.00     0.028 C 
ATOM     12  C   LIG d   1      -3.089  94.755 121.181  0.00  0.00     0.006 C 
ENDBRANCH   8  11
ENDBRANCH   7   8
ENDBRANCH   1   7
BRANCH   6  13
ATOM     13  N   LIG d   1      -6.538  94.109 120.130  0.00  0.00    -0.311 N 
ATOM     14  C   LIG d   1      -6.620  95.438 120.102  0.00  0.00     0.210 C 
ATOM     15  C   LIG d   1      -7.062  96.087 121.418  0.00  0.00     0.109 C 
ATOM     16  O   LIG d   1      -6.400  96.139 119.103  0.00  0.00    -0.276 OA
ATOM     17  H   LIG d   1      -6.766  93.619 120.973  0.00  0.00     0.149 HD
ENDBRANCH   6  13
BRANCH   5  18
ATOM     18  N   LIG d   1      -8.090  93.858 117.511  0.00  0.00     0.381 N 
ATOM     19  H   LIG d   1      -8.812  93.468 116.938  0.00  0.00    -0.090 HD
ATOM     20  H   LIG d   1      -7.481  94.400 116.925  0.00  0.00    -0.090 HD
ATOM     21  H   LIG d   1      -8.492  94.439 118.214  0.00  0.00    -0.090 HD
ENDBRANCH   5  18
BRANCH   3  22
ATOM     22  C   LIG d   1      -5.878  89.675 116.773  0.00  0.00     0.382 C 
ATOM     23  O   LIG d   1      -4.773  89.182 116.441  0.00  0.00    -0.241 OA
ATOM     24  O   LIG d   1      -6.931  89.105 116.431  0.00  0.00    -0.241 OA
ENDBRANCH   3  22
TORSDOF 7
ENDMDL
MODEL 5
REMARK VINA RESULT:      -4.4      2.072      3.366
REMARK  7 active torsions:
REMARK  status: ('A' for Active; 'I' for Inactive)
REMARK    1  A    between atoms: C_2  and  C_3 
REMARK    2  A    between atoms: C_3  and  O_6 
REMARK    3  A    between atoms: C_3  and  C_4 
REMARK    4  A    between atoms: C_7  and  O_6 
REMARK    5  A    between atoms: C_9  and  C_10 
REMARK    6  A    between atoms: N_15  and  C_14 
REMARK    7  A    between atoms: N_20  and  C_19 
REMARK       I    between atoms: C_22  and  N_20 
ROOT
ATOM      1  C   LIG d   1      -3.058  92.491 118.311  0.00  0.00     0.161 C 
ATOM      2  C   LIG d   1      -4.355  93.028 118.270  0.00  0.00     0.016 C 
ATOM      3  C   LIG d   1      -5.459  92.353 117.699  0.00  0.00     0.038 C 
ATOM      4  C   LIG d   1      -5.370  91.023 117.264  0.00  0.00     0.028 C 
ATOM      5  C   LIG d   1      -3.966  90.622 116.824  0.00  0.00    -0.047 C 
ATOM      6  C   LIG d   1      -2.965  90.996 117.941  0.00  0.00     0.091 C 
ENDROOT
BRANCH   1   7
ATOM      7  O   LIG d   1      -2.474  92.724 119.608  0.00  0.00    -0.368 OA
BRANCH   7   8
ATOM      8  C   LIG d   1      -1.477  93.773 119.680  0.00  0.00     0.119 C 
BRANCH   8   9
ATOM      9  C   LIG d   1      -0.118  93.102 119.955  0.00  0.00     0.028 C 
ATOM     10  C   LIG d   1       0.827  93.172 118.744  0.00  0.00     0.006 C 
ENDBRANCH   8   9
BRANCH   8  11
ATOM     11  C   LIG d   1      -1.724  94.695 120.877  0.00  0.00     0.028 C 
ATOM     12  C   LIG d   1      -2.433  96.002 120.487  0.00  0.00     0.006 C 
ENDBRANCH   8  11
ENDBRANCH   7   8
ENDBRANCH   1   7
BRANCH   6  13
ATOM     13  N   LIG d   1      -1.557  90.715 117.557  0.00  0.00    -0.311 N 
ATOM     14  C   LIG d   1      -0.890  89.634 117.959  0.00  0.00     0.210 C 
ATOM     15  C   LIG d   1       0.558  89.547 117.465  0.00  0.00     0.109 C 
ATOM     16  O   LIG d   1      -1.369  88.723 118.650  0.00  0.00    -0.276 OA
ATOM     17  H   LIG d   1      -1.100  91.387 116.972  0.00  0.00     0.149 HD
ENDBRANCH   6  13
BRANCH   5  18
ATOM     18  N   LIG d   1      -3.987  89.177 116.527  0.00  0.00     0.381 N 
ATOM     19  H   LIG d   1      -4.518  88.696 117.226  0.00  0.00    -0.090 HD
ATOM     20  H   LIG d   1      -3.046  88.827 116.549  0.00  0.00    -0.090 HD
ATOM     21  H   LIG d   1      -4.387  89.020 115.629  0.00  0.00    -0.090 HD
ENDBRANCH   5  18
BRANCH   3  22
ATOM     22  C   LIG d   1      -6.659  93.025 117.524  0.00  0.00     0.382 C 
ATOM     23  O   LIG d   1      -7.073  93.812 118.409  0.00  0.00    -0.241 OA
ATOM     24  O   LIG d   1      -7.356  92.820 116.512  0.00  0.00    -0.241 OA
ENDBRANCH   3  22
TORSDOF 7
ENDMDL
MODEL 6
REMARK VINA RESULT:      -4.4      1.854      2.805
REMARK  7 active torsions:
REMARK  status: ('A' for Active; 'I' for Inactive)
REMARK    1  A    between atoms: C_2  and  C_3 
REMARK    2  A    between atoms: C_3  and  O_6 
REMARK    3  A    between atoms: C_3  and  C_4 
REMARK    4  A    between atoms: C_7  and  O_6 
REMARK    5  A    between atoms: C_9  and  C_10 
REMARK    6  A    between atoms: N_15  and  C_14 
REMARK    7  A    between atoms: N_20  and  C_19 
REMARK       I    between atoms: C_22  and  N_20 
ROOT
ATOM      1  C   LIG d   1      -3.226  92.613 118.316  0.00  0.00     0.161 C 
ATOM      2  C   LIG d   1      -4.590  92.943 118.386  0.00  0.00     0.016 C 
ATOM      3  C   LIG d   1      -5.621  92.088 117.934  0.00  0.00     0.038 C 
ATOM      4  C   LIG d   1      -5.365  90.773 117.518  0.00  0.00     0.028 C 
ATOM      5  C   LIG d   1      -3.960  90.578 116.958  0.00  0.00    -0.047 C 
ATOM      6  C   LIG d   1      -2.934  91.139 117.968  0.00  0.00     0.091 C 
ENDROOT
BRANCH   1   7
ATOM      7  O   LIG d   1      -2.572  92.976 119.548  0.00  0.00    -0.368 OA
BRANCH   7   8
ATOM      8  C   LIG d   1      -2.507  91.945 120.563  0.00  0.00     0.119 C 
BRANCH   8   9
ATOM      9  C   LIG d   1      -3.402  92.392 121.736  0.00  0.00     0.028 C 
ATOM     10  C   LIG d   1      -4.711  91.589 121.814  0.00  0.00     0.006 C 
ENDBRANCH   8   9
BRANCH   8  11
ATOM     11  C   LIG d   1      -1.097  91.829 121.151  0.00  0.00     0.028 C 
ATOM     12  C   LIG d   1      -0.072  92.709 120.418  0.00  0.00     0.006 C 
ENDBRANCH   8  11
ENDBRANCH   7   8
ENDBRANCH   1   7
BRANCH   6  13
ATOM     13  N   LIG d   1      -1.539  91.064 117.461  0.00  0.00    -0.311 N 
ATOM     14  C   LIG d   1      -0.683  90.104 117.807  0.00  0.00     0.210 C 
ATOM     15  C   LIG d   1       0.711  90.225 117.185  0.00  0.00     0.109 C 
ATOM     16  O   LIG d   1      -0.957  89.145 118.545  0.00  0.00    -0.276 OA
ATOM     17  H   LIG d   1      -1.243  91.785 116.832  0.00  0.00     0.149 HD
ENDBRANCH   6  13
BRANCH   5  18
ATOM     18  N   LIG d   1      -3.782  89.137 116.692  0.00  0.00     0.381 N 
ATOM     19  H   LIG d   1      -3.808  88.969 115.706  0.00  0.00    -0.090 HD
ATOM     20  H   LIG d   1      -4.539  88.632 117.119  0.00  0.00    -0.090 HD
ATOM     21  H   LIG d   1      -2.913  88.827 117.067  0.00  0.00    -0.090 HD
ENDBRANCH   5  18
BRANCH   3  22
ATOM     22  C   LIG d   1      -6.922  92.561 117.858  0.00  0.00     0.382 C 
ATOM     23  O   LIG d   1      -7.641  92.587 118.886  0.00  0.00    -0.241 OA
ATOM     24  O   LIG d   1      -7.401  92.921 116.766  0.00  0.00    -0.241 OA
ENDBRANCH   3  22
TORSDOF 7
ENDMDL
MODEL 7
REMARK VINA RESULT:      -4.3      2.497      4.617
REMARK  7 active torsions:
REMARK  status: ('A' for Active; 'I' for Inactive)
REMARK    1  A    between atoms: C_2  and  C_3 
REMARK    2  A    between atoms: C_3  and  O_6 
REMARK    3  A    between atoms: C_3  and  C_4 
REMARK    4  A    between atoms: C_7  and  O_6 
REMARK    5  A    between atoms: C_9  and  C_10 
REMARK    6  A    between atoms: N_15  and  C_14 
REMARK    7  A    between atoms: N_20  and  C_19 
REMARK       I    between atoms: C_22  and  N_20 
ROOT
ATOM      1  C   LIG d   1      -5.189  92.800 118.455  0.00  0.00     0.161 C 
ATOM      2  C   LIG d   1      -6.371  93.371 117.954  0.00  0.00     0.016 C 
ATOM      3  C   LIG d   1      -6.981  94.516 118.515  0.00  0.00     0.038 C 
ATOM      4  C   LIG d   1      -6.364  95.263 119.530  0.00  0.00     0.028 C 
ATOM      5  C   LIG d   1      -5.424  94.438 120.402  0.00  0.00    -0.047 C 
ATOM      6  C   LIG d   1      -4.442  93.666 119.492  0.00  0.00     0.091 C 
ENDROOT
BRANCH   1   7
ATOM      7  O   LIG d   1      -4.312  92.456 117.364  0.00  0.00    -0.368 OA
BRANCH   7   8
ATOM      8  C   LIG d   1      -4.211  91.046 117.047  0.00  0.00     0.119 C 
BRANCH   8   9
ATOM      9  C   LIG d   1      -5.413  90.338 117.702  0.00  0.00     0.028 C 
ATOM     10  C   LIG d   1      -6.445  89.858 116.668  0.00  0.00     0.006 C 
ENDBRANCH   8   9
BRANCH   8  11
ATOM     11  C   LIG d   1      -2.971  90.418 117.690  0.00  0.00     0.028 C 
ATOM     12  C   LIG d   1      -3.318  89.435 118.820  0.00  0.00     0.006 C 
ENDBRANCH   8  11
ENDBRANCH   7   8
ENDBRANCH   1   7
BRANCH   6  13
ATOM     13  N   LIG d   1      -3.542  92.768 120.261  0.00  0.00    -0.311 N 
ATOM     14  C   LIG d   1      -2.223  92.940 120.333  0.00  0.00     0.210 C 
ATOM     15  C   LIG d   1      -1.479  91.889 121.164  0.00  0.00     0.109 C 
ATOM     16  O   LIG d   1      -1.603  93.881 119.816  0.00  0.00    -0.276 OA
ATOM     17  H   LIG d   1      -3.965  91.997 120.738  0.00  0.00     0.149 HD
ENDBRANCH   6  13
BRANCH   5  18
ATOM     18  N   LIG d   1      -4.746  95.365 121.328  0.00  0.00     0.381 N 
ATOM     19  H   LIG d   1      -5.316  96.175 121.474  0.00  0.00    -0.090 HD
ATOM     20  H   LIG d   1      -3.879  95.660 120.915  0.00  0.00    -0.090 HD
ATOM     21  H   LIG d   1      -4.571  94.912 122.198  0.00  0.00    -0.090 HD
ENDBRANCH   5  18
BRANCH   3  22
ATOM     22  C   LIG d   1      -8.242  94.902 118.087  0.00  0.00     0.382 C 
ATOM     23  O   LIG d   1      -8.878  94.182 117.280  0.00  0.00    -0.241 OA
ATOM     24  O   LIG d   1      -8.733  95.983 118.464  0.00  0.00    -0.241 OA
ENDBRANCH   3  22
TORSDOF 7
ENDMDL
MODEL 8
REMARK VINA RESULT:      -4.3      2.252      4.656
REMARK  7 active torsions:
REMARK  status: ('A' for Active; 'I' for Inactive)
REMARK    1  A    between atoms: C_2  and  C_3 
REMARK    2  A    between atoms: C_3  and  O_6 
REMARK    3  A    between atoms: C_3  and  C_4 
REMARK    4  A    between atoms: C_7  and  O_6 
REMARK    5  A    between atoms: C_9  and  C_10 
REMARK    6  A    between atoms: N_15  and  C_14 
REMARK    7  A    between atoms: N_20  and  C_19 
REMARK       I    between atoms: C_22  and  N_20 
ROOT
ATOM      1  C   LIG d   1      -2.725  90.032 118.315  0.00  0.00     0.161 C 
ATOM      2  C   LIG d   1      -3.908  89.770 117.605  0.00  0.00     0.016 C 
ATOM      3  C   LIG d   1      -4.839  90.772 117.247  0.00  0.00     0.038 C 
ATOM      4  C   LIG d   1      -4.574  92.135 117.445  0.00  0.00     0.028 C 
ATOM      5  C   LIG d   1      -3.626  92.405 118.608  0.00  0.00    -0.047 C 
ATOM      6  C   LIG d   1      -2.365  91.527 118.442  0.00  0.00     0.091 C 
ENDROOT
BRANCH   1   7
ATOM      7  O   LIG d   1      -1.630  89.301 117.727  0.00  0.00    -0.368 OA
BRANCH   7   8
ATOM      8  C   LIG d   1      -1.543  87.897 118.074  0.00  0.00     0.119 C 
BRANCH   8   9
ATOM      9  C   LIG d   1      -1.528  87.800 119.611  0.00  0.00     0.028 C 
ATOM     10  C   LIG d   1      -2.129  86.479 120.121  0.00  0.00     0.006 C 
ENDBRANCH   8   9
BRANCH   8  11
ATOM     11  C   LIG d   1      -0.212  87.293 117.616  0.00  0.00     0.028 C 
ATOM     12  C   LIG d   1       0.948  88.300 117.665  0.00  0.00     0.006 C 
ENDBRANCH   8  11
ENDBRANCH   7   8
ENDBRANCH   1   7
BRANCH   6  13
ATOM     13  N   LIG d   1      -1.422  91.667 119.582  0.00  0.00    -0.311 N 
ATOM     14  C   LIG d   1      -0.129  91.952 119.434  0.00  0.00     0.210 C 
ATOM     15  C   LIG d   1       0.669  92.032 120.739  0.00  0.00     0.109 C 
ATOM     16  O   LIG d   1       0.425  92.178 118.348  0.00  0.00    -0.276 OA
ATOM     17  H   LIG d   1      -1.794  91.531 120.501  0.00  0.00     0.149 HD
ENDBRANCH   6  13
BRANCH   5  18
ATOM     18  N   LIG d   1      -3.328  93.850 118.614  0.00  0.00     0.381 N 
ATOM     19  H   LIG d   1      -2.479  94.019 119.115  0.00  0.00    -0.090 HD
ATOM     20  H   LIG d   1      -4.073  94.333 119.085  0.00  0.00    -0.090 HD
ATOM     21  H   LIG d   1      -3.243  94.185 117.680  0.00  0.00    -0.090 HD
ENDBRANCH   5  18
BRANCH   3  22
ATOM     22  C   LIG d   1      -6.070  90.410 116.720  0.00  0.00     0.382 C 
ATOM     23  O   LIG d   1      -6.299  89.211 116.430  0.00  0.00    -0.241 OA
ATOM     24  O   LIG d   1      -6.937  91.274 116.490  0.00  0.00    -0.241 OA
ENDBRANCH   3  22
TORSDOF 7
ENDMDL
MODEL 9
REMARK VINA RESULT:      -4.0      2.508      6.033
REMARK  7 active torsions:
REMARK  status: ('A' for Active; 'I' for Inactive)
REMARK    1  A    between atoms: C_2  and  C_3 
REMARK    2  A    between atoms: C_3  and  O_6 
REMARK    3  A    between atoms: C_3  and  C_4 
REMARK    4  A    between atoms: C_7  and  O_6 
REMARK    5  A    between atoms: C_9  and  C_10 
REMARK    6  A    between atoms: N_15  and  C_14 
REMARK    7  A    between atoms: N_20  and  C_19 
REMARK       I    between atoms: C_22  and  N_20 
ROOT
ATOM      1  C   LIG d   1      -2.140  91.115 117.835  0.00  0.00     0.161 C 
ATOM      2  C   LIG d   1      -0.742  91.033 117.956  0.00  0.00     0.016 C 
ATOM      3  C   LIG d   1       0.076  92.139 118.283  0.00  0.00     0.038 C 
ATOM      4  C   LIG d   1      -0.466  93.377 118.661  0.00  0.00     0.028 C 
ATOM      5  C   LIG d   1      -1.844  93.643 118.063  0.00  0.00    -0.047 C 
ATOM      6  C   LIG d   1      -2.758  92.430 118.352  0.00  0.00     0.091 C 
ENDROOT
BRANCH   1   7
ATOM      7  O   LIG d   1      -2.753  89.983 118.483  0.00  0.00    -0.368 OA
BRANCH   7   8
ATOM      8  C   LIG d   1      -1.856  89.086 119.183  0.00  0.00     0.119 C 
BRANCH   8   9
ATOM      9  C   LIG d   1      -2.209  87.650 118.753  0.00  0.00     0.028 C 
ATOM     10  C   LIG d   1      -1.964  86.624 119.872  0.00  0.00     0.006 C 
ENDBRANCH   8   9
BRANCH   8  11
ATOM     11  C   LIG d   1      -2.096  89.127 120.695  0.00  0.00     0.028 C 
ATOM     12  C   LIG d   1      -1.057  89.980 121.441  0.00  0.00     0.006 C 
ENDBRANCH   8  11
ENDBRANCH   7   8
ENDBRANCH   1   7
BRANCH   6  13
ATOM     13  N   LIG d   1      -4.100  92.572 117.729  0.00  0.00    -0.311 N 
ATOM     14  C   LIG d   1      -5.174  92.998 118.391  0.00  0.00     0.210 C 
ATOM     15  C   LIG d   1      -6.464  93.051 117.566  0.00  0.00     0.109 C 
ATOM     16  O   LIG d   1      -5.175  93.368 119.575  0.00  0.00    -0.276 OA
ATOM     17  H   LIG d   1      -4.183  92.323 116.763  0.00  0.00     0.149 HD
ENDBRANCH   6  13
BRANCH   5  18
ATOM     18  N   LIG d   1      -2.348  94.899 118.648  0.00  0.00     0.381 N 
ATOM     19  H   LIG d   1      -2.289  95.635 117.972  0.00  0.00    -0.090 HD
ATOM     20  H   LIG d   1      -1.773  95.146 119.434  0.00  0.00    -0.090 HD
ATOM     21  H   LIG d   1      -3.293  94.784 118.942  0.00  0.00    -0.090 HD
ENDBRANCH   5  18
BRANCH   3  22
ATOM     22  C   LIG d   1       1.455  92.024 118.194  0.00  0.00     0.382 C 
ATOM     23  O   LIG d   1       2.006  91.932 117.071  0.00  0.00    -0.241 OA
ATOM     24  O   LIG d   1       2.151  91.965 119.225  0.00  0.00    -0.241 OA
ENDBRANCH   3  22
TORSDOF 7
ENDMDL
