MODEL 1
REMARK VINA RESULT:      -4.4      0.000      0.000
REMARK  7 active torsions:
REMARK  status: ('A' for Active; 'I' for Inactive)
REMARK    1  A    between atoms: C_2  and  C_3 
REMARK    2  A    between atoms: C_3  and  O_6 
REMARK    3  A    between atoms: C_3  and  C_4 
REMARK    4  A    between atoms: C_7  and  O_6 
REMARK    5  A    between atoms: C_9  and  C_10 
REMARK    6  A    between atoms: N_15  and  C_14 
REMARK    7  A    between atoms: N_20  and  C_19 
REMARK       I    between atoms: C_22  and  N_20 
ROOT
ATOM      1  C   LIG d   1      -5.478  93.008 119.376  0.00  0.00     0.161 C 
ATOM      2  C   LIG d   1      -5.515  91.903 118.509  0.00  0.00     0.016 C 
ATOM      3  C   LIG d   1      -6.442  91.776 117.449  0.00  0.00     0.038 C 
ATOM      4  C   LIG d   1      -7.302  92.824 117.087  0.00  0.00     0.028 C 
ATOM      5  C   LIG d   1      -7.645  93.753 118.246  0.00  0.00    -0.047 C 
ATOM      6  C   LIG d   1      -6.335  94.210 118.928  0.00  0.00     0.091 C 
ENDROOT
BRANCH   1   7
ATOM      7  O   LIG d   1      -4.112  93.417 119.587  0.00  0.00    -0.368 OA
BRANCH   7   8
ATOM      8  C   LIG d   1      -3.548  94.295 118.583  0.00  0.00     0.119 C 
BRANCH   8   9
ATOM      9  C   LIG d   1      -2.365  93.553 117.931  0.00  0.00     0.028 C 
ATOM     10  C   LIG d   1      -1.350  94.514 117.290  0.00  0.00     0.006 C 
ENDBRANCH   8   9
BRANCH   8  11
ATOM     11  C   LIG d   1      -2.938  95.549 119.218  0.00  0.00     0.028 C 
ATOM     12  C   LIG d   1      -2.927  95.494 120.754  0.00  0.00     0.006 C 
ENDBRANCH   8  11
ENDBRANCH   7   8
ENDBRANCH   1   7
BRANCH   6  13
ATOM     13  N   LIG d   1      -6.584  95.055 120.125  0.00  0.00    -0.311 N 
ATOM     14  C   LIG d   1      -6.645  96.385 120.083  0.00  0.00     0.210 C 
ATOM     15  C   LIG d   1      -6.891  97.064 121.435  0.00  0.00     0.109 C 
ATOM     16  O   LIG d   1      -6.551  97.065 119.051  0.00  0.00    -0.276 OA
ATOM     17  H   LIG d   1      -6.703  94.584 121.000  0.00  0.00     0.149 HD
ENDBRANCH   6  13
BRANCH   5  18
ATOM     18  N   LIG d   1      -8.434  94.874 117.701  0.00  0.00     0.381 N 
ATOM     19  H   LIG d   1      -8.150  95.062 116.760  0.00  0.00    -0.090 HD
ATOM     20  H   LIG d   1      -8.258  95.695 118.253  0.00  0.00    -0.090 HD
ATOM     21  H   LIG d   1      -9.405  94.651 117.724  0.00  0.00    -0.090 HD
ENDBRANCH   5  18
BRANCH   3  22
ATOM     22  C   LIG d   1      -6.541  90.576 116.763  0.00  0.00     0.382 C 
ATOM     23  O   LIG d   1      -7.670  90.089 116.511  0.00  0.00    -0.241 OA
ATOM     24  O   LIG d   1      -5.516  89.951 116.431  0.00  0.00    -0.241 OA
ENDBRANCH   3  22
TORSDOF 7
ENDMDL
MODEL 2
REMARK VINA RESULT:      -4.3      2.890      4.572
REMARK  7 active torsions:
REMARK  status: ('A' for Active; 'I' for Inactive)
REMARK    1  A    between atoms: C_2  and  C_3 
REMARK    2  A    between atoms: C_3  and  O_6 
REMARK    3  A    between atoms: C_3  and  C_4 
REMARK    4  A    between atoms: C_7  and  O_6 
REMARK    5  A    between atoms: C_9  and  C_10 
REMARK    6  A    between atoms: N_15  and  C_14 
REMARK    7  A    between atoms: N_20  and  C_19 
REMARK       I    between atoms: C_22  and  N_20 
ROOT
ATOM      1  C   LIG d   1      -3.787  93.345 118.045  0.00  0.00     0.161 C 
ATOM      2  C   LIG d   1      -5.144  93.662 118.223  0.00  0.00     0.016 C 
ATOM      3  C   LIG d   1      -6.201  92.802 117.843  0.00  0.00     0.038 C 
ATOM      4  C   LIG d   1      -5.967  91.494 117.394  0.00  0.00     0.028 C 
ATOM      5  C   LIG d   1      -4.608  91.317 116.724  0.00  0.00    -0.047 C 
ATOM      6  C   LIG d   1      -3.511  91.876 117.659  0.00  0.00     0.091 C 
ENDROOT
BRANCH   1   7
ATOM      7  O   LIG d   1      -3.043  93.701 119.227  0.00  0.00    -0.368 OA
BRANCH   7   8
ATOM      8  C   LIG d   1      -2.458  95.026 119.237  0.00  0.00     0.119 C 
BRANCH   8   9
ATOM      9  C   LIG d   1      -1.074  94.926 118.567  0.00  0.00     0.028 C 
ATOM     10  C   LIG d   1      -1.059  95.539 117.157  0.00  0.00     0.006 C 
ENDBRANCH   8   9
BRANCH   8  11
ATOM     11  C   LIG d   1      -2.184  95.503 120.666  0.00  0.00     0.028 C 
ATOM     12  C   LIG d   1      -3.351  95.217 121.624  0.00  0.00     0.006 C 
ENDBRANCH   8  11
ENDBRANCH   7   8
ENDBRANCH   1   7
BRANCH   6  13
ATOM     13  N   LIG d   1      -2.159  91.819 117.045  0.00  0.00    -0.311 N 
ATOM     14  C   LIG d   1      -1.076  91.396 117.694  0.00  0.00     0.210 C 
ATOM     15  C   LIG d   1       0.222  91.436 116.882  0.00  0.00     0.109 C 
ATOM     16  O   LIG d   1      -1.073  90.959 118.855  0.00  0.00    -0.276 OA
ATOM     17  H   LIG d   1      -2.077  92.125 116.095  0.00  0.00     0.149 HD
ENDBRANCH   6  13
BRANCH   5  18
ATOM     18  N   LIG d   1      -4.440  89.881 116.430  0.00  0.00     0.381 N 
ATOM     19  H   LIG d   1      -4.162  89.396 117.259  0.00  0.00    -0.090 HD
ATOM     20  H   LIG d   1      -3.714  89.773 115.743  0.00  0.00    -0.090 HD
ATOM     21  H   LIG d   1      -5.293  89.502 116.084  0.00  0.00    -0.090 HD
ENDBRANCH   5  18
BRANCH   3  22
ATOM     22  C   LIG d   1      -7.508  93.264 117.873  0.00  0.00     0.382 C 
ATOM     23  O   LIG d   1      -8.234  93.157 116.855  0.00  0.00    -0.241 OA
ATOM     24  O   LIG d   1      -7.956  93.827 118.890  0.00  0.00    -0.241 OA
ENDBRANCH   3  22
TORSDOF 7
ENDMDL
MODEL 3
REMARK VINA RESULT:      -4.3      2.426      4.439
REMARK  7 active torsions:
REMARK  status: ('A' for Active; 'I' for Inactive)
REMARK    1  A    between atoms: C_2  and  C_3 
REMARK    2  A    between atoms: C_3  and  O_6 
REMARK    3  A    between atoms: C_3  and  C_4 
REMARK    4  A    between atoms: C_7  and  O_6 
REMARK    5  A    between atoms: C_9  and  C_10 
REMARK    6  A    between atoms: N_15  and  C_14 
REMARK    7  A    between atoms: N_20  and  C_19 
REMARK       I    between atoms: C_22  and  N_20 
ROOT
ATOM      1  C   LIG d   1      -4.860  93.864 118.320  0.00  0.00     0.161 C 
ATOM      2  C   LIG d   1      -5.850  92.921 117.997  0.00  0.00     0.016 C 
ATOM      3  C   LIG d   1      -5.565  91.662 117.419  0.00  0.00     0.038 C 
ATOM      4  C   LIG d   1      -4.251  91.198 117.263  0.00  0.00     0.028 C 
ATOM      5  C   LIG d   1      -3.227  92.318 117.108  0.00  0.00    -0.047 C 
ATOM      6  C   LIG d   1      -3.414  93.331 118.260  0.00  0.00     0.091 C 
ENDROOT
BRANCH   1   7
ATOM      7  O   LIG d   1      -5.131  94.432 119.617  0.00  0.00    -0.368 OA
BRANCH   7   8
ATOM      8  C   LIG d   1      -6.528  94.633 119.945  0.00  0.00     0.119 C 
BRANCH   8   9
ATOM      9  C   LIG d   1      -6.865  96.108 119.656  0.00  0.00     0.028 C 
ATOM     10  C   LIG d   1      -7.746  96.275 118.407  0.00  0.00     0.006 C 
ENDBRANCH   8   9
BRANCH   8  11
ATOM     11  C   LIG d   1      -6.780  94.446 121.445  0.00  0.00     0.028 C 
ATOM     12  C   LIG d   1      -8.273  94.316 121.786  0.00  0.00     0.006 C 
ENDBRANCH   8  11
ENDBRANCH   7   8
ENDBRANCH   1   7
BRANCH   6  13
ATOM     13  N   LIG d   1      -2.507  94.503 118.137  0.00  0.00    -0.311 N 
ATOM     14  C   LIG d   1      -1.317  94.574 118.729  0.00  0.00     0.210 C 
ATOM     15  C   LIG d   1      -0.551  95.879 118.488  0.00  0.00     0.109 C 
ATOM     16  O   LIG d   1      -0.808  93.667 119.405  0.00  0.00    -0.276 OA
ATOM     17  H   LIG d   1      -2.828  95.271 117.581  0.00  0.00     0.149 HD
ENDBRANCH   6  13
BRANCH   5  18
ATOM     18  N   LIG d   1      -1.888  91.699 117.093  0.00  0.00     0.381 N 
ATOM     19  H   LIG d   1      -1.952  90.762 116.748  0.00  0.00    -0.090 HD
ATOM     20  H   LIG d   1      -1.535  91.665 118.033  0.00  0.00    -0.090 HD
ATOM     21  H   LIG d   1      -1.273  92.231 116.518  0.00  0.00    -0.090 HD
ENDBRANCH   5  18
BRANCH   3  22
ATOM     22  C   LIG d   1      -6.603  90.869 116.953  0.00  0.00     0.382 C 
ATOM     23  O   LIG d   1      -7.792  91.244 117.098  0.00  0.00    -0.241 OA
ATOM     24  O   LIG d   1      -6.368  89.764 116.430  0.00  0.00    -0.241 OA
ENDBRANCH   3  22
TORSDOF 7
ENDMDL
MODEL 4
REMARK VINA RESULT:      -4.3      1.860      2.763
REMARK  7 active torsions:
REMARK  status: ('A' for Active; 'I' for Inactive)
REMARK    1  A    between atoms: C_2  and  C_3 
REMARK    2  A    between atoms: C_3  and  O_6 
REMARK    3  A    between atoms: C_3  and  C_4 
REMARK    4  A    between atoms: C_7  and  O_6 
REMARK    5  A    between atoms: C_9  and  C_10 
REMARK    6  A    between atoms: N_15  and  C_14 
REMARK    7  A    between atoms: N_20  and  C_19 
REMARK       I    between atoms: C_22  and  N_20 
ROOT
ATOM      1  C   LIG d   1      -6.168  92.911 119.960  0.00  0.00     0.161 C 
ATOM      2  C   LIG d   1      -5.061  92.247 119.406  0.00  0.00     0.016 C 
ATOM      3  C   LIG d   1      -4.953  91.926 118.033  0.00  0.00     0.038 C 
ATOM      4  C   LIG d   1      -5.883  92.386 117.089  0.00  0.00     0.028 C 
ATOM      5  C   LIG d   1      -7.271  92.625 117.674  0.00  0.00    -0.047 C 
ATOM      6  C   LIG d   1      -7.141  93.519 118.928  0.00  0.00     0.091 C 
ENDROOT
BRANCH   1   7
ATOM      7  O   LIG d   1      -5.718  93.924 120.882  0.00  0.00    -0.368 OA
BRANCH   7   8
ATOM      8  C   LIG d   1      -5.354  95.199 120.299  0.00  0.00     0.119 C 
BRANCH   8   9
ATOM      9  C   LIG d   1      -3.837  95.384 120.503  0.00  0.00     0.028 C 
ATOM     10  C   LIG d   1      -3.054  95.304 119.182  0.00  0.00     0.006 C 
ENDBRANCH   8   9
BRANCH   8  11
ATOM     11  C   LIG d   1      -6.008  96.363 121.050  0.00  0.00     0.028 C 
ATOM     12  C   LIG d   1      -7.017  95.895 122.112  0.00  0.00     0.006 C 
ENDBRANCH   8  11
ENDBRANCH   7   8
ENDBRANCH   1   7
BRANCH   6  13
ATOM     13  N   LIG d   1      -8.444  93.732 119.610  0.00  0.00    -0.311 N 
ATOM     14  C   LIG d   1      -9.239  94.771 119.362  0.00  0.00     0.210 C 
ATOM     15  C   LIG d   1     -10.528  94.811 120.190  0.00  0.00     0.109 C 
ATOM     16  O   LIG d   1      -9.015  95.646 118.512  0.00  0.00    -0.276 OA
ATOM     17  H   LIG d   1      -8.718  93.053 120.293  0.00  0.00     0.149 HD
ENDBRANCH   6  13
BRANCH   5  18
ATOM     18  N   LIG d   1      -8.101  93.232 116.616  0.00  0.00     0.381 N 
ATOM     19  H   LIG d   1      -9.009  92.812 116.615  0.00  0.00    -0.090 HD
ATOM     20  H   LIG d   1      -7.672  93.056 115.725  0.00  0.00    -0.090 HD
ATOM     21  H   LIG d   1      -8.182  94.213 116.766  0.00  0.00    -0.090 HD
ENDBRANCH   5  18
BRANCH   3  22
ATOM     22  C   LIG d   1      -3.925  91.103 117.599  0.00  0.00     0.382 C 
ATOM     23  O   LIG d   1      -4.060  89.857 117.640  0.00  0.00    -0.241 OA
ATOM     24  O   LIG d   1      -2.848  91.591 117.207  0.00  0.00    -0.241 OA
ENDBRANCH   3  22
TORSDOF 7
ENDMDL
MODEL 5
REMARK VINA RESULT:      -4.2      4.349      7.107
REMARK  7 active torsions:
REMARK  status: ('A' for Active; 'I' for Inactive)
REMARK    1  A    between atoms: C_2  and  C_3 
REMARK    2  A    between atoms: C_3  and  O_6 
REMARK    3  A    between atoms: C_3  and  C_4 
REMARK    4  A    between atoms: C_7  and  O_6 
REMARK    5  A    between atoms: C_9  and  C_10 
REMARK    6  A    between atoms: N_15  and  C_14 
REMARK    7  A    between atoms: N_20  and  C_19 
REMARK       I    between atoms: C_22  and  N_20 
ROOT
ATOM      1  C   LIG d   1      -0.623  91.690 117.737  0.00  0.00     0.161 C 
ATOM      2  C   LIG d   1       0.729  92.017 117.937  0.00  0.00     0.016 C 
ATOM      3  C   LIG d   1       1.210  93.346 117.986  0.00  0.00     0.038 C 
ATOM      4  C   LIG d   1       0.342  94.448 117.987  0.00  0.00     0.028 C 
ATOM      5  C   LIG d   1      -0.981  94.179 117.280  0.00  0.00    -0.047 C 
ATOM      6  C   LIG d   1      -1.599  92.880 117.847  0.00  0.00     0.091 C 
ENDROOT
BRANCH   1   7
ATOM      7  O   LIG d   1      -1.011  90.638 118.642  0.00  0.00    -0.368 OA
BRANCH   7   8
ATOM      8  C   LIG d   1      -1.444  89.398 118.030  0.00  0.00     0.119 C 
BRANCH   8   9
ATOM      9  C   LIG d   1      -2.834  89.060 118.602  0.00  0.00     0.028 C 
ATOM     10  C   LIG d   1      -2.793  87.870 119.577  0.00  0.00     0.006 C 
ENDBRANCH   8   9
BRANCH   8  11
ATOM     11  C   LIG d   1      -0.541  88.230 118.438  0.00  0.00     0.028 C 
ATOM     12  C   LIG d   1       0.150  87.563 117.238  0.00  0.00     0.006 C 
ENDBRANCH   8  11
ENDBRANCH   7   8
ENDBRANCH   1   7
BRANCH   6  13
ATOM     13  N   LIG d   1      -2.855  92.498 117.151  0.00  0.00    -0.311 N 
ATOM     14  C   LIG d   1      -4.067  92.828 117.592  0.00  0.00     0.210 C 
ATOM     15  C   LIG d   1      -5.229  92.316 116.735  0.00  0.00     0.109 C 
ATOM     16  O   LIG d   1      -4.290  93.524 118.595  0.00  0.00    -0.276 OA
ATOM     17  H   LIG d   1      -2.765  91.959 116.312  0.00  0.00     0.149 HD
ENDBRANCH   6  13
BRANCH   5  18
ATOM     18  N   LIG d   1      -1.841  95.361 117.476  0.00  0.00     0.381 N 
ATOM     19  H   LIG d   1      -2.794  95.121 117.293  0.00  0.00    -0.090 HD
ATOM     20  H   LIG d   1      -1.565  96.075 116.825  0.00  0.00    -0.090 HD
ATOM     21  H   LIG d   1      -1.749  95.698 118.409  0.00  0.00    -0.090 HD
ENDBRANCH   5  18
BRANCH   3  22
ATOM     22  C   LIG d   1       2.576  93.582 117.993  0.00  0.00     0.382 C 
ATOM     23  O   LIG d   1       3.084  94.293 118.893  0.00  0.00    -0.241 OA
ATOM     24  O   LIG d   1       3.300  93.131 117.086  0.00  0.00    -0.241 OA
ENDBRANCH   3  22
TORSDOF 7
ENDMDL
MODEL 6
REMARK VINA RESULT:      -4.2      2.827      4.699
REMARK  7 active torsions:
REMARK  status: ('A' for Active; 'I' for Inactive)
REMARK    1  A    between atoms: C_2  and  C_3 
REMARK    2  A    between atoms: C_3  and  O_6 
REMARK    3  A    between atoms: C_3  and  C_4 
REMARK    4  A    between atoms: C_7  and  O_6 
REMARK    5  A    between atoms: C_9  and  C_10 
REMARK    6  A    between atoms: N_15  and  C_14 
REMARK    7  A    between atoms: N_20  and  C_19 
REMARK       I    between atoms: C_22  and  N_20 
ROOT
ATOM      1  C   LIG d   1      -3.891  93.548 118.319  0.00  0.00     0.161 C 
ATOM      2  C   LIG d   1      -5.243  93.868 118.524  0.00  0.00     0.016 C 
ATOM      3  C   LIG d   1      -6.311  93.054 118.081  0.00  0.00     0.038 C 
ATOM      4  C   LIG d   1      -6.095  91.781 117.534  0.00  0.00     0.028 C 
ATOM      5  C   LIG d   1      -4.739  91.637 116.850  0.00  0.00    -0.047 C 
ATOM      6  C   LIG d   1      -3.635  92.110 117.823  0.00  0.00     0.091 C 
ENDROOT
BRANCH   1   7
ATOM      7  O   LIG d   1      -3.141  93.803 119.524  0.00  0.00    -0.368 OA
BRANCH   7   8
ATOM      8  C   LIG d   1      -2.193  94.897 119.465  0.00  0.00     0.119 C 
BRANCH   8   9
ATOM      9  C   LIG d   1      -2.803  96.081 120.241  0.00  0.00     0.028 C 
ATOM     10  C   LIG d   1      -3.350  97.175 119.309  0.00  0.00     0.006 C 
ENDBRANCH   8   9
BRANCH   8  11
ATOM     11  C   LIG d   1      -2.015  95.403 118.030  0.00  0.00     0.028 C 
ATOM     12  C   LIG d   1      -0.567  95.277 117.530  0.00  0.00     0.006 C 
ENDBRANCH   8  11
ENDBRANCH   7   8
ENDBRANCH   1   7
BRANCH   6  13
ATOM     13  N   LIG d   1      -2.284  92.081 117.203  0.00  0.00    -0.311 N 
ATOM     14  C   LIG d   1      -1.229  91.501 117.772  0.00  0.00     0.210 C 
ATOM     15  C   LIG d   1       0.074  91.604 116.973  0.00  0.00     0.109 C 
ATOM     16  O   LIG d   1      -1.255  90.883 118.847  0.00  0.00    -0.276 OA
ATOM     17  H   LIG d   1      -2.180  92.533 116.316  0.00  0.00     0.149 HD
ENDBRANCH   6  13
BRANCH   5  18
ATOM     18  N   LIG d   1      -4.590  90.226 116.448  0.00  0.00     0.381 N 
ATOM     19  H   LIG d   1      -4.296  89.679 117.232  0.00  0.00    -0.090 HD
ATOM     20  H   LIG d   1      -3.883  90.164 115.737  0.00  0.00    -0.090 HD
ATOM     21  H   LIG d   1      -5.456  89.878 116.097  0.00  0.00    -0.090 HD
ENDBRANCH   5  18
BRANCH   3  22
ATOM     22  C   LIG d   1      -7.612  93.530 118.149  0.00  0.00     0.382 C 
ATOM     23  O   LIG d   1      -8.396  93.350 117.186  0.00  0.00    -0.241 OA
ATOM     24  O   LIG d   1      -7.997  94.176 119.141  0.00  0.00    -0.241 OA
ENDBRANCH   3  22
TORSDOF 7
ENDMDL
MODEL 7
REMARK VINA RESULT:      -4.1      2.472      4.356
REMARK  7 active torsions:
REMARK  status: ('A' for Active; 'I' for Inactive)
REMARK    1  A    between atoms: C_2  and  C_3 
REMARK    2  A    between atoms: C_3  and  O_6 
REMARK    3  A    between atoms: C_3  and  C_4 
REMARK    4  A    between atoms: C_7  and  O_6 
REMARK    5  A    between atoms: C_9  and  C_10 
REMARK    6  A    between atoms: N_15  and  C_14 
REMARK    7  A    between atoms: N_20  and  C_19 
REMARK       I    between atoms: C_22  and  N_20 
ROOT
ATOM      1  C   LIG d   1      -4.968  93.954 118.463  0.00  0.00     0.161 C 
ATOM      2  C   LIG d   1      -5.882  92.946 118.113  0.00  0.00     0.016 C 
ATOM      3  C   LIG d   1      -5.504  91.734 117.493  0.00  0.00     0.038 C 
ATOM      4  C   LIG d   1      -4.158  91.380 117.315  0.00  0.00     0.028 C 
ATOM      5  C   LIG d   1      -3.227  92.581 117.193  0.00  0.00    -0.047 C 
ATOM      6  C   LIG d   1      -3.484  93.538 118.379  0.00  0.00     0.091 C 
ENDROOT
BRANCH   1   7
ATOM      7  O   LIG d   1      -5.274  94.456 119.779  0.00  0.00    -0.368 OA
BRANCH   7   8
ATOM      8  C   LIG d   1      -5.813  93.494 120.718  0.00  0.00     0.119 C 
BRANCH   8   9
ATOM      9  C   LIG d   1      -6.959  94.186 121.482  0.00  0.00     0.028 C 
ATOM     10  C   LIG d   1      -8.248  94.277 120.649  0.00  0.00     0.006 C 
ENDBRANCH   8   9
BRANCH   8  11
ATOM     11  C   LIG d   1      -4.782  93.119 121.787  0.00  0.00     0.028 C 
ATOM     12  C   LIG d   1      -4.015  91.831 121.449  0.00  0.00     0.006 C 
ENDBRANCH   8  11
ENDBRANCH   7   8
ENDBRANCH   1   7
BRANCH   6  13
ATOM     13  N   LIG d   1      -2.674  94.781 118.290  0.00  0.00    -0.311 N 
ATOM     14  C   LIG d   1      -1.493  94.931 118.889  0.00  0.00     0.210 C 
ATOM     15  C   LIG d   1      -0.834  96.298 118.686  0.00  0.00     0.109 C 
ATOM     16  O   LIG d   1      -0.915  94.049 119.543  0.00  0.00    -0.276 OA
ATOM     17  H   LIG d   1      -3.053  95.536 117.753  0.00  0.00     0.149 HD
ENDBRANCH   6  13
BRANCH   5  18
ATOM     18  N   LIG d   1      -1.844  92.070 117.151  0.00  0.00     0.381 N 
ATOM     19  H   LIG d   1      -1.227  92.726 117.589  0.00  0.00    -0.090 HD
ATOM     20  H   LIG d   1      -1.564  91.966 116.192  0.00  0.00    -0.090 HD
ATOM     21  H   LIG d   1      -1.791  91.191 117.617  0.00  0.00    -0.090 HD
ENDBRANCH   5  18
BRANCH   3  22
ATOM     22  C   LIG d   1      -6.480  90.877 117.005  0.00  0.00     0.382 C 
ATOM     23  O   LIG d   1      -6.149  89.812 116.430  0.00  0.00    -0.241 OA
ATOM     24  O   LIG d   1      -7.685  91.178 117.094  0.00  0.00    -0.241 OA
ENDBRANCH   3  22
TORSDOF 7
ENDMDL
MODEL 8
REMARK VINA RESULT:      -4.0      3.178      4.759
REMARK  7 active torsions:
REMARK  status: ('A' for Active; 'I' for Inactive)
REMARK    1  A    between atoms: C_2  and  C_3 
REMARK    2  A    between atoms: C_3  and  O_6 
REMARK    3  A    between atoms: C_3  and  C_4 
REMARK    4  A    between atoms: C_7  and  O_6 
REMARK    5  A    between atoms: C_9  and  C_10 
REMARK    6  A    between atoms: N_15  and  C_14 
REMARK    7  A    between atoms: N_20  and  C_19 
REMARK       I    between atoms: C_22  and  N_20 
ROOT
ATOM      1  C   LIG d   1      -3.726  91.523 118.578  0.00  0.00     0.161 C 
ATOM      2  C   LIG d   1      -5.000  91.307 118.027  0.00  0.00     0.016 C 
ATOM      3  C   LIG d   1      -5.943  92.339 117.817  0.00  0.00     0.038 C 
ATOM      4  C   LIG d   1      -5.617  93.690 118.007  0.00  0.00     0.028 C 
ATOM      5  C   LIG d   1      -4.516  93.909 119.039  0.00  0.00    -0.047 C 
ATOM      6  C   LIG d   1      -3.312  93.005 118.688  0.00  0.00     0.091 C 
ENDROOT
BRANCH   1   7
ATOM      7  O   LIG d   1      -2.739  90.781 117.835  0.00  0.00    -0.368 OA
BRANCH   7   8
ATOM      8  C   LIG d   1      -1.950  89.833 118.594  0.00  0.00     0.119 C 
BRANCH   8   9
ATOM      9  C   LIG d   1      -0.560  89.753 117.933  0.00  0.00     0.028 C 
ATOM     10  C   LIG d   1      -0.127  88.305 117.650  0.00  0.00     0.006 C 
ENDBRANCH   8   9
BRANCH   8  11
ATOM     11  C   LIG d   1      -2.528  88.418 118.494  0.00  0.00     0.028 C 
ATOM     12  C   LIG d   1      -3.040  87.886 119.841  0.00  0.00     0.006 C 
ENDBRANCH   8  11
ENDBRANCH   7   8
ENDBRANCH   1   7
BRANCH   6  13
ATOM     13  N   LIG d   1      -2.223  93.095 119.696  0.00  0.00    -0.311 N 
ATOM     14  C   LIG d   1      -0.950  93.326 119.380  0.00  0.00     0.210 C 
ATOM     15  C   LIG d   1       0.015  93.359 120.570  0.00  0.00     0.109 C 
ATOM     16  O   LIG d   1      -0.533  93.538 118.232  0.00  0.00    -0.276 OA
ATOM     17  H   LIG d   1      -2.478  92.966 120.655  0.00  0.00     0.149 HD
ENDBRANCH   6  13
BRANCH   5  18
ATOM     18  N   LIG d   1      -4.181  95.345 119.037  0.00  0.00     0.381 N 
ATOM     19  H   LIG d   1      -4.266  95.711 118.109  0.00  0.00    -0.090 HD
ATOM     20  H   LIG d   1      -3.228  95.458 119.334  0.00  0.00    -0.090 HD
ATOM     21  H   LIG d   1      -4.789  95.839 119.652  0.00  0.00    -0.090 HD
ENDBRANCH   5  18
BRANCH   3  22
ATOM     22  C   LIG d   1      -7.242  92.020 117.451  0.00  0.00     0.382 C 
ATOM     23  O   LIG d   1      -7.505  90.876 117.009  0.00  0.00    -0.241 OA
ATOM     24  O   LIG d   1      -8.144  92.876 117.515  0.00  0.00    -0.241 OA
ENDBRANCH   3  22
TORSDOF 7
ENDMDL
MODEL 9
REMARK VINA RESULT:      -4.0      3.131      6.421
REMARK  7 active torsions:
REMARK  status: ('A' for Active; 'I' for Inactive)
REMARK    1  A    between atoms: C_2  and  C_3 
REMARK    2  A    between atoms: C_3  and  O_6 
REMARK    3  A    between atoms: C_3  and  C_4 
REMARK    4  A    between atoms: C_7  and  O_6 
REMARK    5  A    between atoms: C_9  and  C_10 
REMARK    6  A    between atoms: N_15  and  C_14 
REMARK    7  A    between atoms: N_20  and  C_19 
REMARK       I    between atoms: C_22  and  N_20 
ROOT
ATOM      1  C   LIG d   1      -3.187  92.976 119.113  0.00  0.00     0.161 C 
ATOM      2  C   LIG d   1      -2.978  94.347 118.890  0.00  0.00     0.016 C 
ATOM      3  C   LIG d   1      -1.966  94.853 118.043  0.00  0.00     0.038 C 
ATOM      4  C   LIG d   1      -1.184  94.011 117.238  0.00  0.00     0.028 C 
ATOM      5  C   LIG d   1      -1.020  92.607 117.809  0.00  0.00    -0.047 C 
ATOM      6  C   LIG d   1      -2.416  92.041 118.157  0.00  0.00     0.091 C 
ENDROOT
BRANCH   1   7
ATOM      7  O   LIG d   1      -4.597  92.682 119.071  0.00  0.00    -0.368 OA
BRANCH   7   8
ATOM      8  C   LIG d   1      -5.384  93.466 118.140  0.00  0.00     0.119 C 
BRANCH   8   9
ATOM      9  C   LIG d   1      -6.654  93.927 118.881  0.00  0.00     0.028 C 
ATOM     10  C   LIG d   1      -7.183  95.273 118.358  0.00  0.00     0.006 C 
ENDBRANCH   8   9
BRANCH   8  11
ATOM     11  C   LIG d   1      -5.883  92.610 116.973  0.00  0.00     0.028 C 
ATOM     12  C   LIG d   1      -6.985  91.622 117.388  0.00  0.00     0.006 C 
ENDBRANCH   8  11
ENDBRANCH   7   8
ENDBRANCH   1   7
BRANCH   6  13
ATOM     13  N   LIG d   1      -2.341  90.703 118.800  0.00  0.00    -0.311 N 
ATOM     14  C   LIG d   1      -3.147  89.691 118.484  0.00  0.00     0.210 C 
ATOM     15  C   LIG d   1      -2.914  88.405 119.282  0.00  0.00     0.109 C 
ATOM     16  O   LIG d   1      -4.012  89.727 117.596  0.00  0.00    -0.276 OA
ATOM     17  H   LIG d   1      -1.646  90.576 119.510  0.00  0.00     0.149 HD
ENDBRANCH   6  13
BRANCH   5  18
ATOM     18  N   LIG d   1      -0.302  91.798 116.806  0.00  0.00     0.381 N 
ATOM     19  H   LIG d   1      -0.788  90.937 116.654  0.00  0.00    -0.090 HD
ATOM     20  H   LIG d   1       0.615  91.585 117.156  0.00  0.00    -0.090 HD
ATOM     21  H   LIG d   1      -0.230  92.303 115.950  0.00  0.00    -0.090 HD
ENDBRANCH   5  18
BRANCH   3  22
ATOM     22  C   LIG d   1      -1.700  96.214 118.026  0.00  0.00     0.382 C 
ATOM     23  O   LIG d   1      -0.646  96.640 117.495  0.00  0.00    -0.241 OA
ATOM     24  O   LIG d   1      -2.480  97.016 118.573  0.00  0.00    -0.241 OA
ENDBRANCH   3  22
TORSDOF 7
ENDMDL
