MODEL 1
REMARK VINA RESULT:      -4.6      0.000      0.000
REMARK  7 active torsions:
REMARK  status: ('A' for Active; 'I' for Inactive)
REMARK    1  A    between atoms: C_2  and  C_3 
REMARK    2  A    between atoms: C_3  and  O_6 
REMARK    3  A    between atoms: C_3  and  C_4 
REMARK    4  A    between atoms: C_7  and  O_6 
REMARK    5  A    between atoms: C_9  and  C_10 
REMARK    6  A    between atoms: N_15  and  C_14 
REMARK    7  A    between atoms: N_20  and  C_19 
REMARK       I    between atoms: C_22  and  N_20 
ROOT
ATOM      1  C   LIG d   1      -5.062  93.987 120.465  0.00  0.00     0.161 C 
ATOM      2  C   LIG d   1      -3.778  93.489 120.187  0.00  0.00     0.016 C 
ATOM      3  C   LIG d   1      -3.525  92.488 119.221  0.00  0.00     0.038 C 
ATOM      4  C   LIG d   1      -4.526  92.022 118.356  0.00  0.00     0.028 C 
ATOM      5  C   LIG d   1      -5.930  92.129 118.941  0.00  0.00    -0.047 C 
ATOM      6  C   LIG d   1      -6.151  93.571 119.454  0.00  0.00     0.091 C 
ENDROOT
BRANCH   1   7
ATOM      7  O   LIG d   1      -5.013  95.423 120.586  0.00  0.00    -0.368 OA
BRANCH   7   8
ATOM      8  C   LIG d   1      -5.240  96.173 119.367  0.00  0.00     0.119 C 
BRANCH   8   9
ATOM      9  C   LIG d   1      -3.978  97.016 119.101  0.00  0.00     0.028 C 
ATOM     10  C   LIG d   1      -3.112  97.190 120.360  0.00  0.00     0.006 C 
ENDBRANCH   8   9
BRANCH   8  11
ATOM     11  C   LIG d   1      -6.375  97.186 119.540  0.00  0.00     0.028 C 
ATOM     12  C   LIG d   1      -6.910  97.242 120.980  0.00  0.00     0.006 C 
ENDBRANCH   8  11
ENDBRANCH   7   8
ENDBRANCH   1   7
BRANCH   6  13
ATOM     13  N   LIG d   1      -7.469  93.741 120.118  0.00  0.00    -0.311 N 
ATOM     14  C   LIG d   1      -8.586  94.048 119.462  0.00  0.00     0.210 C 
ATOM     15  C   LIG d   1      -9.833  94.196 120.340  0.00  0.00     0.109 C 
ATOM     16  O   LIG d   1      -8.670  94.181 118.231  0.00  0.00    -0.276 OA
ATOM     17  H   LIG d   1      -7.499  93.620 121.112  0.00  0.00     0.149 HD
ENDBRANCH   6  13
BRANCH   5  18
ATOM     18  N   LIG d   1      -6.884  91.740 117.885  0.00  0.00     0.381 N 
ATOM     19  H   LIG d   1      -6.553  92.058 116.996  0.00  0.00    -0.090 HD
ATOM     20  H   LIG d   1      -7.769  92.179 118.068  0.00  0.00    -0.090 HD
ATOM     21  H   LIG d   1      -6.992  90.749 117.872  0.00  0.00    -0.090 HD
ENDBRANCH   5  18
BRANCH   3  22
ATOM     22  C   LIG d   1      -2.265  91.913 119.141  0.00  0.00     0.382 C 
ATOM     23  O   LIG d   1      -1.645  91.912 118.051  0.00  0.00    -0.241 OA
ATOM     24  O   LIG d   1      -1.761  91.356 120.134  0.00  0.00    -0.241 OA
ENDBRANCH   3  22
TORSDOF 7
ENDMDL
MODEL 2
REMARK VINA RESULT:      -4.5      2.721      5.810
REMARK  7 active torsions:
REMARK  status: ('A' for Active; 'I' for Inactive)
REMARK    1  A    between atoms: C_2  and  C_3 
REMARK    2  A    between atoms: C_3  and  O_6 
REMARK    3  A    between atoms: C_3  and  C_4 
REMARK    4  A    between atoms: C_7  and  O_6 
REMARK    5  A    between atoms: C_9  and  C_10 
REMARK    6  A    between atoms: N_15  and  C_14 
REMARK    7  A    between atoms: N_20  and  C_19 
REMARK       I    between atoms: C_22  and  N_20 
ROOT
ATOM      1  C   LIG d   1      -3.133  92.174 118.908  0.00  0.00     0.161 C 
ATOM      2  C   LIG d   1      -3.948  91.551 117.949  0.00  0.00     0.016 C 
ATOM      3  C   LIG d   1      -5.320  91.846 117.783  0.00  0.00     0.038 C 
ATOM      4  C   LIG d   1      -5.940  92.901 118.469  0.00  0.00     0.028 C 
ATOM      5  C   LIG d   1      -5.283  93.220 119.808  0.00  0.00    -0.047 C 
ATOM      6  C   LIG d   1      -3.764  93.406 119.591  0.00  0.00     0.091 C 
ENDROOT
BRANCH   1   7
ATOM      7  O   LIG d   1      -1.864  92.523 118.320  0.00  0.00    -0.368 OA
BRANCH   7   8
ATOM      8  C   LIG d   1      -0.818  91.526 118.424  0.00  0.00     0.119 C 
BRANCH   8   9
ATOM      9  C   LIG d   1      -0.170  91.678 119.814  0.00  0.00     0.028 C 
ATOM     10  C   LIG d   1       1.156  92.456 119.761  0.00  0.00     0.006 C 
ENDBRANCH   8   9
BRANCH   8  11
ATOM     11  C   LIG d   1       0.307  91.793 117.420  0.00  0.00     0.028 C 
ATOM     12  C   LIG d   1       0.544  90.614 116.463  0.00  0.00     0.006 C 
ENDBRANCH   8  11
ENDBRANCH   7   8
ENDBRANCH   1   7
BRANCH   6  13
ATOM     13  N   LIG d   1      -3.034  93.638 120.864  0.00  0.00    -0.311 N 
ATOM     14  C   LIG d   1      -2.075  94.552 121.002  0.00  0.00     0.210 C 
ATOM     15  C   LIG d   1      -1.437  94.614 122.394  0.00  0.00     0.109 C 
ATOM     16  O   LIG d   1      -1.714  95.339 120.114  0.00  0.00    -0.276 OA
ATOM     17  H   LIG d   1      -3.285  93.065 121.645  0.00  0.00     0.149 HD
ENDBRANCH   6  13
BRANCH   5  18
ATOM     18  N   LIG d   1      -5.941  94.424 120.351  0.00  0.00     0.381 N 
ATOM     19  H   LIG d   1      -6.619  94.763 119.698  0.00  0.00    -0.090 HD
ATOM     20  H   LIG d   1      -5.249  95.140 120.486  0.00  0.00    -0.090 HD
ATOM     21  H   LIG d   1      -6.382  94.210 121.218  0.00  0.00    -0.090 HD
ENDBRANCH   5  18
BRANCH   3  22
ATOM     22  C   LIG d   1      -6.098  91.055 116.950  0.00  0.00     0.382 C 
ATOM     23  O   LIG d   1      -7.302  91.348 116.753  0.00  0.00    -0.241 OA
ATOM     24  O   LIG d   1      -5.623  90.028 116.430  0.00  0.00    -0.241 OA
ENDBRANCH   3  22
TORSDOF 7
ENDMDL
MODEL 3
REMARK VINA RESULT:      -4.5      2.346      5.987
REMARK  7 active torsions:
REMARK  status: ('A' for Active; 'I' for Inactive)
REMARK    1  A    between atoms: C_2  and  C_3 
REMARK    2  A    between atoms: C_3  and  O_6 
REMARK    3  A    between atoms: C_3  and  C_4 
REMARK    4  A    between atoms: C_7  and  O_6 
REMARK    5  A    between atoms: C_9  and  C_10 
REMARK    6  A    between atoms: N_15  and  C_14 
REMARK    7  A    between atoms: N_20  and  C_19 
REMARK       I    between atoms: C_22  and  N_20 
ROOT
ATOM      1  C   LIG d   1      -4.962  93.616 119.928  0.00  0.00     0.161 C 
ATOM      2  C   LIG d   1      -6.298  93.676 119.495  0.00  0.00     0.016 C 
ATOM      3  C   LIG d   1      -7.080  94.852 119.544  0.00  0.00     0.038 C 
ATOM      4  C   LIG d   1      -6.529  96.095 119.891  0.00  0.00     0.028 C 
ATOM      5  C   LIG d   1      -5.321  95.985 120.815  0.00  0.00    -0.047 C 
ATOM      6  C   LIG d   1      -4.311  94.987 120.205  0.00  0.00     0.091 C 
ENDROOT
BRANCH   1   7
ATOM      7  O   LIG d   1      -4.174  92.869 118.979  0.00  0.00    -0.368 OA
BRANCH   7   8
ATOM      8  C   LIG d   1      -4.141  91.433 119.169  0.00  0.00     0.119 C 
BRANCH   8   9
ATOM      9  C   LIG d   1      -2.972  91.120 120.124  0.00  0.00     0.028 C 
ATOM     10  C   LIG d   1      -1.654  91.768 119.670  0.00  0.00     0.006 C 
ENDBRANCH   8   9
BRANCH   8  11
ATOM     11  C   LIG d   1      -3.804  90.707 117.864  0.00  0.00     0.028 C 
ATOM     12  C   LIG d   1      -4.713  91.126 116.697  0.00  0.00     0.006 C 
ENDBRANCH   8  11
ENDBRANCH   7   8
ENDBRANCH   1   7
BRANCH   6  13
ATOM     13  N   LIG d   1      -3.138  94.757 121.088  0.00  0.00    -0.311 N 
ATOM     14  C   LIG d   1      -1.972  95.384 120.937  0.00  0.00     0.210 C 
ATOM     15  C   LIG d   1      -0.888  94.985 121.943  0.00  0.00     0.109 C 
ATOM     16  O   LIG d   1      -1.744  96.257 120.086  0.00  0.00    -0.276 OA
ATOM     17  H   LIG d   1      -3.245  94.087 121.825  0.00  0.00     0.149 HD
ENDBRANCH   6  13
BRANCH   5  18
ATOM     18  N   LIG d   1      -4.764  97.341 120.984  0.00  0.00     0.381 N 
ATOM     19  H   LIG d   1      -5.505  97.993 121.148  0.00  0.00    -0.090 HD
ATOM     20  H   LIG d   1      -4.292  97.606 120.138  0.00  0.00    -0.090 HD
ATOM     21  H   LIG d   1      -4.126  97.354 121.749  0.00  0.00    -0.090 HD
ENDBRANCH   5  18
BRANCH   3  22
ATOM     22  C   LIG d   1      -8.440  94.785 119.281  0.00  0.00     0.382 C 
ATOM     23  O   LIG d   1      -8.869  94.008 118.395  0.00  0.00    -0.241 OA
ATOM     24  O   LIG d   1      -9.238  95.524 119.888  0.00  0.00    -0.241 OA
ENDBRANCH   3  22
TORSDOF 7
ENDMDL
MODEL 4
REMARK VINA RESULT:      -4.3      3.866      5.873
REMARK  7 active torsions:
REMARK  status: ('A' for Active; 'I' for Inactive)
REMARK    1  A    between atoms: C_2  and  C_3 
REMARK    2  A    between atoms: C_3  and  O_6 
REMARK    3  A    between atoms: C_3  and  C_4 
REMARK    4  A    between atoms: C_7  and  O_6 
REMARK    5  A    between atoms: C_9  and  C_10 
REMARK    6  A    between atoms: N_15  and  C_14 
REMARK    7  A    between atoms: N_20  and  C_19 
REMARK       I    between atoms: C_22  and  N_20 
ROOT
ATOM      1  C   LIG d   1      -3.784  92.181 120.209  0.00  0.00     0.161 C 
ATOM      2  C   LIG d   1      -4.930  91.838 119.472  0.00  0.00     0.016 C 
ATOM      3  C   LIG d   1      -4.888  91.386 118.133  0.00  0.00     0.038 C 
ATOM      4  C   LIG d   1      -3.677  91.100 117.486  0.00  0.00     0.028 C 
ATOM      5  C   LIG d   1      -2.499  91.910 118.017  0.00  0.00    -0.047 C 
ATOM      6  C   LIG d   1      -2.448  91.770 119.556  0.00  0.00     0.091 C 
ENDROOT
BRANCH   1   7
ATOM      7  O   LIG d   1      -3.879  91.638 121.541  0.00  0.00    -0.368 OA
BRANCH   7   8
ATOM      8  C   LIG d   1      -3.866  92.600 122.624  0.00  0.00     0.119 C 
BRANCH   8   9
ATOM      9  C   LIG d   1      -2.571  92.375 123.428  0.00  0.00     0.028 C 
ATOM     10  C   LIG d   1      -2.065  90.926 123.332  0.00  0.00     0.006 C 
ENDBRANCH   8   9
BRANCH   8  11
ATOM     11  C   LIG d   1      -5.007  92.341 123.613  0.00  0.00     0.028 C 
ATOM     12  C   LIG d   1      -6.241  91.712 122.947  0.00  0.00     0.006 C 
ENDBRANCH   8  11
ENDBRANCH   7   8
ENDBRANCH   1   7
BRANCH   6  13
ATOM     13  N   LIG d   1      -1.376  92.599 120.165  0.00  0.00    -0.311 N 
ATOM     14  C   LIG d   1      -0.137  92.157 120.375  0.00  0.00     0.210 C 
ATOM     15  C   LIG d   1       0.807  93.168 121.033  0.00  0.00     0.109 C 
ATOM     16  O   LIG d   1       0.278  91.035 120.049  0.00  0.00    -0.276 OA
ATOM     17  H   LIG d   1      -1.618  93.534 120.431  0.00  0.00     0.149 HD
ENDBRANCH   6  13
BRANCH   5  18
ATOM     18  N   LIG d   1      -1.280  91.415 117.351  0.00  0.00     0.381 N 
ATOM     19  H   LIG d   1      -0.540  91.329 118.019  0.00  0.00    -0.090 HD
ATOM     20  H   LIG d   1      -0.999  92.079 116.652  0.00  0.00    -0.090 HD
ATOM     21  H   LIG d   1      -1.458  90.531 116.927  0.00  0.00    -0.090 HD
ENDBRANCH   5  18
BRANCH   3  22
ATOM     22  C   LIG d   1      -6.066  91.253 117.415  0.00  0.00     0.382 C 
ATOM     23  O   LIG d   1      -6.983  92.098 117.554  0.00  0.00    -0.241 OA
ATOM     24  O   LIG d   1      -6.241  90.274 116.664  0.00  0.00    -0.241 OA
ENDBRANCH   3  22
TORSDOF 7
ENDMDL
MODEL 5
REMARK VINA RESULT:      -4.3      4.290      7.143
REMARK  7 active torsions:
REMARK  status: ('A' for Active; 'I' for Inactive)
REMARK    1  A    between atoms: C_2  and  C_3 
REMARK    2  A    between atoms: C_3  and  O_6 
REMARK    3  A    between atoms: C_3  and  C_4 
REMARK    4  A    between atoms: C_7  and  O_6 
REMARK    5  A    between atoms: C_9  and  C_10 
REMARK    6  A    between atoms: N_15  and  C_14 
REMARK    7  A    between atoms: N_20  and  C_19 
REMARK       I    between atoms: C_22  and  N_20 
ROOT
ATOM      1  C   LIG d   1      -1.002  91.514 118.615  0.00  0.00     0.161 C 
ATOM      2  C   LIG d   1      -2.033  91.319 117.682  0.00  0.00     0.016 C 
ATOM      3  C   LIG d   1      -3.405  91.332 118.024  0.00  0.00     0.038 C 
ATOM      4  C   LIG d   1      -3.846  91.693 119.306  0.00  0.00     0.028 C 
ATOM      5  C   LIG d   1      -2.825  91.404 120.401  0.00  0.00    -0.047 C 
ATOM      6  C   LIG d   1      -1.467  92.020 119.997  0.00  0.00     0.091 C 
ENDROOT
BRANCH   1   7
ATOM      7  O   LIG d   1      -0.007  92.401 118.066  0.00  0.00    -0.368 OA
BRANCH   7   8
ATOM      8  C   LIG d   1       1.111  91.768 117.396  0.00  0.00     0.119 C 
BRANCH   8   9
ATOM      9  C   LIG d   1       1.434  90.470 118.161  0.00  0.00     0.028 C 
ATOM     10  C   LIG d   1       1.811  89.313 117.220  0.00  0.00     0.006 C 
ENDBRANCH   8   9
BRANCH   8  11
ATOM     11  C   LIG d   1       2.378  92.624 117.497  0.00  0.00     0.028 C 
ATOM     12  C   LIG d   1       2.967  92.650 118.916  0.00  0.00     0.006 C 
ENDBRANCH   8  11
ENDBRANCH   7   8
ENDBRANCH   1   7
BRANCH   6  13
ATOM     13  N   LIG d   1      -0.390  91.711 120.974  0.00  0.00    -0.311 N 
ATOM     14  C   LIG d   1       0.398  92.639 121.514  0.00  0.00     0.210 C 
ATOM     15  C   LIG d   1       1.456  92.103 122.484  0.00  0.00     0.109 C 
ATOM     16  O   LIG d   1       0.300  93.858 121.307  0.00  0.00    -0.276 OA
ATOM     17  H   LIG d   1      -0.262  90.749 121.223  0.00  0.00     0.149 HD
ENDBRANCH   6  13
BRANCH   5  18
ATOM     18  N   LIG d   1      -3.357  91.954 121.663  0.00  0.00     0.381 N 
ATOM     19  H   LIG d   1      -3.713  92.876 121.506  0.00  0.00    -0.090 HD
ATOM     20  H   LIG d   1      -2.610  92.013 122.332  0.00  0.00    -0.090 HD
ATOM     21  H   LIG d   1      -4.081  91.366 122.013  0.00  0.00    -0.090 HD
ENDBRANCH   5  18
BRANCH   3  22
ATOM     22  C   LIG d   1      -4.351  90.941 117.088  0.00  0.00     0.382 C 
ATOM     23  O   LIG d   1      -4.185  89.884 116.433  0.00  0.00    -0.241 OA
ATOM     24  O   LIG d   1      -5.345  91.655 116.859  0.00  0.00    -0.241 OA
ENDBRANCH   3  22
TORSDOF 7
ENDMDL
MODEL 6
REMARK VINA RESULT:      -4.1      2.656      5.809
REMARK  7 active torsions:
REMARK  status: ('A' for Active; 'I' for Inactive)
REMARK    1  A    between atoms: C_2  and  C_3 
REMARK    2  A    between atoms: C_3  and  O_6 
REMARK    3  A    between atoms: C_3  and  C_4 
REMARK    4  A    between atoms: C_7  and  O_6 
REMARK    5  A    between atoms: C_9  and  C_10 
REMARK    6  A    between atoms: N_15  and  C_14 
REMARK    7  A    between atoms: N_20  and  C_19 
REMARK       I    between atoms: C_22  and  N_20 
ROOT
ATOM      1  C   LIG d   1      -5.153  92.746 119.953  0.00  0.00     0.161 C 
ATOM      2  C   LIG d   1      -6.128  93.488 119.266  0.00  0.00     0.016 C 
ATOM      3  C   LIG d   1      -7.159  94.207 119.914  0.00  0.00     0.038 C 
ATOM      4  C   LIG d   1      -7.194  94.357 121.308  0.00  0.00     0.028 C 
ATOM      5  C   LIG d   1      -6.525  93.210 122.058  0.00  0.00    -0.047 C 
ATOM      6  C   LIG d   1      -5.110  92.988 121.476  0.00  0.00     0.091 C 
ENDROOT
BRANCH   1   7
ATOM      7  O   LIG d   1      -3.856  92.985 119.370  0.00  0.00    -0.368 OA
BRANCH   7   8
ATOM      8  C   LIG d   1      -3.081  91.808 119.034  0.00  0.00     0.119 C 
BRANCH   8   9
ATOM      9  C   LIG d   1      -2.142  92.189 117.873  0.00  0.00     0.028 C 
ATOM     10  C   LIG d   1      -0.669  91.871 118.182  0.00  0.00     0.006 C 
ENDBRANCH   8   9
BRANCH   8  11
ATOM     11  C   LIG d   1      -3.974  90.692 118.484  0.00  0.00     0.028 C 
ATOM     12  C   LIG d   1      -4.065  90.703 116.950  0.00  0.00     0.006 C 
ENDBRANCH   8  11
ENDBRANCH   7   8
ENDBRANCH   1   7
BRANCH   6  13
ATOM     13  N   LIG d   1      -4.417  91.830 122.097  0.00  0.00    -0.311 N 
ATOM     14  C   LIG d   1      -3.210  91.910 122.654  0.00  0.00     0.210 C 
ATOM     15  C   LIG d   1      -2.669  90.592 123.218  0.00  0.00     0.109 C 
ATOM     16  O   LIG d   1      -2.549  92.954 122.764  0.00  0.00    -0.276 OA
ATOM     17  H   LIG d   1      -4.894  90.950 122.080  0.00  0.00     0.149 HD
ENDBRANCH   6  13
BRANCH   5  18
ATOM     18  N   LIG d   1      -6.512  93.562 123.491  0.00  0.00     0.381 N 
ATOM     19  H   LIG d   1      -5.896  92.948 123.985  0.00  0.00    -0.090 HD
ATOM     20  H   LIG d   1      -7.438  93.445 123.862  0.00  0.00    -0.090 HD
ATOM     21  H   LIG d   1      -6.216  94.506 123.607  0.00  0.00    -0.090 HD
ENDBRANCH   5  18
BRANCH   3  22
ATOM     22  C   LIG d   1      -8.191  94.752 119.166  0.00  0.00     0.382 C 
ATOM     23  O   LIG d   1      -8.479  95.967 119.286  0.00  0.00    -0.241 OA
ATOM     24  O   LIG d   1      -8.868  94.034 118.406  0.00  0.00    -0.241 OA
ENDBRANCH   3  22
TORSDOF 7
ENDMDL
MODEL 7
REMARK VINA RESULT:      -4.1      2.731      4.607
REMARK  7 active torsions:
REMARK  status: ('A' for Active; 'I' for Inactive)
REMARK    1  A    between atoms: C_2  and  C_3 
REMARK    2  A    between atoms: C_3  and  O_6 
REMARK    3  A    between atoms: C_3  and  C_4 
REMARK    4  A    between atoms: C_7  and  O_6 
REMARK    5  A    between atoms: C_9  and  C_10 
REMARK    6  A    between atoms: N_15  and  C_14 
REMARK    7  A    between atoms: N_20  and  C_19 
REMARK       I    between atoms: C_22  and  N_20 
ROOT
ATOM      1  C   LIG d   1      -2.586  92.508 119.493  0.00  0.00     0.161 C 
ATOM      2  C   LIG d   1      -1.588  92.451 120.480  0.00  0.00     0.016 C 
ATOM      3  C   LIG d   1      -0.245  92.100 120.209  0.00  0.00     0.038 C 
ATOM      4  C   LIG d   1       0.227  91.929 118.899  0.00  0.00     0.028 C 
ATOM      5  C   LIG d   1      -0.853  91.483 117.919  0.00  0.00    -0.047 C 
ATOM      6  C   LIG d   1      -2.066  92.434 118.042  0.00  0.00     0.091 C 
ENDROOT
BRANCH   1   7
ATOM      7  O   LIG d   1      -3.388  93.692 119.677  0.00  0.00    -0.368 OA
BRANCH   7   8
ATOM      8  C   LIG d   1      -4.322  93.662 120.784  0.00  0.00     0.119 C 
BRANCH   8   9
ATOM      9  C   LIG d   1      -5.566  92.879 120.319  0.00  0.00     0.028 C 
ATOM     10  C   LIG d   1      -6.193  93.476 119.047  0.00  0.00     0.006 C 
ENDBRANCH   8   9
BRANCH   8  11
ATOM     11  C   LIG d   1      -4.830  95.067 121.122  0.00  0.00     0.028 C 
ATOM     12  C   LIG d   1      -4.019  96.176 120.433  0.00  0.00     0.006 C 
ENDBRANCH   8  11
ENDBRANCH   7   8
ENDBRANCH   1   7
BRANCH   6  13
ATOM     13  N   LIG d   1      -3.202  92.018 117.178  0.00  0.00    -0.311 N 
ATOM     14  C   LIG d   1      -4.005  90.995 117.465  0.00  0.00     0.210 C 
ATOM     15  C   LIG d   1      -5.102  90.724 116.430  0.00  0.00     0.109 C 
ATOM     16  O   LIG d   1      -3.934  90.307 118.494  0.00  0.00    -0.276 OA
ATOM     17  H   LIG d   1      -3.351  92.542 116.338  0.00  0.00     0.149 HD
ENDBRANCH   6  13
BRANCH   5  18
ATOM     18  N   LIG d   1      -0.257  91.477 116.570  0.00  0.00     0.381 N 
ATOM     19  H   LIG d   1       0.739  91.410 116.640  0.00  0.00    -0.090 HD
ATOM     20  H   LIG d   1      -0.483  92.342 116.111  0.00  0.00    -0.090 HD
ATOM     21  H   LIG d   1      -0.613  90.710 116.043  0.00  0.00    -0.090 HD
ENDBRANCH   5  18
BRANCH   3  22
ATOM     22  C   LIG d   1       0.632  91.878 121.259  0.00  0.00     0.382 C 
ATOM     23  O   LIG d   1       0.324  91.079 122.176  0.00  0.00    -0.241 OA
ATOM     24  O   LIG d   1       1.710  92.500 121.325  0.00  0.00    -0.241 OA
ENDBRANCH   3  22
TORSDOF 7
ENDMDL
MODEL 8
REMARK VINA RESULT:      -4.1      4.482      6.685
REMARK  7 active torsions:
REMARK  status: ('A' for Active; 'I' for Inactive)
REMARK    1  A    between atoms: C_2  and  C_3 
REMARK    2  A    between atoms: C_3  and  O_6 
REMARK    3  A    between atoms: C_3  and  C_4 
REMARK    4  A    between atoms: C_7  and  O_6 
REMARK    5  A    between atoms: C_9  and  C_10 
REMARK    6  A    between atoms: N_15  and  C_14 
REMARK    7  A    between atoms: N_20  and  C_19 
REMARK       I    between atoms: C_22  and  N_20 
ROOT
ATOM      1  C   LIG d   1      -2.092  91.832 120.474  0.00  0.00     0.161 C 
ATOM      2  C   LIG d   1      -3.374  91.556 119.971  0.00  0.00     0.016 C 
ATOM      3  C   LIG d   1      -3.658  91.430 118.592  0.00  0.00     0.038 C 
ATOM      4  C   LIG d   1      -2.643  91.421 117.624  0.00  0.00     0.028 C 
ATOM      5  C   LIG d   1      -1.400  92.199 118.042  0.00  0.00    -0.047 C 
ATOM      6  C   LIG d   1      -0.953  91.716 119.440  0.00  0.00     0.091 C 
ENDROOT
BRANCH   1   7
ATOM      7  O   LIG d   1      -1.823  90.991 121.613  0.00  0.00    -0.368 OA
BRANCH   7   8
ATOM      8  C   LIG d   1      -2.188  91.533 122.906  0.00  0.00     0.119 C 
BRANCH   8   9
ATOM      9  C   LIG d   1      -0.908  91.591 123.762  0.00  0.00     0.028 C 
ATOM     10  C   LIG d   1      -0.193  92.949 123.657  0.00  0.00     0.006 C 
ENDBRANCH   8   9
BRANCH   8  11
ATOM     11  C   LIG d   1      -3.136  90.593 123.657  0.00  0.00     0.028 C 
ATOM     12  C   LIG d   1      -4.585  91.105 123.684  0.00  0.00     0.006 C 
ENDBRANCH   8  11
ENDBRANCH   7   8
ENDBRANCH   1   7
BRANCH   6  13
ATOM     13  N   LIG d   1       0.208  92.484 119.961  0.00  0.00    -0.311 N 
ATOM     14  C   LIG d   1       1.337  91.914 120.379  0.00  0.00     0.210 C 
ATOM     15  C   LIG d   1       2.400  92.888 120.897  0.00  0.00     0.109 C 
ATOM     16  O   LIG d   1       1.571  90.697 120.340  0.00  0.00    -0.276 OA
ATOM     17  H   LIG d   1       0.115  93.480 119.999  0.00  0.00     0.149 HD
ENDBRANCH   6  13
BRANCH   5  18
ATOM     18  N   LIG d   1      -0.374  91.992 117.003  0.00  0.00     0.381 N 
ATOM     19  H   LIG d   1      -0.777  92.126 116.097  0.00  0.00    -0.090 HD
ATOM     20  H   LIG d   1      -0.038  91.047 117.062  0.00  0.00    -0.090 HD
ATOM     21  H   LIG d   1       0.380  92.630 117.137  0.00  0.00    -0.090 HD
ENDBRANCH   5  18
BRANCH   3  22
ATOM     22  C   LIG d   1      -4.975  91.350 118.166  0.00  0.00     0.382 C 
ATOM     23  O   LIG d   1      -5.316  90.465 117.344  0.00  0.00    -0.241 OA
ATOM     24  O   LIG d   1      -5.818  92.179 118.558  0.00  0.00    -0.241 OA
ENDBRANCH   3  22
TORSDOF 7
ENDMDL
MODEL 9
REMARK VINA RESULT:      -3.9      2.010      5.175
REMARK  7 active torsions:
REMARK  status: ('A' for Active; 'I' for Inactive)
REMARK    1  A    between atoms: C_2  and  C_3 
REMARK    2  A    between atoms: C_3  and  O_6 
REMARK    3  A    between atoms: C_3  and  C_4 
REMARK    4  A    between atoms: C_7  and  O_6 
REMARK    5  A    between atoms: C_9  and  C_10 
REMARK    6  A    between atoms: N_15  and  C_14 
REMARK    7  A    between atoms: N_20  and  C_19 
REMARK       I    between atoms: C_22  and  N_20 
ROOT
ATOM      1  C   LIG d   1      -4.637  94.219 119.835  0.00  0.00     0.161 C 
ATOM      2  C   LIG d   1      -5.966  94.676 119.851  0.00  0.00     0.016 C 
ATOM      3  C   LIG d   1      -7.027  94.008 119.198  0.00  0.00     0.038 C 
ATOM      4  C   LIG d   1      -6.856  92.747 118.607  0.00  0.00     0.028 C 
ATOM      5  C   LIG d   1      -5.431  92.488 118.131  0.00  0.00    -0.047 C 
ATOM      6  C   LIG d   1      -4.453  92.788 119.290  0.00  0.00     0.091 C 
ENDROOT
BRANCH   1   7
ATOM      7  O   LIG d   1      -4.067  94.331 121.154  0.00  0.00    -0.368 OA
BRANCH   7   8
ATOM      8  C   LIG d   1      -4.987  94.175 122.262  0.00  0.00     0.119 C 
BRANCH   8   9
ATOM      9  C   LIG d   1      -4.585  95.194 123.345  0.00  0.00     0.028 C 
ATOM     10  C   LIG d   1      -5.604  96.338 123.482  0.00  0.00     0.006 C 
ENDBRANCH   8   9
BRANCH   8  11
ATOM     11  C   LIG d   1      -4.836  92.801 122.922  0.00  0.00     0.028 C 
ATOM     12  C   LIG d   1      -6.090  91.925 122.768  0.00  0.00     0.006 C 
ENDBRANCH   8  11
ENDBRANCH   7   8
ENDBRANCH   1   7
BRANCH   6  13
ATOM     13  N   LIG d   1      -3.031  92.641 118.883  0.00  0.00    -0.311 N 
ATOM     14  C   LIG d   1      -2.168  91.842 119.508  0.00  0.00     0.210 C 
ATOM     15  C   LIG d   1      -0.746  91.855 118.940  0.00  0.00     0.109 C 
ATOM     16  O   LIG d   1      -2.454  91.099 120.460  0.00  0.00    -0.276 OA
ATOM     17  H   LIG d   1      -2.722  93.184 118.101  0.00  0.00     0.149 HD
ENDBRANCH   6  13
BRANCH   5  18
ATOM     18  N   LIG d   1      -5.364  91.091 117.664  0.00  0.00     0.381 N 
ATOM     19  H   LIG d   1      -6.250  90.647 117.795  0.00  0.00    -0.090 HD
ATOM     20  H   LIG d   1      -4.680  90.598 118.210  0.00  0.00    -0.090 HD
ATOM     21  H   LIG d   1      -5.111  91.065 116.700  0.00  0.00    -0.090 HD
ENDBRANCH   5  18
BRANCH   3  22
ATOM     22  C   LIG d   1      -8.266  94.620 119.097  0.00  0.00     0.382 C 
ATOM     23  O   LIG d   1      -8.372  95.857 119.281  0.00  0.00    -0.241 OA
ATOM     24  O   LIG d   1      -9.288  93.945 118.868  0.00  0.00    -0.241 OA
ENDBRANCH   3  22
TORSDOF 7
ENDMDL
