MODEL 1
REMARK VINA RESULT:      -4.8      0.000      0.000
REMARK  7 active torsions:
REMARK  status: ('A' for Active; 'I' for Inactive)
REMARK    1  A    between atoms: C_2  and  C_3 
REMARK    2  A    between atoms: C_3  and  O_6 
REMARK    3  A    between atoms: C_3  and  C_4 
REMARK    4  A    between atoms: C_7  and  O_6 
REMARK    5  A    between atoms: C_9  and  C_10 
REMARK    6  A    between atoms: N_15  and  C_14 
REMARK    7  A    between atoms: N_20  and  C_19 
REMARK       I    between atoms: C_22  and  N_20 
ROOT
ATOM      1  C   LIG d   1      -5.371  92.183 119.588  0.00  0.00     0.161 C 
ATOM      2  C   LIG d   1      -4.458  91.308 118.978  0.00  0.00     0.016 C 
ATOM      3  C   LIG d   1      -4.569  90.881 117.634  0.00  0.00     0.038 C 
ATOM      4  C   LIG d   1      -5.523  91.423 116.760  0.00  0.00     0.028 C 
ATOM      5  C   LIG d   1      -6.775  91.928 117.469  0.00  0.00    -0.047 C 
ATOM      6  C   LIG d   1      -6.355  92.871 118.619  0.00  0.00     0.091 C 
ENDROOT
BRANCH   1   7
ATOM      7  O   LIG d   1      -4.660  93.169 120.364  0.00  0.00    -0.368 OA
BRANCH   7   8
ATOM      8  C   LIG d   1      -4.296  94.386 119.668  0.00  0.00     0.119 C 
BRANCH   8   9
ATOM      9  C   LIG d   1      -2.757  94.458 119.636  0.00  0.00     0.028 C 
ATOM     10  C   LIG d   1      -2.181  94.101 118.255  0.00  0.00     0.006 C 
ENDBRANCH   8   9
BRANCH   8  11
ATOM     11  C   LIG d   1      -4.744  95.627 120.444  0.00  0.00     0.028 C 
ATOM     12  C   LIG d   1      -5.029  96.830 119.531  0.00  0.00     0.006 C 
ENDBRANCH   8  11
ENDBRANCH   7   8
ENDBRANCH   1   7
BRANCH   6  13
ATOM     13  N   LIG d   1      -7.516  93.344 119.417  0.00  0.00    -0.311 N 
ATOM     14  C   LIG d   1      -8.173  94.474 119.158  0.00  0.00     0.210 C 
ATOM     15  C   LIG d   1      -9.327  94.785 120.116  0.00  0.00     0.109 C 
ATOM     16  O   LIG d   1      -7.929  95.231 118.206  0.00  0.00    -0.276 OA
ATOM     17  H   LIG d   1      -7.801  92.774 120.190  0.00  0.00     0.149 HD
ENDBRANCH   6  13
BRANCH   5  18
ATOM     18  N   LIG d   1      -7.623  92.589 116.459  0.00  0.00     0.381 N 
ATOM     19  H   LIG d   1      -7.831  93.524 116.750  0.00  0.00    -0.090 HD
ATOM     20  H   LIG d   1      -8.487  92.084 116.378  0.00  0.00    -0.090 HD
ATOM     21  H   LIG d   1      -7.155  92.605 115.579  0.00  0.00    -0.090 HD
ENDBRANCH   5  18
BRANCH   3  22
ATOM     22  C   LIG d   1      -3.743  89.871 117.164  0.00  0.00     0.382 C 
ATOM     23  O   LIG d   1      -4.212  88.968 116.431  0.00  0.00    -0.241 OA
ATOM     24  O   LIG d   1      -2.544  89.827 117.500  0.00  0.00    -0.241 OA
ENDBRANCH   3  22
TORSDOF 7
ENDMDL
MODEL 2
REMARK VINA RESULT:      -4.8      1.732      2.238
REMARK  7 active torsions:
REMARK  status: ('A' for Active; 'I' for Inactive)
REMARK    1  A    between atoms: C_2  and  C_3 
REMARK    2  A    between atoms: C_3  and  O_6 
REMARK    3  A    between atoms: C_3  and  C_4 
REMARK    4  A    between atoms: C_7  and  O_6 
REMARK    5  A    between atoms: C_9  and  C_10 
REMARK    6  A    between atoms: N_15  and  C_14 
REMARK    7  A    between atoms: N_20  and  C_19 
REMARK       I    between atoms: C_22  and  N_20 
ROOT
ATOM      1  C   LIG d   1      -5.312  92.548 119.438  0.00  0.00     0.161 C 
ATOM      2  C   LIG d   1      -5.344  91.452 118.560  0.00  0.00     0.016 C 
ATOM      3  C   LIG d   1      -6.251  91.346 117.481  0.00  0.00     0.038 C 
ATOM      4  C   LIG d   1      -7.092  92.406 117.112  0.00  0.00     0.028 C 
ATOM      5  C   LIG d   1      -7.448  93.329 118.272  0.00  0.00    -0.047 C 
ATOM      6  C   LIG d   1      -6.146  93.764 118.984  0.00  0.00     0.091 C 
ENDROOT
BRANCH   1   7
ATOM      7  O   LIG d   1      -3.946  92.940 119.680  0.00  0.00    -0.368 OA
BRANCH   7   8
ATOM      8  C   LIG d   1      -3.346  93.807 118.686  0.00  0.00     0.119 C 
BRANCH   8   9
ATOM      9  C   LIG d   1      -2.074  93.108 118.170  0.00  0.00     0.028 C 
ATOM     10  C   LIG d   1      -1.674  91.902 119.036  0.00  0.00     0.006 C 
ENDBRANCH   8   9
BRANCH   8  11
ATOM     11  C   LIG d   1      -2.863  95.120 119.311  0.00  0.00     0.028 C 
ATOM     12  C   LIG d   1      -2.809  95.064 120.846  0.00  0.00     0.006 C 
ENDBRANCH   8  11
ENDBRANCH   7   8
ENDBRANCH   1   7
BRANCH   6  13
ATOM     13  N   LIG d   1      -6.409  94.602 120.184  0.00  0.00    -0.311 N 
ATOM     14  C   LIG d   1      -6.412  95.934 120.162  0.00  0.00     0.210 C 
ATOM     15  C   LIG d   1      -6.686  96.602 121.512  0.00  0.00     0.109 C 
ATOM     16  O   LIG d   1      -6.245  96.625 119.145  0.00  0.00    -0.276 OA
ATOM     17  H   LIG d   1      -6.586  94.123 121.045  0.00  0.00     0.149 HD
ENDBRANCH   6  13
BRANCH   5  18
ATOM     18  N   LIG d   1      -8.212  94.464 117.721  0.00  0.00     0.381 N 
ATOM     19  H   LIG d   1      -8.827  94.829 118.421  0.00  0.00    -0.090 HD
ATOM     20  H   LIG d   1      -8.769  94.137 116.951  0.00  0.00    -0.090 HD
ATOM     21  H   LIG d   1      -7.589  95.177 117.411  0.00  0.00    -0.090 HD
ENDBRANCH   5  18
BRANCH   3  22
ATOM     22  C   LIG d   1      -6.350  90.152 116.781  0.00  0.00     0.382 C 
ATOM     23  O   LIG d   1      -7.479  89.663 116.534  0.00  0.00    -0.241 OA
ATOM     24  O   LIG d   1      -5.325  89.537 116.434  0.00  0.00    -0.241 OA
ENDBRANCH   3  22
TORSDOF 7
ENDMDL
MODEL 3
REMARK VINA RESULT:      -4.7      3.163      6.372
REMARK  7 active torsions:
REMARK  status: ('A' for Active; 'I' for Inactive)
REMARK    1  A    between atoms: C_2  and  C_3 
REMARK    2  A    between atoms: C_3  and  O_6 
REMARK    3  A    between atoms: C_3  and  C_4 
REMARK    4  A    between atoms: C_7  and  O_6 
REMARK    5  A    between atoms: C_9  and  C_10 
REMARK    6  A    between atoms: N_15  and  C_14 
REMARK    7  A    between atoms: N_20  and  C_19 
REMARK       I    between atoms: C_22  and  N_20 
ROOT
ATOM      1  C   LIG d   1      -3.382  90.160 117.953  0.00  0.00     0.161 C 
ATOM      2  C   LIG d   1      -4.666  90.147 117.381  0.00  0.00     0.016 C 
ATOM      3  C   LIG d   1      -5.447  91.311 117.194  0.00  0.00     0.038 C 
ATOM      4  C   LIG d   1      -4.932  92.594 117.430  0.00  0.00     0.028 C 
ATOM      5  C   LIG d   1      -3.827  92.621 118.481  0.00  0.00    -0.047 C 
ATOM      6  C   LIG d   1      -2.761  91.564 118.114  0.00  0.00     0.091 C 
ENDROOT
BRANCH   1   7
ATOM      7  O   LIG d   1      -2.502  89.306 117.197  0.00  0.00    -0.368 OA
BRANCH   7   8
ATOM      8  C   LIG d   1      -2.191  88.023 117.793  0.00  0.00     0.119 C 
BRANCH   8   9
ATOM      9  C   LIG d   1      -2.757  88.030 119.227  0.00  0.00     0.028 C 
ATOM     10  C   LIG d   1      -2.708  86.640 119.884  0.00  0.00     0.006 C 
ENDBRANCH   8   9
BRANCH   8  11
ATOM     11  C   LIG d   1      -0.680  87.834 117.955  0.00  0.00     0.028 C 
ATOM     12  C   LIG d   1      -0.077  86.913 116.883  0.00  0.00     0.006 C 
ENDBRANCH   8  11
ENDBRANCH   7   8
ENDBRANCH   1   7
BRANCH   6  13
ATOM     13  N   LIG d   1      -1.686  91.465 119.135  0.00  0.00    -0.311 N 
ATOM     14  C   LIG d   1      -0.393  91.364 118.831  0.00  0.00     0.210 C 
ATOM     15  C   LIG d   1       0.548  91.253 120.035  0.00  0.00     0.109 C 
ATOM     16  O   LIG d   1       0.067  91.387 117.679  0.00  0.00    -0.276 OA
ATOM     17  H   LIG d   1      -1.967  91.469 120.096  0.00  0.00     0.149 HD
ENDBRANCH   6  13
BRANCH   5  18
ATOM     18  N   LIG d   1      -3.289  93.993 118.527  0.00  0.00     0.381 N 
ATOM     19  H   LIG d   1      -2.965  94.199 119.451  0.00  0.00    -0.090 HD
ATOM     20  H   LIG d   1      -4.024  94.639 118.300  0.00  0.00    -0.090 HD
ATOM     21  H   LIG d   1      -2.541  94.088 117.876  0.00  0.00    -0.090 HD
ENDBRANCH   5  18
BRANCH   3  22
ATOM     22  C   LIG d   1      -6.772  91.194 116.805  0.00  0.00     0.382 C 
ATOM     23  O   LIG d   1      -7.443  92.222 116.547  0.00  0.00    -0.241 OA
ATOM     24  O   LIG d   1      -7.318  90.075 116.750  0.00  0.00    -0.241 OA
ENDBRANCH   3  22
TORSDOF 7
ENDMDL
MODEL 4
REMARK VINA RESULT:      -4.7      1.273      1.961
REMARK  7 active torsions:
REMARK  status: ('A' for Active; 'I' for Inactive)
REMARK    1  A    between atoms: C_2  and  C_3 
REMARK    2  A    between atoms: C_3  and  O_6 
REMARK    3  A    between atoms: C_3  and  C_4 
REMARK    4  A    between atoms: C_7  and  O_6 
REMARK    5  A    between atoms: C_9  and  C_10 
REMARK    6  A    between atoms: N_15  and  C_14 
REMARK    7  A    between atoms: N_20  and  C_19 
REMARK       I    between atoms: C_22  and  N_20 
ROOT
ATOM      1  C   LIG d   1      -4.507  92.368 118.817  0.00  0.00     0.161 C 
ATOM      2  C   LIG d   1      -3.498  91.481 118.407  0.00  0.00     0.016 C 
ATOM      3  C   LIG d   1      -3.739  90.353 117.589  0.00  0.00     0.038 C 
ATOM      4  C   LIG d   1      -4.989  90.121 116.996  0.00  0.00     0.028 C 
ATOM      5  C   LIG d   1      -6.153  90.708 117.788  0.00  0.00    -0.047 C 
ATOM      6  C   LIG d   1      -5.857  92.194 118.090  0.00  0.00     0.091 C 
ENDROOT
BRANCH   1   7
ATOM      7  O   LIG d   1      -4.042  93.727 118.692  0.00  0.00    -0.368 OA
BRANCH   7   8
ATOM      8  C   LIG d   1      -3.508  94.331 119.896  0.00  0.00     0.119 C 
BRANCH   8   9
ATOM      9  C   LIG d   1      -4.638  95.158 120.539  0.00  0.00     0.028 C 
ATOM     10  C   LIG d   1      -5.394  96.018 119.513  0.00  0.00     0.006 C 
ENDBRANCH   8   9
BRANCH   8  11
ATOM     11  C   LIG d   1      -2.403  95.340 119.570  0.00  0.00     0.028 C 
ATOM     12  C   LIG d   1      -1.319  94.759 118.648  0.00  0.00     0.006 C 
ENDBRANCH   8  11
ENDBRANCH   7   8
ENDBRANCH   1   7
BRANCH   6  13
ATOM     13  N   LIG d   1      -6.907  92.822 118.934  0.00  0.00    -0.311 N 
ATOM     14  C   LIG d   1      -8.018  93.364 118.438  0.00  0.00     0.210 C 
ATOM     15  C   LIG d   1      -8.959  93.975 119.481  0.00  0.00     0.109 C 
ATOM     16  O   LIG d   1      -8.329  93.369 117.238  0.00  0.00    -0.276 OA
ATOM     17  H   LIG d   1      -6.750  92.834 119.922  0.00  0.00     0.149 HD
ENDBRANCH   6  13
BRANCH   5  18
ATOM     18  N   LIG d   1      -7.378  90.513 116.989  0.00  0.00     0.381 N 
ATOM     19  H   LIG d   1      -7.137  90.207 116.067  0.00  0.00    -0.090 HD
ATOM     20  H   LIG d   1      -7.860  91.392 116.914  0.00  0.00    -0.090 HD
ATOM     21  H   LIG d   1      -7.968  89.840 117.427  0.00  0.00    -0.090 HD
ENDBRANCH   5  18
BRANCH   3  22
ATOM     22  C   LIG d   1      -2.732  89.422 117.388  0.00  0.00     0.382 C 
ATOM     23  O   LIG d   1      -2.987  88.196 117.467  0.00  0.00    -0.241 OA
ATOM     24  O   LIG d   1      -1.563  89.792 117.173  0.00  0.00    -0.241 OA
ENDBRANCH   3  22
TORSDOF 7
ENDMDL
MODEL 5
REMARK VINA RESULT:      -4.6      2.231      4.065
REMARK  7 active torsions:
REMARK  status: ('A' for Active; 'I' for Inactive)
REMARK    1  A    between atoms: C_2  and  C_3 
REMARK    2  A    between atoms: C_3  and  O_6 
REMARK    3  A    between atoms: C_3  and  C_4 
REMARK    4  A    between atoms: C_7  and  O_6 
REMARK    5  A    between atoms: C_9  and  C_10 
REMARK    6  A    between atoms: N_15  and  C_14 
REMARK    7  A    between atoms: N_20  and  C_19 
REMARK       I    between atoms: C_22  and  N_20 
ROOT
ATOM      1  C   LIG d   1      -5.889  93.745 118.548  0.00  0.00     0.161 C 
ATOM      2  C   LIG d   1      -6.447  92.551 118.061  0.00  0.00     0.016 C 
ATOM      3  C   LIG d   1      -5.675  91.439 117.655  0.00  0.00     0.038 C 
ATOM      4  C   LIG d   1      -4.287  91.389 117.851  0.00  0.00     0.028 C 
ATOM      5  C   LIG d   1      -3.628  92.764 117.871  0.00  0.00    -0.047 C 
ATOM      6  C   LIG d   1      -4.382  93.668 118.873  0.00  0.00     0.091 C 
ENDROOT
BRANCH   1   7
ATOM      7  O   LIG d   1      -6.628  94.196 119.700  0.00  0.00    -0.368 OA
BRANCH   7   8
ATOM      8  C   LIG d   1      -7.689  95.149 119.443  0.00  0.00     0.119 C 
BRANCH   8   9
ATOM      9  C   LIG d   1      -7.112  96.558 119.677  0.00  0.00     0.028 C 
ATOM     10  C   LIG d   1      -6.746  97.268 118.363  0.00  0.00     0.006 C 
ENDBRANCH   8   9
BRANCH   8  11
ATOM     11  C   LIG d   1      -8.827  95.002 120.458  0.00  0.00     0.028 C 
ATOM     12  C   LIG d   1      -9.818  93.889 120.086  0.00  0.00     0.006 C 
ENDBRANCH   8  11
ENDBRANCH   7   8
ENDBRANCH   1   7
BRANCH   6  13
ATOM     13  N   LIG d   1      -3.855  95.057 118.893  0.00  0.00    -0.311 N 
ATOM     14  C   LIG d   1      -3.532  95.703 120.012  0.00  0.00     0.210 C 
ATOM     15  C   LIG d   1      -3.026  97.135 119.809  0.00  0.00     0.109 C 
ATOM     16  O   LIG d   1      -3.587  95.216 121.151  0.00  0.00    -0.276 OA
ATOM     17  H   LIG d   1      -3.749  95.517 118.010  0.00  0.00     0.149 HD
ENDBRANCH   6  13
BRANCH   5  18
ATOM     18  N   LIG d   1      -2.208  92.573 118.221  0.00  0.00     0.381 N 
ATOM     19  H   LIG d   1      -2.133  92.212 119.151  0.00  0.00    -0.090 HD
ATOM     20  H   LIG d   1      -1.743  93.463 118.190  0.00  0.00    -0.090 HD
ATOM     21  H   LIG d   1      -1.780  91.945 117.577  0.00  0.00    -0.090 HD
ENDBRANCH   5  18
BRANCH   3  22
ATOM     22  C   LIG d   1      -6.287  90.376 117.008  0.00  0.00     0.382 C 
ATOM     23  O   LIG d   1      -5.589  89.508 116.430  0.00  0.00    -0.241 OA
ATOM     24  O   LIG d   1      -7.529  90.299 116.957  0.00  0.00    -0.241 OA
ENDBRANCH   3  22
TORSDOF 7
ENDMDL
MODEL 6
REMARK VINA RESULT:      -4.5      1.334      2.083
REMARK  7 active torsions:
REMARK  status: ('A' for Active; 'I' for Inactive)
REMARK    1  A    between atoms: C_2  and  C_3 
REMARK    2  A    between atoms: C_3  and  O_6 
REMARK    3  A    between atoms: C_3  and  C_4 
REMARK    4  A    between atoms: C_7  and  O_6 
REMARK    5  A    between atoms: C_9  and  C_10 
REMARK    6  A    between atoms: N_15  and  C_14 
REMARK    7  A    between atoms: N_20  and  C_19 
REMARK       I    between atoms: C_22  and  N_20 
ROOT
ATOM      1  C   LIG d   1      -4.697  93.366 119.025  0.00  0.00     0.161 C 
ATOM      2  C   LIG d   1      -4.185  92.220 118.394  0.00  0.00     0.016 C 
ATOM      3  C   LIG d   1      -4.913  91.462 117.448  0.00  0.00     0.038 C 
ATOM      4  C   LIG d   1      -6.154  91.888 116.953  0.00  0.00     0.028 C 
ATOM      5  C   LIG d   1      -6.927  92.765 117.932  0.00  0.00    -0.047 C 
ATOM      6  C   LIG d   1      -6.007  93.909 118.416  0.00  0.00     0.091 C 
ENDROOT
BRANCH   1   7
ATOM      7  O   LIG d   1      -3.692  94.399 119.053  0.00  0.00    -0.368 OA
BRANCH   7   8
ATOM      8  C   LIG d   1      -3.127  94.703 120.353  0.00  0.00     0.119 C 
BRANCH   8   9
ATOM      9  C   LIG d   1      -3.303  96.215 120.591  0.00  0.00     0.028 C 
ATOM     10  C   LIG d   1      -3.737  96.963 119.320  0.00  0.00     0.006 C 
ENDBRANCH   8   9
BRANCH   8  11
ATOM     11  C   LIG d   1      -1.615  94.462 120.373  0.00  0.00     0.028 C 
ATOM     12  C   LIG d   1      -0.958  94.685 119.001  0.00  0.00     0.006 C 
ENDBRANCH   8  11
ENDBRANCH   7   8
ENDBRANCH   1   7
BRANCH   6  13
ATOM     13  N   LIG d   1      -6.658  94.766 119.441  0.00  0.00    -0.311 N 
ATOM     14  C   LIG d   1      -7.296  95.899 119.151  0.00  0.00     0.210 C 
ATOM     15  C   LIG d   1      -7.879  96.639 120.359  0.00  0.00     0.109 C 
ATOM     16  O   LIG d   1      -7.462  96.344 118.006  0.00  0.00    -0.276 OA
ATOM     17  H   LIG d   1      -6.599  94.463 120.393  0.00  0.00     0.149 HD
ENDBRANCH   6  13
BRANCH   5  18
ATOM     18  N   LIG d   1      -8.135  93.250 117.238  0.00  0.00     0.381 N 
ATOM     19  H   LIG d   1      -8.810  92.513 117.177  0.00  0.00    -0.090 HD
ATOM     20  H   LIG d   1      -7.885  93.526 116.305  0.00  0.00    -0.090 HD
ATOM     21  H   LIG d   1      -8.523  94.025 117.729  0.00  0.00    -0.090 HD
ENDBRANCH   5  18
BRANCH   3  22
ATOM     22  C   LIG d   1      -4.415  90.242 117.016  0.00  0.00     0.382 C 
ATOM     23  O   LIG d   1      -3.201  89.968 117.176  0.00  0.00    -0.241 OA
ATOM     24  O   LIG d   1      -5.155  89.429 116.430  0.00  0.00    -0.241 OA
ENDBRANCH   3  22
TORSDOF 7
ENDMDL
MODEL 7
REMARK VINA RESULT:      -4.4      2.160      5.297
REMARK  7 active torsions:
REMARK  status: ('A' for Active; 'I' for Inactive)
REMARK    1  A    between atoms: C_2  and  C_3 
REMARK    2  A    between atoms: C_3  and  O_6 
REMARK    3  A    between atoms: C_3  and  C_4 
REMARK    4  A    between atoms: C_7  and  O_6 
REMARK    5  A    between atoms: C_9  and  C_10 
REMARK    6  A    between atoms: N_15  and  C_14 
REMARK    7  A    between atoms: N_20  and  C_19 
REMARK       I    between atoms: C_22  and  N_20 
ROOT
ATOM      1  C   LIG d   1      -4.442  92.985 118.809  0.00  0.00     0.161 C 
ATOM      2  C   LIG d   1      -5.599  93.780 118.852  0.00  0.00     0.016 C 
ATOM      3  C   LIG d   1      -6.796  93.449 118.177  0.00  0.00     0.038 C 
ATOM      4  C   LIG d   1      -6.966  92.215 117.531  0.00  0.00     0.028 C 
ATOM      5  C   LIG d   1      -5.659  91.606 117.036  0.00  0.00    -0.047 C 
ATOM      6  C   LIG d   1      -4.644  91.581 118.201  0.00  0.00     0.091 C 
ENDROOT
BRANCH   1   7
ATOM      7  O   LIG d   1      -3.870  92.881 120.128  0.00  0.00    -0.368 OA
BRANCH   7   8
ATOM      8  C   LIG d   1      -4.360  91.795 120.952  0.00  0.00     0.119 C 
BRANCH   8   9
ATOM      9  C   LIG d   1      -5.014  92.418 122.200  0.00  0.00     0.028 C 
ATOM     10  C   LIG d   1      -6.550  92.377 122.140  0.00  0.00     0.006 C 
ENDBRANCH   8   9
BRANCH   8  11
ATOM     11  C   LIG d   1      -3.209  90.936 121.483  0.00  0.00     0.028 C 
ATOM     12  C   LIG d   1      -3.503  90.335 122.867  0.00  0.00     0.006 C 
ENDBRANCH   8  11
ENDBRANCH   7   8
ENDBRANCH   1   7
BRANCH   6  13
ATOM     13  N   LIG d   1      -3.311  91.077 117.780  0.00  0.00    -0.311 N 
ATOM     14  C   LIG d   1      -2.929  89.809 117.921  0.00  0.00     0.210 C 
ATOM     15  C   LIG d   1      -1.506  89.505 117.440  0.00  0.00     0.109 C 
ATOM     16  O   LIG d   1      -3.644  88.900 118.369  0.00  0.00    -0.276 OA
ATOM     17  H   LIG d   1      -2.678  91.740 117.378  0.00  0.00     0.149 HD
ENDBRANCH   6  13
BRANCH   5  18
ATOM     18  N   LIG d   1      -5.966  90.263 116.507  0.00  0.00     0.381 N 
ATOM     19  H   LIG d   1      -5.227  89.959 115.906  0.00  0.00    -0.090 HD
ATOM     20  H   LIG d   1      -6.812  90.311 115.968  0.00  0.00    -0.090 HD
ATOM     21  H   LIG d   1      -6.079  89.619 117.259  0.00  0.00    -0.090 HD
ENDBRANCH   5  18
BRANCH   3  22
ATOM     22  C   LIG d   1      -7.826  94.375 118.110  0.00  0.00     0.382 C 
ATOM     23  O   LIG d   1      -9.019  93.989 118.134  0.00  0.00    -0.241 OA
ATOM     24  O   LIG d   1      -7.577  95.589 117.981  0.00  0.00    -0.241 OA
ENDBRANCH   3  22
TORSDOF 7
ENDMDL
MODEL 8
REMARK VINA RESULT:      -4.3      2.946      4.956
REMARK  7 active torsions:
REMARK  status: ('A' for Active; 'I' for Inactive)
REMARK    1  A    between atoms: C_2  and  C_3 
REMARK    2  A    between atoms: C_3  and  O_6 
REMARK    3  A    between atoms: C_3  and  C_4 
REMARK    4  A    between atoms: C_7  and  O_6 
REMARK    5  A    between atoms: C_9  and  C_10 
REMARK    6  A    between atoms: N_15  and  C_14 
REMARK    7  A    between atoms: N_20  and  C_19 
REMARK       I    between atoms: C_22  and  N_20 
ROOT
ATOM      1  C   LIG d   1      -3.420  92.703 118.017  0.00  0.00     0.161 C 
ATOM      2  C   LIG d   1      -4.804  92.618 117.790  0.00  0.00     0.016 C 
ATOM      3  C   LIG d   1      -5.482  91.399 117.561  0.00  0.00     0.038 C 
ATOM      4  C   LIG d   1      -4.842  90.158 117.695  0.00  0.00     0.028 C 
ATOM      5  C   LIG d   1      -3.342  90.218 117.424  0.00  0.00    -0.047 C 
ATOM      6  C   LIG d   1      -2.724  91.350 118.276  0.00  0.00     0.091 C 
ENDROOT
BRANCH   1   7
ATOM      7  O   LIG d   1      -3.157  93.617 119.099  0.00  0.00    -0.368 OA
BRANCH   7   8
ATOM      8  C   LIG d   1      -2.497  94.856 118.741  0.00  0.00     0.119 C 
BRANCH   8   9
ATOM      9  C   LIG d   1      -1.067  94.801 119.312  0.00  0.00     0.028 C 
ATOM     10  C   LIG d   1      -1.006  94.088 120.673  0.00  0.00     0.006 C 
ENDBRANCH   8   9
BRANCH   8  11
ATOM     11  C   LIG d   1      -3.160  96.058 119.421  0.00  0.00     0.028 C 
ATOM     12  C   LIG d   1      -4.607  95.774 119.855  0.00  0.00     0.006 C 
ENDBRANCH   8  11
ENDBRANCH   7   8
ENDBRANCH   1   7
BRANCH   6  13
ATOM     13  N   LIG d   1      -1.273  91.533 118.009  0.00  0.00    -0.311 N 
ATOM     14  C   LIG d   1      -0.316  90.974 118.747  0.00  0.00     0.210 C 
ATOM     15  C   LIG d   1       1.115  91.308 118.312  0.00  0.00     0.109 C 
ATOM     16  O   LIG d   1      -0.515  90.208 119.702  0.00  0.00    -0.276 OA
ATOM     17  H   LIG d   1      -1.022  92.115 117.234  0.00  0.00     0.149 HD
ENDBRANCH   6  13
BRANCH   5  18
ATOM     18  N   LIG d   1      -2.780  88.890 117.733  0.00  0.00     0.381 N 
ATOM     19  H   LIG d   1      -1.781  88.928 117.698  0.00  0.00    -0.090 HD
ATOM     20  H   LIG d   1      -3.095  88.235 117.039  0.00  0.00    -0.090 HD
ATOM     21  H   LIG d   1      -3.077  88.596 118.637  0.00  0.00    -0.090 HD
ENDBRANCH   5  18
BRANCH   3  22
ATOM     22  C   LIG d   1      -6.808  91.416 117.155  0.00  0.00     0.382 C 
ATOM     23  O   LIG d   1      -7.416  92.507 117.044  0.00  0.00    -0.241 OA
ATOM     24  O   LIG d   1      -7.417  90.350 116.943  0.00  0.00    -0.241 OA
ENDBRANCH   3  22
TORSDOF 7
ENDMDL
MODEL 9
REMARK VINA RESULT:      -4.2      3.186      6.006
REMARK  7 active torsions:
REMARK  status: ('A' for Active; 'I' for Inactive)
REMARK    1  A    between atoms: C_2  and  C_3 
REMARK    2  A    between atoms: C_3  and  O_6 
REMARK    3  A    between atoms: C_3  and  C_4 
REMARK    4  A    between atoms: C_7  and  O_6 
REMARK    5  A    between atoms: C_9  and  C_10 
REMARK    6  A    between atoms: N_15  and  C_14 
REMARK    7  A    between atoms: N_20  and  C_19 
REMARK       I    between atoms: C_22  and  N_20 
ROOT
ATOM      1  C   LIG d   1      -1.498  92.088 118.422  0.00  0.00     0.161 C 
ATOM      2  C   LIG d   1      -0.261  92.442 118.986  0.00  0.00     0.016 C 
ATOM      3  C   LIG d   1       0.021  93.729 119.498  0.00  0.00     0.038 C 
ATOM      4  C   LIG d   1      -0.972  94.713 119.619  0.00  0.00     0.028 C 
ATOM      5  C   LIG d   1      -2.098  94.565 118.602  0.00  0.00    -0.047 C 
ATOM      6  C   LIG d   1      -2.628  93.114 118.647  0.00  0.00     0.091 C 
ENDROOT
BRANCH   1   7
ATOM      7  O   LIG d   1      -1.898  90.788 118.900  0.00  0.00    -0.368 OA
BRANCH   7   8
ATOM      8  C   LIG d   1      -1.849  89.711 117.933  0.00  0.00     0.119 C 
BRANCH   8   9
ATOM      9  C   LIG d   1      -3.258  89.090 117.859  0.00  0.00     0.028 C 
ATOM     10  C   LIG d   1      -3.990  89.450 116.555  0.00  0.00     0.006 C 
ENDBRANCH   8   9
BRANCH   8  11
ATOM     11  C   LIG d   1      -0.932  88.579 118.406  0.00  0.00     0.028 C 
ATOM     12  C   LIG d   1      -0.716  87.499 117.333  0.00  0.00     0.006 C 
ENDBRANCH   8  11
ENDBRANCH   7   8
ENDBRANCH   1   7
BRANCH   6  13
ATOM     13  N   LIG d   1      -3.676  92.861 117.624  0.00  0.00    -0.311 N 
ATOM     14  C   LIG d   1      -4.981  92.894 117.887  0.00  0.00     0.210 C 
ATOM     15  C   LIG d   1      -5.889  92.584 116.692  0.00  0.00     0.109 C 
ATOM     16  O   LIG d   1      -5.474  93.182 118.988  0.00  0.00    -0.276 OA
ATOM     17  H   LIG d   1      -3.365  92.650 116.696  0.00  0.00     0.149 HD
ENDBRANCH   6  13
BRANCH   5  18
ATOM     18  N   LIG d   1      -3.129  95.568 118.930  0.00  0.00     0.381 N 
ATOM     19  H   LIG d   1      -2.695  96.446 119.133  0.00  0.00    -0.090 HD
ATOM     20  H   LIG d   1      -3.628  95.265 119.748  0.00  0.00    -0.090 HD
ATOM     21  H   LIG d   1      -3.761  95.670 118.166  0.00  0.00    -0.090 HD
ENDBRANCH   5  18
BRANCH   3  22
ATOM     22  C   LIG d   1       1.319  94.057 119.859  0.00  0.00     0.382 C 
ATOM     23  O   LIG d   1       1.526  94.824 120.829  0.00  0.00    -0.241 OA
ATOM     24  O   LIG d   1       2.285  93.629 119.198  0.00  0.00    -0.241 OA
ENDBRANCH   3  22
TORSDOF 7
ENDMDL
