MODEL 1
REMARK VINA RESULT:      -4.8      0.000      0.000
REMARK  7 active torsions:
REMARK  status: ('A' for Active; 'I' for Inactive)
REMARK    1  A    between atoms: C_2  and  C_3 
REMARK    2  A    between atoms: C_3  and  O_6 
REMARK    3  A    between atoms: C_3  and  C_4 
REMARK    4  A    between atoms: C_7  and  O_6 
REMARK    5  A    between atoms: C_9  and  C_10 
REMARK    6  A    between atoms: N_15  and  C_14 
REMARK    7  A    between atoms: N_20  and  C_19 
REMARK       I    between atoms: C_22  and  N_20 
ROOT
ATOM      1  C   LIG d   1      -4.518  92.542 119.346  0.00  0.00     0.161 C 
ATOM      2  C   LIG d   1      -3.406  91.802 118.911  0.00  0.00     0.016 C 
ATOM      3  C   LIG d   1      -3.498  90.716 118.010  0.00  0.00     0.038 C 
ATOM      4  C   LIG d   1      -4.699  90.390 117.361  0.00  0.00     0.028 C 
ATOM      5  C   LIG d   1      -5.941  90.787 118.152  0.00  0.00    -0.047 C 
ATOM      6  C   LIG d   1      -5.820  92.272 118.563  0.00  0.00     0.091 C 
ENDROOT
BRANCH   1   7
ATOM      7  O   LIG d   1      -4.205  93.949 119.329  0.00  0.00    -0.368 OA
BRANCH   7   8
ATOM      8  C   LIG d   1      -3.982  94.568 120.620  0.00  0.00     0.119 C 
BRANCH   8   9
ATOM      9  C   LIG d   1      -5.138  95.557 120.865  0.00  0.00     0.028 C 
ATOM     10  C   LIG d   1      -5.692  96.147 119.557  0.00  0.00     0.006 C 
ENDBRANCH   8   9
BRANCH   8  11
ATOM     11  C   LIG d   1      -2.711  95.422 120.616  0.00  0.00     0.028 C 
ATOM     12  C   LIG d   1      -1.915  95.301 119.306  0.00  0.00     0.006 C 
ENDBRANCH   8  11
ENDBRANCH   7   8
ENDBRANCH   1   7
BRANCH   6  13
ATOM     13  N   LIG d   1      -6.955  92.719 119.412  0.00  0.00    -0.311 N 
ATOM     14  C   LIG d   1      -8.045  93.312 118.927  0.00  0.00     0.210 C 
ATOM     15  C   LIG d   1      -9.086  93.711 119.978  0.00  0.00     0.109 C 
ATOM     16  O   LIG d   1      -8.262  93.517 117.724  0.00  0.00    -0.276 OA
ATOM     17  H   LIG d   1      -6.876  92.564 120.398  0.00  0.00     0.149 HD
ENDBRANCH   6  13
BRANCH   5  18
ATOM     18  N   LIG d   1      -7.116  90.517 117.301  0.00  0.00     0.381 N 
ATOM     19  H   LIG d   1      -6.864  90.608 116.337  0.00  0.00    -0.090 HD
ATOM     20  H   LIG d   1      -7.828  91.194 117.507  0.00  0.00    -0.090 HD
ATOM     21  H   LIG d   1      -7.459  89.598 117.477  0.00  0.00    -0.090 HD
ENDBRANCH   5  18
BRANCH   3  22
ATOM     22  C   LIG d   1      -2.388  89.917 117.780  0.00  0.00     0.382 C 
ATOM     23  O   LIG d   1      -1.401  89.978 118.552  0.00  0.00    -0.241 OA
ATOM     24  O   LIG d   1      -2.343  89.169 116.785  0.00  0.00    -0.241 OA
ENDBRANCH   3  22
TORSDOF 7
ENDMDL
MODEL 2
REMARK VINA RESULT:      -4.8      2.308      5.752
REMARK  7 active torsions:
REMARK  status: ('A' for Active; 'I' for Inactive)
REMARK    1  A    between atoms: C_2  and  C_3 
REMARK    2  A    between atoms: C_3  and  O_6 
REMARK    3  A    between atoms: C_3  and  C_4 
REMARK    4  A    between atoms: C_7  and  O_6 
REMARK    5  A    between atoms: C_9  and  C_10 
REMARK    6  A    between atoms: N_15  and  C_14 
REMARK    7  A    between atoms: N_20  and  C_19 
REMARK       I    between atoms: C_22  and  N_20 
ROOT
ATOM      1  C   LIG d   1      -4.635  92.190 118.899  0.00  0.00     0.161 C 
ATOM      2  C   LIG d   1      -5.908  92.311 118.318  0.00  0.00     0.016 C 
ATOM      3  C   LIG d   1      -6.712  93.468 118.439  0.00  0.00     0.038 C 
ATOM      4  C   LIG d   1      -6.231  94.647 119.028  0.00  0.00     0.028 C 
ATOM      5  C   LIG d   1      -5.144  94.403 120.070  0.00  0.00    -0.047 C 
ATOM      6  C   LIG d   1      -4.048  93.506 119.451  0.00  0.00     0.091 C 
ENDROOT
BRANCH   1   7
ATOM      7  O   LIG d   1      -3.723  91.590 117.958  0.00  0.00    -0.368 OA
BRANCH   7   8
ATOM      8  C   LIG d   1      -3.346  90.217 118.222  0.00  0.00     0.119 C 
BRANCH   8   9
ATOM      9  C   LIG d   1      -3.908  89.840 119.606  0.00  0.00     0.028 C 
ATOM     10  C   LIG d   1      -2.798  89.534 120.626  0.00  0.00     0.006 C 
ENDBRANCH   8   9
BRANCH   8  11
ATOM     11  C   LIG d   1      -1.827  90.070 118.347  0.00  0.00     0.028 C 
ATOM     12  C   LIG d   1      -1.211  89.254 117.199  0.00  0.00     0.006 C 
ENDBRANCH   8  11
ENDBRANCH   7   8
ENDBRANCH   1   7
BRANCH   6  13
ATOM     13  N   LIG d   1      -2.988  93.150 120.429  0.00  0.00    -0.311 N 
ATOM     14  C   LIG d   1      -1.686  93.278 120.178  0.00  0.00     0.210 C 
ATOM     15  C   LIG d   1      -0.761  92.835 121.316  0.00  0.00     0.109 C 
ATOM     16  O   LIG d   1      -1.210  93.746 119.133  0.00  0.00    -0.276 OA
ATOM     17  H   LIG d   1      -3.286  92.792 121.315  0.00  0.00     0.149 HD
ENDBRANCH   6  13
BRANCH   5  18
ATOM     18  N   LIG d   1      -4.638  95.720 120.501  0.00  0.00     0.381 N 
ATOM     19  H   LIG d   1      -3.886  96.005 119.906  0.00  0.00    -0.090 HD
ATOM     20  H   LIG d   1      -4.285  95.642 121.439  0.00  0.00    -0.090 HD
ATOM     21  H   LIG d   1      -5.370  96.394 120.469  0.00  0.00    -0.090 HD
ENDBRANCH   5  18
BRANCH   3  22
ATOM     22  C   LIG d   1      -8.028  93.439 118.004  0.00  0.00     0.382 C 
ATOM     23  O   LIG d   1      -8.965  93.443 118.838  0.00  0.00    -0.241 OA
ATOM     24  O   LIG d   1      -8.290  93.363 116.788  0.00  0.00    -0.241 OA
ENDBRANCH   3  22
TORSDOF 7
ENDMDL
MODEL 3
REMARK VINA RESULT:      -4.5      2.194      3.818
REMARK  7 active torsions:
REMARK  status: ('A' for Active; 'I' for Inactive)
REMARK    1  A    between atoms: C_2  and  C_3 
REMARK    2  A    between atoms: C_3  and  O_6 
REMARK    3  A    between atoms: C_3  and  C_4 
REMARK    4  A    between atoms: C_7  and  O_6 
REMARK    5  A    between atoms: C_9  and  C_10 
REMARK    6  A    between atoms: N_15  and  C_14 
REMARK    7  A    between atoms: N_20  and  C_19 
REMARK       I    between atoms: C_22  and  N_20 
ROOT
ATOM      1  C   LIG d   1      -4.664  92.133 119.741  0.00  0.00     0.161 C 
ATOM      2  C   LIG d   1      -4.973  91.122 118.816  0.00  0.00     0.016 C 
ATOM      3  C   LIG d   1      -5.981  91.247 117.833  0.00  0.00     0.038 C 
ATOM      4  C   LIG d   1      -6.651  92.459 117.609  0.00  0.00     0.028 C 
ATOM      5  C   LIG d   1      -6.727  93.347 118.846  0.00  0.00    -0.047 C 
ATOM      6  C   LIG d   1      -5.308  93.503 119.440  0.00  0.00     0.091 C 
ENDROOT
BRANCH   1   7
ATOM      7  O   LIG d   1      -3.234  92.267 119.859  0.00  0.00    -0.368 OA
BRANCH   7   8
ATOM      8  C   LIG d   1      -2.553  92.854 118.723  0.00  0.00     0.119 C 
BRANCH   8   9
ATOM      9  C   LIG d   1      -1.524  91.823 118.218  0.00  0.00     0.028 C 
ATOM     10  C   LIG d   1      -1.109  90.824 119.311  0.00  0.00     0.006 C 
ENDBRANCH   8   9
BRANCH   8  11
ATOM     11  C   LIG d   1      -1.731  94.078 119.137  0.00  0.00     0.028 C 
ATOM     12  C   LIG d   1      -0.679  94.471 118.088  0.00  0.00     0.006 C 
ENDBRANCH   8  11
ENDBRANCH   7   8
ENDBRANCH   1   7
BRANCH   6  13
ATOM     13  N   LIG d   1      -5.305  94.288 120.702  0.00  0.00    -0.311 N 
ATOM     14  C   LIG d   1      -5.044  95.593 120.752  0.00  0.00     0.210 C 
ATOM     15  C   LIG d   1      -5.073  96.205 122.157  0.00  0.00     0.109 C 
ATOM     16  O   LIG d   1      -4.823  96.309 119.764  0.00  0.00    -0.276 OA
ATOM     17  H   LIG d   1      -5.505  93.792 121.548  0.00  0.00     0.149 HD
ENDBRANCH   6  13
BRANCH   5  18
ATOM     18  N   LIG d   1      -7.327  94.631 118.437  0.00  0.00     0.381 N 
ATOM     19  H   LIG d   1      -6.795  95.030 117.689  0.00  0.00    -0.090 HD
ATOM     20  H   LIG d   1      -7.300  95.265 119.216  0.00  0.00    -0.090 HD
ATOM     21  H   LIG d   1      -8.269  94.490 118.147  0.00  0.00    -0.090 HD
ENDBRANCH   5  18
BRANCH   3  22
ATOM     22  C   LIG d   1      -6.355  90.140 117.087  0.00  0.00     0.382 C 
ATOM     23  O   LIG d   1      -5.495  89.506 116.430  0.00  0.00    -0.241 OA
ATOM     24  O   LIG d   1      -7.550  89.793 117.028  0.00  0.00    -0.241 OA
ENDBRANCH   3  22
TORSDOF 7
ENDMDL
MODEL 4
REMARK VINA RESULT:      -4.4      1.893      4.945
REMARK  7 active torsions:
REMARK  status: ('A' for Active; 'I' for Inactive)
REMARK    1  A    between atoms: C_2  and  C_3 
REMARK    2  A    between atoms: C_3  and  O_6 
REMARK    3  A    between atoms: C_3  and  C_4 
REMARK    4  A    between atoms: C_7  and  O_6 
REMARK    5  A    between atoms: C_9  and  C_10 
REMARK    6  A    between atoms: N_15  and  C_14 
REMARK    7  A    between atoms: N_20  and  C_19 
REMARK       I    between atoms: C_22  and  N_20 
ROOT
ATOM      1  C   LIG d   1      -4.094  93.116 119.036  0.00  0.00     0.161 C 
ATOM      2  C   LIG d   1      -5.452  93.474 119.064  0.00  0.00     0.016 C 
ATOM      3  C   LIG d   1      -6.442  92.831 118.286  0.00  0.00     0.038 C 
ATOM      4  C   LIG d   1      -6.163  91.680 117.534  0.00  0.00     0.028 C 
ATOM      5  C   LIG d   1      -4.710  91.590 117.082  0.00  0.00    -0.047 C 
ATOM      6  C   LIG d   1      -3.789  91.791 118.307  0.00  0.00     0.091 C 
ENDROOT
BRANCH   1   7
ATOM      7  O   LIG d   1      -3.570  93.082 120.378  0.00  0.00    -0.368 OA
BRANCH   7   8
ATOM      8  C   LIG d   1      -2.700  94.178 120.751  0.00  0.00     0.119 C 
BRANCH   8   9
ATOM      9  C   LIG d   1      -2.295  94.909 119.456  0.00  0.00     0.028 C 
ATOM     10  C   LIG d   1      -0.786  94.815 119.176  0.00  0.00     0.006 C 
ENDBRANCH   8   9
BRANCH   8  11
ATOM     11  C   LIG d   1      -1.388  93.668 121.355  0.00  0.00     0.028 C 
ATOM     12  C   LIG d   1      -1.331  92.135 121.445  0.00  0.00     0.006 C 
ENDBRANCH   8  11
ENDBRANCH   7   8
ENDBRANCH   1   7
BRANCH   6  13
ATOM     13  N   LIG d   1      -2.349  91.802 117.939  0.00  0.00    -0.311 N 
ATOM     14  C   LIG d   1      -1.578  90.716 117.965  0.00  0.00     0.210 C 
ATOM     15  C   LIG d   1      -0.117  90.951 117.567  0.00  0.00     0.109 C 
ATOM     16  O   LIG d   1      -1.972  89.575 118.249  0.00  0.00    -0.276 OA
ATOM     17  H   LIG d   1      -1.955  92.681 117.665  0.00  0.00     0.149 HD
ENDBRANCH   6  13
BRANCH   5  18
ATOM     18  N   LIG d   1      -4.526  90.279 116.430  0.00  0.00     0.381 N 
ATOM     19  H   LIG d   1      -4.530  89.554 117.120  0.00  0.00    -0.090 HD
ATOM     20  H   LIG d   1      -3.635  90.269 115.966  0.00  0.00    -0.090 HD
ATOM     21  H   LIG d   1      -5.255  90.122 115.769  0.00  0.00    -0.090 HD
ENDBRANCH   5  18
BRANCH   3  22
ATOM     22  C   LIG d   1      -7.721  93.364 118.223  0.00  0.00     0.382 C 
ATOM     23  O   LIG d   1      -8.375  93.299 117.154  0.00  0.00    -0.241 OA
ATOM     24  O   LIG d   1      -8.210  93.949 119.207  0.00  0.00    -0.241 OA
ENDBRANCH   3  22
TORSDOF 7
ENDMDL
MODEL 5
REMARK VINA RESULT:      -4.3      3.065      5.219
REMARK  7 active torsions:
REMARK  status: ('A' for Active; 'I' for Inactive)
REMARK    1  A    between atoms: C_2  and  C_3 
REMARK    2  A    between atoms: C_3  and  O_6 
REMARK    3  A    between atoms: C_3  and  C_4 
REMARK    4  A    between atoms: C_7  and  O_6 
REMARK    5  A    between atoms: C_9  and  C_10 
REMARK    6  A    between atoms: N_15  and  C_14 
REMARK    7  A    between atoms: N_20  and  C_19 
REMARK       I    between atoms: C_22  and  N_20 
ROOT
ATOM      1  C   LIG d   1      -1.968  92.734 118.047  0.00  0.00     0.161 C 
ATOM      2  C   LIG d   1      -0.733  92.196 117.649  0.00  0.00     0.016 C 
ATOM      3  C   LIG d   1       0.514  92.746 118.026  0.00  0.00     0.038 C 
ATOM      4  C   LIG d   1       0.612  93.791 118.956  0.00  0.00     0.028 C 
ATOM      5  C   LIG d   1      -0.620  94.689 118.991  0.00  0.00    -0.047 C 
ATOM      6  C   LIG d   1      -1.879  93.807 119.152  0.00  0.00     0.091 C 
ENDROOT
BRANCH   1   7
ATOM      7  O   LIG d   1      -2.857  91.674 118.449  0.00  0.00    -0.368 OA
BRANCH   7   8
ATOM      8  C   LIG d   1      -4.046  91.498 117.639  0.00  0.00     0.119 C 
BRANCH   8   9
ATOM      9  C   LIG d   1      -5.256  91.916 118.497  0.00  0.00     0.028 C 
ATOM     10  C   LIG d   1      -6.296  92.715 117.694  0.00  0.00     0.006 C 
ENDBRANCH   8   9
BRANCH   8  11
ATOM     11  C   LIG d   1      -4.278  90.021 117.303  0.00  0.00     0.028 C 
ATOM     12  C   LIG d   1      -2.996  89.304 116.853  0.00  0.00     0.006 C 
ENDBRANCH   8  11
ENDBRANCH   7   8
ENDBRANCH   1   7
BRANCH   6  13
ATOM     13  N   LIG d   1      -3.136  94.600 119.111  0.00  0.00    -0.311 N 
ATOM     14  C   LIG d   1      -3.765  95.033 120.202  0.00  0.00     0.210 C 
ATOM     15  C   LIG d   1      -5.055  95.816 119.936  0.00  0.00     0.109 C 
ATOM     16  O   LIG d   1      -3.361  94.871 121.363  0.00  0.00    -0.276 OA
ATOM     17  H   LIG d   1      -3.517  94.805 118.208  0.00  0.00     0.149 HD
ENDBRANCH   6  13
BRANCH   5  18
ATOM     18  N   LIG d   1      -0.441  95.649 120.097  0.00  0.00     0.381 N 
ATOM     19  H   LIG d   1       0.034  96.464 119.764  0.00  0.00    -0.090 HD
ATOM     20  H   LIG d   1       0.126  95.223 120.809  0.00  0.00    -0.090 HD
ATOM     21  H   LIG d   1      -1.327  95.903 120.475  0.00  0.00    -0.090 HD
ENDBRANCH   5  18
BRANCH   3  22
ATOM     22  C   LIG d   1       1.678  92.276 117.438  0.00  0.00     0.382 C 
ATOM     23  O   LIG d   1       1.660  91.211 116.774  0.00  0.00    -0.241 OA
ATOM     24  O   LIG d   1       2.756  92.879 117.600  0.00  0.00    -0.241 OA
ENDBRANCH   3  22
TORSDOF 7
ENDMDL
MODEL 6
REMARK VINA RESULT:      -4.2      2.524      6.055
REMARK  7 active torsions:
REMARK  status: ('A' for Active; 'I' for Inactive)
REMARK    1  A    between atoms: C_2  and  C_3 
REMARK    2  A    between atoms: C_3  and  O_6 
REMARK    3  A    between atoms: C_3  and  C_4 
REMARK    4  A    between atoms: C_7  and  O_6 
REMARK    5  A    between atoms: C_9  and  C_10 
REMARK    6  A    between atoms: N_15  and  C_14 
REMARK    7  A    between atoms: N_20  and  C_19 
REMARK       I    between atoms: C_22  and  N_20 
ROOT
ATOM      1  C   LIG d   1      -5.766  93.013 119.052  0.00  0.00     0.161 C 
ATOM      2  C   LIG d   1      -7.146  92.983 119.315  0.00  0.00     0.016 C 
ATOM      3  C   LIG d   1      -7.839  94.036 119.955  0.00  0.00     0.038 C 
ATOM      4  C   LIG d   1      -7.222  95.263 120.242  0.00  0.00     0.028 C 
ATOM      5  C   LIG d   1      -5.716  95.149 120.453  0.00  0.00    -0.047 C 
ATOM      6  C   LIG d   1      -5.098  94.389 119.258  0.00  0.00     0.091 C 
ENDROOT
BRANCH   1   7
ATOM      7  O   LIG d   1      -5.512  92.527 117.719  0.00  0.00    -0.368 OA
BRANCH   7   8
ATOM      8  C   LIG d   1      -4.654  91.364 117.618  0.00  0.00     0.119 C 
BRANCH   8   9
ATOM      9  C   LIG d   1      -5.157  90.520 116.430  0.00  0.00     0.028 C 
ATOM     10  C   LIG d   1      -6.676  90.286 116.478  0.00  0.00     0.006 C 
ENDBRANCH   8   9
BRANCH   8  11
ATOM     11  C   LIG d   1      -4.794  90.459 118.845  0.00  0.00     0.028 C 
ATOM     12  C   LIG d   1      -3.474  89.774 119.234  0.00  0.00     0.006 C 
ENDBRANCH   8  11
ENDBRANCH   7   8
ENDBRANCH   1   7
BRANCH   6  13
ATOM     13  N   LIG d   1      -3.639  94.160 119.424  0.00  0.00    -0.311 N 
ATOM     14  C   LIG d   1      -3.119  93.441 120.417  0.00  0.00     0.210 C 
ATOM     15  C   LIG d   1      -1.590  93.347 120.415  0.00  0.00     0.109 C 
ATOM     16  O   LIG d   1      -3.780  92.845 121.281  0.00  0.00    -0.276 OA
ATOM     17  H   LIG d   1      -3.031  94.581 118.749  0.00  0.00     0.149 HD
ENDBRANCH   6  13
BRANCH   5  18
ATOM     18  N   LIG d   1      -5.183  96.516 120.606  0.00  0.00     0.381 N 
ATOM     19  H   LIG d   1      -5.829  97.177 120.223  0.00  0.00    -0.090 HD
ATOM     20  H   LIG d   1      -4.320  96.588 120.097  0.00  0.00    -0.090 HD
ATOM     21  H   LIG d   1      -5.027  96.715 121.570  0.00  0.00    -0.090 HD
ENDBRANCH   5  18
BRANCH   3  22
ATOM     22  C   LIG d   1      -9.155  93.852 120.352  0.00  0.00     0.382 C 
ATOM     23  O   LIG d   1      -9.956  93.244 119.602  0.00  0.00    -0.241 OA
ATOM     24  O   LIG d   1      -9.562  94.324 121.430  0.00  0.00    -0.241 OA
ENDBRANCH   3  22
TORSDOF 7
ENDMDL
MODEL 7
REMARK VINA RESULT:      -4.1      2.945      4.679
REMARK  7 active torsions:
REMARK  status: ('A' for Active; 'I' for Inactive)
REMARK    1  A    between atoms: C_2  and  C_3 
REMARK    2  A    between atoms: C_3  and  O_6 
REMARK    3  A    between atoms: C_3  and  C_4 
REMARK    4  A    between atoms: C_7  and  O_6 
REMARK    5  A    between atoms: C_9  and  C_10 
REMARK    6  A    between atoms: N_15  and  C_14 
REMARK    7  A    between atoms: N_20  and  C_19 
REMARK       I    between atoms: C_22  and  N_20 
ROOT
ATOM      1  C   LIG d   1      -2.632  92.002 118.820  0.00  0.00     0.161 C 
ATOM      2  C   LIG d   1      -1.902  90.921 118.299  0.00  0.00     0.016 C 
ATOM      3  C   LIG d   1      -0.645  91.064 117.667  0.00  0.00     0.038 C 
ATOM      4  C   LIG d   1       0.042  92.287 117.649  0.00  0.00     0.028 C 
ATOM      5  C   LIG d   1      -0.880  93.500 117.716  0.00  0.00    -0.047 C 
ATOM      6  C   LIG d   1      -1.849  93.329 118.909  0.00  0.00     0.091 C 
ENDROOT
BRANCH   1   7
ATOM      7  O   LIG d   1      -3.170  91.651 120.110  0.00  0.00    -0.368 OA
BRANCH   7   8
ATOM      8  C   LIG d   1      -4.472  91.016 120.107  0.00  0.00     0.119 C 
BRANCH   8   9
ATOM      9  C   LIG d   1      -5.451  91.971 119.397  0.00  0.00     0.028 C 
ATOM     10  C   LIG d   1      -5.941  93.100 120.319  0.00  0.00     0.006 C 
ENDBRANCH   8   9
BRANCH   8  11
ATOM     11  C   LIG d   1      -5.019  90.857 121.528  0.00  0.00     0.028 C 
ATOM     12  C   LIG d   1      -3.911  90.651 122.573  0.00  0.00     0.006 C 
ENDBRANCH   8  11
ENDBRANCH   7   8
ENDBRANCH   1   7
BRANCH   6  13
ATOM     13  N   LIG d   1      -2.841  94.432 118.996  0.00  0.00    -0.311 N 
ATOM     14  C   LIG d   1      -2.662  95.522 119.741  0.00  0.00     0.210 C 
ATOM     15  C   LIG d   1      -3.818  96.527 119.704  0.00  0.00     0.109 C 
ATOM     16  O   LIG d   1      -1.643  95.766 120.403  0.00  0.00    -0.276 OA
ATOM     17  H   LIG d   1      -3.684  94.330 118.465  0.00  0.00     0.149 HD
ENDBRANCH   6  13
BRANCH   5  18
ATOM     18  N   LIG d   1      -0.030  94.700 117.828  0.00  0.00     0.381 N 
ATOM     19  H   LIG d   1       0.394  94.731 118.734  0.00  0.00    -0.090 HD
ATOM     20  H   LIG d   1      -0.606  95.517 117.721  0.00  0.00    -0.090 HD
ATOM     21  H   LIG d   1       0.674  94.687 117.124  0.00  0.00    -0.090 HD
ENDBRANCH   5  18
BRANCH   3  22
ATOM     22  C   LIG d   1      -0.080  89.982 117.009  0.00  0.00     0.382 C 
ATOM     23  O   LIG d   1      -0.724  88.911 116.895  0.00  0.00    -0.241 OA
ATOM     24  O   LIG d   1       1.083  90.048 116.568  0.00  0.00    -0.241 OA
ENDBRANCH   3  22
TORSDOF 7
ENDMDL
MODEL 8
REMARK VINA RESULT:      -4.1      2.668      6.002
REMARK  7 active torsions:
REMARK  status: ('A' for Active; 'I' for Inactive)
REMARK    1  A    between atoms: C_2  and  C_3 
REMARK    2  A    between atoms: C_3  and  O_6 
REMARK    3  A    between atoms: C_3  and  C_4 
REMARK    4  A    between atoms: C_7  and  O_6 
REMARK    5  A    between atoms: C_9  and  C_10 
REMARK    6  A    between atoms: N_15  and  C_14 
REMARK    7  A    between atoms: N_20  and  C_19 
REMARK       I    between atoms: C_22  and  N_20 
ROOT
ATOM      1  C   LIG d   1      -5.498  93.661 119.992  0.00  0.00     0.161 C 
ATOM      2  C   LIG d   1      -6.834  93.226 119.987  0.00  0.00     0.016 C 
ATOM      3  C   LIG d   1      -7.919  94.040 120.385  0.00  0.00     0.038 C 
ATOM      4  C   LIG d   1      -7.756  95.403 120.674  0.00  0.00     0.028 C 
ATOM      5  C   LIG d   1      -6.360  95.753 121.179  0.00  0.00    -0.047 C 
ATOM      6  C   LIG d   1      -5.313  95.179 120.198  0.00  0.00     0.091 C 
ENDROOT
BRANCH   1   7
ATOM      7  O   LIG d   1      -4.841  93.235 118.782  0.00  0.00    -0.368 OA
BRANCH   7   8
ATOM      8  C   LIG d   1      -4.433  91.846 118.733  0.00  0.00     0.119 C 
BRANCH   8   9
ATOM      9  C   LIG d   1      -2.947  91.786 119.137  0.00  0.00     0.028 C 
ATOM     10  C   LIG d   1      -2.122  92.923 118.511  0.00  0.00     0.006 C 
ENDBRANCH   8   9
BRANCH   8  11
ATOM     11  C   LIG d   1      -4.487  91.300 117.303  0.00  0.00     0.028 C 
ATOM     12  C   LIG d   1      -3.893  89.887 117.182  0.00  0.00     0.006 C 
ENDBRANCH   8  11
ENDBRANCH   7   8
ENDBRANCH   1   7
BRANCH   6  13
ATOM     13  N   LIG d   1      -3.919  95.403 120.662  0.00  0.00    -0.311 N 
ATOM     14  C   LIG d   1      -3.058  96.203 120.036  0.00  0.00     0.210 C 
ATOM     15  C   LIG d   1      -1.665  96.277 120.671  0.00  0.00     0.109 C 
ATOM     16  O   LIG d   1      -3.325  96.885 119.035  0.00  0.00    -0.276 OA
ATOM     17  H   LIG d   1      -3.628  94.913 121.486  0.00  0.00     0.149 HD
ENDBRANCH   6  13
BRANCH   5  18
ATOM     18  N   LIG d   1      -6.288  97.220 121.309  0.00  0.00     0.381 N 
ATOM     19  H   LIG d   1      -5.374  97.488 121.615  0.00  0.00    -0.090 HD
ATOM     20  H   LIG d   1      -6.953  97.518 122.001  0.00  0.00    -0.090 HD
ATOM     21  H   LIG d   1      -6.492  97.650 120.434  0.00  0.00    -0.090 HD
ENDBRANCH   5  18
BRANCH   3  22
ATOM     22  C   LIG d   1      -9.179  93.481 120.535  0.00  0.00     0.382 C 
ATOM     23  O   LIG d   1      -9.595  93.173 121.678  0.00  0.00    -0.241 OA
ATOM     24  O   LIG d   1      -9.886  93.240 119.539  0.00  0.00    -0.241 OA
ENDBRANCH   3  22
TORSDOF 7
ENDMDL
MODEL 9
REMARK VINA RESULT:      -4.0      2.050      4.982
REMARK  7 active torsions:
REMARK  status: ('A' for Active; 'I' for Inactive)
REMARK    1  A    between atoms: C_2  and  C_3 
REMARK    2  A    between atoms: C_3  and  O_6 
REMARK    3  A    between atoms: C_3  and  C_4 
REMARK    4  A    between atoms: C_7  and  O_6 
REMARK    5  A    between atoms: C_9  and  C_10 
REMARK    6  A    between atoms: N_15  and  C_14 
REMARK    7  A    between atoms: N_20  and  C_19 
REMARK       I    between atoms: C_22  and  N_20 
ROOT
ATOM      1  C   LIG d   1      -4.510  92.576 119.264  0.00  0.00     0.161 C 
ATOM      2  C   LIG d   1      -3.925  93.798 119.636  0.00  0.00     0.016 C 
ATOM      3  C   LIG d   1      -4.658  94.997 119.789  0.00  0.00     0.038 C 
ATOM      4  C   LIG d   1      -6.059  95.023 119.727  0.00  0.00     0.028 C 
ATOM      5  C   LIG d   1      -6.647  93.917 118.858  0.00  0.00    -0.047 C 
ATOM      6  C   LIG d   1      -6.052  92.561 119.301  0.00  0.00     0.091 C 
ENDROOT
BRANCH   1   7
ATOM      7  O   LIG d   1      -3.978  91.512 120.078  0.00  0.00    -0.368 OA
BRANCH   7   8
ATOM      8  C   LIG d   1      -2.892  90.749 119.499  0.00  0.00     0.119 C 
BRANCH   8   9
ATOM      9  C   LIG d   1      -3.516  89.596 118.689  0.00  0.00     0.028 C 
ATOM     10  C   LIG d   1      -3.055  89.591 117.222  0.00  0.00     0.006 C 
ENDBRANCH   8   9
BRANCH   8  11
ATOM     11  C   LIG d   1      -2.047  90.072 120.582  0.00  0.00     0.028 C 
ATOM     12  C   LIG d   1      -0.646  89.679 120.086  0.00  0.00     0.006 C 
ENDBRANCH   8  11
ENDBRANCH   7   8
ENDBRANCH   1   7
BRANCH   6  13
ATOM     13  N   LIG d   1      -6.511  91.435 118.446  0.00  0.00    -0.311 N 
ATOM     14  C   LIG d   1      -6.312  91.384 117.130  0.00  0.00     0.210 C 
ATOM     15  C   LIG d   1      -6.883  90.144 116.437  0.00  0.00     0.109 C 
ATOM     16  O   LIG d   1      -5.687  92.233 116.477  0.00  0.00    -0.276 OA
ATOM     17  H   LIG d   1      -6.999  90.687 118.900  0.00  0.00     0.149 HD
ENDBRANCH   6  13
BRANCH   5  18
ATOM     18  N   LIG d   1      -8.115  93.977 118.993  0.00  0.00     0.381 N 
ATOM     19  H   LIG d   1      -8.539  93.970 118.087  0.00  0.00    -0.090 HD
ATOM     20  H   LIG d   1      -8.364  94.835 119.451  0.00  0.00    -0.090 HD
ATOM     21  H   LIG d   1      -8.440  93.200 119.526  0.00  0.00    -0.090 HD
ENDBRANCH   5  18
BRANCH   3  22
ATOM     22  C   LIG d   1      -3.984  96.196 119.968  0.00  0.00     0.382 C 
ATOM     23  O   LIG d   1      -3.794  96.960 118.991  0.00  0.00    -0.241 OA
ATOM     24  O   LIG d   1      -3.526  96.503 121.085  0.00  0.00    -0.241 OA
ENDBRANCH   3  22
TORSDOF 7
ENDMDL
