MODEL 1
REMARK VINA RESULT:      -5.2      0.000      0.000
REMARK  7 active torsions:
REMARK  status: ('A' for Active; 'I' for Inactive)
REMARK    1  A    between atoms: C_2  and  C_3 
REMARK    2  A    between atoms: C_3  and  O_6 
REMARK    3  A    between atoms: C_3  and  C_4 
REMARK    4  A    between atoms: C_7  and  O_6 
REMARK    5  A    between atoms: C_9  and  C_10 
REMARK    6  A    between atoms: N_15  and  C_14 
REMARK    7  A    between atoms: N_20  and  C_19 
REMARK       I    between atoms: C_22  and  N_20 
ROOT
ATOM      1  C   LIG d   1      -4.800  92.640 119.146  0.00  0.00     0.161 C 
ATOM      2  C   LIG d   1      -6.148  92.963 118.917  0.00  0.00     0.016 C 
ATOM      3  C   LIG d   1      -6.764  94.133 119.418  0.00  0.00     0.038 C 
ATOM      4  C   LIG d   1      -6.030  95.141 120.060  0.00  0.00     0.028 C 
ATOM      5  C   LIG d   1      -4.773  94.626 120.754  0.00  0.00    -0.047 C 
ATOM      6  C   LIG d   1      -3.956  93.782 119.750  0.00  0.00     0.091 C 
ENDROOT
BRANCH   1   7
ATOM      7  O   LIG d   1      -4.198  92.162 117.927  0.00  0.00    -0.368 OA
BRANCH   7   8
ATOM      8  C   LIG d   1      -4.129  90.724 117.772  0.00  0.00     0.119 C 
BRANCH   8   9
ATOM      9  C   LIG d   1      -2.639  90.337 117.704  0.00  0.00     0.028 C 
ATOM     10  C   LIG d   1      -2.184  89.535 118.935  0.00  0.00     0.006 C 
ENDBRANCH   8   9
BRANCH   8  11
ATOM     11  C   LIG d   1      -4.725  90.278 116.433  0.00  0.00     0.028 C 
ATOM     12  C   LIG d   1      -6.262  90.295 116.431  0.00  0.00     0.006 C 
ENDBRANCH   8  11
ENDBRANCH   7   8
ENDBRANCH   1   7
BRANCH   6  13
ATOM     13  N   LIG d   1      -2.752  93.171 120.372  0.00  0.00    -0.311 N 
ATOM     14  C   LIG d   1      -1.547  93.184 119.804  0.00  0.00     0.210 C 
ATOM     15  C   LIG d   1      -0.447  92.479 120.605  0.00  0.00     0.109 C 
ATOM     16  O   LIG d   1      -1.278  93.740 118.729  0.00  0.00    -0.276 OA
ATOM     17  H   LIG d   1      -2.874  92.725 121.260  0.00  0.00     0.149 HD
ENDBRANCH   6  13
BRANCH   5  18
ATOM     18  N   LIG d   1      -4.034  95.797 121.262  0.00  0.00     0.381 N 
ATOM     19  H   LIG d   1      -4.311  96.617 120.761  0.00  0.00    -0.090 HD
ATOM     20  H   LIG d   1      -3.051  95.652 121.110  0.00  0.00    -0.090 HD
ATOM     21  H   LIG d   1      -4.212  95.917 122.235  0.00  0.00    -0.090 HD
ENDBRANCH   5  18
BRANCH   3  22
ATOM     22  C   LIG d   1      -8.139  94.284 119.314  0.00  0.00     0.382 C 
ATOM     23  O   LIG d   1      -8.780  93.619 118.465  0.00  0.00    -0.241 OA
ATOM     24  O   LIG d   1      -8.739  95.110 120.027  0.00  0.00    -0.241 OA
ENDBRANCH   3  22
TORSDOF 7
ENDMDL
MODEL 2
REMARK VINA RESULT:      -4.6      2.658      4.661
REMARK  7 active torsions:
REMARK  status: ('A' for Active; 'I' for Inactive)
REMARK    1  A    between atoms: C_2  and  C_3 
REMARK    2  A    between atoms: C_3  and  O_6 
REMARK    3  A    between atoms: C_3  and  C_4 
REMARK    4  A    between atoms: C_7  and  O_6 
REMARK    5  A    between atoms: C_9  and  C_10 
REMARK    6  A    between atoms: N_15  and  C_14 
REMARK    7  A    between atoms: N_20  and  C_19 
REMARK       I    between atoms: C_22  and  N_20 
ROOT
ATOM      1  C   LIG d   1      -3.817  92.640 118.927  0.00  0.00     0.161 C 
ATOM      2  C   LIG d   1      -4.989  92.177 118.306  0.00  0.00     0.016 C 
ATOM      3  C   LIG d   1      -5.028  91.038 117.469  0.00  0.00     0.038 C 
ATOM      4  C   LIG d   1      -3.919  90.192 117.316  0.00  0.00     0.028 C 
ATOM      5  C   LIG d   1      -2.584  90.900 117.519  0.00  0.00    -0.047 C 
ATOM      6  C   LIG d   1      -2.622  91.667 118.861  0.00  0.00     0.091 C 
ENDROOT
BRANCH   1   7
ATOM      7  O   LIG d   1      -4.097  92.998 120.294  0.00  0.00    -0.368 OA
BRANCH   7   8
ATOM      8  C   LIG d   1      -4.243  91.896 121.224  0.00  0.00     0.119 C 
BRANCH   8   9
ATOM      9  C   LIG d   1      -5.674  91.957 121.793  0.00  0.00     0.028 C 
ATOM     10  C   LIG d   1      -5.876  90.995 122.976  0.00  0.00     0.006 C 
ENDBRANCH   8   9
BRANCH   8  11
ATOM     11  C   LIG d   1      -3.318  92.062 122.434  0.00  0.00     0.028 C 
ATOM     12  C   LIG d   1      -3.017  93.534 122.756  0.00  0.00     0.006 C 
ENDBRANCH   8  11
ENDBRANCH   7   8
ENDBRANCH   1   7
BRANCH   6  13
ATOM     13  N   LIG d   1      -1.385  92.456 119.097  0.00  0.00    -0.311 N 
ATOM     14  C   LIG d   1      -0.321  91.977 119.740  0.00  0.00     0.210 C 
ATOM     15  C   LIG d   1       0.840  92.964 119.893  0.00  0.00     0.109 C 
ATOM     16  O   LIG d   1      -0.217  90.818 120.170  0.00  0.00    -0.276 OA
ATOM     17  H   LIG d   1      -1.372  93.397 118.754  0.00  0.00     0.149 HD
ENDBRANCH   6  13
BRANCH   5  18
ATOM     18  N   LIG d   1      -1.524  89.876 117.468  0.00  0.00     0.381 N 
ATOM     19  H   LIG d   1      -1.913  89.000 117.181  0.00  0.00    -0.090 HD
ATOM     20  H   LIG d   1      -1.136  89.763 118.388  0.00  0.00    -0.090 HD
ATOM     21  H   LIG d   1      -0.810  90.155 116.831  0.00  0.00    -0.090 HD
ENDBRANCH   5  18
BRANCH   3  22
ATOM     22  C   LIG d   1      -6.175  90.758 116.742  0.00  0.00     0.382 C 
ATOM     23  O   LIG d   1      -6.961  91.685 116.430  0.00  0.00    -0.241 OA
ATOM     24  O   LIG d   1      -6.456  89.585 116.433  0.00  0.00    -0.241 OA
ENDBRANCH   3  22
TORSDOF 7
ENDMDL
MODEL 3
REMARK VINA RESULT:      -4.5      2.424      4.761
REMARK  7 active torsions:
REMARK  status: ('A' for Active; 'I' for Inactive)
REMARK    1  A    between atoms: C_2  and  C_3 
REMARK    2  A    between atoms: C_3  and  O_6 
REMARK    3  A    between atoms: C_3  and  C_4 
REMARK    4  A    between atoms: C_7  and  O_6 
REMARK    5  A    between atoms: C_9  and  C_10 
REMARK    6  A    between atoms: N_15  and  C_14 
REMARK    7  A    between atoms: N_20  and  C_19 
REMARK       I    between atoms: C_22  and  N_20 
ROOT
ATOM      1  C   LIG d   1      -3.431  92.575 118.856  0.00  0.00     0.161 C 
ATOM      2  C   LIG d   1      -4.629  92.127 118.274  0.00  0.00     0.016 C 
ATOM      3  C   LIG d   1      -4.723  90.952 117.493  0.00  0.00     0.038 C 
ATOM      4  C   LIG d   1      -3.649  90.059 117.365  0.00  0.00     0.028 C 
ATOM      5  C   LIG d   1      -2.285  90.726 117.515  0.00  0.00    -0.047 C 
ATOM      6  C   LIG d   1      -2.273  91.555 118.819  0.00  0.00     0.091 C 
ENDROOT
BRANCH   1   7
ATOM      7  O   LIG d   1      -3.676  93.007 120.209  0.00  0.00    -0.368 OA
BRANCH   7   8
ATOM      8  C   LIG d   1      -5.039  92.875 120.683  0.00  0.00     0.119 C 
BRANCH   8   9
ATOM      9  C   LIG d   1      -5.448  94.229 121.296  0.00  0.00     0.028 C 
ATOM     10  C   LIG d   1      -5.766  95.286 120.225  0.00  0.00     0.006 C 
ENDBRANCH   8   9
BRANCH   8  11
ATOM     11  C   LIG d   1      -5.135  91.865 121.830  0.00  0.00     0.028 C 
ATOM     12  C   LIG d   1      -3.760  91.362 122.297  0.00  0.00     0.006 C 
ENDBRANCH   8  11
ENDBRANCH   7   8
ENDBRANCH   1   7
BRANCH   6  13
ATOM     13  N   LIG d   1      -1.005  92.308 119.000  0.00  0.00    -0.311 N 
ATOM     14  C   LIG d   1       0.035  91.839 119.688  0.00  0.00     0.210 C 
ATOM     15  C   LIG d   1       1.237  92.785 119.769  0.00  0.00     0.109 C 
ATOM     16  O   LIG d   1       0.087  90.716 120.212  0.00  0.00    -0.276 OA
ATOM     17  H   LIG d   1      -0.950  93.216 118.582  0.00  0.00     0.149 HD
ENDBRANCH   6  13
BRANCH   5  18
ATOM     18  N   LIG d   1      -1.264  89.661 117.497  0.00  0.00     0.381 N 
ATOM     19  H   LIG d   1      -1.666  88.813 117.151  0.00  0.00    -0.090 HD
ATOM     20  H   LIG d   1      -0.947  89.500 118.437  0.00  0.00    -0.090 HD
ATOM     21  H   LIG d   1      -0.498  89.934 116.922  0.00  0.00    -0.090 HD
ENDBRANCH   5  18
BRANCH   3  22
ATOM     22  C   LIG d   1      -5.891  90.682 116.797  0.00  0.00     0.382 C 
ATOM     23  O   LIG d   1      -6.711  91.603 116.566  0.00  0.00    -0.241 OA
ATOM     24  O   LIG d   1      -6.156  89.520 116.436  0.00  0.00    -0.241 OA
ENDBRANCH   3  22
TORSDOF 7
ENDMDL
MODEL 4
REMARK VINA RESULT:      -4.3      1.767      5.048
REMARK  7 active torsions:
REMARK  status: ('A' for Active; 'I' for Inactive)
REMARK    1  A    between atoms: C_2  and  C_3 
REMARK    2  A    between atoms: C_3  and  O_6 
REMARK    3  A    between atoms: C_3  and  C_4 
REMARK    4  A    between atoms: C_7  and  O_6 
REMARK    5  A    between atoms: C_9  and  C_10 
REMARK    6  A    between atoms: N_15  and  C_14 
REMARK    7  A    between atoms: N_20  and  C_19 
REMARK       I    between atoms: C_22  and  N_20 
ROOT
ATOM      1  C   LIG d   1      -2.715  93.104 118.252  0.00  0.00     0.161 C 
ATOM      2  C   LIG d   1      -1.342  92.820 118.341  0.00  0.00     0.016 C 
ATOM      3  C   LIG d   1      -0.633  92.783 119.563  0.00  0.00     0.038 C 
ATOM      4  C   LIG d   1      -1.285  92.879 120.802  0.00  0.00     0.028 C 
ATOM      5  C   LIG d   1      -2.588  93.668 120.741  0.00  0.00    -0.047 C 
ATOM      6  C   LIG d   1      -3.465  93.102 119.600  0.00  0.00     0.091 C 
ENDROOT
BRANCH   1   7
ATOM      7  O   LIG d   1      -3.343  92.193 117.328  0.00  0.00    -0.368 OA
BRANCH   7   8
ATOM      8  C   LIG d   1      -3.923  90.998 117.906  0.00  0.00     0.119 C 
BRANCH   8   9
ATOM      9  C   LIG d   1      -2.920  89.848 117.694  0.00  0.00     0.028 C 
ATOM     10  C   LIG d   1      -2.245  89.409 119.005  0.00  0.00     0.006 C 
ENDBRANCH   8   9
BRANCH   8  11
ATOM     11  C   LIG d   1      -5.190  90.575 117.156  0.00  0.00     0.028 C 
ATOM     12  C   LIG d   1      -6.075  91.767 116.760  0.00  0.00     0.006 C 
ENDBRANCH   8  11
ENDBRANCH   7   8
ENDBRANCH   1   7
BRANCH   6  13
ATOM     13  N   LIG d   1      -4.723  93.871 119.417  0.00  0.00    -0.311 N 
ATOM     14  C   LIG d   1      -5.884  93.520 119.967  0.00  0.00     0.210 C 
ATOM     15  C   LIG d   1      -7.062  94.441 119.634  0.00  0.00     0.109 C 
ATOM     16  O   LIG d   1      -6.043  92.551 120.725  0.00  0.00    -0.276 OA
ATOM     17  H   LIG d   1      -4.678  94.689 118.841  0.00  0.00     0.149 HD
ENDBRANCH   6  13
BRANCH   5  18
ATOM     18  N   LIG d   1      -3.230  93.573 122.065  0.00  0.00     0.381 N 
ATOM     19  H   LIG d   1      -2.881  94.294 122.664  0.00  0.00    -0.090 HD
ATOM     20  H   LIG d   1      -3.000  92.684 122.475  0.00  0.00    -0.090 HD
ATOM     21  H   LIG d   1      -4.218  93.658 121.972  0.00  0.00    -0.090 HD
ENDBRANCH   5  18
BRANCH   3  22
ATOM     22  C   LIG d   1       0.750  92.688 119.553  0.00  0.00     0.382 C 
ATOM     23  O   LIG d   1       1.302  91.563 119.626  0.00  0.00    -0.241 OA
ATOM     24  O   LIG d   1       1.454  93.715 119.516  0.00  0.00    -0.241 OA
ENDBRANCH   3  22
TORSDOF 7
ENDMDL
MODEL 5
REMARK VINA RESULT:      -4.2      2.305      3.997
REMARK  7 active torsions:
REMARK  status: ('A' for Active; 'I' for Inactive)
REMARK    1  A    between atoms: C_2  and  C_3 
REMARK    2  A    between atoms: C_3  and  O_6 
REMARK    3  A    between atoms: C_3  and  C_4 
REMARK    4  A    between atoms: C_7  and  O_6 
REMARK    5  A    between atoms: C_9  and  C_10 
REMARK    6  A    between atoms: N_15  and  C_14 
REMARK    7  A    between atoms: N_20  and  C_19 
REMARK       I    between atoms: C_22  and  N_20 
ROOT
ATOM      1  C   LIG d   1      -3.963  93.109 119.437  0.00  0.00     0.161 C 
ATOM      2  C   LIG d   1      -5.270  93.579 119.653  0.00  0.00     0.016 C 
ATOM      3  C   LIG d   1      -6.381  93.171 118.880  0.00  0.00     0.038 C 
ATOM      4  C   LIG d   1      -6.286  92.143 117.930  0.00  0.00     0.028 C 
ATOM      5  C   LIG d   1      -4.890  91.999 117.331  0.00  0.00    -0.047 C 
ATOM      6  C   LIG d   1      -3.859  91.905 118.478  0.00  0.00     0.091 C 
ENDROOT
BRANCH   1   7
ATOM      7  O   LIG d   1      -3.341  92.799 120.700  0.00  0.00    -0.368 OA
BRANCH   7   8
ATOM      8  C   LIG d   1      -3.694  91.524 121.289  0.00  0.00     0.119 C 
BRANCH   8   9
ATOM      9  C   LIG d   1      -4.228  91.801 122.708  0.00  0.00     0.028 C 
ATOM     10  C   LIG d   1      -3.999  93.257 123.147  0.00  0.00     0.006 C 
ENDBRANCH   8   9
BRANCH   8  11
ATOM     11  C   LIG d   1      -2.459  90.639 121.486  0.00  0.00     0.028 C 
ATOM     12  C   LIG d   1      -1.142  91.426 121.393  0.00  0.00     0.006 C 
ENDBRANCH   8  11
ENDBRANCH   7   8
ENDBRANCH   1   7
BRANCH   6  13
ATOM     13  N   LIG d   1      -2.460  91.846 117.980  0.00  0.00    -0.311 N 
ATOM     14  C   LIG d   1      -1.776  90.711 117.847  0.00  0.00     0.210 C 
ATOM     15  C   LIG d   1      -0.342  90.877 117.335  0.00  0.00     0.109 C 
ATOM     16  O   LIG d   1      -2.231  89.580 118.074  0.00  0.00    -0.276 OA
ATOM     17  H   LIG d   1      -2.024  92.716 117.743  0.00  0.00     0.149 HD
ENDBRANCH   6  13
BRANCH   5  18
ATOM     18  N   LIG d   1      -4.899  90.807 116.462  0.00  0.00     0.381 N 
ATOM     19  H   LIG d   1      -5.566  90.929 115.726  0.00  0.00    -0.090 HD
ATOM     20  H   LIG d   1      -5.173  90.009 117.007  0.00  0.00    -0.090 HD
ATOM     21  H   LIG d   1      -3.992  90.659 116.076  0.00  0.00    -0.090 HD
ENDBRANCH   5  18
BRANCH   3  22
ATOM     22  C   LIG d   1      -7.596  93.821 119.027  0.00  0.00     0.382 C 
ATOM     23  O   LIG d   1      -7.703  94.777 119.833  0.00  0.00    -0.241 OA
ATOM     24  O   LIG d   1      -8.599  93.436 118.396  0.00  0.00    -0.241 OA
ENDBRANCH   3  22
TORSDOF 7
ENDMDL
MODEL 6
REMARK VINA RESULT:      -3.9      3.795      6.397
REMARK  7 active torsions:
REMARK  status: ('A' for Active; 'I' for Inactive)
REMARK    1  A    between atoms: C_2  and  C_3 
REMARK    2  A    between atoms: C_3  and  O_6 
REMARK    3  A    between atoms: C_3  and  C_4 
REMARK    4  A    between atoms: C_7  and  O_6 
REMARK    5  A    between atoms: C_9  and  C_10 
REMARK    6  A    between atoms: N_15  and  C_14 
REMARK    7  A    between atoms: N_20  and  C_19 
REMARK       I    between atoms: C_22  and  N_20 
ROOT
ATOM      1  C   LIG d   1      -0.576  92.475 118.396  0.00  0.00     0.161 C 
ATOM      2  C   LIG d   1       0.672  92.752 117.813  0.00  0.00     0.016 C 
ATOM      3  C   LIG d   1       1.844  93.000 118.564  0.00  0.00     0.038 C 
ATOM      4  C   LIG d   1       1.880  92.837 119.957  0.00  0.00     0.028 C 
ATOM      5  C   LIG d   1       0.528  93.052 120.627  0.00  0.00    -0.047 C 
ATOM      6  C   LIG d   1      -0.532  92.183 119.911  0.00  0.00     0.091 C 
ENDROOT
BRANCH   1   7
ATOM      7  O   LIG d   1      -1.212  91.388 117.695  0.00  0.00    -0.368 OA
BRANCH   7   8
ATOM      8  C   LIG d   1      -1.173  90.097 118.351  0.00  0.00     0.119 C 
BRANCH   8   9
ATOM      9  C   LIG d   1      -0.157  89.222 117.590  0.00  0.00     0.028 C 
ATOM     10  C   LIG d   1       1.139  89.000 118.387  0.00  0.00     0.006 C 
ENDBRANCH   8   9
BRANCH   8  11
ATOM     11  C   LIG d   1      -2.513  89.366 118.224  0.00  0.00     0.028 C 
ATOM     12  C   LIG d   1      -3.690  90.320 117.967  0.00  0.00     0.006 C 
ENDBRANCH   8  11
ENDBRANCH   7   8
ENDBRANCH   1   7
BRANCH   6  13
ATOM     13  N   LIG d   1      -1.900  92.397 120.450  0.00  0.00    -0.311 N 
ATOM     14  C   LIG d   1      -2.450  91.621 121.382  0.00  0.00     0.210 C 
ATOM     15  C   LIG d   1      -3.878  92.005 121.783  0.00  0.00     0.109 C 
ATOM     16  O   LIG d   1      -1.880  90.670 121.937  0.00  0.00    -0.276 OA
ATOM     17  H   LIG d   1      -2.422  93.166 120.078  0.00  0.00     0.149 HD
ENDBRANCH   6  13
BRANCH   5  18
ATOM     18  N   LIG d   1       0.680  92.716 122.056  0.00  0.00     0.381 N 
ATOM     19  H   LIG d   1       1.651  92.695 122.297  0.00  0.00    -0.090 HD
ATOM     20  H   LIG d   1       0.295  91.802 122.218  0.00  0.00    -0.090 HD
ATOM     21  H   LIG d   1       0.205  93.389 122.617  0.00  0.00    -0.090 HD
ENDBRANCH   5  18
BRANCH   3  22
ATOM     22  C   LIG d   1       2.987  93.454 117.924  0.00  0.00     0.382 C 
ATOM     23  O   LIG d   1       3.116  93.298 116.686  0.00  0.00    -0.241 OA
ATOM     24  O   LIG d   1       3.910  93.978 118.576  0.00  0.00    -0.241 OA
ENDBRANCH   3  22
TORSDOF 7
ENDMDL
MODEL 7
REMARK VINA RESULT:      -3.8      2.161      4.820
REMARK  7 active torsions:
REMARK  status: ('A' for Active; 'I' for Inactive)
REMARK    1  A    between atoms: C_2  and  C_3 
REMARK    2  A    between atoms: C_3  and  O_6 
REMARK    3  A    between atoms: C_3  and  C_4 
REMARK    4  A    between atoms: C_7  and  O_6 
REMARK    5  A    between atoms: C_9  and  C_10 
REMARK    6  A    between atoms: N_15  and  C_14 
REMARK    7  A    between atoms: N_20  and  C_19 
REMARK       I    between atoms: C_22  and  N_20 
ROOT
ATOM      1  C   LIG d   1      -4.533  93.185 119.481  0.00  0.00     0.161 C 
ATOM      2  C   LIG d   1      -5.413  92.513 118.616  0.00  0.00     0.016 C 
ATOM      3  C   LIG d   1      -5.048  91.367 117.873  0.00  0.00     0.038 C 
ATOM      4  C   LIG d   1      -3.817  90.722 118.060  0.00  0.00     0.028 C 
ATOM      5  C   LIG d   1      -2.713  91.654 118.547  0.00  0.00    -0.047 C 
ATOM      6  C   LIG d   1      -3.221  92.431 119.783  0.00  0.00     0.091 C 
ENDROOT
BRANCH   1   7
ATOM      7  O   LIG d   1      -5.213  93.518 120.708  0.00  0.00    -0.368 OA
BRANCH   7   8
ATOM      8  C   LIG d   1      -5.966  94.756 120.704  0.00  0.00     0.119 C 
BRANCH   8   9
ATOM      9  C   LIG d   1      -4.993  95.887 120.318  0.00  0.00     0.028 C 
ATOM     10  C   LIG d   1      -4.181  96.398 121.520  0.00  0.00     0.006 C 
ENDBRANCH   8   9
BRANCH   8  11
ATOM     11  C   LIG d   1      -6.464  95.110 122.108  0.00  0.00     0.028 C 
ATOM     12  C   LIG d   1      -6.639  93.876 123.007  0.00  0.00     0.006 C 
ENDBRANCH   8  11
ENDBRANCH   7   8
ENDBRANCH   1   7
BRANCH   6  13
ATOM     13  N   LIG d   1      -2.233  93.428 120.272  0.00  0.00    -0.311 N 
ATOM     14  C   LIG d   1      -1.832  93.501 121.540  0.00  0.00     0.210 C 
ATOM     15  C   LIG d   1      -0.822  94.614 121.835  0.00  0.00     0.109 C 
ATOM     16  O   LIG d   1      -2.192  92.730 122.442  0.00  0.00    -0.276 OA
ATOM     17  H   LIG d   1      -1.865  94.073 119.601  0.00  0.00     0.149 HD
ENDBRANCH   6  13
BRANCH   5  18
ATOM     18  N   LIG d   1      -1.525  90.828 118.832  0.00  0.00     0.381 N 
ATOM     19  H   LIG d   1      -1.808  89.949 119.217  0.00  0.00    -0.090 HD
ATOM     20  H   LIG d   1      -0.955  91.301 119.511  0.00  0.00    -0.090 HD
ATOM     21  H   LIG d   1      -1.004  90.680 117.996  0.00  0.00    -0.090 HD
ENDBRANCH   5  18
BRANCH   3  22
ATOM     22  C   LIG d   1      -5.907  90.877 116.900  0.00  0.00     0.382 C 
ATOM     23  O   LIG d   1      -6.882  91.569 116.519  0.00  0.00    -0.241 OA
ATOM     24  O   LIG d   1      -5.744  89.735 116.430  0.00  0.00    -0.241 OA
ENDBRANCH   3  22
TORSDOF 7
ENDMDL
MODEL 8
REMARK VINA RESULT:      -3.7      2.451      4.340
REMARK  7 active torsions:
REMARK  status: ('A' for Active; 'I' for Inactive)
REMARK    1  A    between atoms: C_2  and  C_3 
REMARK    2  A    between atoms: C_3  and  O_6 
REMARK    3  A    between atoms: C_3  and  C_4 
REMARK    4  A    between atoms: C_7  and  O_6 
REMARK    5  A    between atoms: C_9  and  C_10 
REMARK    6  A    between atoms: N_15  and  C_14 
REMARK    7  A    between atoms: N_20  and  C_19 
REMARK       I    between atoms: C_22  and  N_20 
ROOT
ATOM      1  C   LIG d   1      -2.651  92.022 119.191  0.00  0.00     0.161 C 
ATOM      2  C   LIG d   1      -3.167  91.141 118.226  0.00  0.00     0.016 C 
ATOM      3  C   LIG d   1      -4.476  91.243 117.701  0.00  0.00     0.038 C 
ATOM      4  C   LIG d   1      -5.311  92.330 117.997  0.00  0.00     0.028 C 
ATOM      5  C   LIG d   1      -5.020  92.967 119.351  0.00  0.00    -0.047 C 
ATOM      6  C   LIG d   1      -3.509  93.279 119.444  0.00  0.00     0.091 C 
ENDROOT
BRANCH   1   7
ATOM      7  O   LIG d   1      -1.304  92.396 118.841  0.00  0.00    -0.368 OA
BRANCH   7   8
ATOM      8  C   LIG d   1      -0.254  91.864 119.686  0.00  0.00     0.119 C 
BRANCH   8   9
ATOM      9  C   LIG d   1       0.915  92.867 119.660  0.00  0.00     0.028 C 
ATOM     10  C   LIG d   1       1.867  92.690 120.855  0.00  0.00     0.006 C 
ENDBRANCH   8   9
BRANCH   8  11
ATOM     11  C   LIG d   1       0.316  90.562 119.114  0.00  0.00     0.028 C 
ATOM     12  C   LIG d   1       0.738  90.693 117.643  0.00  0.00     0.006 C 
ENDBRANCH   8  11
ENDBRANCH   7   8
ENDBRANCH   1   7
BRANCH   6  13
ATOM     13  N   LIG d   1      -3.123  93.827 120.771  0.00  0.00    -0.311 N 
ATOM     14  C   LIG d   1      -2.605  95.042 120.939  0.00  0.00     0.210 C 
ATOM     15  C   LIG d   1      -2.260  95.403 122.388  0.00  0.00     0.109 C 
ATOM     16  O   LIG d   1      -2.427  95.868 120.031  0.00  0.00    -0.276 OA
ATOM     17  H   LIG d   1      -3.263  93.236 121.566  0.00  0.00     0.149 HD
ENDBRANCH   6  13
BRANCH   5  18
ATOM     18  N   LIG d   1      -5.867  94.168 119.471  0.00  0.00     0.381 N 
ATOM     19  H   LIG d   1      -5.296  94.968 119.656  0.00  0.00    -0.090 HD
ATOM     20  H   LIG d   1      -6.498  94.046 120.243  0.00  0.00    -0.090 HD
ATOM     21  H   LIG d   1      -6.383  94.306 118.630  0.00  0.00    -0.090 HD
ENDBRANCH   5  18
BRANCH   3  22
ATOM     22  C   LIG d   1      -4.975  90.227 116.900  0.00  0.00     0.382 C 
ATOM     23  O   LIG d   1      -6.208  90.151 116.680  0.00  0.00    -0.241 OA
ATOM     24  O   LIG d   1      -4.214  89.360 116.430  0.00  0.00    -0.241 OA
ENDBRANCH   3  22
TORSDOF 7
ENDMDL
MODEL 9
REMARK VINA RESULT:      -3.7      2.304      4.363
REMARK  7 active torsions:
REMARK  status: ('A' for Active; 'I' for Inactive)
REMARK    1  A    between atoms: C_2  and  C_3 
REMARK    2  A    between atoms: C_3  and  O_6 
REMARK    3  A    between atoms: C_3  and  C_4 
REMARK    4  A    between atoms: C_7  and  O_6 
REMARK    5  A    between atoms: C_9  and  C_10 
REMARK    6  A    between atoms: N_15  and  C_14 
REMARK    7  A    between atoms: N_20  and  C_19 
REMARK       I    between atoms: C_22  and  N_20 
ROOT
ATOM      1  C   LIG d   1      -3.081  92.738 119.502  0.00  0.00     0.161 C 
ATOM      2  C   LIG d   1      -4.378  93.232 119.720  0.00  0.00     0.016 C 
ATOM      3  C   LIG d   1      -5.490  92.882 118.920  0.00  0.00     0.038 C 
ATOM      4  C   LIG d   1      -5.408  91.889 117.932  0.00  0.00     0.028 C 
ATOM      5  C   LIG d   1      -4.010  91.733 117.344  0.00  0.00    -0.047 C 
ATOM      6  C   LIG d   1      -2.995  91.569 118.499  0.00  0.00     0.091 C 
ENDROOT
BRANCH   1   7
ATOM      7  O   LIG d   1      -2.482  92.365 120.758  0.00  0.00    -0.368 OA
BRANCH   7   8
ATOM      8  C   LIG d   1      -1.409  93.216 121.230  0.00  0.00     0.119 C 
BRANCH   8   9
ATOM      9  C   LIG d   1      -0.099  92.411 121.124  0.00  0.00     0.028 C 
ATOM     10  C   LIG d   1       0.896  93.037 120.132  0.00  0.00     0.006 C 
ENDBRANCH   8   9
BRANCH   8  11
ATOM     11  C   LIG d   1      -1.566  93.539 122.719  0.00  0.00     0.028 C 
ATOM     12  C   LIG d   1      -3.037  93.635 123.155  0.00  0.00     0.006 C 
ENDBRANCH   8  11
ENDBRANCH   7   8
ENDBRANCH   1   7
BRANCH   6  13
ATOM     13  N   LIG d   1      -1.592  91.495 118.014  0.00  0.00    -0.311 N 
ATOM     14  C   LIG d   1      -0.950  90.347 117.802  0.00  0.00     0.210 C 
ATOM     15  C   LIG d   1       0.497  90.496 117.321  0.00  0.00     0.109 C 
ATOM     16  O   LIG d   1      -1.452  89.221 117.935  0.00  0.00    -0.276 OA
ATOM     17  H   LIG d   1      -1.120  92.362 117.850  0.00  0.00     0.149 HD
ENDBRANCH   6  13
BRANCH   5  18
ATOM     18  N   LIG d   1      -4.038  90.575 116.430  0.00  0.00     0.381 N 
ATOM     19  H   LIG d   1      -4.789  90.677 115.777  0.00  0.00    -0.090 HD
ATOM     20  H   LIG d   1      -4.198  89.741 116.967  0.00  0.00    -0.090 HD
ATOM     21  H   LIG d   1      -3.172  90.505 115.943  0.00  0.00    -0.090 HD
ENDBRANCH   5  18
BRANCH   3  22
ATOM     22  C   LIG d   1      -6.690  93.557 119.078  0.00  0.00     0.382 C 
ATOM     23  O   LIG d   1      -7.706  93.187 118.441  0.00  0.00    -0.241 OA
ATOM     24  O   LIG d   1      -6.760  94.558 119.815  0.00  0.00    -0.241 OA
ENDBRANCH   3  22
TORSDOF 7
ENDMDL
