MODEL 1
REMARK VINA RESULT:      -4.5      0.000      0.000
REMARK  7 active torsions:
REMARK  status: ('A' for Active; 'I' for Inactive)
REMARK    1  A    between atoms: C_2  and  C_3 
REMARK    2  A    between atoms: C_3  and  O_6 
REMARK    3  A    between atoms: C_3  and  C_4 
REMARK    4  A    between atoms: C_7  and  O_6 
REMARK    5  A    between atoms: C_9  and  C_10 
REMARK    6  A    between atoms: N_15  and  C_14 
REMARK    7  A    between atoms: N_20  and  C_19 
REMARK       I    between atoms: C_22  and  N_20 
ROOT
ATOM      1  C   LIG d   1      -3.139  93.101 118.936  0.00  0.00     0.161 C 
ATOM      2  C   LIG d   1      -4.364  93.655 119.344  0.00  0.00     0.016 C 
ATOM      3  C   LIG d   1      -4.483  94.941 119.920  0.00  0.00     0.038 C 
ATOM      4  C   LIG d   1      -3.396  95.826 119.989  0.00  0.00     0.028 C 
ATOM      5  C   LIG d   1      -2.045  95.122 120.053  0.00  0.00    -0.047 C 
ATOM      6  C   LIG d   1      -1.959  94.094 118.902  0.00  0.00     0.091 C 
ENDROOT
BRANCH   1   7
ATOM      7  O   LIG d   1      -3.295  92.462 117.654  0.00  0.00    -0.368 OA
BRANCH   7   8
ATOM      8  C   LIG d   1      -3.719  91.077 117.678  0.00  0.00     0.119 C 
BRANCH   8   9
ATOM      9  C   LIG d   1      -2.481  90.209 117.382  0.00  0.00     0.028 C 
ATOM     10  C   LIG d   1      -1.791  89.714 118.664  0.00  0.00     0.006 C 
ENDBRANCH   8   9
BRANCH   8  11
ATOM     11  C   LIG d   1      -4.706  90.776 116.546  0.00  0.00     0.028 C 
ATOM     12  C   LIG d   1      -5.931  91.704 116.562  0.00  0.00     0.006 C 
ENDBRANCH   8  11
ENDBRANCH   7   8
ENDBRANCH   1   7
BRANCH   6  13
ATOM     13  N   LIG d   1      -0.703  93.301 118.942  0.00  0.00    -0.311 N 
ATOM     14  C   LIG d   1       0.059  93.080 117.872  0.00  0.00     0.210 C 
ATOM     15  C   LIG d   1       1.301  92.220 118.128  0.00  0.00     0.109 C 
ATOM     16  O   LIG d   1      -0.159  93.540 116.741  0.00  0.00    -0.276 OA
ATOM     17  H   LIG d   1      -0.434  92.916 119.826  0.00  0.00     0.149 HD
ENDBRANCH   6  13
BRANCH   5  18
ATOM     18  N   LIG d   1      -0.998  96.158 119.982  0.00  0.00     0.381 N 
ATOM     19  H   LIG d   1      -1.036  96.735 120.799  0.00  0.00    -0.090 HD
ATOM     20  H   LIG d   1      -1.168  96.738 119.179  0.00  0.00    -0.090 HD
ATOM     21  H   LIG d   1      -0.100  95.732 119.909  0.00  0.00    -0.090 HD
ENDBRANCH   5  18
BRANCH   3  22
ATOM     22  C   LIG d   1      -5.691  95.339 120.471  0.00  0.00     0.382 C 
ATOM     23  O   LIG d   1      -6.542  95.926 119.760  0.00  0.00    -0.241 OA
ATOM     24  O   LIG d   1      -5.924  95.157 121.681  0.00  0.00    -0.241 OA
ENDBRANCH   3  22
TORSDOF 7
ENDMDL
MODEL 2
REMARK VINA RESULT:      -4.5      2.375      5.846
REMARK  7 active torsions:
REMARK  status: ('A' for Active; 'I' for Inactive)
REMARK    1  A    between atoms: C_2  and  C_3 
REMARK    2  A    between atoms: C_3  and  O_6 
REMARK    3  A    between atoms: C_3  and  C_4 
REMARK    4  A    between atoms: C_7  and  O_6 
REMARK    5  A    between atoms: C_9  and  C_10 
REMARK    6  A    between atoms: N_15  and  C_14 
REMARK    7  A    between atoms: N_20  and  C_19 
REMARK       I    between atoms: C_22  and  N_20 
ROOT
ATOM      1  C   LIG d   1      -3.461  93.069 119.855  0.00  0.00     0.161 C 
ATOM      2  C   LIG d   1      -2.742  92.079 119.163  0.00  0.00     0.016 C 
ATOM      3  C   LIG d   1      -3.241  91.410 118.022  0.00  0.00     0.038 C 
ATOM      4  C   LIG d   1      -4.440  91.794 117.402  0.00  0.00     0.028 C 
ATOM      5  C   LIG d   1      -5.435  92.444 118.357  0.00  0.00    -0.047 C 
ATOM      6  C   LIG d   1      -4.722  93.579 119.128  0.00  0.00     0.091 C 
ENDROOT
BRANCH   1   7
ATOM      7  O   LIG d   1      -2.588  94.170 120.178  0.00  0.00    -0.368 OA
BRANCH   7   8
ATOM      8  C   LIG d   1      -2.288  95.084 119.095  0.00  0.00     0.119 C 
BRANCH   8   9
ATOM      9  C   LIG d   1      -0.836  94.819 118.654  0.00  0.00     0.028 C 
ATOM     10  C   LIG d   1      -0.754  94.153 117.271  0.00  0.00     0.006 C 
ENDBRANCH   8   9
BRANCH   8  11
ATOM     11  C   LIG d   1      -2.308  96.539 119.573  0.00  0.00     0.028 C 
ATOM     12  C   LIG d   1      -3.453  97.355 118.951  0.00  0.00     0.006 C 
ENDBRANCH   8  11
ENDBRANCH   7   8
ENDBRANCH   1   7
BRANCH   6  13
ATOM     13  N   LIG d   1      -5.602  94.213 120.145  0.00  0.00    -0.311 N 
ATOM     14  C   LIG d   1      -6.405  95.242 119.880  0.00  0.00     0.210 C 
ATOM     15  C   LIG d   1      -7.212  95.756 121.076  0.00  0.00     0.109 C 
ATOM     16  O   LIG d   1      -6.550  95.757 118.761  0.00  0.00    -0.276 OA
ATOM     17  H   LIG d   1      -5.570  93.837 121.072  0.00  0.00     0.149 HD
ENDBRANCH   6  13
BRANCH   5  18
ATOM     18  N   LIG d   1      -6.578  92.919 117.555  0.00  0.00     0.381 N 
ATOM     19  H   LIG d   1      -7.239  92.178 117.436  0.00  0.00    -0.090 HD
ATOM     20  H   LIG d   1      -6.246  93.195 116.647  0.00  0.00    -0.090 HD
ATOM     21  H   LIG d   1      -7.013  93.693 118.007  0.00  0.00    -0.090 HD
ENDBRANCH   5  18
BRANCH   3  22
ATOM     22  C   LIG d   1      -2.558  90.316 117.513  0.00  0.00     0.382 C 
ATOM     23  O   LIG d   1      -3.189  89.293 117.154  0.00  0.00    -0.241 OA
ATOM     24  O   LIG d   1      -1.314  90.323 117.449  0.00  0.00    -0.241 OA
ENDBRANCH   3  22
TORSDOF 7
ENDMDL
MODEL 3
REMARK VINA RESULT:      -4.4      2.616      4.083
REMARK  7 active torsions:
REMARK  status: ('A' for Active; 'I' for Inactive)
REMARK    1  A    between atoms: C_2  and  C_3 
REMARK    2  A    between atoms: C_3  and  O_6 
REMARK    3  A    between atoms: C_3  and  C_4 
REMARK    4  A    between atoms: C_7  and  O_6 
REMARK    5  A    between atoms: C_9  and  C_10 
REMARK    6  A    between atoms: N_15  and  C_14 
REMARK    7  A    between atoms: N_20  and  C_19 
REMARK       I    between atoms: C_22  and  N_20 
ROOT
ATOM      1  C   LIG d   1      -2.582  92.853 119.284  0.00  0.00     0.161 C 
ATOM      2  C   LIG d   1      -3.704  93.594 119.691  0.00  0.00     0.016 C 
ATOM      3  C   LIG d   1      -4.992  93.425 119.134  0.00  0.00     0.038 C 
ATOM      4  C   LIG d   1      -5.280  92.390 118.232  0.00  0.00     0.028 C 
ATOM      5  C   LIG d   1      -4.071  91.943 117.417  0.00  0.00    -0.047 C 
ATOM      6  C   LIG d   1      -2.900  91.643 118.381  0.00  0.00     0.091 C 
ENDROOT
BRANCH   1   7
ATOM      7  O   LIG d   1      -1.830  92.431 120.439  0.00  0.00    -0.368 OA
BRANCH   7   8
ATOM      8  C   LIG d   1      -2.339  91.272 121.143  0.00  0.00     0.119 C 
BRANCH   8   9
ATOM      9  C   LIG d   1      -2.666  91.712 122.584  0.00  0.00     0.028 C 
ATOM     10  C   LIG d   1      -4.178  91.721 122.866  0.00  0.00     0.006 C 
ENDBRANCH   8   9
BRANCH   8  11
ATOM     11  C   LIG d   1      -1.265  90.189 121.284  0.00  0.00     0.028 C 
ATOM     12  C   LIG d   1       0.124  90.665 120.829  0.00  0.00     0.006 C 
ENDBRANCH   8  11
ENDBRANCH   7   8
ENDBRANCH   1   7
BRANCH   6  13
ATOM     13  N   LIG d   1      -1.652  91.280 117.660  0.00  0.00    -0.311 N 
ATOM     14  C   LIG d   1      -1.270  90.023 117.442  0.00  0.00     0.210 C 
ATOM     15  C   LIG d   1       0.060  89.870 116.697  0.00  0.00     0.109 C 
ATOM     16  O   LIG d   1      -1.923  89.019 117.766  0.00  0.00    -0.276 OA
ATOM     17  H   LIG d   1      -1.077  92.033 117.334  0.00  0.00     0.149 HD
ENDBRANCH   6  13
BRANCH   5  18
ATOM     18  N   LIG d   1      -4.479  90.771 116.620  0.00  0.00     0.381 N 
ATOM     19  H   LIG d   1      -5.274  91.003 116.059  0.00  0.00    -0.090 HD
ATOM     20  H   LIG d   1      -4.740  90.028 117.245  0.00  0.00    -0.090 HD
ATOM     21  H   LIG d   1      -3.726  90.476 116.038  0.00  0.00    -0.090 HD
ENDBRANCH   5  18
BRANCH   3  22
ATOM     22  C   LIG d   1      -6.001  94.323 119.449  0.00  0.00     0.382 C 
ATOM     23  O   LIG d   1      -6.996  94.438 118.695  0.00  0.00    -0.241 OA
ATOM     24  O   LIG d   1      -5.906  95.051 120.455  0.00  0.00    -0.241 OA
ENDBRANCH   3  22
TORSDOF 7
ENDMDL
MODEL 4
REMARK VINA RESULT:      -4.3      2.831      5.966
REMARK  7 active torsions:
REMARK  status: ('A' for Active; 'I' for Inactive)
REMARK    1  A    between atoms: C_2  and  C_3 
REMARK    2  A    between atoms: C_3  and  O_6 
REMARK    3  A    between atoms: C_3  and  C_4 
REMARK    4  A    between atoms: C_7  and  O_6 
REMARK    5  A    between atoms: C_9  and  C_10 
REMARK    6  A    between atoms: N_15  and  C_14 
REMARK    7  A    between atoms: N_20  and  C_19 
REMARK       I    between atoms: C_22  and  N_20 
ROOT
ATOM      1  C   LIG d   1       0.028  91.994 117.562  0.00  0.00     0.161 C 
ATOM      2  C   LIG d   1       1.391  91.892 117.238  0.00  0.00     0.016 C 
ATOM      3  C   LIG d   1       2.431  92.078 118.178  0.00  0.00     0.038 C 
ATOM      4  C   LIG d   1       2.173  92.230 119.548  0.00  0.00     0.028 C 
ATOM      5  C   LIG d   1       0.807  92.842 119.843  0.00  0.00    -0.047 C 
ATOM      6  C   LIG d   1      -0.274  92.049 119.074  0.00  0.00     0.091 C 
ENDROOT
BRANCH   1   7
ATOM      7  O   LIG d   1      -0.703  90.916 116.944  0.00  0.00    -0.368 OA
BRANCH   7   8
ATOM      8  C   LIG d   1      -0.734  89.666 117.675  0.00  0.00     0.119 C 
BRANCH   8   9
ATOM      9  C   LIG d   1       0.068  88.632 116.859  0.00  0.00     0.028 C 
ATOM     10  C   LIG d   1       1.410  88.277 117.520  0.00  0.00     0.006 C 
ENDBRANCH   8   9
BRANCH   8  11
ATOM     11  C   LIG d   1      -2.156  89.103 117.756  0.00  0.00     0.028 C 
ATOM     12  C   LIG d   1      -3.204  90.039 117.132  0.00  0.00     0.006 C 
ENDBRANCH   8  11
ENDBRANCH   7   8
ENDBRANCH   1   7
BRANCH   6  13
ATOM     13  N   LIG d   1      -1.631  92.633 119.240  0.00  0.00    -0.311 N 
ATOM     14  C   LIG d   1      -2.517  92.187 120.128  0.00  0.00     0.210 C 
ATOM     15  C   LIG d   1      -3.864  92.917 120.121  0.00  0.00     0.109 C 
ATOM     16  O   LIG d   1      -2.305  91.276 120.943  0.00  0.00    -0.276 OA
ATOM     17  H   LIG d   1      -1.875  93.396 118.640  0.00  0.00     0.149 HD
ENDBRANCH   6  13
BRANCH   5  18
ATOM     18  N   LIG d   1       0.613  92.815 121.305  0.00  0.00     0.381 N 
ATOM     19  H   LIG d   1       0.064  93.602 121.588  0.00  0.00    -0.090 HD
ATOM     20  H   LIG d   1       1.510  92.879 121.753  0.00  0.00    -0.090 HD
ATOM     21  H   LIG d   1       0.159  91.970 121.574  0.00  0.00    -0.090 HD
ENDBRANCH   5  18
BRANCH   3  22
ATOM     22  C   LIG d   1       3.745  92.153 117.743  0.00  0.00     0.382 C 
ATOM     23  O   LIG d   1       4.684  92.111 118.574  0.00  0.00    -0.241 OA
ATOM     24  O   LIG d   1       4.003  92.307 116.534  0.00  0.00    -0.241 OA
ENDBRANCH   3  22
TORSDOF 7
ENDMDL
MODEL 5
REMARK VINA RESULT:      -4.2      2.252      3.476
REMARK  7 active torsions:
REMARK  status: ('A' for Active; 'I' for Inactive)
REMARK    1  A    between atoms: C_2  and  C_3 
REMARK    2  A    between atoms: C_3  and  O_6 
REMARK    3  A    between atoms: C_3  and  C_4 
REMARK    4  A    between atoms: C_7  and  O_6 
REMARK    5  A    between atoms: C_9  and  C_10 
REMARK    6  A    between atoms: N_15  and  C_14 
REMARK    7  A    between atoms: N_20  and  C_19 
REMARK       I    between atoms: C_22  and  N_20 
ROOT
ATOM      1  C   LIG d   1      -4.928  93.615 120.204  0.00  0.00     0.161 C 
ATOM      2  C   LIG d   1      -6.189  93.697 119.590  0.00  0.00     0.016 C 
ATOM      3  C   LIG d   1      -6.775  94.915 119.176  0.00  0.00     0.038 C 
ATOM      4  C   LIG d   1      -6.070  96.127 119.212  0.00  0.00     0.028 C 
ATOM      5  C   LIG d   1      -4.990  96.168 120.288  0.00  0.00    -0.047 C 
ATOM      6  C   LIG d   1      -4.097  94.914 120.151  0.00  0.00     0.091 C 
ENDROOT
BRANCH   1   7
ATOM      7  O   LIG d   1      -4.181  92.518 119.642  0.00  0.00    -0.368 OA
BRANCH   7   8
ATOM      8  C   LIG d   1      -3.627  92.736 118.320  0.00  0.00     0.119 C 
BRANCH   8   9
ATOM      9  C   LIG d   1      -4.069  91.556 117.433  0.00  0.00     0.028 C 
ATOM     10  C   LIG d   1      -5.451  91.785 116.798  0.00  0.00     0.006 C 
ENDBRANCH   8   9
BRANCH   8  11
ATOM     11  C   LIG d   1      -2.097  92.677 118.341  0.00  0.00     0.028 C 
ATOM     12  C   LIG d   1      -1.447  93.762 117.468  0.00  0.00     0.006 C 
ENDBRANCH   8  11
ENDBRANCH   7   8
ENDBRANCH   1   7
BRANCH   6  13
ATOM     13  N   LIG d   1      -3.066  94.832 121.218  0.00  0.00    -0.311 N 
ATOM     14  C   LIG d   1      -1.844  95.349 121.098  0.00  0.00     0.210 C 
ATOM     15  C   LIG d   1      -0.931  95.136 122.309  0.00  0.00     0.109 C 
ATOM     16  O   LIG d   1      -1.441  95.992 120.117  0.00  0.00    -0.276 OA
ATOM     17  H   LIG d   1      -3.319  94.355 122.061  0.00  0.00     0.149 HD
ENDBRANCH   6  13
BRANCH   5  18
ATOM     18  N   LIG d   1      -4.244  97.430 120.123  0.00  0.00     0.381 N 
ATOM     19  H   LIG d   1      -3.597  97.344 119.365  0.00  0.00    -0.090 HD
ATOM     20  H   LIG d   1      -3.724  97.612 120.963  0.00  0.00    -0.090 HD
ATOM     21  H   LIG d   1      -4.876  98.179 119.947  0.00  0.00    -0.090 HD
ENDBRANCH   5  18
BRANCH   3  22
ATOM     22  C   LIG d   1      -8.097  94.935 118.757  0.00  0.00     0.382 C 
ATOM     23  O   LIG d   1      -8.869  95.838 119.158  0.00  0.00    -0.241 OA
ATOM     24  O   LIG d   1      -8.538  94.035 118.017  0.00  0.00    -0.241 OA
ENDBRANCH   3  22
TORSDOF 7
ENDMDL
MODEL 6
REMARK VINA RESULT:      -4.1      2.517      4.407
REMARK  7 active torsions:
REMARK  status: ('A' for Active; 'I' for Inactive)
REMARK    1  A    between atoms: C_2  and  C_3 
REMARK    2  A    between atoms: C_3  and  O_6 
REMARK    3  A    between atoms: C_3  and  C_4 
REMARK    4  A    between atoms: C_7  and  O_6 
REMARK    5  A    between atoms: C_9  and  C_10 
REMARK    6  A    between atoms: N_15  and  C_14 
REMARK    7  A    between atoms: N_20  and  C_19 
REMARK       I    between atoms: C_22  and  N_20 
ROOT
ATOM      1  C   LIG d   1      -2.902  92.739 119.269  0.00  0.00     0.161 C 
ATOM      2  C   LIG d   1      -4.048  93.480 119.602  0.00  0.00     0.016 C 
ATOM      3  C   LIG d   1      -5.291  93.328 118.946  0.00  0.00     0.038 C 
ATOM      4  C   LIG d   1      -5.513  92.310 118.006  0.00  0.00     0.028 C 
ATOM      5  C   LIG d   1      -4.248  91.870 117.278  0.00  0.00    -0.047 C 
ATOM      6  C   LIG d   1      -3.155  91.547 118.323  0.00  0.00     0.091 C 
ENDROOT
BRANCH   1   7
ATOM      7  O   LIG d   1      -2.242  92.294 120.471  0.00  0.00    -0.368 OA
BRANCH   7   8
ATOM      8  C   LIG d   1      -1.092  93.069 120.891  0.00  0.00     0.119 C 
BRANCH   8   9
ATOM      9  C   LIG d   1       0.169  92.264 120.521  0.00  0.00     0.028 C 
ATOM     10  C   LIG d   1       0.931  92.879 119.336  0.00  0.00     0.006 C 
ENDBRANCH   8   9
BRANCH   8  11
ATOM     11  C   LIG d   1      -1.046  93.216 122.415  0.00  0.00     0.028 C 
ATOM     12  C   LIG d   1       0.215  92.595 123.036  0.00  0.00     0.006 C 
ENDBRANCH   8  11
ENDBRANCH   7   8
ENDBRANCH   1   7
BRANCH   6  13
ATOM     13  N   LIG d   1      -1.857  91.190 117.693  0.00  0.00    -0.311 N 
ATOM     14  C   LIG d   1      -1.478  89.935 117.456  0.00  0.00     0.210 C 
ATOM     15  C   LIG d   1      -0.093  89.788 116.818  0.00  0.00     0.109 C 
ATOM     16  O   LIG d   1      -2.171  88.932 117.684  0.00  0.00    -0.276 OA
ATOM     17  H   LIG d   1      -1.246  91.944 117.447  0.00  0.00     0.149 HD
ENDBRANCH   6  13
BRANCH   5  18
ATOM     18  N   LIG d   1      -4.599  90.714 116.432  0.00  0.00     0.381 N 
ATOM     19  H   LIG d   1      -5.320  90.972 115.789  0.00  0.00    -0.090 HD
ATOM     20  H   LIG d   1      -4.948  89.977 117.018  0.00  0.00    -0.090 HD
ATOM     21  H   LIG d   1      -3.795  90.400 115.933  0.00  0.00    -0.090 HD
ENDBRANCH   5  18
BRANCH   3  22
ATOM     22  C   LIG d   1      -6.317  94.226 119.199  0.00  0.00     0.382 C 
ATOM     23  O   LIG d   1      -6.229  95.021 120.165  0.00  0.00    -0.241 OA
ATOM     24  O   LIG d   1      -7.348  94.220 118.501  0.00  0.00    -0.241 OA
ENDBRANCH   3  22
TORSDOF 7
ENDMDL
MODEL 7
REMARK VINA RESULT:      -4.1      2.383      5.038
REMARK  7 active torsions:
REMARK  status: ('A' for Active; 'I' for Inactive)
REMARK    1  A    between atoms: C_2  and  C_3 
REMARK    2  A    between atoms: C_3  and  O_6 
REMARK    3  A    between atoms: C_3  and  C_4 
REMARK    4  A    between atoms: C_7  and  O_6 
REMARK    5  A    between atoms: C_9  and  C_10 
REMARK    6  A    between atoms: N_15  and  C_14 
REMARK    7  A    between atoms: N_20  and  C_19 
REMARK       I    between atoms: C_22  and  N_20 
ROOT
ATOM      1  C   LIG d   1      -0.871  93.412 117.645  0.00  0.00     0.161 C 
ATOM      2  C   LIG d   1      -2.270  93.309 117.719  0.00  0.00     0.016 C 
ATOM      3  C   LIG d   1      -2.950  92.087 117.931  0.00  0.00     0.038 C 
ATOM      4  C   LIG d   1      -2.266  90.901 118.237  0.00  0.00     0.028 C 
ATOM      5  C   LIG d   1      -0.849  90.857 117.675  0.00  0.00    -0.047 C 
ATOM      6  C   LIG d   1      -0.105  92.148 118.087  0.00  0.00     0.091 C 
ENDROOT
BRANCH   1   7
ATOM      7  O   LIG d   1      -0.425  94.557 118.399  0.00  0.00    -0.368 OA
BRANCH   7   8
ATOM      8  C   LIG d   1      -1.208  94.893 119.571  0.00  0.00     0.119 C 
BRANCH   8   9
ATOM      9  C   LIG d   1      -1.558  96.391 119.481  0.00  0.00     0.028 C 
ATOM     10  C   LIG d   1      -3.042  96.629 119.158  0.00  0.00     0.006 C 
ENDBRANCH   8   9
BRANCH   8  11
ATOM     11  C   LIG d   1      -0.383  94.745 120.853  0.00  0.00     0.028 C 
ATOM     12  C   LIG d   1      -0.331  96.039 121.680  0.00  0.00     0.006 C 
ENDBRANCH   8  11
ENDBRANCH   7   8
ENDBRANCH   1   7
BRANCH   6  13
ATOM     13  N   LIG d   1       1.262  92.224 117.507  0.00  0.00    -0.311 N 
ATOM     14  C   LIG d   1       2.353  91.806 118.146  0.00  0.00     0.210 C 
ATOM     15  C   LIG d   1       3.664  91.995 117.376  0.00  0.00     0.109 C 
ATOM     16  O   LIG d   1       2.357  91.268 119.263  0.00  0.00    -0.276 OA
ATOM     17  H   LIG d   1       1.347  92.619 116.591  0.00  0.00     0.149 HD
ENDBRANCH   6  13
BRANCH   5  18
ATOM     18  N   LIG d   1      -0.205  89.631 118.183  0.00  0.00     0.381 N 
ATOM     19  H   LIG d   1      -0.780  88.838 117.979  0.00  0.00    -0.090 HD
ATOM     20  H   LIG d   1      -0.111  89.704 119.181  0.00  0.00    -0.090 HD
ATOM     21  H   LIG d   1       0.692  89.518 117.765  0.00  0.00    -0.090 HD
ENDBRANCH   5  18
BRANCH   3  22
ATOM     22  C   LIG d   1      -4.329  92.036 117.798  0.00  0.00     0.382 C 
ATOM     23  O   LIG d   1      -5.060  92.649 118.613  0.00  0.00    -0.241 OA
ATOM     24  O   LIG d   1      -4.853  91.349 116.901  0.00  0.00    -0.241 OA
ENDBRANCH   3  22
TORSDOF 7
ENDMDL
MODEL 8
REMARK VINA RESULT:      -4.1      2.447      4.102
REMARK  7 active torsions:
REMARK  status: ('A' for Active; 'I' for Inactive)
REMARK    1  A    between atoms: C_2  and  C_3 
REMARK    2  A    between atoms: C_3  and  O_6 
REMARK    3  A    between atoms: C_3  and  C_4 
REMARK    4  A    between atoms: C_7  and  O_6 
REMARK    5  A    between atoms: C_9  and  C_10 
REMARK    6  A    between atoms: N_15  and  C_14 
REMARK    7  A    between atoms: N_20  and  C_19 
REMARK       I    between atoms: C_22  and  N_20 
ROOT
ATOM      1  C   LIG d   1      -3.316  93.030 119.312  0.00  0.00     0.161 C 
ATOM      2  C   LIG d   1      -2.985  94.183 120.042  0.00  0.00     0.016 C 
ATOM      3  C   LIG d   1      -1.949  95.070 119.669  0.00  0.00     0.038 C 
ATOM      4  C   LIG d   1      -1.268  94.944 118.449  0.00  0.00     0.028 C 
ATOM      5  C   LIG d   1      -1.224  93.512 117.925  0.00  0.00    -0.047 C 
ATOM      6  C   LIG d   1      -2.659  92.936 117.919  0.00  0.00     0.091 C 
ENDROOT
BRANCH   1   7
ATOM      7  O   LIG d   1      -4.748  92.918 119.199  0.00  0.00    -0.368 OA
BRANCH   7   8
ATOM      8  C   LIG d   1      -5.525  93.816 120.028  0.00  0.00     0.119 C 
BRANCH   8   9
ATOM      9  C   LIG d   1      -6.274  92.956 121.066  0.00  0.00     0.028 C 
ATOM     10  C   LIG d   1      -6.886  93.801 122.196  0.00  0.00     0.006 C 
ENDBRANCH   8   9
BRANCH   8  11
ATOM     11  C   LIG d   1      -6.619  94.517 119.218  0.00  0.00     0.028 C 
ATOM     12  C   LIG d   1      -6.463  96.046 119.203  0.00  0.00     0.006 C 
ENDBRANCH   8  11
ENDBRANCH   7   8
ENDBRANCH   1   7
BRANCH   6  13
ATOM     13  N   LIG d   1      -2.695  91.510 117.500  0.00  0.00    -0.311 N 
ATOM     14  C   LIG d   1      -2.107  90.530 118.183  0.00  0.00     0.210 C 
ATOM     15  C   LIG d   1      -2.249  89.135 117.566  0.00  0.00     0.109 C 
ATOM     16  O   LIG d   1      -1.509  90.678 119.259  0.00  0.00    -0.276 OA
ATOM     17  H   LIG d   1      -3.186  91.296 116.654  0.00  0.00     0.149 HD
ENDBRANCH   6  13
BRANCH   5  18
ATOM     18  N   LIG d   1      -0.609  93.546 116.585  0.00  0.00     0.381 N 
ATOM     19  H   LIG d   1      -1.246  93.172 115.910  0.00  0.00    -0.090 HD
ATOM     20  H   LIG d   1       0.216  92.973 116.592  0.00  0.00    -0.090 HD
ATOM     21  H   LIG d   1      -0.370  94.483 116.343  0.00  0.00    -0.090 HD
ENDBRANCH   5  18
BRANCH   3  22
ATOM     22  C   LIG d   1      -1.557  96.075 120.540  0.00  0.00     0.382 C 
ATOM     23  O   LIG d   1      -2.235  97.127 120.629  0.00  0.00    -0.241 OA
ATOM     24  O   LIG d   1      -0.510  95.961 121.206  0.00  0.00    -0.241 OA
ENDBRANCH   3  22
TORSDOF 7
ENDMDL
MODEL 9
REMARK VINA RESULT:      -4.1      3.117      4.518
REMARK  7 active torsions:
REMARK  status: ('A' for Active; 'I' for Inactive)
REMARK    1  A    between atoms: C_2  and  C_3 
REMARK    2  A    between atoms: C_3  and  O_6 
REMARK    3  A    between atoms: C_3  and  C_4 
REMARK    4  A    between atoms: C_7  and  O_6 
REMARK    5  A    between atoms: C_9  and  C_10 
REMARK    6  A    between atoms: N_15  and  C_14 
REMARK    7  A    between atoms: N_20  and  C_19 
REMARK       I    between atoms: C_22  and  N_20 
ROOT
ATOM      1  C   LIG d   1      -4.727  93.342 120.030  0.00  0.00     0.161 C 
ATOM      2  C   LIG d   1      -5.640  94.088 119.267  0.00  0.00     0.016 C 
ATOM      3  C   LIG d   1      -6.928  94.448 119.726  0.00  0.00     0.038 C 
ATOM      4  C   LIG d   1      -7.336  94.212 121.048  0.00  0.00     0.028 C 
ATOM      5  C   LIG d   1      -6.641  93.019 121.693  0.00  0.00    -0.047 C 
ATOM      6  C   LIG d   1      -5.113  93.172 121.515  0.00  0.00     0.091 C 
ENDROOT
BRANCH   1   7
ATOM      7  O   LIG d   1      -3.411  93.917 119.917  0.00  0.00    -0.368 OA
BRANCH   7   8
ATOM      8  C   LIG d   1      -2.548  93.340 118.906  0.00  0.00     0.119 C 
BRANCH   8   9
ATOM      9  C   LIG d   1      -1.595  92.359 119.615  0.00  0.00     0.028 C 
ATOM     10  C   LIG d   1      -1.920  90.890 119.296  0.00  0.00     0.006 C 
ENDBRANCH   8   9
BRANCH   8  11
ATOM     11  C   LIG d   1      -1.642  94.402 118.275  0.00  0.00     0.028 C 
ATOM     12  C   LIG d   1      -0.707  93.825 117.201  0.00  0.00     0.006 C 
ENDBRANCH   8  11
ENDBRANCH   7   8
ENDBRANCH   1   7
BRANCH   6  13
ATOM     13  N   LIG d   1      -4.360  92.004 122.044  0.00  0.00    -0.311 N 
ATOM     14  C   LIG d   1      -3.335  92.114 122.887  0.00  0.00     0.210 C 
ATOM     15  C   LIG d   1      -2.688  90.786 123.293  0.00  0.00     0.109 C 
ATOM     16  O   LIG d   1      -2.922  93.182 123.363  0.00  0.00    -0.276 OA
ATOM     17  H   LIG d   1      -4.650  91.097 121.734  0.00  0.00     0.149 HD
ENDBRANCH   6  13
BRANCH   5  18
ATOM     18  N   LIG d   1      -7.056  92.972 123.108  0.00  0.00     0.381 N 
ATOM     19  H   LIG d   1      -7.868  93.541 123.241  0.00  0.00    -0.090 HD
ATOM     20  H   LIG d   1      -6.315  93.343 123.676  0.00  0.00    -0.090 HD
ATOM     21  H   LIG d   1      -7.251  92.033 123.375  0.00  0.00    -0.090 HD
ENDBRANCH   5  18
BRANCH   3  22
ATOM     22  C   LIG d   1      -7.838  95.015 118.847  0.00  0.00     0.382 C 
ATOM     23  O   LIG d   1      -8.647  94.285 118.225  0.00  0.00    -0.241 OA
ATOM     24  O   LIG d   1      -7.831  96.242 118.634  0.00  0.00    -0.241 OA
ENDBRANCH   3  22
TORSDOF 7
ENDMDL
