MODEL 1
REMARK VINA RESULT:      -4.5      0.000      0.000
REMARK  7 active torsions:
REMARK  status: ('A' for Active; 'I' for Inactive)
REMARK    1  A    between atoms: C_2  and  C_3 
REMARK    2  A    between atoms: C_3  and  O_6 
REMARK    3  A    between atoms: C_3  and  C_4 
REMARK    4  A    between atoms: C_7  and  O_6 
REMARK    5  A    between atoms: C_9  and  C_10 
REMARK    6  A    between atoms: N_15  and  C_14 
REMARK    7  A    between atoms: N_20  and  C_19 
REMARK       I    between atoms: C_22  and  N_20 
ROOT
ATOM      1  C   LIG d   1      -5.156  91.900 119.901  0.00  0.00     0.161 C 
ATOM      2  C   LIG d   1      -4.031  91.212 119.418  0.00  0.00     0.016 C 
ATOM      3  C   LIG d   1      -3.909  90.760 118.084  0.00  0.00     0.038 C 
ATOM      4  C   LIG d   1      -4.846  91.100 117.097  0.00  0.00     0.028 C 
ATOM      5  C   LIG d   1      -6.242  91.361 117.652  0.00  0.00    -0.047 C 
ATOM      6  C   LIG d   1      -6.139  92.378 118.812  0.00  0.00     0.091 C 
ENDROOT
BRANCH   1   7
ATOM      7  O   LIG d   1      -4.736  93.011 120.719  0.00  0.00    -0.368 OA
BRANCH   7   8
ATOM      8  C   LIG d   1      -4.335  94.209 120.009  0.00  0.00     0.119 C 
BRANCH   8   9
ATOM      9  C   LIG d   1      -2.866  94.495 120.377  0.00  0.00     0.028 C 
ATOM     10  C   LIG d   1      -1.919  94.344 119.175  0.00  0.00     0.006 C 
ENDBRANCH   8   9
BRANCH   8  11
ATOM     11  C   LIG d   1      -5.120  95.432 120.492  0.00  0.00     0.028 C 
ATOM     12  C   LIG d   1      -5.438  96.421 119.360  0.00  0.00     0.006 C 
ENDBRANCH   8  11
ENDBRANCH   7   8
ENDBRANCH   1   7
BRANCH   6  13
ATOM     13  N   LIG d   1      -7.450  92.626 119.467  0.00  0.00    -0.311 N 
ATOM     14  C   LIG d   1      -8.268  93.617 119.117  0.00  0.00     0.210 C 
ATOM     15  C   LIG d   1      -9.561  93.707 119.934  0.00  0.00     0.109 C 
ATOM     16  O   LIG d   1      -8.061  94.411 118.187  0.00  0.00    -0.276 OA
ATOM     17  H   LIG d   1      -7.712  92.010 120.211  0.00  0.00     0.149 HD
ENDBRANCH   6  13
BRANCH   5  18
ATOM     18  N   LIG d   1      -7.082  91.839 116.538  0.00  0.00     0.381 N 
ATOM     19  H   LIG d   1      -8.049  91.717 116.766  0.00  0.00    -0.090 HD
ATOM     20  H   LIG d   1      -6.880  91.292 115.720  0.00  0.00    -0.090 HD
ATOM     21  H   LIG d   1      -6.895  92.801 116.358  0.00  0.00    -0.090 HD
ENDBRANCH   5  18
BRANCH   3  22
ATOM     22  C   LIG d   1      -2.859  89.923 117.735  0.00  0.00     0.382 C 
ATOM     23  O   LIG d   1      -1.680  90.250 118.010  0.00  0.00    -0.241 OA
ATOM     24  O   LIG d   1      -3.074  88.868 117.110  0.00  0.00    -0.241 OA
ENDBRANCH   3  22
TORSDOF 7
ENDMDL
MODEL 2
REMARK VINA RESULT:      -4.3      3.109      5.464
REMARK  7 active torsions:
REMARK  status: ('A' for Active; 'I' for Inactive)
REMARK    1  A    between atoms: C_2  and  C_3 
REMARK    2  A    between atoms: C_3  and  O_6 
REMARK    3  A    between atoms: C_3  and  C_4 
REMARK    4  A    between atoms: C_7  and  O_6 
REMARK    5  A    between atoms: C_9  and  C_10 
REMARK    6  A    between atoms: N_15  and  C_14 
REMARK    7  A    between atoms: N_20  and  C_19 
REMARK       I    between atoms: C_22  and  N_20 
ROOT
ATOM      1  C   LIG d   1      -1.697  90.763 117.954  0.00  0.00     0.161 C 
ATOM      2  C   LIG d   1      -0.414  91.028 118.463  0.00  0.00     0.016 C 
ATOM      3  C   LIG d   1      -0.031  92.281 118.994  0.00  0.00     0.038 C 
ATOM      4  C   LIG d   1      -0.956  93.316 119.192  0.00  0.00     0.028 C 
ATOM      5  C   LIG d   1      -2.138  93.265 118.230  0.00  0.00    -0.047 C 
ATOM      6  C   LIG d   1      -2.751  91.847 118.264  0.00  0.00     0.091 C 
ENDROOT
BRANCH   1   7
ATOM      7  O   LIG d   1      -2.151  89.476 118.417  0.00  0.00    -0.368 OA
BRANCH   7   8
ATOM      8  C   LIG d   1      -1.396  88.888 119.506  0.00  0.00     0.119 C 
BRANCH   8   9
ATOM      9  C   LIG d   1      -1.052  87.441 119.101  0.00  0.00     0.028 C 
ATOM     10  C   LIG d   1       0.332  87.331 118.439  0.00  0.00     0.006 C 
ENDBRANCH   8   9
BRANCH   8  11
ATOM     11  C   LIG d   1      -2.250  88.763 120.771  0.00  0.00     0.028 C 
ATOM     12  C   LIG d   1      -2.452  90.107 121.489  0.00  0.00     0.006 C 
ENDBRANCH   8  11
ENDBRANCH   7   8
ENDBRANCH   1   7
BRANCH   6  13
ATOM     13  N   LIG d   1      -3.861  91.686 117.288  0.00  0.00    -0.311 N 
ATOM     14  C   LIG d   1      -5.022  91.105 117.588  0.00  0.00     0.210 C 
ATOM     15  C   LIG d   1      -6.022  91.024 116.430  0.00  0.00     0.109 C 
ATOM     16  O   LIG d   1      -5.330  90.678 118.710  0.00  0.00    -0.276 OA
ATOM     17  H   LIG d   1      -3.708  92.032 116.362  0.00  0.00     0.149 HD
ENDBRANCH   6  13
BRANCH   5  18
ATOM     18  N   LIG d   1      -3.089  94.317 118.636  0.00  0.00     0.381 N 
ATOM     19  H   LIG d   1      -3.971  94.166 118.189  0.00  0.00    -0.090 HD
ATOM     20  H   LIG d   1      -2.734  95.209 118.340  0.00  0.00    -0.090 HD
ATOM     21  H   LIG d   1      -3.205  94.308 119.626  0.00  0.00    -0.090 HD
ENDBRANCH   5  18
BRANCH   3  22
ATOM     22  C   LIG d   1       1.301  92.520 119.297  0.00  0.00     0.382 C 
ATOM     23  O   LIG d   1       2.197  92.204 118.477  0.00  0.00    -0.241 OA
ATOM     24  O   LIG d   1       1.621  93.008 120.398  0.00  0.00    -0.241 OA
ENDBRANCH   3  22
TORSDOF 7
ENDMDL
MODEL 3
REMARK VINA RESULT:      -4.2      2.250      5.852
REMARK  7 active torsions:
REMARK  status: ('A' for Active; 'I' for Inactive)
REMARK    1  A    between atoms: C_2  and  C_3 
REMARK    2  A    between atoms: C_3  and  O_6 
REMARK    3  A    between atoms: C_3  and  C_4 
REMARK    4  A    between atoms: C_7  and  O_6 
REMARK    5  A    between atoms: C_9  and  C_10 
REMARK    6  A    between atoms: N_15  and  C_14 
REMARK    7  A    between atoms: N_20  and  C_19 
REMARK       I    between atoms: C_22  and  N_20 
ROOT
ATOM      1  C   LIG d   1      -5.821  92.554 120.064  0.00  0.00     0.161 C 
ATOM      2  C   LIG d   1      -7.212  92.753 120.040  0.00  0.00     0.016 C 
ATOM      3  C   LIG d   1      -7.815  93.996 119.739  0.00  0.00     0.038 C 
ATOM      4  C   LIG d   1      -7.066  95.094 119.290  0.00  0.00     0.028 C 
ATOM      5  C   LIG d   1      -5.623  95.086 119.784  0.00  0.00    -0.047 C 
ATOM      6  C   LIG d   1      -4.992  93.711 119.469  0.00  0.00     0.091 C 
ENDROOT
BRANCH   1   7
ATOM      7  O   LIG d   1      -5.494  91.313 119.407  0.00  0.00    -0.368 OA
BRANCH   7   8
ATOM      8  C   LIG d   1      -5.252  91.392 117.981  0.00  0.00     0.119 C 
BRANCH   8   9
ATOM      9  C   LIG d   1      -6.487  90.809 117.269  0.00  0.00     0.028 C 
ATOM     10  C   LIG d   1      -7.271  91.875 116.486  0.00  0.00     0.006 C 
ENDBRANCH   8   9
BRANCH   8  11
ATOM     11  C   LIG d   1      -4.082  90.495 117.564  0.00  0.00     0.028 C 
ATOM     12  C   LIG d   1      -3.290  89.953 118.765  0.00  0.00     0.006 C 
ENDBRANCH   8  11
ENDBRANCH   7   8
ENDBRANCH   1   7
BRANCH   6  13
ATOM     13  N   LIG d   1      -3.607  93.589 119.995  0.00  0.00    -0.311 N 
ATOM     14  C   LIG d   1      -2.529  93.529 119.215  0.00  0.00     0.210 C 
ATOM     15  C   LIG d   1      -1.199  93.384 119.960  0.00  0.00     0.109 C 
ATOM     16  O   LIG d   1      -2.546  93.615 117.977  0.00  0.00    -0.276 OA
ATOM     17  H   LIG d   1      -3.499  93.544 120.989  0.00  0.00     0.149 HD
ENDBRANCH   6  13
BRANCH   5  18
ATOM     18  N   LIG d   1      -4.922  96.208 119.132  0.00  0.00     0.381 N 
ATOM     19  H   LIG d   1      -5.503  97.022 119.141  0.00  0.00    -0.090 HD
ATOM     20  H   LIG d   1      -4.738  95.963 118.175  0.00  0.00    -0.090 HD
ATOM     21  H   LIG d   1      -4.066  96.397 119.605  0.00  0.00    -0.090 HD
ENDBRANCH   5  18
BRANCH   3  22
ATOM     22  C   LIG d   1      -9.179  94.161 119.924  0.00  0.00     0.382 C 
ATOM     23  O   LIG d   1      -9.968  93.231 119.629  0.00  0.00    -0.241 OA
ATOM     24  O   LIG d   1      -9.634  95.243 120.340  0.00  0.00    -0.241 OA
ENDBRANCH   3  22
TORSDOF 7
ENDMDL
MODEL 4
REMARK VINA RESULT:      -4.1      2.513      5.457
REMARK  7 active torsions:
REMARK  status: ('A' for Active; 'I' for Inactive)
REMARK    1  A    between atoms: C_2  and  C_3 
REMARK    2  A    between atoms: C_3  and  O_6 
REMARK    3  A    between atoms: C_3  and  C_4 
REMARK    4  A    between atoms: C_7  and  O_6 
REMARK    5  A    between atoms: C_9  and  C_10 
REMARK    6  A    between atoms: N_15  and  C_14 
REMARK    7  A    between atoms: N_20  and  C_19 
REMARK       I    between atoms: C_22  and  N_20 
ROOT
ATOM      1  C   LIG d   1      -5.453  93.530 120.335  0.00  0.00     0.161 C 
ATOM      2  C   LIG d   1      -6.699  93.240 119.754  0.00  0.00     0.016 C 
ATOM      3  C   LIG d   1      -7.451  94.182 119.015  0.00  0.00     0.038 C 
ATOM      4  C   LIG d   1      -6.934  95.442 118.677  0.00  0.00     0.028 C 
ATOM      5  C   LIG d   1      -5.895  95.956 119.667  0.00  0.00    -0.047 C 
ATOM      6  C   LIG d   1      -4.823  94.864 119.882  0.00  0.00     0.091 C 
ENDROOT
BRANCH   1   7
ATOM      7  O   LIG d   1      -4.540  92.439 120.101  0.00  0.00    -0.368 OA
BRANCH   7   8
ATOM      8  C   LIG d   1      -4.088  92.268 118.735  0.00  0.00     0.119 C 
BRANCH   8   9
ATOM      9  C   LIG d   1      -4.589  90.894 118.251  0.00  0.00     0.028 C 
ATOM     10  C   LIG d   1      -5.504  91.004 117.019  0.00  0.00     0.006 C 
ENDBRANCH   8   9
BRANCH   8  11
ATOM     11  C   LIG d   1      -2.560  92.193 118.659  0.00  0.00     0.028 C 
ATOM     12  C   LIG d   1      -1.937  93.414 117.964  0.00  0.00     0.006 C 
ENDBRANCH   8  11
ENDBRANCH   7   8
ENDBRANCH   1   7
BRANCH   6  13
ATOM     13  N   LIG d   1      -3.814  95.253 120.901  0.00  0.00    -0.311 N 
ATOM     14  C   LIG d   1      -2.725  95.967 120.620  0.00  0.00     0.210 C 
ATOM     15  C   LIG d   1      -1.805  96.241 121.813  0.00  0.00     0.109 C 
ATOM     16  O   LIG d   1      -2.451  96.426 119.501  0.00  0.00    -0.276 OA
ATOM     17  H   LIG d   1      -3.974  94.948 121.842  0.00  0.00     0.149 HD
ENDBRANCH   6  13
BRANCH   5  18
ATOM     18  N   LIG d   1      -5.341  97.210 119.121  0.00  0.00     0.381 N 
ATOM     19  H   LIG d   1      -6.083  97.787 118.778  0.00  0.00    -0.090 HD
ATOM     20  H   LIG d   1      -4.732  96.989 118.353  0.00  0.00    -0.090 HD
ATOM     21  H   LIG d   1      -4.834  97.695 119.828  0.00  0.00    -0.090 HD
ENDBRANCH   5  18
BRANCH   3  22
ATOM     22  C   LIG d   1      -8.752  93.882 118.640  0.00  0.00     0.382 C 
ATOM     23  O   LIG d   1      -9.115  94.044 117.451  0.00  0.00    -0.241 OA
ATOM     24  O   LIG d   1      -9.579  93.492 119.486  0.00  0.00    -0.241 OA
ENDBRANCH   3  22
TORSDOF 7
ENDMDL
MODEL 5
REMARK VINA RESULT:      -4.1      1.756      2.491
REMARK  7 active torsions:
REMARK  status: ('A' for Active; 'I' for Inactive)
REMARK    1  A    between atoms: C_2  and  C_3 
REMARK    2  A    between atoms: C_3  and  O_6 
REMARK    3  A    between atoms: C_3  and  C_4 
REMARK    4  A    between atoms: C_7  and  O_6 
REMARK    5  A    between atoms: C_9  and  C_10 
REMARK    6  A    between atoms: N_15  and  C_14 
REMARK    7  A    between atoms: N_20  and  C_19 
REMARK       I    between atoms: C_22  and  N_20 
ROOT
ATOM      1  C   LIG d   1      -5.297  91.825 120.008  0.00  0.00     0.161 C 
ATOM      2  C   LIG d   1      -4.162  91.133 119.553  0.00  0.00     0.016 C 
ATOM      3  C   LIG d   1      -3.974  90.749 118.205  0.00  0.00     0.038 C 
ATOM      4  C   LIG d   1      -4.843  91.167 117.187  0.00  0.00     0.028 C 
ATOM      5  C   LIG d   1      -6.262  91.437 117.675  0.00  0.00    -0.047 C 
ATOM      6  C   LIG d   1      -6.202  92.387 118.893  0.00  0.00     0.091 C 
ENDROOT
BRANCH   1   7
ATOM      7  O   LIG d   1      -4.898  92.878 120.908  0.00  0.00    -0.368 OA
BRANCH   7   8
ATOM      8  C   LIG d   1      -5.255  92.696 122.300  0.00  0.00     0.119 C 
BRANCH   8   9
ATOM      9  C   LIG d   1      -3.980  92.271 123.054  0.00  0.00     0.028 C 
ATOM     10  C   LIG d   1      -3.980  90.775 123.411  0.00  0.00     0.006 C 
ENDBRANCH   8   9
BRANCH   8  11
ATOM     11  C   LIG d   1      -6.237  91.534 122.477  0.00  0.00     0.028 C 
ATOM     12  C   LIG d   1      -7.619  91.991 122.969  0.00  0.00     0.006 C 
ENDBRANCH   8  11
ENDBRANCH   7   8
ENDBRANCH   1   7
BRANCH   6  13
ATOM     13  N   LIG d   1      -7.543  92.635 119.484  0.00  0.00    -0.311 N 
ATOM     14  C   LIG d   1      -8.300  93.684 119.169  0.00  0.00     0.210 C 
ATOM     15  C   LIG d   1      -9.639  93.761 119.910  0.00  0.00     0.109 C 
ATOM     16  O   LIG d   1      -8.005  94.541 118.323  0.00  0.00    -0.276 OA
ATOM     17  H   LIG d   1      -7.875  91.972 120.157  0.00  0.00     0.149 HD
ENDBRANCH   6  13
BRANCH   5  18
ATOM     18  N   LIG d   1      -7.024  91.996 116.542  0.00  0.00     0.381 N 
ATOM     19  H   LIG d   1      -7.985  91.724 116.613  0.00  0.00    -0.090 HD
ATOM     20  H   LIG d   1      -6.654  91.624 115.686  0.00  0.00    -0.090 HD
ATOM     21  H   LIG d   1      -6.952  92.989 116.540  0.00  0.00    -0.090 HD
ENDBRANCH   5  18
BRANCH   3  22
ATOM     22  C   LIG d   1      -2.926  89.904 117.871  0.00  0.00     0.382 C 
ATOM     23  O   LIG d   1      -3.131  88.916 117.126  0.00  0.00    -0.241 OA
ATOM     24  O   LIG d   1      -1.788  90.093 118.341  0.00  0.00    -0.241 OA
ENDBRANCH   3  22
TORSDOF 7
ENDMDL
MODEL 6
REMARK VINA RESULT:      -4.0      2.716      5.469
REMARK  7 active torsions:
REMARK  status: ('A' for Active; 'I' for Inactive)
REMARK    1  A    between atoms: C_2  and  C_3 
REMARK    2  A    between atoms: C_3  and  O_6 
REMARK    3  A    between atoms: C_3  and  C_4 
REMARK    4  A    between atoms: C_7  and  O_6 
REMARK    5  A    between atoms: C_9  and  C_10 
REMARK    6  A    between atoms: N_15  and  C_14 
REMARK    7  A    between atoms: N_20  and  C_19 
REMARK       I    between atoms: C_22  and  N_20 
ROOT
ATOM      1  C   LIG d   1      -3.594  92.360 120.246  0.00  0.00     0.161 C 
ATOM      2  C   LIG d   1      -3.633  93.764 120.251  0.00  0.00     0.016 C 
ATOM      3  C   LIG d   1      -2.787  94.569 119.453  0.00  0.00     0.038 C 
ATOM      4  C   LIG d   1      -1.944  94.017 118.477  0.00  0.00     0.028 C 
ATOM      5  C   LIG d   1      -1.506  92.591 118.790  0.00  0.00    -0.047 C 
ATOM      6  C   LIG d   1      -2.758  91.740 119.107  0.00  0.00     0.091 C 
ENDROOT
BRANCH   1   7
ATOM      7  O   LIG d   1      -4.935  91.834 120.226  0.00  0.00    -0.368 OA
BRANCH   7   8
ATOM      8  C   LIG d   1      -5.996  92.801 120.032  0.00  0.00     0.119 C 
BRANCH   8   9
ATOM      9  C   LIG d   1      -7.091  92.503 121.074  0.00  0.00     0.028 C 
ATOM     10  C   LIG d   1      -6.545  91.753 122.301  0.00  0.00     0.006 C 
ENDBRANCH   8   9
BRANCH   8  11
ATOM     11  C   LIG d   1      -6.673  92.621 118.670  0.00  0.00     0.028 C 
ATOM     12  C   LIG d   1      -6.207  91.353 117.937  0.00  0.00     0.006 C 
ENDBRANCH   8  11
ENDBRANCH   7   8
ENDBRANCH   1   7
BRANCH   6  13
ATOM     13  N   LIG d   1      -2.412  90.351 119.507  0.00  0.00    -0.311 N 
ATOM     14  C   LIG d   1      -2.738  89.278 118.787  0.00  0.00     0.210 C 
ATOM     15  C   LIG d   1      -2.304  87.939 119.390  0.00  0.00     0.109 C 
ATOM     16  O   LIG d   1      -3.318  89.311 117.691  0.00  0.00    -0.276 OA
ATOM     17  H   LIG d   1      -1.915  90.234 120.368  0.00  0.00     0.149 HD
ENDBRANCH   6  13
BRANCH   5  18
ATOM     18  N   LIG d   1      -0.747  92.092 117.628  0.00  0.00     0.381 N 
ATOM     19  H   LIG d   1      -0.305  91.224 117.860  0.00  0.00    -0.090 HD
ATOM     20  H   LIG d   1      -0.031  92.758 117.397  0.00  0.00    -0.090 HD
ATOM     21  H   LIG d   1      -1.357  91.965 116.851  0.00  0.00    -0.090 HD
ENDBRANCH   5  18
BRANCH   3  22
ATOM     22  C   LIG d   1      -2.752  95.940 119.655  0.00  0.00     0.382 C 
ATOM     23  O   LIG d   1      -1.957  96.430 120.493  0.00  0.00    -0.241 OA
ATOM     24  O   LIG d   1      -3.536  96.689 119.043  0.00  0.00    -0.241 OA
ENDBRANCH   3  22
TORSDOF 7
ENDMDL
MODEL 7
REMARK VINA RESULT:      -4.0      2.352      3.824
REMARK  7 active torsions:
REMARK  status: ('A' for Active; 'I' for Inactive)
REMARK    1  A    between atoms: C_2  and  C_3 
REMARK    2  A    between atoms: C_3  and  O_6 
REMARK    3  A    between atoms: C_3  and  C_4 
REMARK    4  A    between atoms: C_7  and  O_6 
REMARK    5  A    between atoms: C_9  and  C_10 
REMARK    6  A    between atoms: N_15  and  C_14 
REMARK    7  A    between atoms: N_20  and  C_19 
REMARK       I    between atoms: C_22  and  N_20 
ROOT
ATOM      1  C   LIG d   1      -4.518  92.372 119.364  0.00  0.00     0.161 C 
ATOM      2  C   LIG d   1      -4.194  91.017 119.181  0.00  0.00     0.016 C 
ATOM      3  C   LIG d   1      -2.946  90.575 118.685  0.00  0.00     0.038 C 
ATOM      4  C   LIG d   1      -1.875  91.458 118.480  0.00  0.00     0.028 C 
ATOM      5  C   LIG d   1      -2.317  92.885 118.171  0.00  0.00    -0.047 C 
ATOM      6  C   LIG d   1      -3.324  93.343 119.251  0.00  0.00     0.091 C 
ENDROOT
BRANCH   1   7
ATOM      7  O   LIG d   1      -5.188  92.547 120.628  0.00  0.00    -0.368 OA
BRANCH   7   8
ATOM      8  C   LIG d   1      -6.584  92.929 120.561  0.00  0.00     0.119 C 
BRANCH   8   9
ATOM      9  C   LIG d   1      -6.962  93.043 119.071  0.00  0.00     0.028 C 
ATOM     10  C   LIG d   1      -7.534  94.425 118.714  0.00  0.00     0.006 C 
ENDBRANCH   8   9
BRANCH   8  11
ATOM     11  C   LIG d   1      -6.808  94.328 121.144  0.00  0.00     0.028 C 
ATOM     12  C   LIG d   1      -5.737  94.722 122.173  0.00  0.00     0.006 C 
ENDBRANCH   8  11
ENDBRANCH   7   8
ENDBRANCH   1   7
BRANCH   6  13
ATOM     13  N   LIG d   1      -3.870  94.698 118.978  0.00  0.00    -0.311 N 
ATOM     14  C   LIG d   1      -3.374  95.811 119.515  0.00  0.00     0.210 C 
ATOM     15  C   LIG d   1      -4.099  97.100 119.117  0.00  0.00     0.109 C 
ATOM     16  O   LIG d   1      -2.382  95.856 120.258  0.00  0.00    -0.276 OA
ATOM     17  H   LIG d   1      -4.657  94.756 118.361  0.00  0.00     0.149 HD
ENDBRANCH   6  13
BRANCH   5  18
ATOM     18  N   LIG d   1      -1.105  93.725 118.117  0.00  0.00     0.381 N 
ATOM     19  H   LIG d   1      -0.290  93.145 118.138  0.00  0.00    -0.090 HD
ATOM     20  H   LIG d   1      -1.088  94.323 118.924  0.00  0.00    -0.090 HD
ATOM     21  H   LIG d   1      -1.109  94.275 117.286  0.00  0.00    -0.090 HD
ENDBRANCH   5  18
BRANCH   3  22
ATOM     22  C   LIG d   1      -2.772  89.241 118.351  0.00  0.00     0.382 C 
ATOM     23  O   LIG d   1      -3.033  88.346 119.190  0.00  0.00    -0.241 OA
ATOM     24  O   LIG d   1      -2.315  88.923 117.237  0.00  0.00    -0.241 OA
ENDBRANCH   3  22
TORSDOF 7
ENDMDL
MODEL 8
REMARK VINA RESULT:      -3.9      2.576      5.416
REMARK  7 active torsions:
REMARK  status: ('A' for Active; 'I' for Inactive)
REMARK    1  A    between atoms: C_2  and  C_3 
REMARK    2  A    between atoms: C_3  and  O_6 
REMARK    3  A    between atoms: C_3  and  C_4 
REMARK    4  A    between atoms: C_7  and  O_6 
REMARK    5  A    between atoms: C_9  and  C_10 
REMARK    6  A    between atoms: N_15  and  C_14 
REMARK    7  A    between atoms: N_20  and  C_19 
REMARK       I    between atoms: C_22  and  N_20 
ROOT
ATOM      1  C   LIG d   1      -3.549  90.726 118.650  0.00  0.00     0.161 C 
ATOM      2  C   LIG d   1      -4.550  90.638 117.668  0.00  0.00     0.016 C 
ATOM      3  C   LIG d   1      -5.802  91.287 117.773  0.00  0.00     0.038 C 
ATOM      4  C   LIG d   1      -6.081  92.197 118.804  0.00  0.00     0.028 C 
ATOM      5  C   LIG d   1      -5.292  91.926 120.081  0.00  0.00    -0.047 C 
ATOM      6  C   LIG d   1      -3.793  91.803 119.728  0.00  0.00     0.091 C 
ENDROOT
BRANCH   1   7
ATOM      7  O   LIG d   1      -2.266  90.926 118.023  0.00  0.00    -0.368 OA
BRANCH   7   8
ATOM      8  C   LIG d   1      -1.276  89.894 118.253  0.00  0.00     0.119 C 
BRANCH   8   9
ATOM      9  C   LIG d   1      -0.306  89.907 117.056  0.00  0.00     0.028 C 
ATOM     10  C   LIG d   1       0.962  90.730 117.337  0.00  0.00     0.006 C 
ENDBRANCH   8   9
BRANCH   8  11
ATOM     11  C   LIG d   1      -1.911  88.501 118.245  0.00  0.00     0.028 C 
ATOM     12  C   LIG d   1      -1.656  87.722 119.545  0.00  0.00     0.006 C 
ENDBRANCH   8  11
ENDBRANCH   7   8
ENDBRANCH   1   7
BRANCH   6  13
ATOM     13  N   LIG d   1      -2.959  91.455 120.908  0.00  0.00    -0.311 N 
ATOM     14  C   LIG d   1      -2.332  92.361 121.656  0.00  0.00     0.210 C 
ATOM     15  C   LIG d   1      -1.509  91.787 122.813  0.00  0.00     0.109 C 
ATOM     16  O   LIG d   1      -2.405  93.588 121.490  0.00  0.00    -0.276 OA
ATOM     17  H   LIG d   1      -2.871  90.483 121.133  0.00  0.00     0.149 HD
ENDBRANCH   6  13
BRANCH   5  18
ATOM     18  N   LIG d   1      -5.576  93.026 121.022  0.00  0.00     0.381 N 
ATOM     19  H   LIG d   1      -6.193  93.687 120.593  0.00  0.00    -0.090 HD
ATOM     20  H   LIG d   1      -4.716  93.495 121.243  0.00  0.00    -0.090 HD
ATOM     21  H   LIG d   1      -5.990  92.666 121.853  0.00  0.00    -0.090 HD
ENDBRANCH   5  18
BRANCH   3  22
ATOM     22  C   LIG d   1      -6.805  90.997 116.861  0.00  0.00     0.382 C 
ATOM     23  O   LIG d   1      -6.941  89.827 116.430  0.00  0.00    -0.241 OA
ATOM     24  O   LIG d   1      -7.547  91.900 116.430  0.00  0.00    -0.241 OA
ENDBRANCH   3  22
TORSDOF 7
ENDMDL
MODEL 9
REMARK VINA RESULT:      -3.8      2.533      4.575
REMARK  7 active torsions:
REMARK  status: ('A' for Active; 'I' for Inactive)
REMARK    1  A    between atoms: C_2  and  C_3 
REMARK    2  A    between atoms: C_3  and  O_6 
REMARK    3  A    between atoms: C_3  and  C_4 
REMARK    4  A    between atoms: C_7  and  O_6 
REMARK    5  A    between atoms: C_9  and  C_10 
REMARK    6  A    between atoms: N_15  and  C_14 
REMARK    7  A    between atoms: N_20  and  C_19 
REMARK       I    between atoms: C_22  and  N_20 
ROOT
ATOM      1  C   LIG d   1      -5.122  92.653 119.610  0.00  0.00     0.161 C 
ATOM      2  C   LIG d   1      -6.172  92.185 118.802  0.00  0.00     0.016 C 
ATOM      3  C   LIG d   1      -5.982  91.310 117.708  0.00  0.00     0.038 C 
ATOM      4  C   LIG d   1      -4.738  90.719 117.439  0.00  0.00     0.028 C 
ATOM      5  C   LIG d   1      -3.555  91.553 117.918  0.00  0.00    -0.047 C 
ATOM      6  C   LIG d   1      -3.775  91.932 119.400  0.00  0.00     0.091 C 
ENDROOT
BRANCH   1   7
ATOM      7  O   LIG d   1      -5.511  92.597 120.997  0.00  0.00    -0.368 OA
BRANCH   7   8
ATOM      8  C   LIG d   1      -5.742  93.871 121.646  0.00  0.00     0.119 C 
BRANCH   8   9
ATOM      9  C   LIG d   1      -7.266  94.085 121.718  0.00  0.00     0.028 C 
ATOM     10  C   LIG d   1      -8.023  92.794 122.074  0.00  0.00     0.006 C 
ENDBRANCH   8   9
BRANCH   8  11
ATOM     11  C   LIG d   1      -5.209  95.032 120.801  0.00  0.00     0.028 C 
ATOM     12  C   LIG d   1      -4.093  95.819 121.506  0.00  0.00     0.006 C 
ENDBRANCH   8  11
ENDBRANCH   7   8
ENDBRANCH   1   7
BRANCH   6  13
ATOM     13  N   LIG d   1      -2.703  92.820 119.923  0.00  0.00    -0.311 N 
ATOM     14  C   LIG d   1      -1.947  92.514 120.975  0.00  0.00     0.210 C 
ATOM     15  C   LIG d   1      -0.914  93.578 121.361  0.00  0.00     0.109 C 
ATOM     16  O   LIG d   1      -2.010  91.448 121.607  0.00  0.00    -0.276 OA
ATOM     17  H   LIG d   1      -2.562  93.691 119.451  0.00  0.00     0.149 HD
ENDBRANCH   6  13
BRANCH   5  18
ATOM     18  N   LIG d   1      -2.332  90.759 117.699  0.00  0.00     0.381 N 
ATOM     19  H   LIG d   1      -2.139  90.697 116.719  0.00  0.00    -0.090 HD
ATOM     20  H   LIG d   1      -2.481  89.829 118.050  0.00  0.00    -0.090 HD
ATOM     21  H   LIG d   1      -1.562  91.180 118.171  0.00  0.00    -0.090 HD
ENDBRANCH   5  18
BRANCH   3  22
ATOM     22  C   LIG d   1      -7.036  91.048 116.846  0.00  0.00     0.382 C 
ATOM     23  O   LIG d   1      -7.235  89.880 116.436  0.00  0.00    -0.241 OA
ATOM     24  O   LIG d   1      -7.762  91.974 116.437  0.00  0.00    -0.241 OA
ENDBRANCH   3  22
TORSDOF 7
ENDMDL
