MODEL 1
REMARK VINA RESULT:      -4.5      0.000      0.000
REMARK  7 active torsions:
REMARK  status: ('A' for Active; 'I' for Inactive)
REMARK    1  A    between atoms: C_2  and  C_3 
REMARK    2  A    between atoms: C_3  and  O_6 
REMARK    3  A    between atoms: C_3  and  C_4 
REMARK    4  A    between atoms: C_7  and  O_6 
REMARK    5  A    between atoms: C_9  and  C_10 
REMARK    6  A    between atoms: N_15  and  C_14 
REMARK    7  A    between atoms: N_20  and  C_19 
REMARK       I    between atoms: C_22  and  N_20 
ROOT
ATOM      1  C   LIG d   1      -5.200  93.031 119.477  0.00  0.00     0.161 C 
ATOM      2  C   LIG d   1      -4.146  92.176 119.117  0.00  0.00     0.016 C 
ATOM      3  C   LIG d   1      -4.161  91.367 117.957  0.00  0.00     0.038 C 
ATOM      4  C   LIG d   1      -5.174  91.473 116.993  0.00  0.00     0.028 C 
ATOM      5  C   LIG d   1      -6.505  91.953 117.563  0.00  0.00    -0.047 C 
ATOM      6  C   LIG d   1      -6.265  93.243 118.380  0.00  0.00     0.091 C 
ENDROOT
BRANCH   1   7
ATOM      7  O   LIG d   1      -4.673  94.299 119.915  0.00  0.00    -0.368 OA
BRANCH   7   8
ATOM      8  C   LIG d   1      -4.348  95.249 118.871  0.00  0.00     0.119 C 
BRANCH   8   9
ATOM      9  C   LIG d   1      -2.837  95.538 118.961  0.00  0.00     0.028 C 
ATOM     10  C   LIG d   1      -2.031  94.782 117.891  0.00  0.00     0.006 C 
ENDBRANCH   8   9
BRANCH   8  11
ATOM     11  C   LIG d   1      -5.034  96.598 119.111  0.00  0.00     0.028 C 
ATOM     12  C   LIG d   1      -5.769  96.660 120.459  0.00  0.00     0.006 C 
ENDBRANCH   8  11
ENDBRANCH   7   8
ENDBRANCH   1   7
BRANCH   6  13
ATOM     13  N   LIG d   1      -7.502  93.733 119.042  0.00  0.00    -0.311 N 
ATOM     14  C   LIG d   1      -8.298  94.661 118.514  0.00  0.00     0.210 C 
ATOM     15  C   LIG d   1      -9.511  95.036 119.371  0.00  0.00     0.109 C 
ATOM     16  O   LIG d   1      -8.132  95.185 117.402  0.00  0.00    -0.276 OA
ATOM     17  H   LIG d   1      -7.729  93.338 119.934  0.00  0.00     0.149 HD
ENDBRANCH   6  13
BRANCH   5  18
ATOM     18  N   LIG d   1      -7.430  92.150 116.430  0.00  0.00     0.381 N 
ATOM     19  H   LIG d   1      -6.938  92.554 115.658  0.00  0.00    -0.090 HD
ATOM     20  H   LIG d   1      -8.155  92.786 116.710  0.00  0.00    -0.090 HD
ATOM     21  H   LIG d   1      -7.828  91.278 116.160  0.00  0.00    -0.090 HD
ENDBRANCH   5  18
BRANCH   3  22
ATOM     22  C   LIG d   1      -3.174  90.411 117.773  0.00  0.00     0.382 C 
ATOM     23  O   LIG d   1      -3.284  89.565 116.853  0.00  0.00    -0.241 OA
ATOM     24  O   LIG d   1      -2.196  90.357 118.542  0.00  0.00    -0.241 OA
ENDBRANCH   3  22
TORSDOF 7
ENDMDL
MODEL 2
REMARK VINA RESULT:      -4.4      2.789      6.096
REMARK  7 active torsions:
REMARK  status: ('A' for Active; 'I' for Inactive)
REMARK    1  A    between atoms: C_2  and  C_3 
REMARK    2  A    between atoms: C_3  and  O_6 
REMARK    3  A    between atoms: C_3  and  C_4 
REMARK    4  A    between atoms: C_7  and  O_6 
REMARK    5  A    between atoms: C_9  and  C_10 
REMARK    6  A    between atoms: N_15  and  C_14 
REMARK    7  A    between atoms: N_20  and  C_19 
REMARK       I    between atoms: C_22  and  N_20 
ROOT
ATOM      1  C   LIG d   1      -3.519  91.400 117.995  0.00  0.00     0.161 C 
ATOM      2  C   LIG d   1      -4.794  91.282 117.418  0.00  0.00     0.016 C 
ATOM      3  C   LIG d   1      -5.633  92.389 117.153  0.00  0.00     0.038 C 
ATOM      4  C   LIG d   1      -5.189  93.710 117.308  0.00  0.00     0.028 C 
ATOM      5  C   LIG d   1      -4.096  93.862 118.361  0.00  0.00    -0.047 C 
ATOM      6  C   LIG d   1      -2.973  92.842 118.068  0.00  0.00     0.091 C 
ENDROOT
BRANCH   1   7
ATOM      7  O   LIG d   1      -2.588  90.547 117.300  0.00  0.00    -0.368 OA
BRANCH   7   8
ATOM      8  C   LIG d   1      -2.443  89.203 117.822  0.00  0.00     0.119 C 
BRANCH   8   9
ATOM      9  C   LIG d   1      -2.622  89.278 119.351  0.00  0.00     0.028 C 
ATOM     10  C   LIG d   1      -2.705  87.887 120.001  0.00  0.00     0.006 C 
ENDBRANCH   8   9
BRANCH   8  11
ATOM     11  C   LIG d   1      -1.024  88.670 117.605  0.00  0.00     0.028 C 
ATOM     12  C   LIG d   1      -0.020  89.778 117.245  0.00  0.00     0.006 C 
ENDBRANCH   8  11
ENDBRANCH   7   8
ENDBRANCH   1   7
BRANCH   6  13
ATOM     13  N   LIG d   1      -1.903  92.865 119.100  0.00  0.00    -0.311 N 
ATOM     14  C   LIG d   1      -0.619  93.080 118.820  0.00  0.00     0.210 C 
ATOM     15  C   LIG d   1       0.322  93.043 120.028  0.00  0.00     0.109 C 
ATOM     16  O   LIG d   1      -0.174  93.330 117.689  0.00  0.00    -0.276 OA
ATOM     17  H   LIG d   1      -2.180  92.703 120.048  0.00  0.00     0.149 HD
ENDBRANCH   6  13
BRANCH   5  18
ATOM     18  N   LIG d   1      -3.631  95.261 118.322  0.00  0.00     0.381 N 
ATOM     19  H   LIG d   1      -2.999  95.429 119.078  0.00  0.00    -0.090 HD
ATOM     20  H   LIG d   1      -4.423  95.870 118.431  0.00  0.00    -0.090 HD
ATOM     21  H   LIG d   1      -3.178  95.446 117.454  0.00  0.00    -0.090 HD
ENDBRANCH   5  18
BRANCH   3  22
ATOM     22  C   LIG d   1      -6.947  92.177 116.764  0.00  0.00     0.382 C 
ATOM     23  O   LIG d   1      -7.671  93.150 116.443  0.00  0.00    -0.241 OA
ATOM     24  O   LIG d   1      -7.431  91.029 116.772  0.00  0.00    -0.241 OA
ENDBRANCH   3  22
TORSDOF 7
ENDMDL
MODEL 3
REMARK VINA RESULT:      -4.4      1.839      4.994
REMARK  7 active torsions:
REMARK  status: ('A' for Active; 'I' for Inactive)
REMARK    1  A    between atoms: C_2  and  C_3 
REMARK    2  A    between atoms: C_3  and  O_6 
REMARK    3  A    between atoms: C_3  and  C_4 
REMARK    4  A    between atoms: C_7  and  O_6 
REMARK    5  A    between atoms: C_9  and  C_10 
REMARK    6  A    between atoms: N_15  and  C_14 
REMARK    7  A    between atoms: N_20  and  C_19 
REMARK       I    between atoms: C_22  and  N_20 
ROOT
ATOM      1  C   LIG d   1      -4.462  93.564 117.982  0.00  0.00     0.161 C 
ATOM      2  C   LIG d   1      -5.432  94.577 118.042  0.00  0.00     0.016 C 
ATOM      3  C   LIG d   1      -6.767  94.404 117.607  0.00  0.00     0.038 C 
ATOM      4  C   LIG d   1      -7.263  93.151 117.219  0.00  0.00     0.028 C 
ATOM      5  C   LIG d   1      -6.190  92.219 116.665  0.00  0.00    -0.047 C 
ATOM      6  C   LIG d   1      -5.013  92.158 117.665  0.00  0.00     0.091 C 
ENDROOT
BRANCH   1   7
ATOM      7  O   LIG d   1      -3.703  93.540 119.207  0.00  0.00    -0.368 OA
BRANCH   7   8
ATOM      8  C   LIG d   1      -2.281  93.791 119.081  0.00  0.00     0.119 C 
BRANCH   8   9
ATOM      9  C   LIG d   1      -1.926  94.939 120.046  0.00  0.00     0.028 C 
ATOM     10  C   LIG d   1      -2.308  96.318 119.483  0.00  0.00     0.006 C 
ENDBRANCH   8   9
BRANCH   8  11
ATOM     11  C   LIG d   1      -1.929  94.311 117.684  0.00  0.00     0.028 C 
ATOM     12  C   LIG d   1      -0.534  93.865 117.217  0.00  0.00     0.006 C 
ENDBRANCH   8  11
ENDBRANCH   7   8
ENDBRANCH   1   7
BRANCH   6  13
ATOM     13  N   LIG d   1      -3.883  91.334 117.162  0.00  0.00    -0.311 N 
ATOM     14  C   LIG d   1      -3.298  90.377 117.878  0.00  0.00     0.210 C 
ATOM     15  C   LIG d   1      -2.138  89.662 117.177  0.00  0.00     0.109 C 
ATOM     16  O   LIG d   1      -3.649  90.030 119.016  0.00  0.00    -0.276 OA
ATOM     17  H   LIG d   1      -3.555  91.528 116.236  0.00  0.00     0.149 HD
ENDBRANCH   6  13
BRANCH   5  18
ATOM     18  N   LIG d   1      -6.819  90.906 116.430  0.00  0.00     0.381 N 
ATOM     19  H   LIG d   1      -6.313  90.410 115.724  0.00  0.00    -0.090 HD
ATOM     20  H   LIG d   1      -7.758  91.048 116.104  0.00  0.00    -0.090 HD
ATOM     21  H   LIG d   1      -6.829  90.377 117.275  0.00  0.00    -0.090 HD
ENDBRANCH   5  18
BRANCH   3  22
ATOM     22  C   LIG d   1      -7.609  95.502 117.519  0.00  0.00     0.382 C 
ATOM     23  O   LIG d   1      -8.853  95.338 117.499  0.00  0.00    -0.241 OA
ATOM     24  O   LIG d   1      -7.140  96.651 117.415  0.00  0.00    -0.241 OA
ENDBRANCH   3  22
TORSDOF 7
ENDMDL
MODEL 4
REMARK VINA RESULT:      -4.3      2.085      4.770
REMARK  7 active torsions:
REMARK  status: ('A' for Active; 'I' for Inactive)
REMARK    1  A    between atoms: C_2  and  C_3 
REMARK    2  A    between atoms: C_3  and  O_6 
REMARK    3  A    between atoms: C_3  and  C_4 
REMARK    4  A    between atoms: C_7  and  O_6 
REMARK    5  A    between atoms: C_9  and  C_10 
REMARK    6  A    between atoms: N_15  and  C_14 
REMARK    7  A    between atoms: N_20  and  C_19 
REMARK       I    between atoms: C_22  and  N_20 
ROOT
ATOM      1  C   LIG d   1      -4.636  94.867 118.411  0.00  0.00     0.161 C 
ATOM      2  C   LIG d   1      -6.031  95.009 118.495  0.00  0.00     0.016 C 
ATOM      3  C   LIG d   1      -6.942  94.035 118.027  0.00  0.00     0.038 C 
ATOM      4  C   LIG d   1      -6.516  92.777 117.577  0.00  0.00     0.028 C 
ATOM      5  C   LIG d   1      -5.103  92.785 117.005  0.00  0.00    -0.047 C 
ATOM      6  C   LIG d   1      -4.152  93.453 118.025  0.00  0.00     0.091 C 
ENDROOT
BRANCH   1   7
ATOM      7  O   LIG d   1      -4.026  95.283 119.649  0.00  0.00    -0.368 OA
BRANCH   7   8
ATOM      8  C   LIG d   1      -3.409  96.594 119.645  0.00  0.00     0.119 C 
BRANCH   8   9
ATOM      9  C   LIG d   1      -1.886  96.389 119.754  0.00  0.00     0.028 C 
ATOM     10  C   LIG d   1      -1.500  95.468 120.925  0.00  0.00     0.006 C 
ENDBRANCH   8   9
BRANCH   8  11
ATOM     11  C   LIG d   1      -3.800  97.397 120.889  0.00  0.00     0.028 C 
ATOM     12  C   LIG d   1      -4.975  96.772 121.658  0.00  0.00     0.006 C 
ENDBRANCH   8  11
ENDBRANCH   7   8
ENDBRANCH   1   7
BRANCH   6  13
ATOM     13  N   LIG d   1      -2.764  93.577 117.509  0.00  0.00    -0.311 N 
ATOM     14  C   LIG d   1      -1.704  93.053 118.122  0.00  0.00     0.210 C 
ATOM     15  C   LIG d   1      -0.362  93.316 117.432  0.00  0.00     0.109 C 
ATOM     16  O   LIG d   1      -1.752  92.369 119.155  0.00  0.00    -0.276 OA
ATOM     17  H   LIG d   1      -2.638  94.091 116.658  0.00  0.00     0.149 HD
ENDBRANCH   6  13
BRANCH   5  18
ATOM     18  N   LIG d   1      -4.736  91.388 116.702  0.00  0.00     0.381 N 
ATOM     19  H   LIG d   1      -5.563  90.829 116.630  0.00  0.00    -0.090 HD
ATOM     20  H   LIG d   1      -4.177  91.028 117.456  0.00  0.00    -0.090 HD
ATOM     21  H   LIG d   1      -4.223  91.347 115.849  0.00  0.00    -0.090 HD
ENDBRANCH   5  18
BRANCH   3  22
ATOM     22  C   LIG d   1      -8.295  94.332 117.969  0.00  0.00     0.382 C 
ATOM     23  O   LIG d   1      -8.958  94.449 119.028  0.00  0.00    -0.241 OA
ATOM     24  O   LIG d   1      -8.872  94.441 116.870  0.00  0.00    -0.241 OA
ENDBRANCH   3  22
TORSDOF 7
ENDMDL
MODEL 5
REMARK VINA RESULT:      -4.3      2.155      5.065
REMARK  7 active torsions:
REMARK  status: ('A' for Active; 'I' for Inactive)
REMARK    1  A    between atoms: C_2  and  C_3 
REMARK    2  A    between atoms: C_3  and  O_6 
REMARK    3  A    between atoms: C_3  and  C_4 
REMARK    4  A    between atoms: C_7  and  O_6 
REMARK    5  A    between atoms: C_9  and  C_10 
REMARK    6  A    between atoms: N_15  and  C_14 
REMARK    7  A    between atoms: N_20  and  C_19 
REMARK       I    between atoms: C_22  and  N_20 
ROOT
ATOM      1  C   LIG d   1      -4.673  94.812 118.527  0.00  0.00     0.161 C 
ATOM      2  C   LIG d   1      -6.073  94.928 118.555  0.00  0.00     0.016 C 
ATOM      3  C   LIG d   1      -6.945  93.952 118.022  0.00  0.00     0.038 C 
ATOM      4  C   LIG d   1      -6.477  92.714 117.556  0.00  0.00     0.028 C 
ATOM      5  C   LIG d   1      -5.041  92.764 117.045  0.00  0.00    -0.047 C 
ATOM      6  C   LIG d   1      -4.147  93.419 118.123  0.00  0.00     0.091 C 
ENDROOT
BRANCH   1   7
ATOM      7  O   LIG d   1      -4.125  95.205 119.801  0.00  0.00    -0.368 OA
BRANCH   7   8
ATOM      8  C   LIG d   1      -3.941  94.143 120.770  0.00  0.00     0.119 C 
BRANCH   8   9
ATOM      9  C   LIG d   1      -4.950  94.377 121.910  0.00  0.00     0.028 C 
ATOM     10  C   LIG d   1      -6.086  93.340 121.910  0.00  0.00     0.006 C 
ENDBRANCH   8   9
BRANCH   8  11
ATOM     11  C   LIG d   1      -2.560  94.222 121.428  0.00  0.00     0.028 C 
ATOM     12  C   LIG d   1      -1.648  95.273 120.774  0.00  0.00     0.006 C 
ENDBRANCH   8  11
ENDBRANCH   7   8
ENDBRANCH   1   7
BRANCH   6  13
ATOM     13  N   LIG d   1      -2.741  93.583 117.671  0.00  0.00    -0.311 N 
ATOM     14  C   LIG d   1      -1.756  92.759 118.025  0.00  0.00     0.210 C 
ATOM     15  C   LIG d   1      -0.378  93.120 117.463  0.00  0.00     0.109 C 
ATOM     16  O   LIG d   1      -1.900  91.745 118.724  0.00  0.00    -0.276 OA
ATOM     17  H   LIG d   1      -2.541  94.362 117.075  0.00  0.00     0.149 HD
ENDBRANCH   6  13
BRANCH   5  18
ATOM     18  N   LIG d   1      -4.636  91.383 116.720  0.00  0.00     0.381 N 
ATOM     19  H   LIG d   1      -3.691  91.376 116.391  0.00  0.00    -0.090 HD
ATOM     20  H   LIG d   1      -5.228  91.035 115.987  0.00  0.00    -0.090 HD
ATOM     21  H   LIG d   1      -4.718  90.804 117.527  0.00  0.00    -0.090 HD
ENDBRANCH   5  18
BRANCH   3  22
ATOM     22  C   LIG d   1      -8.300  94.226 117.914  0.00  0.00     0.382 C 
ATOM     23  O   LIG d   1      -8.827  94.349 116.782  0.00  0.00    -0.241 OA
ATOM     24  O   LIG d   1      -8.993  94.396 118.935  0.00  0.00    -0.241 OA
ENDBRANCH   3  22
TORSDOF 7
ENDMDL
MODEL 6
REMARK VINA RESULT:      -4.2      2.147      5.060
REMARK  7 active torsions:
REMARK  status: ('A' for Active; 'I' for Inactive)
REMARK    1  A    between atoms: C_2  and  C_3 
REMARK    2  A    between atoms: C_3  and  O_6 
REMARK    3  A    between atoms: C_3  and  C_4 
REMARK    4  A    between atoms: C_7  and  O_6 
REMARK    5  A    between atoms: C_9  and  C_10 
REMARK    6  A    between atoms: N_15  and  C_14 
REMARK    7  A    between atoms: N_20  and  C_19 
REMARK       I    between atoms: C_22  and  N_20 
ROOT
ATOM      1  C   LIG d   1      -4.679  94.892 118.405  0.00  0.00     0.161 C 
ATOM      2  C   LIG d   1      -6.073  95.036 118.502  0.00  0.00     0.016 C 
ATOM      3  C   LIG d   1      -6.990  94.068 118.031  0.00  0.00     0.038 C 
ATOM      4  C   LIG d   1      -6.570  92.814 117.563  0.00  0.00     0.028 C 
ATOM      5  C   LIG d   1      -5.161  92.827 116.979  0.00  0.00    -0.047 C 
ATOM      6  C   LIG d   1      -4.201  93.482 117.998  0.00  0.00     0.091 C 
ENDROOT
BRANCH   1   7
ATOM      7  O   LIG d   1      -4.059  95.294 119.642  0.00  0.00    -0.368 OA
BRANCH   7   8
ATOM      8  C   LIG d   1      -4.873  95.169 120.834  0.00  0.00     0.119 C 
BRANCH   8   9
ATOM      9  C   LIG d   1      -4.598  96.403 121.714  0.00  0.00     0.028 C 
ATOM     10  C   LIG d   1      -5.742  97.429 121.661  0.00  0.00     0.006 C 
ENDBRANCH   8   9
BRANCH   8  11
ATOM     11  C   LIG d   1      -4.444  93.965 121.677  0.00  0.00     0.028 C 
ATOM     12  C   LIG d   1      -5.467  92.818 121.642  0.00  0.00     0.006 C 
ENDBRANCH   8  11
ENDBRANCH   7   8
ENDBRANCH   1   7
BRANCH   6  13
ATOM     13  N   LIG d   1      -2.818  93.611 117.472  0.00  0.00    -0.311 N 
ATOM     14  C   LIG d   1      -1.740  93.189 118.131  0.00  0.00     0.210 C 
ATOM     15  C   LIG d   1      -0.407  93.436 117.418  0.00  0.00     0.109 C 
ATOM     16  O   LIG d   1      -1.764  92.604 119.225  0.00  0.00    -0.276 OA
ATOM     17  H   LIG d   1      -2.709  94.046 116.577  0.00  0.00     0.149 HD
ENDBRANCH   6  13
BRANCH   5  18
ATOM     18  N   LIG d   1      -4.800  91.433 116.658  0.00  0.00     0.381 N 
ATOM     19  H   LIG d   1      -4.208  91.063 117.375  0.00  0.00    -0.090 HD
ATOM     20  H   LIG d   1      -4.291  91.421 115.792  0.00  0.00    -0.090 HD
ATOM     21  H   LIG d   1      -5.622  90.878 116.576  0.00  0.00    -0.090 HD
ENDBRANCH   5  18
BRANCH   3  22
ATOM     22  C   LIG d   1      -8.344  94.367 117.988  0.00  0.00     0.382 C 
ATOM     23  O   LIG d   1      -8.997  94.468 119.054  0.00  0.00    -0.241 OA
ATOM     24  O   LIG d   1      -8.928  94.494 116.896  0.00  0.00    -0.241 OA
ENDBRANCH   3  22
TORSDOF 7
ENDMDL
MODEL 7
REMARK VINA RESULT:      -3.9      4.395      7.131
REMARK  7 active torsions:
REMARK  status: ('A' for Active; 'I' for Inactive)
REMARK    1  A    between atoms: C_2  and  C_3 
REMARK    2  A    between atoms: C_3  and  O_6 
REMARK    3  A    between atoms: C_3  and  C_4 
REMARK    4  A    between atoms: C_7  and  O_6 
REMARK    5  A    between atoms: C_9  and  C_10 
REMARK    6  A    between atoms: N_15  and  C_14 
REMARK    7  A    between atoms: N_20  and  C_19 
REMARK       I    between atoms: C_22  and  N_20 
ROOT
ATOM      1  C   LIG d   1      -0.144  90.008 117.793  0.00  0.00     0.161 C 
ATOM      2  C   LIG d   1       1.246  90.051 117.593  0.00  0.00     0.016 C 
ATOM      3  C   LIG d   1       1.946  91.229 117.248  0.00  0.00     0.038 C 
ATOM      4  C   LIG d   1       1.321  92.485 117.228  0.00  0.00     0.028 C 
ATOM      5  C   LIG d   1      -0.173  92.412 116.928  0.00  0.00    -0.047 C 
ATOM      6  C   LIG d   1      -0.827  91.388 117.884  0.00  0.00     0.091 C 
ENDROOT
BRANCH   1   7
ATOM      7  O   LIG d   1      -0.446  89.221 118.962  0.00  0.00    -0.368 OA
BRANCH   7   8
ATOM      8  C   LIG d   1      -1.219  88.017 118.739  0.00  0.00     0.119 C 
BRANCH   8   9
ATOM      9  C   LIG d   1      -2.519  88.143 119.557  0.00  0.00     0.028 C 
ATOM     10  C   LIG d   1      -2.406  89.186 120.681  0.00  0.00     0.006 C 
ENDBRANCH   8   9
BRANCH   8  11
ATOM     11  C   LIG d   1      -0.506  86.784 119.300  0.00  0.00     0.028 C 
ATOM     12  C   LIG d   1      -1.481  85.701 119.786  0.00  0.00     0.006 C 
ENDBRANCH   8  11
ENDBRANCH   7   8
ENDBRANCH   1   7
BRANCH   6  13
ATOM     13  N   LIG d   1      -2.273  91.194 117.602  0.00  0.00    -0.311 N 
ATOM     14  C   LIG d   1      -3.239  91.854 118.238  0.00  0.00     0.210 C 
ATOM     15  C   LIG d   1      -4.664  91.489 117.809  0.00  0.00     0.109 C 
ATOM     16  O   LIG d   1      -3.051  92.731 119.094  0.00  0.00    -0.276 OA
ATOM     17  H   LIG d   1      -2.515  90.523 116.899  0.00  0.00     0.149 HD
ENDBRANCH   6  13
BRANCH   5  18
ATOM     18  N   LIG d   1      -0.723  93.773 117.074  0.00  0.00     0.381 N 
ATOM     19  H   LIG d   1      -0.715  94.040 118.038  0.00  0.00    -0.090 HD
ATOM     20  H   LIG d   1      -1.676  93.774 116.755  0.00  0.00    -0.090 HD
ATOM     21  H   LIG d   1      -0.185  94.418 116.538  0.00  0.00    -0.090 HD
ENDBRANCH   5  18
BRANCH   3  22
ATOM     22  C   LIG d   1       3.281  91.153 116.880  0.00  0.00     0.382 C 
ATOM     23  O   LIG d   1       3.887  92.184 116.500  0.00  0.00    -0.241 OA
ATOM     24  O   LIG d   1       3.875  90.058 116.881  0.00  0.00    -0.241 OA
ENDBRANCH   3  22
TORSDOF 7
ENDMDL
MODEL 8
REMARK VINA RESULT:      -3.9      2.531      5.432
REMARK  7 active torsions:
REMARK  status: ('A' for Active; 'I' for Inactive)
REMARK    1  A    between atoms: C_2  and  C_3 
REMARK    2  A    between atoms: C_3  and  O_6 
REMARK    3  A    between atoms: C_3  and  C_4 
REMARK    4  A    between atoms: C_7  and  O_6 
REMARK    5  A    between atoms: C_9  and  C_10 
REMARK    6  A    between atoms: N_15  and  C_14 
REMARK    7  A    between atoms: N_20  and  C_19 
REMARK       I    between atoms: C_22  and  N_20 
ROOT
ATOM      1  C   LIG d   1      -4.209  92.362 119.071  0.00  0.00     0.161 C 
ATOM      2  C   LIG d   1      -5.324  92.074 118.267  0.00  0.00     0.016 C 
ATOM      3  C   LIG d   1      -6.115  93.070 117.648  0.00  0.00     0.038 C 
ATOM      4  C   LIG d   1      -5.751  94.425 117.668  0.00  0.00     0.028 C 
ATOM      5  C   LIG d   1      -4.918  94.810 118.886  0.00  0.00    -0.047 C 
ATOM      6  C   LIG d   1      -3.731  93.828 119.014  0.00  0.00     0.091 C 
ENDROOT
BRANCH   1   7
ATOM      7  O   LIG d   1      -3.126  91.469 118.743  0.00  0.00    -0.368 OA
BRANCH   7   8
ATOM      8  C   LIG d   1      -2.821  90.449 119.725  0.00  0.00     0.119 C 
BRANCH   8   9
ATOM      9  C   LIG d   1      -1.426  90.762 120.299  0.00  0.00     0.028 C 
ATOM     10  C   LIG d   1      -1.455  90.994 121.819  0.00  0.00     0.006 C 
ENDBRANCH   8   9
BRANCH   8  11
ATOM     11  C   LIG d   1      -2.691  89.069 119.074  0.00  0.00     0.028 C 
ATOM     12  C   LIG d   1      -2.421  89.146 117.563  0.00  0.00     0.006 C 
ENDBRANCH   8  11
ENDBRANCH   7   8
ENDBRANCH   1   7
BRANCH   6  13
ATOM     13  N   LIG d   1      -2.913  94.082 120.228  0.00  0.00    -0.311 N 
ATOM     14  C   LIG d   1      -1.797  94.808 120.222  0.00  0.00     0.210 C 
ATOM     15  C   LIG d   1      -1.096  94.930 121.578  0.00  0.00     0.109 C 
ATOM     16  O   LIG d   1      -1.337  95.390 119.227  0.00  0.00    -0.276 OA
ATOM     17  H   LIG d   1      -3.230  93.673 121.086  0.00  0.00     0.149 HD
ENDBRANCH   6  13
BRANCH   5  18
ATOM     18  N   LIG d   1      -4.493  96.211 118.710  0.00  0.00     0.381 N 
ATOM     19  H   LIG d   1      -3.808  96.269 117.983  0.00  0.00    -0.090 HD
ATOM     20  H   LIG d   1      -4.073  96.533 119.565  0.00  0.00    -0.090 HD
ATOM     21  H   LIG d   1      -5.279  96.780 118.483  0.00  0.00    -0.090 HD
ENDBRANCH   5  18
BRANCH   3  22
ATOM     22  C   LIG d   1      -7.306  92.717 117.032  0.00  0.00     0.382 C 
ATOM     23  O   LIG d   1      -7.629  91.509 116.938  0.00  0.00    -0.241 OA
ATOM     24  O   LIG d   1      -8.040  93.589 116.531  0.00  0.00    -0.241 OA
ENDBRANCH   3  22
TORSDOF 7
ENDMDL
MODEL 9
REMARK VINA RESULT:      -3.8      4.684      6.729
REMARK  7 active torsions:
REMARK  status: ('A' for Active; 'I' for Inactive)
REMARK    1  A    between atoms: C_2  and  C_3 
REMARK    2  A    between atoms: C_3  and  O_6 
REMARK    3  A    between atoms: C_3  and  C_4 
REMARK    4  A    between atoms: C_7  and  O_6 
REMARK    5  A    between atoms: C_9  and  C_10 
REMARK    6  A    between atoms: N_15  and  C_14 
REMARK    7  A    between atoms: N_20  and  C_19 
REMARK       I    between atoms: C_22  and  N_20 
ROOT
ATOM      1  C   LIG d   1       0.364  91.176 119.515  0.00  0.00     0.161 C 
ATOM      2  C   LIG d   1       1.504  91.862 119.064  0.00  0.00     0.016 C 
ATOM      3  C   LIG d   1       2.203  91.519 117.883  0.00  0.00     0.038 C 
ATOM      4  C   LIG d   1       1.716  90.555 116.987  0.00  0.00     0.028 C 
ATOM      5  C   LIG d   1       0.847  89.494 117.653  0.00  0.00    -0.047 C 
ATOM      6  C   LIG d   1      -0.246  90.194 118.493  0.00  0.00     0.091 C 
ENDROOT
BRANCH   1   7
ATOM      7  O   LIG d   1      -0.631  92.121 119.957  0.00  0.00    -0.368 OA
BRANCH   7   8
ATOM      8  C   LIG d   1      -0.505  93.468 119.440  0.00  0.00     0.119 C 
BRANCH   8   9
ATOM      9  C   LIG d   1      -1.025  94.431 120.525  0.00  0.00     0.028 C 
ATOM     10  C   LIG d   1      -2.492  94.834 120.298  0.00  0.00     0.006 C 
ENDBRANCH   8   9
BRANCH   8  11
ATOM     11  C   LIG d   1      -1.419  93.689 118.231  0.00  0.00     0.028 C 
ATOM     12  C   LIG d   1      -0.646  94.084 116.963  0.00  0.00     0.006 C 
ENDBRANCH   8  11
ENDBRANCH   7   8
ENDBRANCH   1   7
BRANCH   6  13
ATOM     13  N   LIG d   1      -1.089  89.228 119.245  0.00  0.00    -0.311 N 
ATOM     14  C   LIG d   1      -2.250  88.760 118.792  0.00  0.00     0.210 C 
ATOM     15  C   LIG d   1      -2.968  87.790 119.735  0.00  0.00     0.109 C 
ATOM     16  O   LIG d   1      -2.738  89.032 117.685  0.00  0.00    -0.276 OA
ATOM     17  H   LIG d   1      -0.753  88.931 120.140  0.00  0.00     0.149 HD
ENDBRANCH   6  13
BRANCH   5  18
ATOM     18  N   LIG d   1       0.296  88.636 116.587  0.00  0.00     0.381 N 
ATOM     19  H   LIG d   1       0.205  89.163 115.742  0.00  0.00    -0.090 HD
ATOM     20  H   LIG d   1      -0.618  88.322 116.863  0.00  0.00    -0.090 HD
ATOM     21  H   LIG d   1       0.893  87.853 116.437  0.00  0.00    -0.090 HD
ENDBRANCH   5  18
BRANCH   3  22
ATOM     22  C   LIG d   1       3.424  92.116 117.609  0.00  0.00     0.382 C 
ATOM     23  O   LIG d   1       4.138  92.543 118.548  0.00  0.00    -0.241 OA
ATOM     24  O   LIG d   1       3.800  92.272 116.432  0.00  0.00    -0.241 OA
ENDBRANCH   3  22
TORSDOF 7
ENDMDL
