MODEL 1
REMARK VINA RESULT:      -5.1      0.000      0.000
REMARK  7 active torsions:
REMARK  status: ('A' for Active; 'I' for Inactive)
REMARK    1  A    between atoms: C_2  and  C_3 
REMARK    2  A    between atoms: C_3  and  O_6 
REMARK    3  A    between atoms: C_3  and  C_4 
REMARK    4  A    between atoms: C_7  and  O_6 
REMARK    5  A    between atoms: C_9  and  C_10 
REMARK    6  A    between atoms: N_15  and  C_14 
REMARK    7  A    between atoms: N_20  and  C_19 
REMARK       I    between atoms: C_22  and  N_20 
ROOT
ATOM      1  C   LIG d   1      -5.720  92.241 119.776  0.00  0.00     0.161 C 
ATOM      2  C   LIG d   1      -4.653  91.562 119.164  0.00  0.00     0.016 C 
ATOM      3  C   LIG d   1      -4.690  91.097 117.830  0.00  0.00     0.038 C 
ATOM      4  C   LIG d   1      -5.746  91.415 116.962  0.00  0.00     0.028 C 
ATOM      5  C   LIG d   1      -7.067  91.665 117.682  0.00  0.00    -0.047 C 
ATOM      6  C   LIG d   1      -6.836  92.695 118.812  0.00  0.00     0.091 C 
ENDROOT
BRANCH   1   7
ATOM      7  O   LIG d   1      -5.219  93.366 120.525  0.00  0.00    -0.368 OA
BRANCH   7   8
ATOM      8  C   LIG d   1      -4.694  94.468 119.746  0.00  0.00     0.119 C 
BRANCH   8   9
ATOM      9  C   LIG d   1      -3.276  94.771 120.267  0.00  0.00     0.028 C 
ATOM     10  C   LIG d   1      -2.183  94.360 119.267  0.00  0.00     0.006 C 
ENDBRANCH   8   9
BRANCH   8  11
ATOM     11  C   LIG d   1      -5.496  95.751 119.985  0.00  0.00     0.028 C 
ATOM     12  C   LIG d   1      -4.844  96.989 119.350  0.00  0.00     0.006 C 
ENDBRANCH   8  11
ENDBRANCH   7   8
ENDBRANCH   1   7
BRANCH   6  13
ATOM     13  N   LIG d   1      -8.060  92.933 119.620  0.00  0.00    -0.311 N 
ATOM     14  C   LIG d   1      -8.879  93.965 119.424  0.00  0.00     0.210 C 
ATOM     15  C   LIG d   1     -10.073  94.034 120.382  0.00  0.00     0.109 C 
ATOM     16  O   LIG d   1      -8.747  94.812 118.528  0.00  0.00    -0.276 OA
ATOM     17  H   LIG d   1      -8.260  92.276 120.349  0.00  0.00     0.149 HD
ENDBRANCH   6  13
BRANCH   5  18
ATOM     18  N   LIG d   1      -8.044  92.119 116.675  0.00  0.00     0.381 N 
ATOM     19  H   LIG d   1      -8.973  91.967 117.012  0.00  0.00    -0.090 HD
ATOM     20  H   LIG d   1      -7.920  91.581 115.836  0.00  0.00    -0.090 HD
ATOM     21  H   LIG d   1      -7.908  93.087 116.481  0.00  0.00    -0.090 HD
ENDBRANCH   5  18
BRANCH   3  22
ATOM     22  C   LIG d   1      -3.679  90.271 117.362  0.00  0.00     0.382 C 
ATOM     23  O   LIG d   1      -2.526  90.355 117.848  0.00  0.00    -0.241 OA
ATOM     24  O   LIG d   1      -3.896  89.474 116.430  0.00  0.00    -0.241 OA
ENDBRANCH   3  22
TORSDOF 7
ENDMDL
MODEL 2
REMARK VINA RESULT:      -5.1      0.991      1.528
REMARK  7 active torsions:
REMARK  status: ('A' for Active; 'I' for Inactive)
REMARK    1  A    between atoms: C_2  and  C_3 
REMARK    2  A    between atoms: C_3  and  O_6 
REMARK    3  A    between atoms: C_3  and  C_4 
REMARK    4  A    between atoms: C_7  and  O_6 
REMARK    5  A    between atoms: C_9  and  C_10 
REMARK    6  A    between atoms: N_15  and  C_14 
REMARK    7  A    between atoms: N_20  and  C_19 
REMARK       I    between atoms: C_22  and  N_20 
ROOT
ATOM      1  C   LIG d   1      -5.708  92.350 119.445  0.00  0.00     0.161 C 
ATOM      2  C   LIG d   1      -4.623  91.663 118.875  0.00  0.00     0.016 C 
ATOM      3  C   LIG d   1      -4.674  91.048 117.603  0.00  0.00     0.038 C 
ATOM      4  C   LIG d   1      -5.772  91.209 116.745  0.00  0.00     0.028 C 
ATOM      5  C   LIG d   1      -7.083  91.468 117.480  0.00  0.00    -0.047 C 
ATOM      6  C   LIG d   1      -6.877  92.631 118.478  0.00  0.00     0.091 C 
ENDROOT
BRANCH   1   7
ATOM      7  O   LIG d   1      -5.248  93.577 120.045  0.00  0.00    -0.368 OA
BRANCH   7   8
ATOM      8  C   LIG d   1      -3.851  93.614 120.429  0.00  0.00     0.119 C 
BRANCH   8   9
ATOM      9  C   LIG d   1      -3.796  93.715 121.966  0.00  0.00     0.028 C 
ATOM     10  C   LIG d   1      -3.733  92.335 122.642  0.00  0.00     0.006 C 
ENDBRANCH   8   9
BRANCH   8  11
ATOM     11  C   LIG d   1      -3.166  94.883 119.915  0.00  0.00     0.028 C 
ATOM     12  C   LIG d   1      -1.824  94.597 119.222  0.00  0.00     0.006 C 
ENDBRANCH   8  11
ENDBRANCH   7   8
ENDBRANCH   1   7
BRANCH   6  13
ATOM     13  N   LIG d   1      -8.087  92.895 119.299  0.00  0.00    -0.311 N 
ATOM     14  C   LIG d   1      -8.735  94.058 119.297  0.00  0.00     0.210 C 
ATOM     15  C   LIG d   1      -9.947  94.125 120.231  0.00  0.00     0.109 C 
ATOM     16  O   LIG d   1      -8.441  95.030 118.585  0.00  0.00    -0.276 OA
ATOM     17  H   LIG d   1      -8.413  92.149 119.882  0.00  0.00     0.149 HD
ENDBRANCH   6  13
BRANCH   5  18
ATOM     18  N   LIG d   1      -8.115  91.753 116.465  0.00  0.00     0.381 N 
ATOM     19  H   LIG d   1      -9.005  91.864 116.909  0.00  0.00    -0.090 HD
ATOM     20  H   LIG d   1      -8.172  90.975 115.832  0.00  0.00    -0.090 HD
ATOM     21  H   LIG d   1      -7.880  92.582 115.964  0.00  0.00    -0.090 HD
ENDBRANCH   5  18
BRANCH   3  22
ATOM     22  C   LIG d   1      -3.634  90.228 117.194  0.00  0.00     0.382 C 
ATOM     23  O   LIG d   1      -2.459  90.477 117.557  0.00  0.00    -0.241 OA
ATOM     24  O   LIG d   1      -3.848  89.267 116.430  0.00  0.00    -0.241 OA
ENDBRANCH   3  22
TORSDOF 7
ENDMDL
MODEL 3
REMARK VINA RESULT:      -4.9      2.133      3.149
REMARK  7 active torsions:
REMARK  status: ('A' for Active; 'I' for Inactive)
REMARK    1  A    between atoms: C_2  and  C_3 
REMARK    2  A    between atoms: C_3  and  O_6 
REMARK    3  A    between atoms: C_3  and  C_4 
REMARK    4  A    between atoms: C_7  and  O_6 
REMARK    5  A    between atoms: C_9  and  C_10 
REMARK    6  A    between atoms: N_15  and  C_14 
REMARK    7  A    between atoms: N_20  and  C_19 
REMARK       I    between atoms: C_22  and  N_20 
ROOT
ATOM      1  C   LIG d   1      -5.837  93.100 119.872  0.00  0.00     0.161 C 
ATOM      2  C   LIG d   1      -5.818  92.061 118.927  0.00  0.00     0.016 C 
ATOM      3  C   LIG d   1      -6.748  91.956 117.867  0.00  0.00     0.038 C 
ATOM      4  C   LIG d   1      -7.674  92.973 117.589  0.00  0.00     0.028 C 
ATOM      5  C   LIG d   1      -8.058  93.794 118.816  0.00  0.00    -0.047 C 
ATOM      6  C   LIG d   1      -6.770  94.278 119.520  0.00  0.00     0.091 C 
ENDROOT
BRANCH   1   7
ATOM      7  O   LIG d   1      -4.496  93.575 120.102  0.00  0.00    -0.368 OA
BRANCH   7   8
ATOM      8  C   LIG d   1      -3.426  92.682 119.705  0.00  0.00     0.119 C 
BRANCH   8   9
ATOM      9  C   LIG d   1      -2.804  92.104 120.990  0.00  0.00     0.028 C 
ATOM     10  C   LIG d   1      -2.998  90.582 121.103  0.00  0.00     0.006 C 
ENDBRANCH   8   9
BRANCH   8  11
ATOM     11  C   LIG d   1      -2.292  93.445 119.013  0.00  0.00     0.028 C 
ATOM     12  C   LIG d   1      -1.699  92.677 117.821  0.00  0.00     0.006 C 
ENDBRANCH   8  11
ENDBRANCH   7   8
ENDBRANCH   1   7
BRANCH   6  13
ATOM     13  N   LIG d   1      -7.055  95.018 120.777  0.00  0.00    -0.311 N 
ATOM     14  C   LIG d   1      -7.160  96.344 120.839  0.00  0.00     0.210 C 
ATOM     15  C   LIG d   1      -7.437  96.906 122.237  0.00  0.00     0.109 C 
ATOM     16  O   LIG d   1      -7.083  97.106 119.864  0.00  0.00    -0.276 OA
ATOM     17  H   LIG d   1      -7.163  94.475 121.611  0.00  0.00     0.149 HD
ENDBRANCH   6  13
BRANCH   5  18
ATOM     18  N   LIG d   1      -8.919  94.901 118.360  0.00  0.00     0.381 N 
ATOM     19  H   LIG d   1      -8.355  95.630 117.970  0.00  0.00    -0.090 HD
ATOM     20  H   LIG d   1      -9.415  95.275 119.150  0.00  0.00    -0.090 HD
ATOM     21  H   LIG d   1      -9.566  94.571 117.678  0.00  0.00    -0.090 HD
ENDBRANCH   5  18
BRANCH   3  22
ATOM     22  C   LIG d   1      -6.784  90.805 117.095  0.00  0.00     0.382 C 
ATOM     23  O   LIG d   1      -5.731  90.367 116.573  0.00  0.00    -0.241 OA
ATOM     24  O   LIG d   1      -7.864  90.223 116.879  0.00  0.00    -0.241 OA
ENDBRANCH   3  22
TORSDOF 7
ENDMDL
MODEL 4
REMARK VINA RESULT:      -4.9      2.761      4.785
REMARK  7 active torsions:
REMARK  status: ('A' for Active; 'I' for Inactive)
REMARK    1  A    between atoms: C_2  and  C_3 
REMARK    2  A    between atoms: C_3  and  O_6 
REMARK    3  A    between atoms: C_3  and  C_4 
REMARK    4  A    between atoms: C_7  and  O_6 
REMARK    5  A    between atoms: C_9  and  C_10 
REMARK    6  A    between atoms: N_15  and  C_14 
REMARK    7  A    between atoms: N_20  and  C_19 
REMARK       I    between atoms: C_22  and  N_20 
ROOT
ATOM      1  C   LIG d   1      -4.707  92.139 119.299  0.00  0.00     0.161 C 
ATOM      2  C   LIG d   1      -5.959  91.907 118.705  0.00  0.00     0.016 C 
ATOM      3  C   LIG d   1      -6.133  91.137 117.532  0.00  0.00     0.038 C 
ATOM      4  C   LIG d   1      -5.077  90.416 116.955  0.00  0.00     0.028 C 
ATOM      5  C   LIG d   1      -3.706  91.027 117.228  0.00  0.00    -0.047 C 
ATOM      6  C   LIG d   1      -3.558  91.269 118.747  0.00  0.00     0.091 C 
ENDROOT
BRANCH   1   7
ATOM      7  O   LIG d   1      -4.809  91.985 120.729  0.00  0.00    -0.368 OA
BRANCH   7   8
ATOM      8  C   LIG d   1      -4.671  93.197 121.511  0.00  0.00     0.119 C 
BRANCH   8   9
ATOM      9  C   LIG d   1      -6.060  93.538 122.086  0.00  0.00     0.028 C 
ATOM     10  C   LIG d   1      -6.772  94.641 121.285  0.00  0.00     0.006 C 
ENDBRANCH   8   9
BRANCH   8  11
ATOM     11  C   LIG d   1      -4.294  94.390 120.628  0.00  0.00     0.028 C 
ATOM     12  C   LIG d   1      -2.977  95.057 121.058  0.00  0.00     0.006 C 
ENDBRANCH   8  11
ENDBRANCH   7   8
ENDBRANCH   1   7
BRANCH   6  13
ATOM     13  N   LIG d   1      -2.279  91.942 119.092  0.00  0.00    -0.311 N 
ATOM     14  C   LIG d   1      -1.469  91.524 120.063  0.00  0.00     0.210 C 
ATOM     15  C   LIG d   1      -0.211  92.374 120.266  0.00  0.00     0.109 C 
ATOM     16  O   LIG d   1      -1.657  90.512 120.754  0.00  0.00    -0.276 OA
ATOM     17  H   LIG d   1      -2.033  92.754 118.560  0.00  0.00     0.149 HD
ENDBRANCH   6  13
BRANCH   5  18
ATOM     18  N   LIG d   1      -2.691  90.103 116.688  0.00  0.00     0.381 N 
ATOM     19  H   LIG d   1      -3.125  89.447 116.069  0.00  0.00    -0.090 HD
ATOM     20  H   LIG d   1      -2.278  89.593 117.449  0.00  0.00    -0.090 HD
ATOM     21  H   LIG d   1      -1.988  90.615 116.202  0.00  0.00    -0.090 HD
ENDBRANCH   5  18
BRANCH   3  22
ATOM     22  C   LIG d   1      -7.367  91.115 116.901  0.00  0.00     0.382 C 
ATOM     23  O   LIG d   1      -7.917  92.190 116.561  0.00  0.00    -0.241 OA
ATOM     24  O   LIG d   1      -7.959  90.036 116.708  0.00  0.00    -0.241 OA
ENDBRANCH   3  22
TORSDOF 7
ENDMDL
MODEL 5
REMARK VINA RESULT:      -4.8      3.099      4.978
REMARK  7 active torsions:
REMARK  status: ('A' for Active; 'I' for Inactive)
REMARK    1  A    between atoms: C_2  and  C_3 
REMARK    2  A    between atoms: C_3  and  O_6 
REMARK    3  A    between atoms: C_3  and  C_4 
REMARK    4  A    between atoms: C_7  and  O_6 
REMARK    5  A    between atoms: C_9  and  C_10 
REMARK    6  A    between atoms: N_15  and  C_14 
REMARK    7  A    between atoms: N_20  and  C_19 
REMARK       I    between atoms: C_22  and  N_20 
ROOT
ATOM      1  C   LIG d   1      -4.343  92.233 119.402  0.00  0.00     0.161 C 
ATOM      2  C   LIG d   1      -5.641  92.044 118.899  0.00  0.00     0.016 C 
ATOM      3  C   LIG d   1      -5.926  91.263 117.755  0.00  0.00     0.038 C 
ATOM      4  C   LIG d   1      -4.942  90.491 117.120  0.00  0.00     0.028 C 
ATOM      5  C   LIG d   1      -3.533  91.048 117.288  0.00  0.00    -0.047 C 
ATOM      6  C   LIG d   1      -3.271  91.308 118.789  0.00  0.00     0.091 C 
ENDROOT
BRANCH   1   7
ATOM      7  O   LIG d   1      -4.352  92.106 120.838  0.00  0.00    -0.368 OA
BRANCH   7   8
ATOM      8  C   LIG d   1      -4.466  93.342 121.586  0.00  0.00     0.119 C 
BRANCH   8   9
ATOM      9  C   LIG d   1      -3.081  93.645 122.190  0.00  0.00     0.028 C 
ATOM     10  C   LIG d   1      -2.328  94.739 121.413  0.00  0.00     0.006 C 
ENDBRANCH   8   9
BRANCH   8  11
ATOM     11  C   LIG d   1      -5.406  93.183 122.784  0.00  0.00     0.028 C 
ATOM     12  C   LIG d   1      -6.146  91.837 122.787  0.00  0.00     0.006 C 
ENDBRANCH   8  11
ENDBRANCH   7   8
ENDBRANCH   1   7
BRANCH   6  13
ATOM     13  N   LIG d   1      -1.945  91.933 119.033  0.00  0.00    -0.311 N 
ATOM     14  C   LIG d   1      -1.080  91.486 119.943  0.00  0.00     0.210 C 
ATOM     15  C   LIG d   1       0.221  92.288 120.046  0.00  0.00     0.109 C 
ATOM     16  O   LIG d   1      -1.254  90.484 120.652  0.00  0.00    -0.276 OA
ATOM     17  H   LIG d   1      -1.709  92.733 118.480  0.00  0.00     0.149 HD
ENDBRANCH   6  13
BRANCH   5  18
ATOM     18  N   LIG d   1      -2.595  90.074 116.697  0.00  0.00     0.381 N 
ATOM     19  H   LIG d   1      -1.756  90.540 116.415  0.00  0.00    -0.090 HD
ATOM     20  H   LIG d   1      -3.020  89.668 115.882  0.00  0.00    -0.090 HD
ATOM     21  H   LIG d   1      -2.382  89.362 117.359  0.00  0.00    -0.090 HD
ENDBRANCH   5  18
BRANCH   3  22
ATOM     22  C   LIG d   1      -7.201  91.283 117.210  0.00  0.00     0.382 C 
ATOM     23  O   LIG d   1      -7.818  92.369 117.096  0.00  0.00    -0.241 OA
ATOM     24  O   LIG d   1      -7.760  90.222 116.873  0.00  0.00    -0.241 OA
ENDBRANCH   3  22
TORSDOF 7
ENDMDL
MODEL 6
REMARK VINA RESULT:      -4.7      2.255      3.185
REMARK  7 active torsions:
REMARK  status: ('A' for Active; 'I' for Inactive)
REMARK    1  A    between atoms: C_2  and  C_3 
REMARK    2  A    between atoms: C_3  and  O_6 
REMARK    3  A    between atoms: C_3  and  C_4 
REMARK    4  A    between atoms: C_7  and  O_6 
REMARK    5  A    between atoms: C_9  and  C_10 
REMARK    6  A    between atoms: N_15  and  C_14 
REMARK    7  A    between atoms: N_20  and  C_19 
REMARK       I    between atoms: C_22  and  N_20 
ROOT
ATOM      1  C   LIG d   1      -5.759  92.894 119.658  0.00  0.00     0.161 C 
ATOM      2  C   LIG d   1      -5.824  91.859 118.710  0.00  0.00     0.016 C 
ATOM      3  C   LIG d   1      -6.815  91.788 117.704  0.00  0.00     0.038 C 
ATOM      4  C   LIG d   1      -7.723  92.833 117.482  0.00  0.00     0.028 C 
ATOM      5  C   LIG d   1      -8.014  93.658 118.731  0.00  0.00    -0.047 C 
ATOM      6  C   LIG d   1      -6.674  94.100 119.363  0.00  0.00     0.091 C 
ENDROOT
BRANCH   1   7
ATOM      7  O   LIG d   1      -4.393  93.327 119.815  0.00  0.00    -0.368 OA
BRANCH   7   8
ATOM      8  C   LIG d   1      -3.789  93.078 121.108  0.00  0.00     0.119 C 
BRANCH   8   9
ATOM      9  C   LIG d   1      -2.513  92.247 120.871  0.00  0.00     0.028 C 
ATOM     10  C   LIG d   1      -2.795  90.735 120.845  0.00  0.00     0.006 C 
ENDBRANCH   8   9
BRANCH   8  11
ATOM     11  C   LIG d   1      -4.689  92.200 121.983  0.00  0.00     0.028 C 
ATOM     12  C   LIG d   1      -5.067  92.872 123.312  0.00  0.00     0.006 C 
ENDBRANCH   8  11
ENDBRANCH   7   8
ENDBRANCH   1   7
BRANCH   6  13
ATOM     13  N   LIG d   1      -6.865  94.842 120.637  0.00  0.00    -0.311 N 
ATOM     14  C   LIG d   1      -6.950  96.169 120.707  0.00  0.00     0.210 C 
ATOM     15  C   LIG d   1      -7.127  96.732 122.121  0.00  0.00     0.109 C 
ATOM     16  O   LIG d   1      -6.927  96.932 119.729  0.00  0.00    -0.276 OA
ATOM     17  H   LIG d   1      -6.925  94.299 121.476  0.00  0.00     0.149 HD
ENDBRANCH   6  13
BRANCH   5  18
ATOM     18  N   LIG d   1      -8.865  94.793 118.328  0.00  0.00     0.381 N 
ATOM     19  H   LIG d   1      -8.294  95.588 118.121  0.00  0.00    -0.090 HD
ATOM     20  H   LIG d   1      -9.473  95.032 119.092  0.00  0.00    -0.090 HD
ATOM     21  H   LIG d   1      -9.406  94.547 117.528  0.00  0.00    -0.090 HD
ENDBRANCH   5  18
BRANCH   3  22
ATOM     22  C   LIG d   1      -6.928  90.642 116.932  0.00  0.00     0.382 C 
ATOM     23  O   LIG d   1      -8.050  90.102 116.771  0.00  0.00    -0.241 OA
ATOM     24  O   LIG d   1      -5.917  90.115 116.430  0.00  0.00    -0.241 OA
ENDBRANCH   3  22
TORSDOF 7
ENDMDL
MODEL 7
REMARK VINA RESULT:      -4.6      3.565      5.987
REMARK  7 active torsions:
REMARK  status: ('A' for Active; 'I' for Inactive)
REMARK    1  A    between atoms: C_2  and  C_3 
REMARK    2  A    between atoms: C_3  and  O_6 
REMARK    3  A    between atoms: C_3  and  C_4 
REMARK    4  A    between atoms: C_7  and  O_6 
REMARK    5  A    between atoms: C_9  and  C_10 
REMARK    6  A    between atoms: N_15  and  C_14 
REMARK    7  A    between atoms: N_20  and  C_19 
REMARK       I    between atoms: C_22  and  N_20 
ROOT
ATOM      1  C   LIG d   1      -1.654  92.808 117.737  0.00  0.00     0.161 C 
ATOM      2  C   LIG d   1      -0.584  91.918 117.546  0.00  0.00     0.016 C 
ATOM      3  C   LIG d   1       0.602  91.951 118.314  0.00  0.00     0.038 C 
ATOM      4  C   LIG d   1       0.738  92.786 119.433  0.00  0.00     0.028 C 
ATOM      5  C   LIG d   1      -0.113  94.049 119.353  0.00  0.00    -0.047 C 
ATOM      6  C   LIG d   1      -1.570  93.653 119.025  0.00  0.00     0.091 C 
ENDROOT
BRANCH   1   7
ATOM      7  O   LIG d   1      -2.903  92.089 117.689  0.00  0.00    -0.368 OA
BRANCH   7   8
ATOM      8  C   LIG d   1      -2.829  90.666 117.951  0.00  0.00     0.119 C 
BRANCH   8   9
ATOM      9  C   LIG d   1      -3.586  89.947 116.817  0.00  0.00     0.028 C 
ATOM     10  C   LIG d   1      -4.890  90.666 116.434  0.00  0.00     0.006 C 
ENDBRANCH   8   9
BRANCH   8  11
ATOM     11  C   LIG d   1      -3.576  90.296 119.235  0.00  0.00     0.028 C 
ATOM     12  C   LIG d   1      -2.803  90.681 120.506  0.00  0.00     0.006 C 
ENDBRANCH   8  11
ENDBRANCH   7   8
ENDBRANCH   1   7
BRANCH   6  13
ATOM     13  N   LIG d   1      -2.452  94.836 118.845  0.00  0.00    -0.311 N 
ATOM     14  C   LIG d   1      -3.188  95.357 119.825  0.00  0.00     0.210 C 
ATOM     15  C   LIG d   1      -4.042  96.563 119.421  0.00  0.00     0.109 C 
ATOM     16  O   LIG d   1      -3.190  94.955 120.999  0.00  0.00    -0.276 OA
ATOM     17  H   LIG d   1      -2.487  95.244 117.932  0.00  0.00     0.149 HD
ENDBRANCH   6  13
BRANCH   5  18
ATOM     18  N   LIG d   1       0.019  94.757 120.640  0.00  0.00     0.381 N 
ATOM     19  H   LIG d   1       0.963  95.062 120.765  0.00  0.00    -0.090 HD
ATOM     20  H   LIG d   1      -0.209  94.122 121.385  0.00  0.00    -0.090 HD
ATOM     21  H   LIG d   1      -0.596  95.541 120.662  0.00  0.00    -0.090 HD
ENDBRANCH   5  18
BRANCH   3  22
ATOM     22  C   LIG d   1       1.685  91.170 117.940  0.00  0.00     0.382 C 
ATOM     23  O   LIG d   1       2.577  91.648 117.199  0.00  0.00    -0.241 OA
ATOM     24  O   LIG d   1       1.759  89.979 118.299  0.00  0.00    -0.241 OA
ENDBRANCH   3  22
TORSDOF 7
ENDMDL
MODEL 8
REMARK VINA RESULT:      -4.5      3.357      5.716
REMARK  7 active torsions:
REMARK  status: ('A' for Active; 'I' for Inactive)
REMARK    1  A    between atoms: C_2  and  C_3 
REMARK    2  A    between atoms: C_3  and  O_6 
REMARK    3  A    between atoms: C_3  and  C_4 
REMARK    4  A    between atoms: C_7  and  O_6 
REMARK    5  A    between atoms: C_9  and  C_10 
REMARK    6  A    between atoms: N_15  and  C_14 
REMARK    7  A    between atoms: N_20  and  C_19 
REMARK       I    between atoms: C_22  and  N_20 
ROOT
ATOM      1  C   LIG d   1      -3.489  92.442 119.485  0.00  0.00     0.161 C 
ATOM      2  C   LIG d   1      -4.837  92.181 119.188  0.00  0.00     0.016 C 
ATOM      3  C   LIG d   1      -5.251  91.295 118.167  0.00  0.00     0.038 C 
ATOM      4  C   LIG d   1      -4.339  90.490 117.469  0.00  0.00     0.028 C 
ATOM      5  C   LIG d   1      -2.939  91.090 117.388  0.00  0.00    -0.047 C 
ATOM      6  C   LIG d   1      -2.481  91.489 118.809  0.00  0.00     0.091 C 
ENDROOT
BRANCH   1   7
ATOM      7  O   LIG d   1      -3.296  92.445 120.913  0.00  0.00    -0.368 OA
BRANCH   7   8
ATOM      8  C   LIG d   1      -4.040  91.451 121.659  0.00  0.00     0.119 C 
BRANCH   8   9
ATOM      9  C   LIG d   1      -4.715  92.170 122.843  0.00  0.00     0.028 C 
ATOM     10  C   LIG d   1      -4.126  93.568 123.094  0.00  0.00     0.006 C 
ENDBRANCH   8   9
BRANCH   8  11
ATOM     11  C   LIG d   1      -3.106  90.415 122.293  0.00  0.00     0.028 C 
ATOM     12  C   LIG d   1      -1.643  90.883 122.341  0.00  0.00     0.006 C 
ENDBRANCH   8  11
ENDBRANCH   7   8
ENDBRANCH   1   7
BRANCH   6  13
ATOM     13  N   LIG d   1      -1.156  92.162 118.810  0.00  0.00    -0.311 N 
ATOM     14  C   LIG d   1      -0.008  91.519 119.012  0.00  0.00     0.210 C 
ATOM     15  C   LIG d   1       1.242  92.405 118.992  0.00  0.00     0.109 C 
ATOM     16  O   LIG d   1       0.098  90.294 119.174  0.00  0.00    -0.276 OA
ATOM     17  H   LIG d   1      -1.147  93.151 118.655  0.00  0.00     0.149 HD
ENDBRANCH   6  13
BRANCH   5  18
ATOM     18  N   LIG d   1      -2.060  90.088 116.757  0.00  0.00     0.381 N 
ATOM     19  H   LIG d   1      -1.677  89.484 117.457  0.00  0.00    -0.090 HD
ATOM     20  H   LIG d   1      -1.301  90.562 116.301  0.00  0.00    -0.090 HD
ATOM     21  H   LIG d   1      -2.574  89.553 116.092  0.00  0.00    -0.090 HD
ENDBRANCH   5  18
BRANCH   3  22
ATOM     22  C   LIG d   1      -6.589  91.238 117.807  0.00  0.00     0.382 C 
ATOM     23  O   LIG d   1      -6.961  90.458 116.898  0.00  0.00    -0.241 OA
ATOM     24  O   LIG d   1      -7.422  91.988 118.350  0.00  0.00    -0.241 OA
ENDBRANCH   3  22
TORSDOF 7
ENDMDL
MODEL 9
REMARK VINA RESULT:      -4.4      2.387      5.517
REMARK  7 active torsions:
REMARK  status: ('A' for Active; 'I' for Inactive)
REMARK    1  A    between atoms: C_2  and  C_3 
REMARK    2  A    between atoms: C_3  and  O_6 
REMARK    3  A    between atoms: C_3  and  C_4 
REMARK    4  A    between atoms: C_7  and  O_6 
REMARK    5  A    between atoms: C_9  and  C_10 
REMARK    6  A    between atoms: N_15  and  C_14 
REMARK    7  A    between atoms: N_20  and  C_19 
REMARK       I    between atoms: C_22  and  N_20 
ROOT
ATOM      1  C   LIG d   1      -5.371  92.932 120.423  0.00  0.00     0.161 C 
ATOM      2  C   LIG d   1      -6.697  92.835 119.971  0.00  0.00     0.016 C 
ATOM      3  C   LIG d   1      -7.412  93.922 119.418  0.00  0.00     0.038 C 
ATOM      4  C   LIG d   1      -6.794  95.150 119.139  0.00  0.00     0.028 C 
ATOM      5  C   LIG d   1      -5.602  95.448 120.041  0.00  0.00    -0.047 C 
ATOM      6  C   LIG d   1      -4.645  94.234 120.024  0.00  0.00     0.091 C 
ENDROOT
BRANCH   1   7
ATOM      7  O   LIG d   1      -4.619  91.784 119.982  0.00  0.00    -0.368 OA
BRANCH   7   8
ATOM      8  C   LIG d   1      -4.153  91.816 118.611  0.00  0.00     0.119 C 
BRANCH   8   9
ATOM      9  C   LIG d   1      -4.842  90.659 117.860  0.00  0.00     0.028 C 
ATOM     10  C   LIG d   1      -5.787  91.158 116.754  0.00  0.00     0.006 C 
ENDBRANCH   8   9
BRANCH   8  11
ATOM     11  C   LIG d   1      -2.653  91.518 118.525  0.00  0.00     0.028 C 
ATOM     12  C   LIG d   1      -2.091  90.911 119.820  0.00  0.00     0.006 C 
ENDBRANCH   8  11
ENDBRANCH   7   8
ENDBRANCH   1   7
BRANCH   6  13
ATOM     13  N   LIG d   1      -3.493  94.407 120.947  0.00  0.00    -0.311 N 
ATOM     14  C   LIG d   1      -2.256  94.679 120.533  0.00  0.00     0.210 C 
ATOM     15  C   LIG d   1      -1.213  94.798 121.648  0.00  0.00     0.109 C 
ATOM     16  O   LIG d   1      -1.931  94.864 119.351  0.00  0.00    -0.276 OA
ATOM     17  H   LIG d   1      -3.673  94.305 121.927  0.00  0.00     0.149 HD
ENDBRANCH   6  13
BRANCH   5  18
ATOM     18  N   LIG d   1      -4.971  96.688 119.551  0.00  0.00     0.381 N 
ATOM     19  H   LIG d   1      -4.326  96.473 118.817  0.00  0.00    -0.090 HD
ATOM     20  H   LIG d   1      -4.459  97.112 120.305  0.00  0.00    -0.090 HD
ATOM     21  H   LIG d   1      -5.668  97.317 119.218  0.00  0.00    -0.090 HD
ENDBRANCH   5  18
BRANCH   3  22
ATOM     22  C   LIG d   1      -8.772  93.799 119.176  0.00  0.00     0.382 C 
ATOM     23  O   LIG d   1      -9.564  93.605 120.129  0.00  0.00    -0.241 OA
ATOM     24  O   LIG d   1      -9.211  93.834 118.011  0.00  0.00    -0.241 OA
ENDBRANCH   3  22
TORSDOF 7
ENDMDL
