MODEL 1
REMARK VINA RESULT:      -4.9      0.000      0.000
REMARK  7 active torsions:
REMARK  status: ('A' for Active; 'I' for Inactive)
REMARK    1  A    between atoms: C_2  and  C_3 
REMARK    2  A    between atoms: C_3  and  O_6 
REMARK    3  A    between atoms: C_3  and  C_4 
REMARK    4  A    between atoms: C_7  and  O_6 
REMARK    5  A    between atoms: C_9  and  C_10 
REMARK    6  A    between atoms: N_15  and  C_14 
REMARK    7  A    between atoms: N_20  and  C_19 
REMARK       I    between atoms: C_22  and  N_20 
ROOT
ATOM      1  C   LIG d   1      -6.430  93.015 119.580  0.00  0.00     0.161 C 
ATOM      2  C   LIG d   1      -7.688  93.605 119.370  0.00  0.00     0.016 C 
ATOM      3  C   LIG d   1      -7.873  94.992 119.171  0.00  0.00     0.038 C 
ATOM      4  C   LIG d   1      -6.790  95.870 119.015  0.00  0.00     0.028 C 
ATOM      5  C   LIG d   1      -5.523  95.400 119.721  0.00  0.00    -0.047 C 
ATOM      6  C   LIG d   1      -5.227  93.942 119.303  0.00  0.00     0.091 C 
ENDROOT
BRANCH   1   7
ATOM      7  O   LIG d   1      -6.321  91.807 118.802  0.00  0.00    -0.368 OA
BRANCH   7   8
ATOM      8  C   LIG d   1      -5.658  91.932 117.519  0.00  0.00     0.119 C 
BRANCH   8   9
ATOM      9  C   LIG d   1      -6.749  91.915 116.431  0.00  0.00     0.028 C 
ATOM     10  C   LIG d   1      -7.574  90.618 116.448  0.00  0.00     0.006 C 
ENDBRANCH   8   9
BRANCH   8  11
ATOM     11  C   LIG d   1      -4.775  90.716 117.227  0.00  0.00     0.028 C 
ATOM     12  C   LIG d   1      -4.210  90.070 118.502  0.00  0.00     0.006 C 
ENDBRANCH   8  11
ENDBRANCH   7   8
ENDBRANCH   1   7
BRANCH   6  13
ATOM     13  N   LIG d   1      -4.051  93.376 120.013  0.00  0.00    -0.311 N 
ATOM     14  C   LIG d   1      -2.826  93.342 119.491  0.00  0.00     0.210 C 
ATOM     15  C   LIG d   1      -1.760  92.697 120.383  0.00  0.00     0.109 C 
ATOM     16  O   LIG d   1      -2.514  93.814 118.387  0.00  0.00    -0.276 OA
ATOM     17  H   LIG d   1      -4.207  93.000 120.928  0.00  0.00     0.149 HD
ENDBRANCH   6  13
BRANCH   5  18
ATOM     18  N   LIG d   1      -4.440  96.336 119.363  0.00  0.00     0.381 N 
ATOM     19  H   LIG d   1      -4.696  96.853 118.546  0.00  0.00    -0.090 HD
ATOM     20  H   LIG d   1      -3.611  95.808 119.156  0.00  0.00    -0.090 HD
ATOM     21  H   LIG d   1      -4.265  96.960 120.119  0.00  0.00    -0.090 HD
ENDBRANCH   5  18
BRANCH   3  22
ATOM     22  C   LIG d   1      -9.155  95.520 119.164  0.00  0.00     0.382 C 
ATOM     23  O   LIG d   1     -10.145  94.765 119.318  0.00  0.00    -0.241 OA
ATOM     24  O   LIG d   1      -9.337  96.736 118.962  0.00  0.00    -0.241 OA
ENDBRANCH   3  22
TORSDOF 7
ENDMDL
MODEL 2
REMARK VINA RESULT:      -4.4      2.309      4.273
REMARK  7 active torsions:
REMARK  status: ('A' for Active; 'I' for Inactive)
REMARK    1  A    between atoms: C_2  and  C_3 
REMARK    2  A    between atoms: C_3  and  O_6 
REMARK    3  A    between atoms: C_3  and  C_4 
REMARK    4  A    between atoms: C_7  and  O_6 
REMARK    5  A    between atoms: C_9  and  C_10 
REMARK    6  A    between atoms: N_15  and  C_14 
REMARK    7  A    between atoms: N_20  and  C_19 
REMARK       I    between atoms: C_22  and  N_20 
ROOT
ATOM      1  C   LIG d   1      -5.065  92.808 119.539  0.00  0.00     0.161 C 
ATOM      2  C   LIG d   1      -5.441  91.834 118.601  0.00  0.00     0.016 C 
ATOM      3  C   LIG d   1      -6.422  92.050 117.605  0.00  0.00     0.038 C 
ATOM      4  C   LIG d   1      -6.988  93.314 117.385  0.00  0.00     0.028 C 
ATOM      5  C   LIG d   1      -7.009  94.194 118.630  0.00  0.00    -0.047 C 
ATOM      6  C   LIG d   1      -5.591  94.228 119.244  0.00  0.00     0.091 C 
ENDROOT
BRANCH   1   7
ATOM      7  O   LIG d   1      -3.630  92.825 119.678  0.00  0.00    -0.368 OA
BRANCH   7   8
ATOM      8  C   LIG d   1      -2.875  92.321 118.549  0.00  0.00     0.119 C 
BRANCH   8   9
ATOM      9  C   LIG d   1      -1.869  91.286 119.089  0.00  0.00     0.028 C 
ATOM     10  C   LIG d   1      -2.342  90.639 120.402  0.00  0.00     0.006 C 
ENDBRANCH   8   9
BRANCH   8  11
ATOM     11  C   LIG d   1      -2.021  93.422 117.913  0.00  0.00     0.028 C 
ATOM     12  C   LIG d   1      -1.780  94.609 118.859  0.00  0.00     0.006 C 
ENDBRANCH   8  11
ENDBRANCH   7   8
ENDBRANCH   1   7
BRANCH   6  13
ATOM     13  N   LIG d   1      -5.541  95.000 120.513  0.00  0.00    -0.311 N 
ATOM     14  C   LIG d   1      -4.923  96.173 120.634  0.00  0.00     0.210 C 
ATOM     15  C   LIG d   1      -4.975  96.790 122.036  0.00  0.00     0.109 C 
ATOM     16  O   LIG d   1      -4.364  96.777 119.707  0.00  0.00    -0.276 OA
ATOM     17  H   LIG d   1      -5.997  94.598 121.309  0.00  0.00     0.149 HD
ENDBRANCH   6  13
BRANCH   5  18
ATOM     18  N   LIG d   1      -7.496  95.526 118.225  0.00  0.00     0.381 N 
ATOM     19  H   LIG d   1      -7.791  95.504 117.270  0.00  0.00    -0.090 HD
ATOM     20  H   LIG d   1      -6.743  96.187 118.308  0.00  0.00    -0.090 HD
ATOM     21  H   LIG d   1      -8.256  95.803 118.808  0.00  0.00    -0.090 HD
ENDBRANCH   5  18
BRANCH   3  22
ATOM     22  C   LIG d   1      -6.875  90.983 116.844  0.00  0.00     0.382 C 
ATOM     23  O   LIG d   1      -8.100  90.859 116.605  0.00  0.00    -0.241 OA
ATOM     24  O   LIG d   1      -6.079  90.119 116.430  0.00  0.00    -0.241 OA
ENDBRANCH   3  22
TORSDOF 7
ENDMDL
MODEL 3
REMARK VINA RESULT:      -4.3      2.105      2.474
REMARK  7 active torsions:
REMARK  status: ('A' for Active; 'I' for Inactive)
REMARK    1  A    between atoms: C_2  and  C_3 
REMARK    2  A    between atoms: C_3  and  O_6 
REMARK    3  A    between atoms: C_3  and  C_4 
REMARK    4  A    between atoms: C_7  and  O_6 
REMARK    5  A    between atoms: C_9  and  C_10 
REMARK    6  A    between atoms: N_15  and  C_14 
REMARK    7  A    between atoms: N_20  and  C_19 
REMARK       I    between atoms: C_22  and  N_20 
ROOT
ATOM      1  C   LIG d   1      -6.471  93.199 119.612  0.00  0.00     0.161 C 
ATOM      2  C   LIG d   1      -7.774  92.771 119.917  0.00  0.00     0.016 C 
ATOM      3  C   LIG d   1      -8.603  93.415 120.864  0.00  0.00     0.038 C 
ATOM      4  C   LIG d   1      -8.237  94.629 121.465  0.00  0.00     0.028 C 
ATOM      5  C   LIG d   1      -6.728  94.825 121.566  0.00  0.00    -0.047 C 
ATOM      6  C   LIG d   1      -6.097  94.586 120.175  0.00  0.00     0.091 C 
ENDROOT
BRANCH   1   7
ATOM      7  O   LIG d   1      -6.268  93.166 118.185  0.00  0.00    -0.368 OA
BRANCH   7   8
ATOM      8  C   LIG d   1      -5.214  92.291 117.711  0.00  0.00     0.119 C 
BRANCH   8   9
ATOM      9  C   LIG d   1      -5.724  91.604 116.430  0.00  0.00     0.028 C 
ATOM     10  C   LIG d   1      -7.132  91.009 116.604  0.00  0.00     0.006 C 
ENDBRANCH   8   9
BRANCH   8  11
ATOM     11  C   LIG d   1      -4.946  91.155 118.702  0.00  0.00     0.028 C 
ATOM     12  C   LIG d   1      -3.871  90.174 118.207  0.00  0.00     0.006 C 
ENDBRANCH   8  11
ENDBRANCH   7   8
ENDBRANCH   1   7
BRANCH   6  13
ATOM     13  N   LIG d   1      -4.614  94.675 120.203  0.00  0.00    -0.311 N 
ATOM     14  C   LIG d   1      -3.940  95.783 119.901  0.00  0.00     0.210 C 
ATOM     15  C   LIG d   1      -2.415  95.653 119.973  0.00  0.00     0.109 C 
ATOM     16  O   LIG d   1      -4.461  96.870 119.611  0.00  0.00    -0.276 OA
ATOM     17  H   LIG d   1      -4.112  93.847 120.458  0.00  0.00     0.149 HD
ENDBRANCH   6  13
BRANCH   5  18
ATOM     18  N   LIG d   1      -6.489  96.185 122.083  0.00  0.00     0.381 N 
ATOM     19  H   LIG d   1      -5.611  96.216 122.562  0.00  0.00    -0.090 HD
ATOM     20  H   LIG d   1      -7.214  96.416 122.739  0.00  0.00    -0.090 HD
ATOM     21  H   LIG d   1      -6.489  96.841 121.332  0.00  0.00    -0.090 HD
ENDBRANCH   5  18
BRANCH   3  22
ATOM     22  C   LIG d   1      -9.796  92.823 121.249  0.00  0.00     0.382 C 
ATOM     23  O   LIG d   1      -9.844  92.133 122.296  0.00  0.00    -0.241 OA
ATOM     24  O   LIG d   1     -10.813  92.933 120.540  0.00  0.00    -0.241 OA
ENDBRANCH   3  22
TORSDOF 7
ENDMDL
MODEL 4
REMARK VINA RESULT:      -4.3      3.382      5.468
REMARK  7 active torsions:
REMARK  status: ('A' for Active; 'I' for Inactive)
REMARK    1  A    between atoms: C_2  and  C_3 
REMARK    2  A    between atoms: C_3  and  O_6 
REMARK    3  A    between atoms: C_3  and  C_4 
REMARK    4  A    between atoms: C_7  and  O_6 
REMARK    5  A    between atoms: C_9  and  C_10 
REMARK    6  A    between atoms: N_15  and  C_14 
REMARK    7  A    between atoms: N_20  and  C_19 
REMARK       I    between atoms: C_22  and  N_20 
ROOT
ATOM      1  C   LIG d   1      -2.196  91.154 119.594  0.00  0.00     0.161 C 
ATOM      2  C   LIG d   1      -3.056  90.506 118.692  0.00  0.00     0.016 C 
ATOM      3  C   LIG d   1      -4.062  91.175 117.957  0.00  0.00     0.038 C 
ATOM      4  C   LIG d   1      -4.178  92.573 117.962  0.00  0.00     0.028 C 
ATOM      5  C   LIG d   1      -3.661  93.219 119.243  0.00  0.00    -0.047 C 
ATOM      6  C   LIG d   1      -2.234  92.696 119.529  0.00  0.00     0.091 C 
ENDROOT
BRANCH   1   7
ATOM      7  O   LIG d   1      -0.848  90.678 119.412  0.00  0.00    -0.368 OA
BRANCH   7   8
ATOM      8  C   LIG d   1      -0.022  91.439 118.497  0.00  0.00     0.119 C 
BRANCH   8   9
ATOM      9  C   LIG d   1       0.010  90.676 117.158  0.00  0.00     0.028 C 
ATOM     10  C   LIG d   1       1.407  90.121 116.833  0.00  0.00     0.006 C 
ENDBRANCH   8   9
BRANCH   8  11
ATOM     11  C   LIG d   1       1.434  91.489 118.970  0.00  0.00     0.028 C 
ATOM     12  C   LIG d   1       1.938  92.922 119.197  0.00  0.00     0.006 C 
ENDBRANCH   8  11
ENDBRANCH   7   8
ENDBRANCH   1   7
BRANCH   6  13
ATOM     13  N   LIG d   1      -1.686  93.213 120.810  0.00  0.00    -0.311 N 
ATOM     14  C   LIG d   1      -0.962  94.327 120.900  0.00  0.00     0.210 C 
ATOM     15  C   LIG d   1      -0.478  94.671 122.312  0.00  0.00     0.109 C 
ATOM     16  O   LIG d   1      -0.701  95.080 119.950  0.00  0.00    -0.276 OA
ATOM     17  H   LIG d   1      -1.877  92.681 121.636  0.00  0.00     0.149 HD
ENDBRANCH   6  13
BRANCH   5  18
ATOM     18  N   LIG d   1      -3.713  94.681 119.058  0.00  0.00     0.381 N 
ATOM     19  H   LIG d   1      -3.133  95.130 119.738  0.00  0.00    -0.090 HD
ATOM     20  H   LIG d   1      -4.659  94.992 119.195  0.00  0.00    -0.090 HD
ATOM     21  H   LIG d   1      -3.407  94.920 118.140  0.00  0.00    -0.090 HD
ENDBRANCH   5  18
BRANCH   3  22
ATOM     22  C   LIG d   1      -4.992  90.440 117.238  0.00  0.00     0.382 C 
ATOM     23  O   LIG d   1      -4.606  89.560 116.430  0.00  0.00    -0.241 OA
ATOM     24  O   LIG d   1      -6.209  90.675 117.353  0.00  0.00    -0.241 OA
ENDBRANCH   3  22
TORSDOF 7
ENDMDL
MODEL 5
REMARK VINA RESULT:      -4.3      2.921      6.151
REMARK  7 active torsions:
REMARK  status: ('A' for Active; 'I' for Inactive)
REMARK    1  A    between atoms: C_2  and  C_3 
REMARK    2  A    between atoms: C_3  and  O_6 
REMARK    3  A    between atoms: C_3  and  C_4 
REMARK    4  A    between atoms: C_7  and  O_6 
REMARK    5  A    between atoms: C_9  and  C_10 
REMARK    6  A    between atoms: N_15  and  C_14 
REMARK    7  A    between atoms: N_20  and  C_19 
REMARK       I    between atoms: C_22  and  N_20 
ROOT
ATOM      1  C   LIG d   1      -2.287  93.227 118.306  0.00  0.00     0.161 C 
ATOM      2  C   LIG d   1      -1.270  92.264 118.193  0.00  0.00     0.016 C 
ATOM      3  C   LIG d   1       0.036  92.449 118.702  0.00  0.00     0.038 C 
ATOM      4  C   LIG d   1       0.373  93.555 119.496  0.00  0.00     0.028 C 
ATOM      5  C   LIG d   1      -0.477  94.788 119.209  0.00  0.00    -0.047 C 
ATOM      6  C   LIG d   1      -1.971  94.393 119.266  0.00  0.00     0.091 C 
ENDROOT
BRANCH   1   7
ATOM      7  O   LIG d   1      -3.524  92.590 118.683  0.00  0.00    -0.368 OA
BRANCH   7   8
ATOM      8  C   LIG d   1      -4.402  92.208 117.595  0.00  0.00     0.119 C 
BRANCH   8   9
ATOM      9  C   LIG d   1      -5.794  92.797 117.896  0.00  0.00     0.028 C 
ATOM     10  C   LIG d   1      -5.875  93.427 119.296  0.00  0.00     0.006 C 
ENDBRANCH   8   9
BRANCH   8  11
ATOM     11  C   LIG d   1      -4.604  90.691 117.548  0.00  0.00     0.028 C 
ATOM     12  C   LIG d   1      -4.101  89.983 118.816  0.00  0.00     0.006 C 
ENDBRANCH   8  11
ENDBRANCH   7   8
ENDBRANCH   1   7
BRANCH   6  13
ATOM     13  N   LIG d   1      -2.870  95.522 118.914  0.00  0.00    -0.311 N 
ATOM     14  C   LIG d   1      -3.426  96.326 119.819  0.00  0.00     0.210 C 
ATOM     15  C   LIG d   1      -4.336  97.415 119.243  0.00  0.00     0.109 C 
ATOM     16  O   LIG d   1      -3.227  96.260 121.041  0.00  0.00    -0.276 OA
ATOM     17  H   LIG d   1      -3.061  95.667 117.942  0.00  0.00     0.149 HD
ENDBRANCH   6  13
BRANCH   5  18
ATOM     18  N   LIG d   1      -0.114  95.820 120.199  0.00  0.00     0.381 N 
ATOM     19  H   LIG d   1       0.843  95.710 120.467  0.00  0.00    -0.090 HD
ATOM     20  H   LIG d   1      -0.686  95.701 121.017  0.00  0.00    -0.090 HD
ATOM     21  H   LIG d   1      -0.257  96.727 119.814  0.00  0.00    -0.090 HD
ENDBRANCH   5  18
BRANCH   3  22
ATOM     22  C   LIG d   1       1.032  91.539 118.383  0.00  0.00     0.382 C 
ATOM     23  O   LIG d   1       0.727  90.389 117.985  0.00  0.00    -0.241 OA
ATOM     24  O   LIG d   1       2.232  91.839 118.530  0.00  0.00    -0.241 OA
ENDBRANCH   3  22
TORSDOF 7
ENDMDL
MODEL 6
REMARK VINA RESULT:      -4.2      2.492      5.941
REMARK  7 active torsions:
REMARK  status: ('A' for Active; 'I' for Inactive)
REMARK    1  A    between atoms: C_2  and  C_3 
REMARK    2  A    between atoms: C_3  and  O_6 
REMARK    3  A    between atoms: C_3  and  C_4 
REMARK    4  A    between atoms: C_7  and  O_6 
REMARK    5  A    between atoms: C_9  and  C_10 
REMARK    6  A    between atoms: N_15  and  C_14 
REMARK    7  A    between atoms: N_20  and  C_19 
REMARK       I    between atoms: C_22  and  N_20 
ROOT
ATOM      1  C   LIG d   1      -2.615  93.278 118.162  0.00  0.00     0.161 C 
ATOM      2  C   LIG d   1      -1.449  92.495 118.118  0.00  0.00     0.016 C 
ATOM      3  C   LIG d   1      -0.459  92.516 119.127  0.00  0.00     0.038 C 
ATOM      4  C   LIG d   1      -0.640  93.216 120.329  0.00  0.00     0.028 C 
ATOM      5  C   LIG d   1      -1.570  94.417 120.197  0.00  0.00    -0.047 C 
ATOM      6  C   LIG d   1      -2.882  93.963 119.518  0.00  0.00     0.091 C 
ENDROOT
BRANCH   1   7
ATOM      7  O   LIG d   1      -3.752  92.485 117.768  0.00  0.00    -0.368 OA
BRANCH   7   8
ATOM      8  C   LIG d   1      -4.371  91.696 118.813  0.00  0.00     0.119 C 
BRANCH   8   9
ATOM      9  C   LIG d   1      -4.199  90.212 118.436  0.00  0.00     0.028 C 
ATOM     10  C   LIG d   1      -4.319  89.973 116.922  0.00  0.00     0.006 C 
ENDBRANCH   8   9
BRANCH   8  11
ATOM     11  C   LIG d   1      -5.884  91.928 118.864  0.00  0.00     0.028 C 
ATOM     12  C   LIG d   1      -6.370  92.929 117.803  0.00  0.00     0.006 C 
ENDBRANCH   8  11
ENDBRANCH   7   8
ENDBRANCH   1   7
BRANCH   6  13
ATOM     13  N   LIG d   1      -3.815  95.095 119.275  0.00  0.00    -0.311 N 
ATOM     14  C   LIG d   1      -4.800  95.425 120.107  0.00  0.00     0.210 C 
ATOM     15  C   LIG d   1      -5.657  96.612 119.656  0.00  0.00     0.109 C 
ATOM     16  O   LIG d   1      -5.026  94.868 121.192  0.00  0.00    -0.276 OA
ATOM     17  H   LIG d   1      -3.684  95.620 118.432  0.00  0.00     0.149 HD
ENDBRANCH   6  13
BRANCH   5  18
ATOM     18  N   LIG d   1      -1.778  94.970 121.548  0.00  0.00     0.381 N 
ATOM     19  H   LIG d   1      -1.206  94.480 122.207  0.00  0.00    -0.090 HD
ATOM     20  H   LIG d   1      -2.740  94.839 121.808  0.00  0.00    -0.090 HD
ATOM     21  H   LIG d   1      -1.553  95.940 121.559  0.00  0.00    -0.090 HD
ENDBRANCH   5  18
BRANCH   3  22
ATOM     22  C   LIG d   1       0.747  91.864 118.919  0.00  0.00     0.382 C 
ATOM     23  O   LIG d   1       0.787  90.610 118.901  0.00  0.00    -0.241 OA
ATOM     24  O   LIG d   1       1.803  92.513 118.795  0.00  0.00    -0.241 OA
ENDBRANCH   3  22
TORSDOF 7
ENDMDL
MODEL 7
REMARK VINA RESULT:      -4.2      3.469      6.504
REMARK  7 active torsions:
REMARK  status: ('A' for Active; 'I' for Inactive)
REMARK    1  A    between atoms: C_2  and  C_3 
REMARK    2  A    between atoms: C_3  and  O_6 
REMARK    3  A    between atoms: C_3  and  C_4 
REMARK    4  A    between atoms: C_7  and  O_6 
REMARK    5  A    between atoms: C_9  and  C_10 
REMARK    6  A    between atoms: N_15  and  C_14 
REMARK    7  A    between atoms: N_20  and  C_19 
REMARK       I    between atoms: C_22  and  N_20 
ROOT
ATOM      1  C   LIG d   1      -1.936  92.891 118.184  0.00  0.00     0.161 C 
ATOM      2  C   LIG d   1      -0.916  91.941 118.005  0.00  0.00     0.016 C 
ATOM      3  C   LIG d   1       0.382  92.082 118.548  0.00  0.00     0.038 C 
ATOM      4  C   LIG d   1       0.704  93.116 119.439  0.00  0.00     0.028 C 
ATOM      5  C   LIG d   1      -0.142  94.369 119.245  0.00  0.00    -0.047 C 
ATOM      6  C   LIG d   1      -1.636  93.971 119.244  0.00  0.00     0.091 C 
ENDROOT
BRANCH   1   7
ATOM      7  O   LIG d   1      -3.178  92.224 118.485  0.00  0.00    -0.368 OA
BRANCH   7   8
ATOM      8  C   LIG d   1      -3.099  90.791 118.684  0.00  0.00     0.119 C 
BRANCH   8   9
ATOM      9  C   LIG d   1      -4.160  90.139 117.776  0.00  0.00     0.028 C 
ATOM     10  C   LIG d   1      -5.463  90.953 117.718  0.00  0.00     0.006 C 
ENDBRANCH   8   9
BRANCH   8  11
ATOM     11  C   LIG d   1      -3.495  90.404 120.112  0.00  0.00     0.028 C 
ATOM     12  C   LIG d   1      -2.305  90.415 121.084  0.00  0.00     0.006 C 
ENDBRANCH   8  11
ENDBRANCH   7   8
ENDBRANCH   1   7
BRANCH   6  13
ATOM     13  N   LIG d   1      -2.531  95.126 118.975  0.00  0.00    -0.311 N 
ATOM     14  C   LIG d   1      -3.072  95.874 119.936  0.00  0.00     0.210 C 
ATOM     15  C   LIG d   1      -3.981  97.003 119.441  0.00  0.00     0.109 C 
ATOM     16  O   LIG d   1      -2.860  95.728 121.149  0.00  0.00    -0.276 OA
ATOM     17  H   LIG d   1      -2.731  95.335 118.017  0.00  0.00     0.149 HD
ENDBRANCH   6  13
BRANCH   5  18
ATOM     18  N   LIG d   1       0.204  95.313 120.324  0.00  0.00     0.381 N 
ATOM     19  H   LIG d   1       1.028  95.823 120.077  0.00  0.00    -0.090 HD
ATOM     20  H   LIG d   1       0.395  94.792 121.162  0.00  0.00    -0.090 HD
ATOM     21  H   LIG d   1      -0.551  95.944 120.481  0.00  0.00    -0.090 HD
ENDBRANCH   5  18
BRANCH   3  22
ATOM     22  C   LIG d   1       1.384  91.202 118.169  0.00  0.00     0.382 C 
ATOM     23  O   LIG d   1       2.584  91.568 118.200  0.00  0.00    -0.241 OA
ATOM     24  O   LIG d   1       1.101  90.062 117.754  0.00  0.00    -0.241 OA
ENDBRANCH   3  22
TORSDOF 7
ENDMDL
MODEL 8
REMARK VINA RESULT:      -4.2      2.300      5.885
REMARK  7 active torsions:
REMARK  status: ('A' for Active; 'I' for Inactive)
REMARK    1  A    between atoms: C_2  and  C_3 
REMARK    2  A    between atoms: C_3  and  O_6 
REMARK    3  A    between atoms: C_3  and  C_4 
REMARK    4  A    between atoms: C_7  and  O_6 
REMARK    5  A    between atoms: C_9  and  C_10 
REMARK    6  A    between atoms: N_15  and  C_14 
REMARK    7  A    between atoms: N_20  and  C_19 
REMARK       I    between atoms: C_22  and  N_20 
ROOT
ATOM      1  C   LIG d   1      -5.835  92.945 119.825  0.00  0.00     0.161 C 
ATOM      2  C   LIG d   1      -4.823  92.075 119.386  0.00  0.00     0.016 C 
ATOM      3  C   LIG d   1      -4.755  91.560 118.071  0.00  0.00     0.038 C 
ATOM      4  C   LIG d   1      -5.616  92.004 117.056  0.00  0.00     0.028 C 
ATOM      5  C   LIG d   1      -6.962  92.497 117.576  0.00  0.00    -0.047 C 
ATOM      6  C   LIG d   1      -6.719  93.527 118.702  0.00  0.00     0.091 C 
ENDROOT
BRANCH   1   7
ATOM      7  O   LIG d   1      -5.260  94.007 120.611  0.00  0.00    -0.368 OA
BRANCH   7   8
ATOM      8  C   LIG d   1      -4.455  94.971 119.889  0.00  0.00     0.119 C 
BRANCH   8   9
ATOM      9  C   LIG d   1      -3.045  94.955 120.509  0.00  0.00     0.028 C 
ATOM     10  C   LIG d   1      -1.961  95.400 119.513  0.00  0.00     0.006 C 
ENDBRANCH   8   9
BRANCH   8  11
ATOM     11  C   LIG d   1      -4.974  96.397 120.097  0.00  0.00     0.028 C 
ATOM     12  C   LIG d   1      -5.830  96.540 121.366  0.00  0.00     0.006 C 
ENDBRANCH   8  11
ENDBRANCH   7   8
ENDBRANCH   1   7
BRANCH   6  13
ATOM     13  N   LIG d   1      -7.985  93.997 119.324  0.00  0.00    -0.311 N 
ATOM     14  C   LIG d   1      -8.496  95.210 119.119  0.00  0.00     0.210 C 
ATOM     15  C   LIG d   1      -9.798  95.498 119.872  0.00  0.00     0.109 C 
ATOM     16  O   LIG d   1      -8.011  96.063 118.360  0.00  0.00    -0.276 OA
ATOM     17  H   LIG d   1      -8.460  93.357 119.929  0.00  0.00     0.149 HD
ENDBRANCH   6  13
BRANCH   5  18
ATOM     18  N   LIG d   1      -7.705  93.056 116.430  0.00  0.00     0.381 N 
ATOM     19  H   LIG d   1      -8.673  93.145 116.665  0.00  0.00    -0.090 HD
ATOM     20  H   LIG d   1      -7.625  92.426 115.652  0.00  0.00    -0.090 HD
ATOM     21  H   LIG d   1      -7.332  93.947 116.185  0.00  0.00    -0.090 HD
ENDBRANCH   5  18
BRANCH   3  22
ATOM     22  C   LIG d   1      -3.843  90.561 117.770  0.00  0.00     0.382 C 
ATOM     23  O   LIG d   1      -2.838  90.389 118.502  0.00  0.00    -0.241 OA
ATOM     24  O   LIG d   1      -3.988  89.858 116.752  0.00  0.00    -0.241 OA
ENDBRANCH   3  22
TORSDOF 7
ENDMDL
MODEL 9
REMARK VINA RESULT:      -4.1      2.432      4.219
REMARK  7 active torsions:
REMARK  status: ('A' for Active; 'I' for Inactive)
REMARK    1  A    between atoms: C_2  and  C_3 
REMARK    2  A    between atoms: C_3  and  O_6 
REMARK    3  A    between atoms: C_3  and  C_4 
REMARK    4  A    between atoms: C_7  and  O_6 
REMARK    5  A    between atoms: C_9  and  C_10 
REMARK    6  A    between atoms: N_15  and  C_14 
REMARK    7  A    between atoms: N_20  and  C_19 
REMARK       I    between atoms: C_22  and  N_20 
ROOT
ATOM      1  C   LIG d   1      -5.195  93.687 119.421  0.00  0.00     0.161 C 
ATOM      2  C   LIG d   1      -6.157  92.991 118.670  0.00  0.00     0.016 C 
ATOM      3  C   LIG d   1      -5.833  91.988 117.728  0.00  0.00     0.038 C 
ATOM      4  C   LIG d   1      -4.524  91.504 117.582  0.00  0.00     0.028 C 
ATOM      5  C   LIG d   1      -3.455  92.525 117.954  0.00  0.00    -0.047 C 
ATOM      6  C   LIG d   1      -3.772  93.095 119.355  0.00  0.00     0.091 C 
ENDROOT
BRANCH   1   7
ATOM      7  O   LIG d   1      -5.630  93.797 120.791  0.00  0.00    -0.368 OA
BRANCH   7   8
ATOM      8  C   LIG d   1      -6.284  92.630 121.347  0.00  0.00     0.119 C 
BRANCH   8   9
ATOM      9  C   LIG d   1      -7.586  93.106 122.020  0.00  0.00     0.028 C 
ATOM     10  C   LIG d   1      -8.795  92.236 121.638  0.00  0.00     0.006 C 
ENDBRANCH   8   9
BRANCH   8  11
ATOM     11  C   LIG d   1      -5.451  92.007 122.471  0.00  0.00     0.028 C 
ATOM     12  C   LIG d   1      -4.445  92.994 123.084  0.00  0.00     0.006 C 
ENDBRANCH   8  11
ENDBRANCH   7   8
ENDBRANCH   1   7
BRANCH   6  13
ATOM     13  N   LIG d   1      -2.821  94.164 119.761  0.00  0.00    -0.311 N 
ATOM     14  C   LIG d   1      -1.735  93.938 120.498  0.00  0.00     0.210 C 
ATOM     15  C   LIG d   1      -0.902  95.182 120.819  0.00  0.00     0.109 C 
ATOM     16  O   LIG d   1      -1.365  92.820 120.888  0.00  0.00    -0.276 OA
ATOM     17  H   LIG d   1      -3.028  95.096 119.460  0.00  0.00     0.149 HD
ENDBRANCH   6  13
BRANCH   5  18
ATOM     18  N   LIG d   1      -2.148  91.846 117.887  0.00  0.00     0.381 N 
ATOM     19  H   LIG d   1      -1.529  92.360 117.292  0.00  0.00    -0.090 HD
ATOM     20  H   LIG d   1      -2.276  90.931 117.493  0.00  0.00    -0.090 HD
ATOM     21  H   LIG d   1      -1.756  91.771 118.800  0.00  0.00    -0.090 HD
ENDBRANCH   5  18
BRANCH   3  22
ATOM     22  C   LIG d   1      -6.818  91.486 116.892  0.00  0.00     0.382 C 
ATOM     23  O   LIG d   1      -6.802  90.277 116.559  0.00  0.00    -0.241 OA
ATOM     24  O   LIG d   1      -7.698  92.238 116.430  0.00  0.00    -0.241 OA
ENDBRANCH   3  22
TORSDOF 7
ENDMDL
