MODEL 1
REMARK VINA RESULT:      -4.6      0.000      0.000
REMARK  7 active torsions:
REMARK  status: ('A' for Active; 'I' for Inactive)
REMARK    1  A    between atoms: C_2  and  C_3 
REMARK    2  A    between atoms: C_3  and  O_6 
REMARK    3  A    between atoms: C_3  and  C_4 
REMARK    4  A    between atoms: C_7  and  O_6 
REMARK    5  A    between atoms: C_9  and  C_10 
REMARK    6  A    between atoms: N_15  and  C_14 
REMARK    7  A    between atoms: N_20  and  C_19 
REMARK       I    between atoms: C_22  and  N_20 
ROOT
ATOM      1  C   LIG d   1      -5.198  93.376 119.408  0.00  0.00     0.161 C 
ATOM      2  C   LIG d   1      -4.170  92.510 119.000  0.00  0.00     0.016 C 
ATOM      3  C   LIG d   1      -4.243  91.707 117.839  0.00  0.00     0.038 C 
ATOM      4  C   LIG d   1      -5.294  91.830 116.918  0.00  0.00     0.028 C 
ATOM      5  C   LIG d   1      -6.594  92.323 117.545  0.00  0.00    -0.047 C 
ATOM      6  C   LIG d   1      -6.304  93.606 118.357  0.00  0.00     0.091 C 
ENDROOT
BRANCH   1   7
ATOM      7  O   LIG d   1      -4.637  94.636 119.829  0.00  0.00    -0.368 OA
BRANCH   7   8
ATOM      8  C   LIG d   1      -3.200  94.665 120.010  0.00  0.00     0.119 C 
BRANCH   8   9
ATOM      9  C   LIG d   1      -2.924  95.193 121.432  0.00  0.00     0.028 C 
ATOM     10  C   LIG d   1      -3.655  96.515 121.719  0.00  0.00     0.006 C 
ENDBRANCH   8   9
BRANCH   8  11
ATOM     11  C   LIG d   1      -2.540  95.675 119.067  0.00  0.00     0.028 C 
ATOM     12  C   LIG d   1      -1.679  95.004 117.985  0.00  0.00     0.006 C 
ENDBRANCH   8  11
ENDBRANCH   7   8
ENDBRANCH   1   7
BRANCH   6  13
ATOM     13  N   LIG d   1      -7.506  94.108 119.072  0.00  0.00    -0.311 N 
ATOM     14  C   LIG d   1      -8.052  95.301 118.841  0.00  0.00     0.210 C 
ATOM     15  C   LIG d   1      -9.275  95.630 119.703  0.00  0.00     0.109 C 
ATOM     16  O   LIG d   1      -7.658  96.105 117.983  0.00  0.00    -0.276 OA
ATOM     17  H   LIG d   1      -7.910  93.507 119.764  0.00  0.00     0.149 HD
ENDBRANCH   6  13
BRANCH   5  18
ATOM     18  N   LIG d   1      -7.562  92.537 116.453  0.00  0.00     0.381 N 
ATOM     19  H   LIG d   1      -7.578  91.736 115.853  0.00  0.00    -0.090 HD
ATOM     20  H   LIG d   1      -7.271  93.331 115.911  0.00  0.00    -0.090 HD
ATOM     21  H   LIG d   1      -8.471  92.697 116.829  0.00  0.00    -0.090 HD
ENDBRANCH   5  18
BRANCH   3  22
ATOM     22  C   LIG d   1      -3.276  90.740 117.609  0.00  0.00     0.382 C 
ATOM     23  O   LIG d   1      -3.605  89.533 117.524  0.00  0.00    -0.241 OA
ATOM     24  O   LIG d   1      -2.074  91.056 117.531  0.00  0.00    -0.241 OA
ENDBRANCH   3  22
TORSDOF 7
ENDMDL
MODEL 2
REMARK VINA RESULT:      -4.5      1.000      1.588
REMARK  7 active torsions:
REMARK  status: ('A' for Active; 'I' for Inactive)
REMARK    1  A    between atoms: C_2  and  C_3 
REMARK    2  A    between atoms: C_3  and  O_6 
REMARK    3  A    between atoms: C_3  and  C_4 
REMARK    4  A    between atoms: C_7  and  O_6 
REMARK    5  A    between atoms: C_9  and  C_10 
REMARK    6  A    between atoms: N_15  and  C_14 
REMARK    7  A    between atoms: N_20  and  C_19 
REMARK       I    between atoms: C_22  and  N_20 
ROOT
ATOM      1  C   LIG d   1      -5.318  93.401 119.442  0.00  0.00     0.161 C 
ATOM      2  C   LIG d   1      -4.266  92.559 119.047  0.00  0.00     0.016 C 
ATOM      3  C   LIG d   1      -4.300  91.767 117.876  0.00  0.00     0.038 C 
ATOM      4  C   LIG d   1      -5.334  91.879 116.935  0.00  0.00     0.028 C 
ATOM      5  C   LIG d   1      -6.656  92.341 117.540  0.00  0.00    -0.047 C 
ATOM      6  C   LIG d   1      -6.407  93.621 118.371  0.00  0.00     0.091 C 
ENDROOT
BRANCH   1   7
ATOM      7  O   LIG d   1      -4.791  94.667 119.887  0.00  0.00    -0.368 OA
BRANCH   7   8
ATOM      8  C   LIG d   1      -5.021  94.999 121.279  0.00  0.00     0.119 C 
BRANCH   8   9
ATOM      9  C   LIG d   1      -5.606  96.424 121.324  0.00  0.00     0.028 C 
ATOM     10  C   LIG d   1      -5.271  97.236 120.061  0.00  0.00     0.006 C 
ENDBRANCH   8   9
BRANCH   8  11
ATOM     11  C   LIG d   1      -3.704  95.076 122.058  0.00  0.00     0.028 C 
ATOM     12  C   LIG d   1      -2.470  95.079 121.143  0.00  0.00     0.006 C 
ENDBRANCH   8  11
ENDBRANCH   7   8
ENDBRANCH   1   7
BRANCH   6  13
ATOM     13  N   LIG d   1      -7.633  94.092 119.067  0.00  0.00    -0.311 N 
ATOM     14  C   LIG d   1      -8.212  95.266 118.818  0.00  0.00     0.210 C 
ATOM     15  C   LIG d   1      -9.455  95.565 119.661  0.00  0.00     0.109 C 
ATOM     16  O   LIG d   1      -7.831  96.074 117.957  0.00  0.00    -0.276 OA
ATOM     17  H   LIG d   1      -8.027  93.486 119.759  0.00  0.00     0.149 HD
ENDBRANCH   6  13
BRANCH   5  18
ATOM     18  N   LIG d   1      -7.606  92.548 116.431  0.00  0.00     0.381 N 
ATOM     19  H   LIG d   1      -7.132  92.960 115.652  0.00  0.00    -0.090 HD
ATOM     20  H   LIG d   1      -8.326  93.180 116.733  0.00  0.00    -0.090 HD
ATOM     21  H   LIG d   1      -8.009  91.678 116.161  0.00  0.00    -0.090 HD
ENDBRANCH   5  18
BRANCH   3  22
ATOM     22  C   LIG d   1      -3.310  90.821 117.657  0.00  0.00     0.382 C 
ATOM     23  O   LIG d   1      -2.110  91.177 117.576  0.00  0.00    -0.241 OA
ATOM     24  O   LIG d   1      -3.607  89.622 117.496  0.00  0.00    -0.241 OA
ENDBRANCH   3  22
TORSDOF 7
ENDMDL
MODEL 3
REMARK VINA RESULT:      -4.2      4.138      6.855
REMARK  7 active torsions:
REMARK  status: ('A' for Active; 'I' for Inactive)
REMARK    1  A    between atoms: C_2  and  C_3 
REMARK    2  A    between atoms: C_3  and  O_6 
REMARK    3  A    between atoms: C_3  and  C_4 
REMARK    4  A    between atoms: C_7  and  O_6 
REMARK    5  A    between atoms: C_9  and  C_10 
REMARK    6  A    between atoms: N_15  and  C_14 
REMARK    7  A    between atoms: N_20  and  C_19 
REMARK       I    between atoms: C_22  and  N_20 
ROOT
ATOM      1  C   LIG d   1      -0.045  91.176 117.126  0.00  0.00     0.161 C 
ATOM      2  C   LIG d   1       1.320  91.482 117.251  0.00  0.00     0.016 C 
ATOM      3  C   LIG d   1       1.801  92.652 117.883  0.00  0.00     0.038 C 
ATOM      4  C   LIG d   1       0.947  93.527 118.570  0.00  0.00     0.028 C 
ATOM      5  C   LIG d   1      -0.482  93.523 118.038  0.00  0.00    -0.047 C 
ATOM      6  C   LIG d   1      -0.986  92.064 117.967  0.00  0.00     0.091 C 
ENDROOT
BRANCH   1   7
ATOM      7  O   LIG d   1      -0.264  89.784 117.430  0.00  0.00    -0.368 OA
BRANCH   7   8
ATOM      8  C   LIG d   1       0.046  89.372 118.784  0.00  0.00     0.119 C 
BRANCH   8   9
ATOM      9  C   LIG d   1       0.850  88.061 118.696  0.00  0.00     0.028 C 
ATOM     10  C   LIG d   1       1.006  87.564 117.248  0.00  0.00     0.006 C 
ENDBRANCH   8   9
BRANCH   8  11
ATOM     11  C   LIG d   1      -1.225  89.016 119.563  0.00  0.00     0.028 C 
ATOM     12  C   LIG d   1      -2.361  88.519 118.655  0.00  0.00     0.006 C 
ENDBRANCH   8  11
ENDBRANCH   7   8
ENDBRANCH   1   7
BRANCH   6  13
ATOM     13  N   LIG d   1      -2.347  91.962 117.378  0.00  0.00    -0.311 N 
ATOM     14  C   LIG d   1      -3.462  91.939 118.106  0.00  0.00     0.210 C 
ATOM     15  C   LIG d   1      -4.758  91.810 117.300  0.00  0.00     0.109 C 
ATOM     16  O   LIG d   1      -3.502  92.046 119.341  0.00  0.00    -0.276 OA
ATOM     17  H   LIG d   1      -2.408  91.903 116.380  0.00  0.00     0.149 HD
ENDBRANCH   6  13
BRANCH   5  18
ATOM     18  N   LIG d   1      -1.292  94.373 118.930  0.00  0.00     0.381 N 
ATOM     19  H   LIG d   1      -2.264  94.183 118.788  0.00  0.00    -0.090 HD
ATOM     20  H   LIG d   1      -1.123  95.337 118.703  0.00  0.00    -0.090 HD
ATOM     21  H   LIG d   1      -1.048  94.200 119.881  0.00  0.00    -0.090 HD
ENDBRANCH   5  18
BRANCH   3  22
ATOM     22  C   LIG d   1       3.146  92.976 117.796  0.00  0.00     0.382 C 
ATOM     23  O   LIG d   1       3.801  92.667 116.771  0.00  0.00    -0.241 OA
ATOM     24  O   LIG d   1       3.724  93.535 118.747  0.00  0.00    -0.241 OA
ENDBRANCH   3  22
TORSDOF 7
ENDMDL
MODEL 4
REMARK VINA RESULT:      -4.2      3.743      6.366
REMARK  7 active torsions:
REMARK  status: ('A' for Active; 'I' for Inactive)
REMARK    1  A    between atoms: C_2  and  C_3 
REMARK    2  A    between atoms: C_3  and  O_6 
REMARK    3  A    between atoms: C_3  and  C_4 
REMARK    4  A    between atoms: C_7  and  O_6 
REMARK    5  A    between atoms: C_9  and  C_10 
REMARK    6  A    between atoms: N_15  and  C_14 
REMARK    7  A    between atoms: N_20  and  C_19 
REMARK       I    between atoms: C_22  and  N_20 
ROOT
ATOM      1  C   LIG d   1      -0.419  91.271 117.869  0.00  0.00     0.161 C 
ATOM      2  C   LIG d   1       0.889  91.726 118.106  0.00  0.00     0.016 C 
ATOM      3  C   LIG d   1       1.219  93.089 118.281  0.00  0.00     0.038 C 
ATOM      4  C   LIG d   1       0.235  94.083 118.382  0.00  0.00     0.028 C 
ATOM      5  C   LIG d   1      -1.054  93.736 117.646  0.00  0.00    -0.047 C 
ATOM      6  C   LIG d   1      -1.520  92.329 118.086  0.00  0.00     0.091 C 
ENDROOT
BRANCH   1   7
ATOM      7  O   LIG d   1      -0.682  90.102 118.669  0.00  0.00    -0.368 OA
BRANCH   7   8
ATOM      8  C   LIG d   1      -1.132  88.926 117.951  0.00  0.00     0.119 C 
BRANCH   8   9
ATOM      9  C   LIG d   1      -2.341  88.352 118.714  0.00  0.00     0.028 C 
ATOM     10  C   LIG d   1      -2.602  89.087 120.040  0.00  0.00     0.006 C 
ENDBRANCH   8   9
BRANCH   8  11
ATOM     11  C   LIG d   1      -0.074  87.819 117.977  0.00  0.00     0.028 C 
ATOM     12  C   LIG d   1       0.906  87.958 119.154  0.00  0.00     0.006 C 
ENDBRANCH   8  11
ENDBRANCH   7   8
ENDBRANCH   1   7
BRANCH   6  13
ATOM     13  N   LIG d   1      -2.730  91.877 117.351  0.00  0.00    -0.311 N 
ATOM     14  C   LIG d   1      -3.969  92.025 117.816  0.00  0.00     0.210 C 
ATOM     15  C   LIG d   1      -5.072  91.470 116.908  0.00  0.00     0.109 C 
ATOM     16  O   LIG d   1      -4.262  92.591 118.880  0.00  0.00    -0.276 OA
ATOM     17  H   LIG d   1      -2.586  91.435 116.464  0.00  0.00     0.149 HD
ENDBRANCH   6  13
BRANCH   5  18
ATOM     18  N   LIG d   1      -2.039  94.792 117.948  0.00  0.00     0.381 N 
ATOM     19  H   LIG d   1      -1.841  95.606 117.401  0.00  0.00    -0.090 HD
ATOM     20  H   LIG d   1      -1.963  95.039 118.919  0.00  0.00    -0.090 HD
ATOM     21  H   LIG d   1      -2.960  94.467 117.751  0.00  0.00    -0.090 HD
ENDBRANCH   5  18
BRANCH   3  22
ATOM     22  C   LIG d   1       2.551  93.474 118.317  0.00  0.00     0.382 C 
ATOM     23  O   LIG d   1       3.040  93.941 119.374  0.00  0.00    -0.241 OA
ATOM     24  O   LIG d   1       3.257  93.403 117.294  0.00  0.00    -0.241 OA
ENDBRANCH   3  22
TORSDOF 7
ENDMDL
MODEL 5
REMARK VINA RESULT:      -4.2      2.876      4.980
REMARK  7 active torsions:
REMARK  status: ('A' for Active; 'I' for Inactive)
REMARK    1  A    between atoms: C_2  and  C_3 
REMARK    2  A    between atoms: C_3  and  O_6 
REMARK    3  A    between atoms: C_3  and  C_4 
REMARK    4  A    between atoms: C_7  and  O_6 
REMARK    5  A    between atoms: C_9  and  C_10 
REMARK    6  A    between atoms: N_15  and  C_14 
REMARK    7  A    between atoms: N_20  and  C_19 
REMARK       I    between atoms: C_22  and  N_20 
ROOT
ATOM      1  C   LIG d   1      -4.612  93.693 119.425  0.00  0.00     0.161 C 
ATOM      2  C   LIG d   1      -5.862  93.438 118.837  0.00  0.00     0.016 C 
ATOM      3  C   LIG d   1      -6.058  92.491 117.805  0.00  0.00     0.038 C 
ATOM      4  C   LIG d   1      -5.038  91.622 117.393  0.00  0.00     0.028 C 
ATOM      5  C   LIG d   1      -3.638  92.188 117.605  0.00  0.00    -0.047 C 
ATOM      6  C   LIG d   1      -3.509  92.676 119.066  0.00  0.00     0.091 C 
ENDROOT
BRANCH   1   7
ATOM      7  O   LIG d   1      -4.756  93.791 120.856  0.00  0.00    -0.368 OA
BRANCH   7   8
ATOM      8  C   LIG d   1      -4.843  92.537 121.575  0.00  0.00     0.119 C 
BRANCH   8   9
ATOM      9  C   LIG d   1      -6.208  92.507 122.290  0.00  0.00     0.028 C 
ATOM     10  C   LIG d   1      -6.204  91.591 123.526  0.00  0.00     0.006 C 
ENDBRANCH   8   9
BRANCH   8  11
ATOM     11  C   LIG d   1      -3.799  92.462 122.693  0.00  0.00     0.028 C 
ATOM     12  C   LIG d   1      -3.028  93.779 122.878  0.00  0.00     0.006 C 
ENDBRANCH   8  11
ENDBRANCH   7   8
ENDBRANCH   1   7
BRANCH   6  13
ATOM     13  N   LIG d   1      -2.197  93.321 119.334  0.00  0.00    -0.311 N 
ATOM     14  C   LIG d   1      -1.153  92.673 119.848  0.00  0.00     0.210 C 
ATOM     15  C   LIG d   1       0.098  93.531 120.064  0.00  0.00     0.109 C 
ATOM     16  O   LIG d   1      -1.134  91.462 120.115  0.00  0.00    -0.276 OA
ATOM     17  H   LIG d   1      -2.115  94.295 119.118  0.00  0.00     0.149 HD
ENDBRANCH   6  13
BRANCH   5  18
ATOM     18  N   LIG d   1      -2.672  91.127 117.262  0.00  0.00     0.381 N 
ATOM     19  H   LIG d   1      -1.748  91.416 117.514  0.00  0.00    -0.090 HD
ATOM     20  H   LIG d   1      -2.695  90.974 116.269  0.00  0.00    -0.090 HD
ATOM     21  H   LIG d   1      -2.906  90.285 117.740  0.00  0.00    -0.090 HD
ENDBRANCH   5  18
BRANCH   3  22
ATOM     22  C   LIG d   1      -7.277  92.436 117.146  0.00  0.00     0.382 C 
ATOM     23  O   LIG d   1      -7.558  91.445 116.430  0.00  0.00    -0.241 OA
ATOM     24  O   LIG d   1      -8.081  93.384 117.224  0.00  0.00    -0.241 OA
ENDBRANCH   3  22
TORSDOF 7
ENDMDL
MODEL 6
REMARK VINA RESULT:      -4.1      3.673      5.783
REMARK  7 active torsions:
REMARK  status: ('A' for Active; 'I' for Inactive)
REMARK    1  A    between atoms: C_2  and  C_3 
REMARK    2  A    between atoms: C_3  and  O_6 
REMARK    3  A    between atoms: C_3  and  C_4 
REMARK    4  A    between atoms: C_7  and  O_6 
REMARK    5  A    between atoms: C_9  and  C_10 
REMARK    6  A    between atoms: N_15  and  C_14 
REMARK    7  A    between atoms: N_20  and  C_19 
REMARK       I    between atoms: C_22  and  N_20 
ROOT
ATOM      1  C   LIG d   1      -0.709  92.488 118.422  0.00  0.00     0.161 C 
ATOM      2  C   LIG d   1      -1.490  91.454 117.880  0.00  0.00     0.016 C 
ATOM      3  C   LIG d   1      -2.902  91.495 117.819  0.00  0.00     0.038 C 
ATOM      4  C   LIG d   1      -3.626  92.647 118.161  0.00  0.00     0.028 C 
ATOM      5  C   LIG d   1      -2.916  93.526 119.185  0.00  0.00    -0.047 C 
ATOM      6  C   LIG d   1      -1.475  93.799 118.698  0.00  0.00     0.091 C 
ENDROOT
BRANCH   1   7
ATOM      7  O   LIG d   1       0.426  92.741 117.571  0.00  0.00    -0.368 OA
BRANCH   7   8
ATOM      8  C   LIG d   1       1.697  92.222 118.034  0.00  0.00     0.119 C 
BRANCH   8   9
ATOM      9  C   LIG d   1       2.648  93.420 118.218  0.00  0.00     0.028 C 
ATOM     10  C   LIG d   1       4.048  93.153 117.641  0.00  0.00     0.006 C 
ENDBRANCH   8   9
BRANCH   8  11
ATOM     11  C   LIG d   1       2.359  91.339 116.971  0.00  0.00     0.028 C 
ATOM     12  C   LIG d   1       1.957  89.860 117.091  0.00  0.00     0.006 C 
ENDBRANCH   8  11
ENDBRANCH   7   8
ENDBRANCH   1   7
BRANCH   6  13
ATOM     13  N   LIG d   1      -0.684  94.584 119.682  0.00  0.00    -0.311 N 
ATOM     14  C   LIG d   1      -0.127  95.761 119.403  0.00  0.00     0.210 C 
ATOM     15  C   LIG d   1       0.663  96.391 120.555  0.00  0.00     0.109 C 
ATOM     16  O   LIG d   1      -0.240  96.359 118.322  0.00  0.00    -0.276 OA
ATOM     17  H   LIG d   1      -0.568  94.187 120.594  0.00  0.00     0.149 HD
ENDBRANCH   6  13
BRANCH   5  18
ATOM     18  N   LIG d   1      -3.715  94.756 119.345  0.00  0.00     0.381 N 
ATOM     19  H   LIG d   1      -3.127  95.558 119.241  0.00  0.00    -0.090 HD
ATOM     20  H   LIG d   1      -4.107  94.770 120.271  0.00  0.00    -0.090 HD
ATOM     21  H   LIG d   1      -4.445  94.780 118.668  0.00  0.00    -0.090 HD
ENDBRANCH   5  18
BRANCH   3  22
ATOM     22  C   LIG d   1      -3.607  90.359 117.449  0.00  0.00     0.382 C 
ATOM     23  O   LIG d   1      -3.246  89.233 117.868  0.00  0.00    -0.241 OA
ATOM     24  O   LIG d   1      -4.572  90.442 116.666  0.00  0.00    -0.241 OA
ENDBRANCH   3  22
TORSDOF 7
ENDMDL
MODEL 7
REMARK VINA RESULT:      -4.1      3.148      5.355
REMARK  7 active torsions:
REMARK  status: ('A' for Active; 'I' for Inactive)
REMARK    1  A    between atoms: C_2  and  C_3 
REMARK    2  A    between atoms: C_3  and  O_6 
REMARK    3  A    between atoms: C_3  and  C_4 
REMARK    4  A    between atoms: C_7  and  O_6 
REMARK    5  A    between atoms: C_9  and  C_10 
REMARK    6  A    between atoms: N_15  and  C_14 
REMARK    7  A    between atoms: N_20  and  C_19 
REMARK       I    between atoms: C_22  and  N_20 
ROOT
ATOM      1  C   LIG d   1      -2.207  90.946 117.591  0.00  0.00     0.161 C 
ATOM      2  C   LIG d   1      -0.803  90.896 117.605  0.00  0.00     0.016 C 
ATOM      3  C   LIG d   1       0.014  92.035 117.784  0.00  0.00     0.038 C 
ATOM      4  C   LIG d   1      -0.522  93.288 118.114  0.00  0.00     0.028 C 
ATOM      5  C   LIG d   1      -1.948  93.488 117.612  0.00  0.00    -0.047 C 
ATOM      6  C   LIG d   1      -2.811  92.286 118.060  0.00  0.00     0.091 C 
ENDROOT
BRANCH   1   7
ATOM      7  O   LIG d   1      -2.743  89.856 118.367  0.00  0.00    -0.368 OA
BRANCH   7   8
ATOM      8  C   LIG d   1      -1.900  89.359 119.435  0.00  0.00     0.119 C 
BRANCH   8   9
ATOM      9  C   LIG d   1      -2.025  87.823 119.447  0.00  0.00     0.028 C 
ATOM     10  C   LIG d   1      -2.921  87.316 120.590  0.00  0.00     0.006 C 
ENDBRANCH   8   9
BRANCH   8  11
ATOM     11  C   LIG d   1      -2.407  89.818 120.806  0.00  0.00     0.028 C 
ATOM     12  C   LIG d   1      -1.627  91.022 121.358  0.00  0.00     0.006 C 
ENDBRANCH   8  11
ENDBRANCH   7   8
ENDBRANCH   1   7
BRANCH   6  13
ATOM     13  N   LIG d   1      -4.201  92.361 117.539  0.00  0.00    -0.311 N 
ATOM     14  C   LIG d   1      -5.261  92.598 118.310  0.00  0.00     0.210 C 
ATOM     15  C   LIG d   1      -6.605  92.613 117.574  0.00  0.00     0.109 C 
ATOM     16  O   LIG d   1      -5.213  92.829 119.527  0.00  0.00    -0.276 OA
ATOM     17  H   LIG d   1      -4.328  92.216 116.557  0.00  0.00     0.149 HD
ENDBRANCH   6  13
BRANCH   5  18
ATOM     18  N   LIG d   1      -2.431  94.777 118.143  0.00  0.00     0.381 N 
ATOM     19  H   LIG d   1      -1.655  95.384 118.316  0.00  0.00    -0.090 HD
ATOM     20  H   LIG d   1      -2.904  94.613 119.015  0.00  0.00    -0.090 HD
ATOM     21  H   LIG d   1      -3.056  95.201 117.493  0.00  0.00    -0.090 HD
ENDBRANCH   5  18
BRANCH   3  22
ATOM     22  C   LIG d   1       1.384  91.935 117.594  0.00  0.00     0.382 C 
ATOM     23  O   LIG d   1       2.137  92.874 117.948  0.00  0.00    -0.241 OA
ATOM     24  O   LIG d   1       1.872  90.936 117.031  0.00  0.00    -0.241 OA
ENDBRANCH   3  22
TORSDOF 7
ENDMDL
MODEL 8
REMARK VINA RESULT:      -3.9      2.788      5.044
REMARK  7 active torsions:
REMARK  status: ('A' for Active; 'I' for Inactive)
REMARK    1  A    between atoms: C_2  and  C_3 
REMARK    2  A    between atoms: C_3  and  O_6 
REMARK    3  A    between atoms: C_3  and  C_4 
REMARK    4  A    between atoms: C_7  and  O_6 
REMARK    5  A    between atoms: C_9  and  C_10 
REMARK    6  A    between atoms: N_15  and  C_14 
REMARK    7  A    between atoms: N_20  and  C_19 
REMARK       I    between atoms: C_22  and  N_20 
ROOT
ATOM      1  C   LIG d   1      -4.243  93.265 119.441  0.00  0.00     0.161 C 
ATOM      2  C   LIG d   1      -5.542  93.312 118.907  0.00  0.00     0.016 C 
ATOM      3  C   LIG d   1      -5.966  92.511 117.822  0.00  0.00     0.038 C 
ATOM      4  C   LIG d   1      -5.159  91.494 117.291  0.00  0.00     0.028 C 
ATOM      5  C   LIG d   1      -3.666  91.753 117.464  0.00  0.00    -0.047 C 
ATOM      6  C   LIG d   1      -3.383  92.083 118.947  0.00  0.00     0.091 C 
ENDROOT
BRANCH   1   7
ATOM      7  O   LIG d   1      -4.306  93.272 120.881  0.00  0.00    -0.368 OA
BRANCH   7   8
ATOM      8  C   LIG d   1      -4.955  94.418 121.485  0.00  0.00     0.119 C 
BRANCH   8   9
ATOM      9  C   LIG d   1      -3.859  95.274 122.149  0.00  0.00     0.028 C 
ATOM     10  C   LIG d   1      -2.756  95.685 121.159  0.00  0.00     0.006 C 
ENDBRANCH   8   9
BRANCH   8  11
ATOM     11  C   LIG d   1      -5.885  93.994 122.626  0.00  0.00     0.028 C 
ATOM     12  C   LIG d   1      -7.363  94.296 122.334  0.00  0.00     0.006 C 
ENDBRANCH   8  11
ENDBRANCH   7   8
ENDBRANCH   1   7
BRANCH   6  13
ATOM     13  N   LIG d   1      -1.959  92.432 119.188  0.00  0.00    -0.311 N 
ATOM     14  C   LIG d   1      -1.094  91.613 119.785  0.00  0.00     0.210 C 
ATOM     15  C   LIG d   1       0.320  92.176 119.953  0.00  0.00     0.109 C 
ATOM     16  O   LIG d   1      -1.357  90.461 120.163  0.00  0.00    -0.276 OA
ATOM     17  H   LIG d   1      -1.653  93.336 118.885  0.00  0.00     0.149 HD
ENDBRANCH   6  13
BRANCH   5  18
ATOM     18  N   LIG d   1      -2.949  90.554 116.992  0.00  0.00     0.381 N 
ATOM     19  H   LIG d   1      -2.012  90.559 117.343  0.00  0.00    -0.090 HD
ATOM     20  H   LIG d   1      -2.909  90.573 115.988  0.00  0.00    -0.090 HD
ATOM     21  H   LIG d   1      -3.421  89.731 117.297  0.00  0.00    -0.090 HD
ENDBRANCH   5  18
BRANCH   3  22
ATOM     22  C   LIG d   1      -7.197  92.752 117.231  0.00  0.00     0.382 C 
ATOM     23  O   LIG d   1      -7.848  93.781 117.534  0.00  0.00    -0.241 OA
ATOM     24  O   LIG d   1      -7.685  91.932 116.430  0.00  0.00    -0.241 OA
ENDBRANCH   3  22
TORSDOF 7
ENDMDL
MODEL 9
REMARK VINA RESULT:      -3.8      4.216      7.184
REMARK  7 active torsions:
REMARK  status: ('A' for Active; 'I' for Inactive)
REMARK    1  A    between atoms: C_2  and  C_3 
REMARK    2  A    between atoms: C_3  and  O_6 
REMARK    3  A    between atoms: C_3  and  C_4 
REMARK    4  A    between atoms: C_7  and  O_6 
REMARK    5  A    between atoms: C_9  and  C_10 
REMARK    6  A    between atoms: N_15  and  C_14 
REMARK    7  A    between atoms: N_20  and  C_19 
REMARK       I    between atoms: C_22  and  N_20 
ROOT
ATOM      1  C   LIG d   1      -1.397  90.245 118.147  0.00  0.00     0.161 C 
ATOM      2  C   LIG d   1      -2.724  90.303 117.690  0.00  0.00     0.016 C 
ATOM      3  C   LIG d   1      -3.447  91.510 117.549  0.00  0.00     0.038 C 
ATOM      4  C   LIG d   1      -2.837  92.763 117.711  0.00  0.00     0.028 C 
ATOM      5  C   LIG d   1      -1.643  92.736 118.660  0.00  0.00    -0.047 C 
ATOM      6  C   LIG d   1      -0.679  91.609 118.223  0.00  0.00     0.091 C 
ENDROOT
BRANCH   1   7
ATOM      7  O   LIG d   1      -0.640  89.326 117.335  0.00  0.00    -0.368 OA
BRANCH   7   8
ATOM      8  C   LIG d   1      -0.210  88.106 117.987  0.00  0.00     0.119 C 
BRANCH   8   9
ATOM      9  C   LIG d   1      -0.762  88.129 119.425  0.00  0.00     0.028 C 
ATOM     10  C   LIG d   1      -1.752  86.983 119.693  0.00  0.00     0.006 C 
ENDBRANCH   8   9
BRANCH   8  11
ATOM     11  C   LIG d   1       1.314  88.062 118.138  0.00  0.00     0.028 C 
ATOM     12  C   LIG d   1       1.815  86.742 118.743  0.00  0.00     0.006 C 
ENDBRANCH   8  11
ENDBRANCH   7   8
ENDBRANCH   1   7
BRANCH   6  13
ATOM     13  N   LIG d   1       0.474  91.460 119.148  0.00  0.00    -0.311 N 
ATOM     14  C   LIG d   1       1.658  92.034 118.942  0.00  0.00     0.210 C 
ATOM     15  C   LIG d   1       2.716  91.734 120.009  0.00  0.00     0.109 C 
ATOM     16  O   LIG d   1       1.923  92.789 117.995  0.00  0.00    -0.276 OA
ATOM     17  H   LIG d   1       0.337  90.889 119.959  0.00  0.00     0.149 HD
ENDBRANCH   6  13
BRANCH   5  18
ATOM     18  N   LIG d   1      -1.020  94.073 118.630  0.00  0.00     0.381 N 
ATOM     19  H   LIG d   1      -1.171  94.497 117.736  0.00  0.00    -0.090 HD
ATOM     20  H   LIG d   1      -0.030  93.974 118.769  0.00  0.00    -0.090 HD
ATOM     21  H   LIG d   1      -1.408  94.646 119.347  0.00  0.00    -0.090 HD
ENDBRANCH   5  18
BRANCH   3  22
ATOM     22  C   LIG d   1      -4.806  91.469 117.279  0.00  0.00     0.382 C 
ATOM     23  O   LIG d   1      -5.261  90.618 116.477  0.00  0.00    -0.241 OA
ATOM     24  O   LIG d   1      -5.577  92.302 117.793  0.00  0.00    -0.241 OA
ENDBRANCH   3  22
TORSDOF 7
ENDMDL
