MODEL 1
REMARK VINA RESULT:      -5.0      0.000      0.000
REMARK  7 active torsions:
REMARK  status: ('A' for Active; 'I' for Inactive)
REMARK    1  A    between atoms: C_2  and  C_3 
REMARK    2  A    between atoms: C_3  and  O_6 
REMARK    3  A    between atoms: C_3  and  C_4 
REMARK    4  A    between atoms: C_7  and  O_6 
REMARK    5  A    between atoms: C_9  and  C_10 
REMARK    6  A    between atoms: N_15  and  C_14 
REMARK    7  A    between atoms: N_20  and  C_19 
REMARK       I    between atoms: C_22  and  N_20 
ROOT
ATOM      1  C   LIG d   1      -4.511  92.735 117.984  0.00  0.00     0.161 C 
ATOM      2  C   LIG d   1      -5.433  93.791 118.078  0.00  0.00     0.016 C 
ATOM      3  C   LIG d   1      -6.801  93.660 117.747  0.00  0.00     0.038 C 
ATOM      4  C   LIG d   1      -7.375  92.417 117.443  0.00  0.00     0.028 C 
ATOM      5  C   LIG d   1      -6.385  91.423 116.846  0.00  0.00    -0.047 C 
ATOM      6  C   LIG d   1      -5.141  91.344 117.760  0.00  0.00     0.091 C 
ENDROOT
BRANCH   1   7
ATOM      7  O   LIG d   1      -3.665  92.720 119.151  0.00  0.00    -0.368 OA
BRANCH   7   8
ATOM      8  C   LIG d   1      -4.271  93.180 120.384  0.00  0.00     0.119 C 
BRANCH   8   9
ATOM      9  C   LIG d   1      -3.215  94.011 121.138  0.00  0.00     0.028 C 
ATOM     10  C   LIG d   1      -3.136  95.460 120.629  0.00  0.00     0.006 C 
ENDBRANCH   8   9
BRANCH   8  11
ATOM     11  C   LIG d   1      -4.604  92.008 121.312  0.00  0.00     0.028 C 
ATOM     12  C   LIG d   1      -6.105  91.679 121.343  0.00  0.00     0.006 C 
ENDBRANCH   8  11
ENDBRANCH   7   8
ENDBRANCH   1   7
BRANCH   6  13
ATOM     13  N   LIG d   1      -4.085  90.457 117.206  0.00  0.00    -0.311 N 
ATOM     14  C   LIG d   1      -3.463  89.522 117.922  0.00  0.00     0.210 C 
ATOM     15  C   LIG d   1      -2.393  88.731 117.163  0.00  0.00     0.109 C 
ATOM     16  O   LIG d   1      -3.718  89.251 119.105  0.00  0.00    -0.276 OA
ATOM     17  H   LIG d   1      -3.838  90.587 116.245  0.00  0.00     0.149 HD
ENDBRANCH   6  13
BRANCH   5  18
ATOM     18  N   LIG d   1      -7.081  90.130 116.706  0.00  0.00     0.381 N 
ATOM     19  H   LIG d   1      -7.592  90.112 115.846  0.00  0.00    -0.090 HD
ATOM     20  H   LIG d   1      -7.734  90.029 117.463  0.00  0.00    -0.090 HD
ATOM     21  H   LIG d   1      -6.422  89.384 116.724  0.00  0.00    -0.090 HD
ENDBRANCH   5  18
BRANCH   3  22
ATOM     22  C   LIG d   1      -7.603  94.790 117.681  0.00  0.00     0.382 C 
ATOM     23  O   LIG d   1      -7.149  95.903 118.041  0.00  0.00    -0.241 OA
ATOM     24  O   LIG d   1      -8.788  94.702 117.308  0.00  0.00    -0.241 OA
ENDBRANCH   3  22
TORSDOF 7
ENDMDL
MODEL 2
REMARK VINA RESULT:      -4.8      2.453      5.016
REMARK  7 active torsions:
REMARK  status: ('A' for Active; 'I' for Inactive)
REMARK    1  A    between atoms: C_2  and  C_3 
REMARK    2  A    between atoms: C_3  and  O_6 
REMARK    3  A    between atoms: C_3  and  C_4 
REMARK    4  A    between atoms: C_7  and  O_6 
REMARK    5  A    between atoms: C_9  and  C_10 
REMARK    6  A    between atoms: N_15  and  C_14 
REMARK    7  A    between atoms: N_20  and  C_19 
REMARK       I    between atoms: C_22  and  N_20 
ROOT
ATOM      1  C   LIG d   1      -6.274  92.628 119.565  0.00  0.00     0.161 C 
ATOM      2  C   LIG d   1      -5.926  91.510 118.790  0.00  0.00     0.016 C 
ATOM      3  C   LIG d   1      -6.239  91.386 117.417  0.00  0.00     0.038 C 
ATOM      4  C   LIG d   1      -6.793  92.447 116.685  0.00  0.00     0.028 C 
ATOM      5  C   LIG d   1      -7.620  93.404 117.536  0.00  0.00    -0.047 C 
ATOM      6  C   LIG d   1      -6.780  93.842 118.758  0.00  0.00     0.091 C 
ENDROOT
BRANCH   1   7
ATOM      7  O   LIG d   1      -5.162  93.010 120.399  0.00  0.00    -0.368 OA
BRANCH   7   8
ATOM      8  C   LIG d   1      -4.070  93.691 119.734  0.00  0.00     0.119 C 
BRANCH   8   9
ATOM      9  C   LIG d   1      -2.876  92.717 119.689  0.00  0.00     0.028 C 
ATOM     10  C   LIG d   1      -2.489  92.329 118.252  0.00  0.00     0.006 C 
ENDBRANCH   8   9
BRANCH   8  11
ATOM     11  C   LIG d   1      -3.583  94.892 120.550  0.00  0.00     0.028 C 
ATOM     12  C   LIG d   1      -4.005  96.238 119.939  0.00  0.00     0.006 C 
ENDBRANCH   8  11
ENDBRANCH   7   8
ENDBRANCH   1   7
BRANCH   6  13
ATOM     13  N   LIG d   1      -7.544  94.714 119.688  0.00  0.00    -0.311 N 
ATOM     14  C   LIG d   1      -7.632  96.036 119.549  0.00  0.00     0.210 C 
ATOM     15  C   LIG d   1      -8.452  96.747 120.629  0.00  0.00     0.109 C 
ATOM     16  O   LIG d   1      -7.135  96.683 118.614  0.00  0.00    -0.276 OA
ATOM     17  H   LIG d   1      -8.004  94.268 120.457  0.00  0.00     0.149 HD
ENDBRANCH   6  13
BRANCH   5  18
ATOM     18  N   LIG d   1      -8.021  94.533 116.676  0.00  0.00     0.381 N 
ATOM     19  H   LIG d   1      -7.216  94.919 116.225  0.00  0.00    -0.090 HD
ATOM     20  H   LIG d   1      -8.434  95.248 117.249  0.00  0.00    -0.090 HD
ATOM     21  H   LIG d   1      -8.677  94.225 115.993  0.00  0.00    -0.090 HD
ENDBRANCH   5  18
BRANCH   3  22
ATOM     22  C   LIG d   1      -6.035  90.177 116.771  0.00  0.00     0.382 C 
ATOM     23  O   LIG d   1      -7.017  89.474 116.430  0.00  0.00    -0.241 OA
ATOM     24  O   LIG d   1      -4.880  89.758 116.565  0.00  0.00    -0.241 OA
ENDBRANCH   3  22
TORSDOF 7
ENDMDL
MODEL 3
REMARK VINA RESULT:      -4.6      1.247      1.865
REMARK  7 active torsions:
REMARK  status: ('A' for Active; 'I' for Inactive)
REMARK    1  A    between atoms: C_2  and  C_3 
REMARK    2  A    between atoms: C_3  and  O_6 
REMARK    3  A    between atoms: C_3  and  C_4 
REMARK    4  A    between atoms: C_7  and  O_6 
REMARK    5  A    between atoms: C_9  and  C_10 
REMARK    6  A    between atoms: N_15  and  C_14 
REMARK    7  A    between atoms: N_20  and  C_19 
REMARK       I    between atoms: C_22  and  N_20 
ROOT
ATOM      1  C   LIG d   1      -4.413  93.051 118.427  0.00  0.00     0.161 C 
ATOM      2  C   LIG d   1      -5.452  93.996 118.438  0.00  0.00     0.016 C 
ATOM      3  C   LIG d   1      -6.712  93.775 117.836  0.00  0.00     0.038 C 
ATOM      4  C   LIG d   1      -7.072  92.526 117.308  0.00  0.00     0.028 C 
ATOM      5  C   LIG d   1      -5.881  91.705 116.826  0.00  0.00    -0.047 C 
ATOM      6  C   LIG d   1      -4.826  91.642 117.954  0.00  0.00     0.091 C 
ENDROOT
BRANCH   1   7
ATOM      7  O   LIG d   1      -3.801  92.983 119.730  0.00  0.00    -0.368 OA
BRANCH   7   8
ATOM      8  C   LIG d   1      -2.474  93.555 119.842  0.00  0.00     0.119 C 
BRANCH   8   9
ATOM      9  C   LIG d   1      -1.534  92.448 120.357  0.00  0.00     0.028 C 
ATOM     10  C   LIG d   1      -0.400  92.134 119.367  0.00  0.00     0.006 C 
ENDBRANCH   8   9
BRANCH   8  11
ATOM     11  C   LIG d   1      -2.429  94.654 120.908  0.00  0.00     0.028 C 
ATOM     12  C   LIG d   1      -3.691  94.684 121.786  0.00  0.00     0.006 C 
ENDBRANCH   8  11
ENDBRANCH   7   8
ENDBRANCH   1   7
BRANCH   6  13
ATOM     13  N   LIG d   1      -3.591  90.928 117.535  0.00  0.00    -0.311 N 
ATOM     14  C   LIG d   1      -3.167  89.801 118.103  0.00  0.00     0.210 C 
ATOM     15  C   LIG d   1      -1.860  89.241 117.534  0.00  0.00     0.109 C 
ATOM     16  O   LIG d   1      -3.767  89.194 119.003  0.00  0.00    -0.276 OA
ATOM     17  H   LIG d   1      -3.059  91.335 116.790  0.00  0.00     0.149 HD
ENDBRANCH   6  13
BRANCH   5  18
ATOM     18  N   LIG d   1      -6.385  90.377 116.430  0.00  0.00     0.381 N 
ATOM     19  H   LIG d   1      -5.696  89.680 116.630  0.00  0.00    -0.090 HD
ATOM     20  H   LIG d   1      -6.557  90.376 115.440  0.00  0.00    -0.090 HD
ATOM     21  H   LIG d   1      -7.227  90.172 116.921  0.00  0.00    -0.090 HD
ENDBRANCH   5  18
BRANCH   3  22
ATOM     22  C   LIG d   1      -7.613  94.823 117.721  0.00  0.00     0.382 C 
ATOM     23  O   LIG d   1      -8.715  94.642 117.149  0.00  0.00    -0.241 OA
ATOM     24  O   LIG d   1      -7.319  95.957 118.143  0.00  0.00    -0.241 OA
ENDBRANCH   3  22
TORSDOF 7
ENDMDL
MODEL 4
REMARK VINA RESULT:      -4.5      2.734      4.920
REMARK  7 active torsions:
REMARK  status: ('A' for Active; 'I' for Inactive)
REMARK    1  A    between atoms: C_2  and  C_3 
REMARK    2  A    between atoms: C_3  and  O_6 
REMARK    3  A    between atoms: C_3  and  C_4 
REMARK    4  A    between atoms: C_7  and  O_6 
REMARK    5  A    between atoms: C_9  and  C_10 
REMARK    6  A    between atoms: N_15  and  C_14 
REMARK    7  A    between atoms: N_20  and  C_19 
REMARK       I    between atoms: C_22  and  N_20 
ROOT
ATOM      1  C   LIG d   1      -6.533  92.820 119.719  0.00  0.00     0.161 C 
ATOM      2  C   LIG d   1      -5.962  91.705 119.084  0.00  0.00     0.016 C 
ATOM      3  C   LIG d   1      -5.995  91.504 117.685  0.00  0.00     0.038 C 
ATOM      4  C   LIG d   1      -6.472  92.488 116.806  0.00  0.00     0.028 C 
ATOM      5  C   LIG d   1      -7.515  93.407 117.434  0.00  0.00    -0.047 C 
ATOM      6  C   LIG d   1      -6.960  93.957 118.768  0.00  0.00     0.091 C 
ENDROOT
BRANCH   1   7
ATOM      7  O   LIG d   1      -5.634  93.322 120.728  0.00  0.00    -0.368 OA
BRANCH   7   8
ATOM      8  C   LIG d   1      -6.102  93.239 122.097  0.00  0.00     0.119 C 
BRANCH   8   9
ATOM      9  C   LIG d   1      -4.969  92.618 122.937  0.00  0.00     0.028 C 
ATOM     10  C   LIG d   1      -4.700  91.150 122.565  0.00  0.00     0.006 C 
ENDBRANCH   8   9
BRANCH   8  11
ATOM     11  C   LIG d   1      -7.280  92.270 122.225  0.00  0.00     0.028 C 
ATOM     12  C   LIG d   1      -8.402  92.811 123.126  0.00  0.00     0.006 C 
ENDBRANCH   8  11
ENDBRANCH   7   8
ENDBRANCH   1   7
BRANCH   6  13
ATOM     13  N   LIG d   1      -7.950  94.799 119.489  0.00  0.00    -0.311 N 
ATOM     14  C   LIG d   1      -9.164  94.371 119.833  0.00  0.00     0.210 C 
ATOM     15  C   LIG d   1     -10.035  95.406 120.553  0.00  0.00     0.109 C 
ATOM     16  O   LIG d   1      -9.591  93.223 119.638  0.00  0.00    -0.276 OA
ATOM     17  H   LIG d   1      -7.676  95.735 119.715  0.00  0.00     0.149 HD
ENDBRANCH   6  13
BRANCH   5  18
ATOM     18  N   LIG d   1      -7.823  94.466 116.455  0.00  0.00     0.381 N 
ATOM     19  H   LIG d   1      -7.210  95.245 116.594  0.00  0.00    -0.090 HD
ATOM     20  H   LIG d   1      -8.767  94.778 116.600  0.00  0.00    -0.090 HD
ATOM     21  H   LIG d   1      -7.720  94.114 115.529  0.00  0.00    -0.090 HD
ENDBRANCH   5  18
BRANCH   3  22
ATOM     22  C   LIG d   1      -5.582  90.291 117.155  0.00  0.00     0.382 C 
ATOM     23  O   LIG d   1      -4.411  89.887 117.352  0.00  0.00    -0.241 OA
ATOM     24  O   LIG d   1      -6.353  89.618 116.444  0.00  0.00    -0.241 OA
ENDBRANCH   3  22
TORSDOF 7
ENDMDL
MODEL 5
REMARK VINA RESULT:      -4.4      2.504      4.714
REMARK  7 active torsions:
REMARK  status: ('A' for Active; 'I' for Inactive)
REMARK    1  A    between atoms: C_2  and  C_3 
REMARK    2  A    between atoms: C_3  and  O_6 
REMARK    3  A    between atoms: C_3  and  C_4 
REMARK    4  A    between atoms: C_7  and  O_6 
REMARK    5  A    between atoms: C_9  and  C_10 
REMARK    6  A    between atoms: N_15  and  C_14 
REMARK    7  A    between atoms: N_20  and  C_19 
REMARK       I    between atoms: C_22  and  N_20 
ROOT
ATOM      1  C   LIG d   1      -5.771  92.835 119.282  0.00  0.00     0.161 C 
ATOM      2  C   LIG d   1      -5.603  91.655 118.539  0.00  0.00     0.016 C 
ATOM      3  C   LIG d   1      -6.226  91.426 117.290  0.00  0.00     0.038 C 
ATOM      4  C   LIG d   1      -6.944  92.431 116.625  0.00  0.00     0.028 C 
ATOM      5  C   LIG d   1      -7.559  93.461 117.566  0.00  0.00    -0.047 C 
ATOM      6  C   LIG d   1      -6.462  93.986 118.521  0.00  0.00     0.091 C 
ENDROOT
BRANCH   1   7
ATOM      7  O   LIG d   1      -4.500  93.270 119.802  0.00  0.00    -0.368 OA
BRANCH   7   8
ATOM      8  C   LIG d   1      -3.963  92.496 120.903  0.00  0.00     0.119 C 
BRANCH   8   9
ATOM      9  C   LIG d   1      -3.547  93.487 122.007  0.00  0.00     0.028 C 
ATOM     10  C   LIG d   1      -4.500  94.690 122.105  0.00  0.00     0.006 C 
ENDBRANCH   8   9
BRANCH   8  11
ATOM     11  C   LIG d   1      -2.674  91.774 120.500  0.00  0.00     0.028 C 
ATOM     12  C   LIG d   1      -2.741  90.257 120.736  0.00  0.00     0.006 C 
ENDBRANCH   8  11
ENDBRANCH   7   8
ENDBRANCH   1   7
BRANCH   6  13
ATOM     13  N   LIG d   1      -6.996  94.936 119.530  0.00  0.00    -0.311 N 
ATOM     14  C   LIG d   1      -6.994  96.258 119.366  0.00  0.00     0.210 C 
ATOM     15  C   LIG d   1      -7.574  97.056 120.538  0.00  0.00     0.109 C 
ATOM     16  O   LIG d   1      -6.597  96.844 118.348  0.00  0.00    -0.276 OA
ATOM     17  H   LIG d   1      -7.367  94.545 120.374  0.00  0.00     0.149 HD
ENDBRANCH   6  13
BRANCH   5  18
ATOM     18  N   LIG d   1      -8.159  94.522 116.736  0.00  0.00     0.381 N 
ATOM     19  H   LIG d   1      -9.054  94.225 116.401  0.00  0.00    -0.090 HD
ATOM     20  H   LIG d   1      -7.565  94.688 115.942  0.00  0.00    -0.090 HD
ATOM     21  H   LIG d   1      -8.256  95.358 117.269  0.00  0.00    -0.090 HD
ENDBRANCH   5  18
BRANCH   3  22
ATOM     22  C   LIG d   1      -6.166  90.167 116.713  0.00  0.00     0.382 C 
ATOM     23  O   LIG d   1      -5.055  89.659 116.430  0.00  0.00    -0.241 OA
ATOM     24  O   LIG d   1      -7.212  89.551 116.430  0.00  0.00    -0.241 OA
ENDBRANCH   3  22
TORSDOF 7
ENDMDL
MODEL 6
REMARK VINA RESULT:      -4.3      2.629      4.931
REMARK  7 active torsions:
REMARK  status: ('A' for Active; 'I' for Inactive)
REMARK    1  A    between atoms: C_2  and  C_3 
REMARK    2  A    between atoms: C_3  and  O_6 
REMARK    3  A    between atoms: C_3  and  C_4 
REMARK    4  A    between atoms: C_7  and  O_6 
REMARK    5  A    between atoms: C_9  and  C_10 
REMARK    6  A    between atoms: N_15  and  C_14 
REMARK    7  A    between atoms: N_20  and  C_19 
REMARK       I    between atoms: C_22  and  N_20 
ROOT
ATOM      1  C   LIG d   1      -3.832  91.165 119.105  0.00  0.00     0.161 C 
ATOM      2  C   LIG d   1      -4.758  90.623 118.198  0.00  0.00     0.016 C 
ATOM      3  C   LIG d   1      -5.679  91.406 117.465  0.00  0.00     0.038 C 
ATOM      4  C   LIG d   1      -5.634  92.808 117.476  0.00  0.00     0.028 C 
ATOM      5  C   LIG d   1      -5.050  93.385 118.761  0.00  0.00    -0.047 C 
ATOM      6  C   LIG d   1      -3.693  92.701 119.047  0.00  0.00     0.091 C 
ENDROOT
BRANCH   1   7
ATOM      7  O   LIG d   1      -2.546  90.539 118.923  0.00  0.00    -0.368 OA
BRANCH   7   8
ATOM      8  C   LIG d   1      -2.565  89.124 118.612  0.00  0.00     0.119 C 
BRANCH   8   9
ATOM      9  C   LIG d   1      -2.055  88.370 119.855  0.00  0.00     0.028 C 
ATOM     10  C   LIG d   1      -2.463  86.887 119.850  0.00  0.00     0.006 C 
ENDBRANCH   8   9
BRANCH   8  11
ATOM     11  C   LIG d   1      -1.571  88.786 117.497  0.00  0.00     0.028 C 
ATOM     12  C   LIG d   1      -0.566  89.918 117.231  0.00  0.00     0.006 C 
ENDBRANCH   8  11
ENDBRANCH   7   8
ENDBRANCH   1   7
BRANCH   6  13
ATOM     13  N   LIG d   1      -3.093  93.147 120.332  0.00  0.00    -0.311 N 
ATOM     14  C   LIG d   1      -1.842  93.590 120.441  0.00  0.00     0.210 C 
ATOM     15  C   LIG d   1      -1.416  93.981 121.860  0.00  0.00     0.109 C 
ATOM     16  O   LIG d   1      -1.055  93.728 119.493  0.00  0.00    -0.276 OA
ATOM     17  H   LIG d   1      -3.672  93.098 121.147  0.00  0.00     0.149 HD
ENDBRANCH   6  13
BRANCH   5  18
ATOM     18  N   LIG d   1      -4.935  94.845 118.583  0.00  0.00     0.381 N 
ATOM     19  H   LIG d   1      -5.800  95.214 118.243  0.00  0.00    -0.090 HD
ATOM     20  H   LIG d   1      -4.222  95.034 117.901  0.00  0.00    -0.090 HD
ATOM     21  H   LIG d   1      -4.699  95.277 119.449  0.00  0.00    -0.090 HD
ENDBRANCH   5  18
BRANCH   3  22
ATOM     22  C   LIG d   1      -6.685  90.785 116.740  0.00  0.00     0.382 C 
ATOM     23  O   LIG d   1      -7.720  91.423 116.430  0.00  0.00    -0.241 OA
ATOM     24  O   LIG d   1      -6.590  89.583 116.430  0.00  0.00    -0.241 OA
ENDBRANCH   3  22
TORSDOF 7
ENDMDL
MODEL 7
REMARK VINA RESULT:      -4.1      2.436      4.217
REMARK  7 active torsions:
REMARK  status: ('A' for Active; 'I' for Inactive)
REMARK    1  A    between atoms: C_2  and  C_3 
REMARK    2  A    between atoms: C_3  and  O_6 
REMARK    3  A    between atoms: C_3  and  C_4 
REMARK    4  A    between atoms: C_7  and  O_6 
REMARK    5  A    between atoms: C_9  and  C_10 
REMARK    6  A    between atoms: N_15  and  C_14 
REMARK    7  A    between atoms: N_20  and  C_19 
REMARK       I    between atoms: C_22  and  N_20 
ROOT
ATOM      1  C   LIG d   1      -4.550  93.591 118.341  0.00  0.00     0.161 C 
ATOM      2  C   LIG d   1      -5.517  92.838 117.654  0.00  0.00     0.016 C 
ATOM      3  C   LIG d   1      -5.590  91.428 117.710  0.00  0.00     0.038 C 
ATOM      4  C   LIG d   1      -4.788  90.678 118.585  0.00  0.00     0.028 C 
ATOM      5  C   LIG d   1      -3.462  91.352 118.918  0.00  0.00    -0.047 C 
ATOM      6  C   LIG d   1      -3.737  92.799 119.387  0.00  0.00     0.091 C 
ENDROOT
BRANCH   1   7
ATOM      7  O   LIG d   1      -5.168  94.740 118.953  0.00  0.00    -0.368 OA
BRANCH   7   8
ATOM      8  C   LIG d   1      -6.592  94.640 119.202  0.00  0.00     0.119 C 
BRANCH   8   9
ATOM      9  C   LIG d   1      -7.227  95.986 118.805  0.00  0.00     0.028 C 
ATOM     10  C   LIG d   1      -8.419  95.814 117.849  0.00  0.00     0.006 C 
ENDBRANCH   8   9
BRANCH   8  11
ATOM     11  C   LIG d   1      -6.886  94.477 120.696  0.00  0.00     0.028 C 
ATOM     12  C   LIG d   1      -7.098  93.011 121.106  0.00  0.00     0.006 C 
ENDBRANCH   8  11
ENDBRANCH   7   8
ENDBRANCH   1   7
BRANCH   6  13
ATOM     13  N   LIG d   1      -2.487  93.556 119.653  0.00  0.00    -0.311 N 
ATOM     14  C   LIG d   1      -1.926  93.645 120.858  0.00  0.00     0.210 C 
ATOM     15  C   LIG d   1      -0.650  94.492 120.917  0.00  0.00     0.109 C 
ATOM     16  O   LIG d   1      -2.345  93.077 121.877  0.00  0.00    -0.276 OA
ATOM     17  H   LIG d   1      -2.062  94.023 118.876  0.00  0.00     0.149 HD
ENDBRANCH   6  13
BRANCH   5  18
ATOM     18  N   LIG d   1      -2.790  90.530 119.942  0.00  0.00     0.381 N 
ATOM     19  H   LIG d   1      -1.799  90.556 119.802  0.00  0.00    -0.090 HD
ATOM     20  H   LIG d   1      -3.096  89.578 119.848  0.00  0.00    -0.090 HD
ATOM     21  H   LIG d   1      -3.012  90.869 120.852  0.00  0.00    -0.090 HD
ENDBRANCH   5  18
BRANCH   3  22
ATOM     22  C   LIG d   1      -6.445  90.749 116.856  0.00  0.00     0.382 C 
ATOM     23  O   LIG d   1      -7.548  91.257 116.540  0.00  0.00    -0.241 OA
ATOM     24  O   LIG d   1      -6.148  89.616 116.433  0.00  0.00    -0.241 OA
ENDBRANCH   3  22
TORSDOF 7
ENDMDL
MODEL 8
REMARK VINA RESULT:      -3.9      3.282      4.731
REMARK  7 active torsions:
REMARK  status: ('A' for Active; 'I' for Inactive)
REMARK    1  A    between atoms: C_2  and  C_3 
REMARK    2  A    between atoms: C_3  and  O_6 
REMARK    3  A    between atoms: C_3  and  C_4 
REMARK    4  A    between atoms: C_7  and  O_6 
REMARK    5  A    between atoms: C_9  and  C_10 
REMARK    6  A    between atoms: N_15  and  C_14 
REMARK    7  A    between atoms: N_20  and  C_19 
REMARK       I    between atoms: C_22  and  N_20 
ROOT
ATOM      1  C   LIG d   1      -1.579  91.796 118.217  0.00  0.00     0.161 C 
ATOM      2  C   LIG d   1      -2.980  91.755 118.315  0.00  0.00     0.016 C 
ATOM      3  C   LIG d   1      -3.748  90.608 118.009  0.00  0.00     0.038 C 
ATOM      4  C   LIG d   1      -3.151  89.370 117.728  0.00  0.00     0.028 C 
ATOM      5  C   LIG d   1      -1.756  89.493 117.126  0.00  0.00    -0.047 C 
ATOM      6  C   LIG d   1      -0.904  90.423 118.019  0.00  0.00     0.091 C 
ENDROOT
BRANCH   1   7
ATOM      7  O   LIG d   1      -1.029  92.464 119.370  0.00  0.00    -0.368 OA
BRANCH   7   8
ATOM      8  C   LIG d   1      -0.811  91.639 120.541  0.00  0.00     0.119 C 
BRANCH   8   9
ATOM      9  C   LIG d   1      -1.652  92.232 121.688  0.00  0.00     0.028 C 
ATOM     10  C   LIG d   1      -2.076  93.685 121.415  0.00  0.00     0.006 C 
ENDBRANCH   8   9
BRANCH   8  11
ATOM     11  C   LIG d   1       0.642  91.722 121.018  0.00  0.00     0.028 C 
ATOM     12  C   LIG d   1       1.448  92.807 120.287  0.00  0.00     0.006 C 
ENDBRANCH   8  11
ENDBRANCH   7   8
ENDBRANCH   1   7
BRANCH   6  13
ATOM     13  N   LIG d   1       0.450  90.665 117.457  0.00  0.00    -0.311 N 
ATOM     14  C   LIG d   1       1.528  89.970 117.817  0.00  0.00     0.210 C 
ATOM     15  C   LIG d   1       2.830  90.394 117.130  0.00  0.00     0.109 C 
ATOM     16  O   LIG d   1       1.524  89.021 118.615  0.00  0.00    -0.276 OA
ATOM     17  H   LIG d   1       0.539  91.397 116.780  0.00  0.00     0.149 HD
ENDBRANCH   6  13
BRANCH   5  18
ATOM     18  N   LIG d   1      -1.198  88.132 117.011  0.00  0.00     0.381 N 
ATOM     19  H   LIG d   1      -1.934  87.479 116.830  0.00  0.00    -0.090 HD
ATOM     20  H   LIG d   1      -0.764  87.884 117.883  0.00  0.00    -0.090 HD
ATOM     21  H   LIG d   1      -0.526  88.099 116.276  0.00  0.00    -0.090 HD
ENDBRANCH   5  18
BRANCH   3  22
ATOM     22  C   LIG d   1      -5.130  90.703 117.944  0.00  0.00     0.382 C 
ATOM     23  O   LIG d   1      -5.743  91.473 118.722  0.00  0.00    -0.241 OA
ATOM     24  O   LIG d   1      -5.775  89.996 117.147  0.00  0.00    -0.241 OA
ENDBRANCH   3  22
TORSDOF 7
ENDMDL
MODEL 9
REMARK VINA RESULT:      -3.9      2.541      4.653
REMARK  7 active torsions:
REMARK  status: ('A' for Active; 'I' for Inactive)
REMARK    1  A    between atoms: C_2  and  C_3 
REMARK    2  A    between atoms: C_3  and  O_6 
REMARK    3  A    between atoms: C_3  and  C_4 
REMARK    4  A    between atoms: C_7  and  O_6 
REMARK    5  A    between atoms: C_9  and  C_10 
REMARK    6  A    between atoms: N_15  and  C_14 
REMARK    7  A    between atoms: N_20  and  C_19 
REMARK       I    between atoms: C_22  and  N_20 
ROOT
ATOM      1  C   LIG d   1      -3.561  91.663 118.624  0.00  0.00     0.161 C 
ATOM      2  C   LIG d   1      -4.637  91.587 117.724  0.00  0.00     0.016 C 
ATOM      3  C   LIG d   1      -5.574  92.630 117.542  0.00  0.00     0.038 C 
ATOM      4  C   LIG d   1      -5.410  93.888 118.142  0.00  0.00     0.028 C 
ATOM      5  C   LIG d   1      -4.621  93.838 119.446  0.00  0.00    -0.047 C 
ATOM      6  C   LIG d   1      -3.302  93.069 119.206  0.00  0.00     0.091 C 
ENDROOT
BRANCH   1   7
ATOM      7  O   LIG d   1      -2.367  91.150 118.002  0.00  0.00    -0.368 OA
BRANCH   7   8
ATOM      8  C   LIG d   1      -1.900  89.865 118.481  0.00  0.00     0.119 C 
BRANCH   8   9
ATOM      9  C   LIG d   1      -2.082  88.850 117.336  0.00  0.00     0.028 C 
ATOM     10  C   LIG d   1      -0.799  88.052 117.050  0.00  0.00     0.006 C 
ENDBRANCH   8   9
BRANCH   8  11
ATOM     11  C   LIG d   1      -2.775  89.346 119.626  0.00  0.00     0.028 C 
ATOM     12  C   LIG d   1      -1.974  88.571 120.684  0.00  0.00     0.006 C 
ENDBRANCH   8  11
ENDBRANCH   7   8
ENDBRANCH   1   7
BRANCH   6  13
ATOM     13  N   LIG d   1      -2.508  92.902 120.451  0.00  0.00    -0.311 N 
ATOM     14  C   LIG d   1      -1.521  93.722 120.807  0.00  0.00     0.210 C 
ATOM     15  C   LIG d   1      -0.819  93.357 122.118  0.00  0.00     0.109 C 
ATOM     16  O   LIG d   1      -1.181  94.735 120.177  0.00  0.00    -0.276 OA
ATOM     17  H   LIG d   1      -2.738  92.123 121.037  0.00  0.00     0.149 HD
ENDBRANCH   6  13
BRANCH   5  18
ATOM     18  N   LIG d   1      -4.407  95.229 119.890  0.00  0.00     0.381 N 
ATOM     19  H   LIG d   1      -5.182  95.796 119.612  0.00  0.00    -0.090 HD
ATOM     20  H   LIG d   1      -3.579  95.587 119.448  0.00  0.00    -0.090 HD
ATOM     21  H   LIG d   1      -4.302  95.258 120.881  0.00  0.00    -0.090 HD
ENDBRANCH   5  18
BRANCH   3  22
ATOM     22  C   LIG d   1      -6.713  92.406 116.783  0.00  0.00     0.382 C 
ATOM     23  O   LIG d   1      -7.431  93.373 116.430  0.00  0.00    -0.241 OA
ATOM     24  O   LIG d   1      -7.054  91.247 116.483  0.00  0.00    -0.241 OA
ENDBRANCH   3  22
TORSDOF 7
ENDMDL
