MODEL 1
REMARK VINA RESULT:      -4.6      0.000      0.000
REMARK  7 active torsions:
REMARK  status: ('A' for Active; 'I' for Inactive)
REMARK    1  A    between atoms: C_2  and  C_3 
REMARK    2  A    between atoms: C_3  and  O_6 
REMARK    3  A    between atoms: C_3  and  C_4 
REMARK    4  A    between atoms: C_7  and  O_6 
REMARK    5  A    between atoms: C_9  and  C_10 
REMARK    6  A    between atoms: N_15  and  C_14 
REMARK    7  A    between atoms: N_20  and  C_19 
REMARK       I    between atoms: C_22  and  N_20 
ROOT
ATOM      1  C   LIG d   1      -5.806  93.527 120.221  0.00  0.00     0.161 C 
ATOM      2  C   LIG d   1      -7.137  93.848 119.902  0.00  0.00     0.016 C 
ATOM      3  C   LIG d   1      -7.513  95.038 119.238  0.00  0.00     0.038 C 
ATOM      4  C   LIG d   1      -6.563  95.924 118.710  0.00  0.00     0.028 C 
ATOM      5  C   LIG d   1      -5.229  95.894 119.449  0.00  0.00    -0.047 C 
ATOM      6  C   LIG d   1      -4.747  94.429 119.554  0.00  0.00     0.091 C 
ENDROOT
BRANCH   1   7
ATOM      7  O   LIG d   1      -5.550  92.143 119.914  0.00  0.00    -0.368 OA
BRANCH   7   8
ATOM      8  C   LIG d   1      -5.078  91.863 118.574  0.00  0.00     0.119 C 
BRANCH   8   9
ATOM      9  C   LIG d   1      -6.243  91.220 117.797  0.00  0.00     0.028 C 
ATOM     10  C   LIG d   1      -6.497  91.908 116.445  0.00  0.00     0.006 C 
ENDBRANCH   8   9
BRANCH   8  11
ATOM     11  C   LIG d   1      -3.966  90.810 118.583  0.00  0.00     0.028 C 
ATOM     12  C   LIG d   1      -3.519  90.427 120.003  0.00  0.00     0.006 C 
ENDBRANCH   8  11
ENDBRANCH   7   8
ENDBRANCH   1   7
BRANCH   6  13
ATOM     13  N   LIG d   1      -3.490  94.301 120.337  0.00  0.00    -0.311 N 
ATOM     14  C   LIG d   1      -2.315  93.993 119.791  0.00  0.00     0.210 C 
ATOM     15  C   LIG d   1      -1.149  93.892 120.780  0.00  0.00     0.109 C 
ATOM     16  O   LIG d   1      -2.120  93.825 118.578  0.00  0.00    -0.276 OA
ATOM     17  H   LIG d   1      -3.551  94.452 121.325  0.00  0.00     0.149 HD
ENDBRANCH   6  13
BRANCH   5  18
ATOM     18  N   LIG d   1      -4.291  96.760 118.711  0.00  0.00     0.381 N 
ATOM     19  H   LIG d   1      -4.000  97.519 119.294  0.00  0.00    -0.090 HD
ATOM     20  H   LIG d   1      -4.762  97.142 117.909  0.00  0.00    -0.090 HD
ATOM     21  H   LIG d   1      -3.498  96.233 118.419  0.00  0.00    -0.090 HD
ENDBRANCH   5  18
BRANCH   3  22
ATOM     22  C   LIG d   1      -8.855  95.371 119.133  0.00  0.00     0.382 C 
ATOM     23  O   LIG d   1      -9.711  94.742 119.800  0.00  0.00    -0.241 OA
ATOM     24  O   LIG d   1      -9.224  96.262 118.345  0.00  0.00    -0.241 OA
ENDBRANCH   3  22
TORSDOF 7
ENDMDL
MODEL 2
REMARK VINA RESULT:      -4.4      2.305      5.697
REMARK  7 active torsions:
REMARK  status: ('A' for Active; 'I' for Inactive)
REMARK    1  A    between atoms: C_2  and  C_3 
REMARK    2  A    between atoms: C_3  and  O_6 
REMARK    3  A    between atoms: C_3  and  C_4 
REMARK    4  A    between atoms: C_7  and  O_6 
REMARK    5  A    between atoms: C_9  and  C_10 
REMARK    6  A    between atoms: N_15  and  C_14 
REMARK    7  A    between atoms: N_20  and  C_19 
REMARK       I    between atoms: C_22  and  N_20 
ROOT
ATOM      1  C   LIG d   1      -5.062  92.453 119.988  0.00  0.00     0.161 C 
ATOM      2  C   LIG d   1      -4.087  91.501 119.647  0.00  0.00     0.016 C 
ATOM      3  C   LIG d   1      -4.040  90.849 118.393  0.00  0.00     0.038 C 
ATOM      4  C   LIG d   1      -4.882  91.219 117.334  0.00  0.00     0.028 C 
ATOM      5  C   LIG d   1      -6.207  91.819 117.794  0.00  0.00    -0.047 C 
ATOM      6  C   LIG d   1      -5.920  92.951 118.807  0.00  0.00     0.091 C 
ENDROOT
BRANCH   1   7
ATOM      7  O   LIG d   1      -4.442  93.567 120.661  0.00  0.00    -0.368 OA
BRANCH   7   8
ATOM      8  C   LIG d   1      -3.855  94.580 119.809  0.00  0.00     0.119 C 
BRANCH   8   9
ATOM      9  C   LIG d   1      -2.325  94.491 119.970  0.00  0.00     0.028 C 
ATOM     10  C   LIG d   1      -1.623  94.051 118.674  0.00  0.00     0.006 C 
ENDBRANCH   8   9
BRANCH   8  11
ATOM     11  C   LIG d   1      -4.230  95.989 120.278  0.00  0.00     0.028 C 
ATOM     12  C   LIG d   1      -3.849  97.077 119.262  0.00  0.00     0.006 C 
ENDBRANCH   8  11
ENDBRANCH   7   8
ENDBRANCH   1   7
BRANCH   6  13
ATOM     13  N   LIG d   1      -7.165  93.535 119.370  0.00  0.00    -0.311 N 
ATOM     14  C   LIG d   1      -7.587  94.768 119.093  0.00  0.00     0.210 C 
ATOM     15  C   LIG d   1      -8.885  95.180 119.796  0.00  0.00     0.109 C 
ATOM     16  O   LIG d   1      -7.028  95.547 118.307  0.00  0.00    -0.276 OA
ATOM     17  H   LIG d   1      -7.697  92.960 119.994  0.00  0.00     0.149 HD
ENDBRANCH   6  13
BRANCH   5  18
ATOM     18  N   LIG d   1      -6.925  92.286 116.593  0.00  0.00     0.381 N 
ATOM     19  H   LIG d   1      -7.752  92.779 116.864  0.00  0.00    -0.090 HD
ATOM     20  H   LIG d   1      -7.199  91.488 116.047  0.00  0.00    -0.090 HD
ATOM     21  H   LIG d   1      -6.336  92.881 116.053  0.00  0.00    -0.090 HD
ENDBRANCH   5  18
BRANCH   3  22
ATOM     22  C   LIG d   1      -3.170  89.787 118.203  0.00  0.00     0.382 C 
ATOM     23  O   LIG d   1      -3.418  88.672 118.723  0.00  0.00    -0.241 OA
ATOM     24  O   LIG d   1      -2.118  89.940 117.555  0.00  0.00    -0.241 OA
ENDBRANCH   3  22
TORSDOF 7
ENDMDL
MODEL 3
REMARK VINA RESULT:      -4.3      3.719      7.045
REMARK  7 active torsions:
REMARK  status: ('A' for Active; 'I' for Inactive)
REMARK    1  A    between atoms: C_2  and  C_3 
REMARK    2  A    between atoms: C_3  and  O_6 
REMARK    3  A    between atoms: C_3  and  C_4 
REMARK    4  A    between atoms: C_7  and  O_6 
REMARK    5  A    between atoms: C_9  and  C_10 
REMARK    6  A    between atoms: N_15  and  C_14 
REMARK    7  A    between atoms: N_20  and  C_19 
REMARK       I    between atoms: C_22  and  N_20 
ROOT
ATOM      1  C   LIG d   1      -0.770  91.155 118.050  0.00  0.00     0.161 C 
ATOM      2  C   LIG d   1       0.593  91.433 118.251  0.00  0.00     0.016 C 
ATOM      3  C   LIG d   1       1.117  92.744 118.327  0.00  0.00     0.038 C 
ATOM      4  C   LIG d   1       0.286  93.874 118.358  0.00  0.00     0.028 C 
ATOM      5  C   LIG d   1      -1.050  93.663 117.652  0.00  0.00    -0.047 C 
ATOM      6  C   LIG d   1      -1.706  92.373 118.194  0.00  0.00     0.091 C 
ENDROOT
BRANCH   1   7
ATOM      7  O   LIG d   1      -1.187  90.095 118.933  0.00  0.00    -0.368 OA
BRANCH   7   8
ATOM      8  C   LIG d   1      -1.598  88.860 118.297  0.00  0.00     0.119 C 
BRANCH   8   9
ATOM      9  C   LIG d   1      -2.862  88.362 119.025  0.00  0.00     0.028 C 
ATOM     10  C   LIG d   1      -2.554  87.248 120.040  0.00  0.00     0.006 C 
ENDBRANCH   8   9
BRANCH   8  11
ATOM     11  C   LIG d   1      -0.555  87.757 118.496  0.00  0.00     0.028 C 
ATOM     12  C   LIG d   1       0.178  87.388 117.196  0.00  0.00     0.006 C 
ENDBRANCH   8  11
ENDBRANCH   7   8
ENDBRANCH   1   7
BRANCH   6  13
ATOM     13  N   LIG d   1      -2.977  92.048 117.496  0.00  0.00    -0.311 N 
ATOM     14  C   LIG d   1      -4.104  91.733 118.133  0.00  0.00     0.210 C 
ATOM     15  C   LIG d   1      -5.294  91.413 117.223  0.00  0.00     0.109 C 
ATOM     16  O   LIG d   1      -4.239  91.720 119.365  0.00  0.00    -0.276 OA
ATOM     17  H   LIG d   1      -2.965  92.065 116.495  0.00  0.00     0.149 HD
ENDBRANCH   6  13
BRANCH   5  18
ATOM     18  N   LIG d   1      -1.869  94.869 117.880  0.00  0.00     0.381 N 
ATOM     19  H   LIG d   1      -2.236  94.858 118.811  0.00  0.00    -0.090 HD
ATOM     20  H   LIG d   1      -2.641  94.863 117.237  0.00  0.00    -0.090 HD
ATOM     21  H   LIG d   1      -1.318  95.687 117.742  0.00  0.00    -0.090 HD
ENDBRANCH   5  18
BRANCH   3  22
ATOM     22  C   LIG d   1       2.490  92.936 118.332  0.00  0.00     0.382 C 
ATOM     23  O   LIG d   1       3.061  93.349 119.370  0.00  0.00    -0.241 OA
ATOM     24  O   LIG d   1       3.158  92.744 117.299  0.00  0.00    -0.241 OA
ENDBRANCH   3  22
TORSDOF 7
ENDMDL
MODEL 4
REMARK VINA RESULT:      -4.0      2.449      6.136
REMARK  7 active torsions:
REMARK  status: ('A' for Active; 'I' for Inactive)
REMARK    1  A    between atoms: C_2  and  C_3 
REMARK    2  A    between atoms: C_3  and  O_6 
REMARK    3  A    between atoms: C_3  and  C_4 
REMARK    4  A    between atoms: C_7  and  O_6 
REMARK    5  A    between atoms: C_9  and  C_10 
REMARK    6  A    between atoms: N_15  and  C_14 
REMARK    7  A    between atoms: N_20  and  C_19 
REMARK       I    between atoms: C_22  and  N_20 
ROOT
ATOM      1  C   LIG d   1      -3.861  92.660 119.511  0.00  0.00     0.161 C 
ATOM      2  C   LIG d   1      -2.906  91.779 118.976  0.00  0.00     0.016 C 
ATOM      3  C   LIG d   1      -3.233  90.706 118.116  0.00  0.00     0.038 C 
ATOM      4  C   LIG d   1      -4.528  90.531 117.608  0.00  0.00     0.028 C 
ATOM      5  C   LIG d   1      -5.617  91.092 118.517  0.00  0.00    -0.047 C 
ATOM      6  C   LIG d   1      -5.265  92.553 118.879  0.00  0.00     0.091 C 
ENDROOT
BRANCH   1   7
ATOM      7  O   LIG d   1      -3.377  94.015 119.428  0.00  0.00    -0.368 OA
BRANCH   7   8
ATOM      8  C   LIG d   1      -1.939  94.174 119.345  0.00  0.00     0.119 C 
BRANCH   8   9
ATOM      9  C   LIG d   1      -1.462  94.776 120.680  0.00  0.00     0.028 C 
ATOM     10  C   LIG d   1      -0.665  93.769 121.527  0.00  0.00     0.006 C 
ENDBRANCH   8   9
BRANCH   8  11
ATOM     11  C   LIG d   1      -1.553  95.201 118.276  0.00  0.00     0.028 C 
ATOM     12  C   LIG d   1      -1.752  96.651 118.744  0.00  0.00     0.006 C 
ENDBRANCH   8  11
ENDBRANCH   7   8
ENDBRANCH   1   7
BRANCH   6  13
ATOM     13  N   LIG d   1      -6.235  93.149 119.834  0.00  0.00    -0.311 N 
ATOM     14  C   LIG d   1      -7.150  94.051 119.482  0.00  0.00     0.210 C 
ATOM     15  C   LIG d   1      -8.038  94.552 120.625  0.00  0.00     0.109 C 
ATOM     16  O   LIG d   1      -7.333  94.459 118.325  0.00  0.00    -0.276 OA
ATOM     17  H   LIG d   1      -6.178  92.851 120.788  0.00  0.00     0.149 HD
ENDBRANCH   6  13
BRANCH   5  18
ATOM     18  N   LIG d   1      -6.902  90.966 117.804  0.00  0.00     0.381 N 
ATOM     19  H   LIG d   1      -6.735  90.827 116.827  0.00  0.00    -0.090 HD
ATOM     20  H   LIG d   1      -7.421  91.819 117.917  0.00  0.00    -0.090 HD
ATOM     21  H   LIG d   1      -7.422  90.200 118.171  0.00  0.00    -0.090 HD
ENDBRANCH   5  18
BRANCH   3  22
ATOM     22  C   LIG d   1      -2.264  89.769 117.788  0.00  0.00     0.382 C 
ATOM     23  O   LIG d   1      -2.513  88.545 117.901  0.00  0.00    -0.241 OA
ATOM     24  O   LIG d   1      -1.131  90.134 117.422  0.00  0.00    -0.241 OA
ENDBRANCH   3  22
TORSDOF 7
ENDMDL
MODEL 5
REMARK VINA RESULT:      -3.8      2.839      4.588
REMARK  7 active torsions:
REMARK  status: ('A' for Active; 'I' for Inactive)
REMARK    1  A    between atoms: C_2  and  C_3 
REMARK    2  A    between atoms: C_3  and  O_6 
REMARK    3  A    between atoms: C_3  and  C_4 
REMARK    4  A    between atoms: C_7  and  O_6 
REMARK    5  A    between atoms: C_9  and  C_10 
REMARK    6  A    between atoms: N_15  and  C_14 
REMARK    7  A    between atoms: N_20  and  C_19 
REMARK       I    between atoms: C_22  and  N_20 
ROOT
ATOM      1  C   LIG d   1      -2.917  92.736 119.163  0.00  0.00     0.161 C 
ATOM      2  C   LIG d   1      -4.172  93.278 119.484  0.00  0.00     0.016 C 
ATOM      3  C   LIG d   1      -5.383  92.834 118.905  0.00  0.00     0.038 C 
ATOM      4  C   LIG d   1      -5.437  91.706 118.072  0.00  0.00     0.028 C 
ATOM      5  C   LIG d   1      -4.133  91.441 117.326  0.00  0.00    -0.047 C 
ATOM      6  C   LIG d   1      -2.967  91.431 118.341  0.00  0.00     0.091 C 
ENDROOT
BRANCH   1   7
ATOM      7  O   LIG d   1      -2.148  92.540 120.366  0.00  0.00    -0.368 OA
BRANCH   7   8
ATOM      8  C   LIG d   1      -2.875  92.655 121.614  0.00  0.00     0.119 C 
BRANCH   8   9
ATOM      9  C   LIG d   1      -2.034  93.531 122.562  0.00  0.00     0.028 C 
ATOM     10  C   LIG d   1      -2.151  95.030 122.235  0.00  0.00     0.006 C 
ENDBRANCH   8   9
BRANCH   8  11
ATOM     11  C   LIG d   1      -2.996  91.299 122.316  0.00  0.00     0.028 C 
ATOM     12  C   LIG d   1      -4.329  90.593 122.022  0.00  0.00     0.006 C 
ENDBRANCH   8  11
ENDBRANCH   7   8
ENDBRANCH   1   7
BRANCH   6  13
ATOM     13  N   LIG d   1      -1.645  91.262 117.684  0.00  0.00    -0.311 N 
ATOM     14  C   LIG d   1      -1.049  90.081 117.529  0.00  0.00     0.210 C 
ATOM     15  C   LIG d   1       0.320  90.133 116.843  0.00  0.00     0.109 C 
ATOM     16  O   LIG d   1      -1.538  88.992 117.866  0.00  0.00    -0.276 OA
ATOM     17  H   LIG d   1      -1.191  92.090 117.353  0.00  0.00     0.149 HD
ENDBRANCH   6  13
BRANCH   5  18
ATOM     18  N   LIG d   1      -4.284  90.163 116.606  0.00  0.00     0.381 N 
ATOM     19  H   LIG d   1      -4.841  90.300 115.786  0.00  0.00    -0.090 HD
ATOM     20  H   LIG d   1      -4.756  89.507 117.202  0.00  0.00    -0.090 HD
ATOM     21  H   LIG d   1      -3.389  89.807 116.352  0.00  0.00    -0.090 HD
ENDBRANCH   5  18
BRANCH   3  22
ATOM     22  C   LIG d   1      -6.553  93.545 119.126  0.00  0.00     0.382 C 
ATOM     23  O   LIG d   1      -7.195  94.013 118.155  0.00  0.00    -0.241 OA
ATOM     24  O   LIG d   1      -6.950  93.763 120.286  0.00  0.00    -0.241 OA
ENDBRANCH   3  22
TORSDOF 7
ENDMDL
MODEL 6
REMARK VINA RESULT:      -3.8      2.941      6.402
REMARK  7 active torsions:
REMARK  status: ('A' for Active; 'I' for Inactive)
REMARK    1  A    between atoms: C_2  and  C_3 
REMARK    2  A    between atoms: C_3  and  O_6 
REMARK    3  A    between atoms: C_3  and  C_4 
REMARK    4  A    between atoms: C_7  and  O_6 
REMARK    5  A    between atoms: C_9  and  C_10 
REMARK    6  A    between atoms: N_15  and  C_14 
REMARK    7  A    between atoms: N_20  and  C_19 
REMARK       I    between atoms: C_22  and  N_20 
ROOT
ATOM      1  C   LIG d   1      -1.489  92.574 118.175  0.00  0.00     0.161 C 
ATOM      2  C   LIG d   1      -0.222  92.072 117.834  0.00  0.00     0.016 C 
ATOM      3  C   LIG d   1       0.982  92.774 118.070  0.00  0.00     0.038 C 
ATOM      4  C   LIG d   1       1.012  93.969 118.805  0.00  0.00     0.028 C 
ATOM      5  C   LIG d   1      -0.289  94.761 118.727  0.00  0.00    -0.047 C 
ATOM      6  C   LIG d   1      -1.468  93.826 119.078  0.00  0.00     0.091 C 
ENDROOT
BRANCH   1   7
ATOM      7  O   LIG d   1      -2.280  91.533 118.781  0.00  0.00    -0.368 OA
BRANCH   7   8
ATOM      8  C   LIG d   1      -3.329  90.968 117.957  0.00  0.00     0.119 C 
BRANCH   8   9
ATOM      9  C   LIG d   1      -4.677  91.321 118.616  0.00  0.00     0.028 C 
ATOM     10  C   LIG d   1      -4.646  91.150 120.144  0.00  0.00     0.006 C 
ENDBRANCH   8   9
BRANCH   8  11
ATOM     11  C   LIG d   1      -3.270  89.437 117.952  0.00  0.00     0.028 C 
ATOM     12  C   LIG d   1      -1.997  88.888 118.614  0.00  0.00     0.006 C 
ENDBRANCH   8  11
ENDBRANCH   7   8
ENDBRANCH   1   7
BRANCH   6  13
ATOM     13  N   LIG d   1      -2.786  94.500 118.944  0.00  0.00    -0.311 N 
ATOM     14  C   LIG d   1      -3.622  94.684 119.964  0.00  0.00     0.210 C 
ATOM     15  C   LIG d   1      -4.936  95.383 119.604  0.00  0.00     0.109 C 
ATOM     16  O   LIG d   1      -3.386  94.365 121.138  0.00  0.00    -0.276 OA
ATOM     17  H   LIG d   1      -3.044  94.819 118.030  0.00  0.00     0.149 HD
ENDBRANCH   6  13
BRANCH   5  18
ATOM     18  N   LIG d   1      -0.167  95.909 119.646  0.00  0.00     0.381 N 
ATOM     19  H   LIG d   1      -1.038  96.400 119.691  0.00  0.00    -0.090 HD
ATOM     20  H   LIG d   1       0.531  96.538 119.290  0.00  0.00    -0.090 HD
ATOM     21  H   LIG d   1       0.092  95.592 120.554  0.00  0.00    -0.090 HD
ENDBRANCH   5  18
BRANCH   3  22
ATOM     22  C   LIG d   1       2.170  92.301 117.533  0.00  0.00     0.382 C 
ATOM     23  O   LIG d   1       3.189  93.032 117.525  0.00  0.00    -0.241 OA
ATOM     24  O   LIG d   1       2.222  91.170 117.015  0.00  0.00    -0.241 OA
ENDBRANCH   3  22
TORSDOF 7
ENDMDL
MODEL 7
REMARK VINA RESULT:      -3.8      3.512      7.056
REMARK  7 active torsions:
REMARK  status: ('A' for Active; 'I' for Inactive)
REMARK    1  A    between atoms: C_2  and  C_3 
REMARK    2  A    between atoms: C_3  and  O_6 
REMARK    3  A    between atoms: C_3  and  C_4 
REMARK    4  A    between atoms: C_7  and  O_6 
REMARK    5  A    between atoms: C_9  and  C_10 
REMARK    6  A    between atoms: N_15  and  C_14 
REMARK    7  A    between atoms: N_20  and  C_19 
REMARK       I    between atoms: C_22  and  N_20 
ROOT
ATOM      1  C   LIG d   1      -1.459  90.702 117.559  0.00  0.00     0.161 C 
ATOM      2  C   LIG d   1      -0.054  90.725 117.550  0.00  0.00     0.016 C 
ATOM      3  C   LIG d   1       0.706  91.900 117.753  0.00  0.00     0.038 C 
ATOM      4  C   LIG d   1       0.111  93.113 118.131  0.00  0.00     0.028 C 
ATOM      5  C   LIG d   1      -1.332  93.253 117.657  0.00  0.00    -0.047 C 
ATOM      6  C   LIG d   1      -2.123  91.994 118.080  0.00  0.00     0.091 C 
ENDROOT
BRANCH   1   7
ATOM      7  O   LIG d   1      -1.924  89.562 118.308  0.00  0.00    -0.368 OA
BRANCH   7   8
ATOM      8  C   LIG d   1      -1.005  89.029 119.294  0.00  0.00     0.119 C 
BRANCH   8   9
ATOM      9  C   LIG d   1      -1.096  87.492 119.228  0.00  0.00     0.028 C 
ATOM     10  C   LIG d   1      -2.275  86.938 120.046  0.00  0.00     0.006 C 
ENDBRANCH   8   9
BRANCH   8  11
ATOM     11  C   LIG d   1      -1.436  89.400 120.716  0.00  0.00     0.028 C 
ATOM     12  C   LIG d   1      -0.660  90.601 121.279  0.00  0.00     0.006 C 
ENDBRANCH   8  11
ENDBRANCH   7   8
ENDBRANCH   1   7
BRANCH   6  13
ATOM     13  N   LIG d   1      -3.524  92.011 117.583  0.00  0.00    -0.311 N 
ATOM     14  C   LIG d   1      -4.576  91.721 118.346  0.00  0.00     0.210 C 
ATOM     15  C   LIG d   1      -5.929  91.779 117.630  0.00  0.00     0.109 C 
ATOM     16  O   LIG d   1      -4.520  91.452 119.555  0.00  0.00    -0.276 OA
ATOM     17  H   LIG d   1      -3.663  92.249 116.621  0.00  0.00     0.149 HD
ENDBRANCH   6  13
BRANCH   5  18
ATOM     18  N   LIG d   1      -1.873  94.497 118.236  0.00  0.00     0.381 N 
ATOM     19  H   LIG d   1      -2.418  94.284 119.048  0.00  0.00    -0.090 HD
ATOM     20  H   LIG d   1      -2.472  94.936 117.560  0.00  0.00    -0.090 HD
ATOM     21  H   LIG d   1      -1.128  95.112 118.480  0.00  0.00    -0.090 HD
ENDBRANCH   5  18
BRANCH   3  22
ATOM     22  C   LIG d   1       2.076  91.878 117.538  0.00  0.00     0.382 C 
ATOM     23  O   LIG d   1       2.726  92.951 117.528  0.00  0.00    -0.241 OA
ATOM     24  O   LIG d   1       2.662  90.803 117.310  0.00  0.00    -0.241 OA
ENDBRANCH   3  22
TORSDOF 7
ENDMDL
MODEL 8
REMARK VINA RESULT:      -3.8      2.776      4.788
REMARK  7 active torsions:
REMARK  status: ('A' for Active; 'I' for Inactive)
REMARK    1  A    between atoms: C_2  and  C_3 
REMARK    2  A    between atoms: C_3  and  O_6 
REMARK    3  A    between atoms: C_3  and  C_4 
REMARK    4  A    between atoms: C_7  and  O_6 
REMARK    5  A    between atoms: C_9  and  C_10 
REMARK    6  A    between atoms: N_15  and  C_14 
REMARK    7  A    between atoms: N_20  and  C_19 
REMARK       I    between atoms: C_22  and  N_20 
ROOT
ATOM      1  C   LIG d   1      -2.903  92.695 119.162  0.00  0.00     0.161 C 
ATOM      2  C   LIG d   1      -4.152  93.247 119.490  0.00  0.00     0.016 C 
ATOM      3  C   LIG d   1      -5.367  92.825 118.902  0.00  0.00     0.038 C 
ATOM      4  C   LIG d   1      -5.432  91.712 118.051  0.00  0.00     0.028 C 
ATOM      5  C   LIG d   1      -4.131  91.445 117.302  0.00  0.00    -0.047 C 
ATOM      6  C   LIG d   1      -2.967  91.405 118.318  0.00  0.00     0.091 C 
ENDROOT
BRANCH   1   7
ATOM      7  O   LIG d   1      -2.137  92.471 120.363  0.00  0.00    -0.368 OA
BRANCH   7   8
ATOM      8  C   LIG d   1      -1.308  93.574 120.805  0.00  0.00     0.119 C 
BRANCH   8   9
ATOM      9  C   LIG d   1      -0.279  93.854 119.692  0.00  0.00     0.028 C 
ATOM     10  C   LIG d   1      -0.089  95.359 119.435  0.00  0.00     0.006 C 
ENDBRANCH   8   9
BRANCH   8  11
ATOM     11  C   LIG d   1      -0.480  93.190 122.035  0.00  0.00     0.028 C 
ATOM     12  C   LIG d   1      -1.274  93.301 123.346  0.00  0.00     0.006 C 
ENDBRANCH   8  11
ENDBRANCH   7   8
ENDBRANCH   1   7
BRANCH   6  13
ATOM     13  N   LIG d   1      -1.645  91.232 117.660  0.00  0.00    -0.311 N 
ATOM     14  C   LIG d   1      -1.050  90.050 117.510  0.00  0.00     0.210 C 
ATOM     15  C   LIG d   1       0.318  90.097 116.822  0.00  0.00     0.109 C 
ATOM     16  O   LIG d   1      -1.540  88.963 117.853  0.00  0.00    -0.276 OA
ATOM     17  H   LIG d   1      -1.191  92.058 117.324  0.00  0.00     0.149 HD
ENDBRANCH   6  13
BRANCH   5  18
ATOM     18  N   LIG d   1      -4.295  90.181 116.560  0.00  0.00     0.381 N 
ATOM     19  H   LIG d   1      -3.648  89.500 116.904  0.00  0.00    -0.090 HD
ATOM     20  H   LIG d   1      -4.093  90.345 115.590  0.00  0.00    -0.090 HD
ATOM     21  H   LIG d   1      -5.227  89.845 116.661  0.00  0.00    -0.090 HD
ENDBRANCH   5  18
BRANCH   3  22
ATOM     22  C   LIG d   1      -6.529  93.546 119.133  0.00  0.00     0.382 C 
ATOM     23  O   LIG d   1      -6.926  93.736 120.308  0.00  0.00    -0.241 OA
ATOM     24  O   LIG d   1      -7.209  93.972 118.180  0.00  0.00    -0.241 OA
ENDBRANCH   3  22
TORSDOF 7
ENDMDL
MODEL 9
REMARK VINA RESULT:      -3.7      3.423      6.553
REMARK  7 active torsions:
REMARK  status: ('A' for Active; 'I' for Inactive)
REMARK    1  A    between atoms: C_2  and  C_3 
REMARK    2  A    between atoms: C_3  and  O_6 
REMARK    3  A    between atoms: C_3  and  C_4 
REMARK    4  A    between atoms: C_7  and  O_6 
REMARK    5  A    between atoms: C_9  and  C_10 
REMARK    6  A    between atoms: N_15  and  C_14 
REMARK    7  A    between atoms: N_20  and  C_19 
REMARK       I    between atoms: C_22  and  N_20 
ROOT
ATOM      1  C   LIG d   1      -1.436  93.195 117.811  0.00  0.00     0.161 C 
ATOM      2  C   LIG d   1      -0.183  92.604 117.579  0.00  0.00     0.016 C 
ATOM      3  C   LIG d   1       1.026  93.107 118.113  0.00  0.00     0.038 C 
ATOM      4  C   LIG d   1       1.046  94.155 119.044  0.00  0.00     0.028 C 
ATOM      5  C   LIG d   1      -0.142  95.103 118.915  0.00  0.00    -0.047 C 
ATOM      6  C   LIG d   1      -1.447  94.274 118.915  0.00  0.00     0.091 C 
ENDROOT
BRANCH   1   7
ATOM      7  O   LIG d   1      -2.412  92.175 118.098  0.00  0.00    -0.368 OA
BRANCH   7   8
ATOM      8  C   LIG d   1      -1.890  90.902 118.552  0.00  0.00     0.119 C 
BRANCH   8   9
ATOM      9  C   LIG d   1      -2.707  89.793 117.861  0.00  0.00     0.028 C 
ATOM     10  C   LIG d   1      -2.613  88.448 118.600  0.00  0.00     0.006 C 
ENDBRANCH   8   9
BRANCH   8  11
ATOM     11  C   LIG d   1      -2.128  90.706 120.052  0.00  0.00     0.028 C 
ATOM     12  C   LIG d   1      -0.893  91.046 120.901  0.00  0.00     0.006 C 
ENDBRANCH   8  11
ENDBRANCH   7   8
ENDBRANCH   1   7
BRANCH   6  13
ATOM     13  N   LIG d   1      -2.654  95.117 118.707  0.00  0.00    -0.311 N 
ATOM     14  C   LIG d   1      -3.377  95.620 119.706  0.00  0.00     0.210 C 
ATOM     15  C   LIG d   1      -4.593  96.445 119.272  0.00  0.00     0.109 C 
ATOM     16  O   LIG d   1      -3.109  95.488 120.910  0.00  0.00    -0.276 OA
ATOM     17  H   LIG d   1      -2.925  95.300 117.761  0.00  0.00     0.149 HD
ENDBRANCH   6  13
BRANCH   5  18
ATOM     18  N   LIG d   1      -0.069  96.065 120.031  0.00  0.00     0.381 N 
ATOM     19  H   LIG d   1      -0.644  96.858 119.832  0.00  0.00    -0.090 HD
ATOM     20  H   LIG d   1       0.881  96.380 120.126  0.00  0.00    -0.090 HD
ATOM     21  H   LIG d   1      -0.369  95.631 120.876  0.00  0.00    -0.090 HD
ENDBRANCH   5  18
BRANCH   3  22
ATOM     22  C   LIG d   1       2.237  92.584 117.684  0.00  0.00     0.382 C 
ATOM     23  O   LIG d   1       2.350  91.352 117.477  0.00  0.00    -0.241 OA
ATOM     24  O   LIG d   1       3.229  93.323 117.543  0.00  0.00    -0.241 OA
ENDBRANCH   3  22
TORSDOF 7
ENDMDL
