MODEL 1
REMARK VINA RESULT:      -4.5      0.000      0.000
REMARK  7 active torsions:
REMARK  status: ('A' for Active; 'I' for Inactive)
REMARK    1  A    between atoms: C_2  and  C_3 
REMARK    2  A    between atoms: C_3  and  O_6 
REMARK    3  A    between atoms: C_3  and  C_4 
REMARK    4  A    between atoms: C_7  and  O_6 
REMARK    5  A    between atoms: C_9  and  C_10 
REMARK    6  A    between atoms: N_15  and  C_14 
REMARK    7  A    between atoms: N_20  and  C_19 
REMARK       I    between atoms: C_22  and  N_20 
ROOT
ATOM      1  C   LIG d   1      -5.314  93.393 120.089  0.00  0.00     0.161 C 
ATOM      2  C   LIG d   1      -4.275  92.528 119.708  0.00  0.00     0.016 C 
ATOM      3  C   LIG d   1      -4.259  91.823 118.482  0.00  0.00     0.038 C 
ATOM      4  C   LIG d   1      -5.215  92.053 117.482  0.00  0.00     0.028 C 
ATOM      5  C   LIG d   1      -6.555  92.538 118.025  0.00  0.00    -0.047 C 
ATOM      6  C   LIG d   1      -6.310  93.742 118.963  0.00  0.00     0.091 C 
ENDROOT
BRANCH   1   7
ATOM      7  O   LIG d   1      -4.763  94.596 120.661  0.00  0.00    -0.368 OA
BRANCH   7   8
ATOM      8  C   LIG d   1      -4.190  95.543 119.726  0.00  0.00     0.119 C 
BRANCH   8   9
ATOM      9  C   LIG d   1      -2.724  95.774 120.142  0.00  0.00     0.028 C 
ATOM     10  C   LIG d   1      -1.728  95.127 119.165  0.00  0.00     0.006 C 
ENDBRANCH   8   9
BRANCH   8  11
ATOM     11  C   LIG d   1      -4.864  96.913 119.837  0.00  0.00     0.028 C 
ATOM     12  C   LIG d   1      -5.732  97.050 121.097  0.00  0.00     0.006 C 
ENDBRANCH   8  11
ENDBRANCH   7   8
ENDBRANCH   1   7
BRANCH   6  13
ATOM     13  N   LIG d   1      -7.561  94.226 119.604  0.00  0.00    -0.311 N 
ATOM     14  C   LIG d   1      -8.305  95.213 119.107  0.00  0.00     0.210 C 
ATOM     15  C   LIG d   1      -9.544  95.568 119.935  0.00  0.00     0.109 C 
ATOM     16  O   LIG d   1      -8.074  95.806 118.043  0.00  0.00    -0.276 OA
ATOM     17  H   LIG d   1      -7.840  93.779 120.455  0.00  0.00     0.149 HD
ENDBRANCH   6  13
BRANCH   5  18
ATOM     18  N   LIG d   1      -7.411  92.870 116.870  0.00  0.00     0.381 N 
ATOM     19  H   LIG d   1      -7.913  92.056 116.576  0.00  0.00    -0.090 HD
ATOM     20  H   LIG d   1      -6.827  93.172 116.110  0.00  0.00    -0.090 HD
ATOM     21  H   LIG d   1      -8.050  93.593 117.116  0.00  0.00    -0.090 HD
ENDBRANCH   5  18
BRANCH   3  22
ATOM     22  C   LIG d   1      -3.300  90.846 118.264  0.00  0.00     0.382 C 
ATOM     23  O   LIG d   1      -3.636  89.732 117.793  0.00  0.00    -0.241 OA
ATOM     24  O   LIG d   1      -2.111  91.047 118.575  0.00  0.00    -0.241 OA
ENDBRANCH   3  22
TORSDOF 7
ENDMDL
MODEL 2
REMARK VINA RESULT:      -4.4      2.749      5.570
REMARK  7 active torsions:
REMARK  status: ('A' for Active; 'I' for Inactive)
REMARK    1  A    between atoms: C_2  and  C_3 
REMARK    2  A    between atoms: C_3  and  O_6 
REMARK    3  A    between atoms: C_3  and  C_4 
REMARK    4  A    between atoms: C_7  and  O_6 
REMARK    5  A    between atoms: C_9  and  C_10 
REMARK    6  A    between atoms: N_15  and  C_14 
REMARK    7  A    between atoms: N_20  and  C_19 
REMARK       I    between atoms: C_22  and  N_20 
ROOT
ATOM      1  C   LIG d   1      -3.383  93.046 120.117  0.00  0.00     0.161 C 
ATOM      2  C   LIG d   1      -3.193  94.437 120.068  0.00  0.00     0.016 C 
ATOM      3  C   LIG d   1      -2.216  95.061 119.259  0.00  0.00     0.038 C 
ATOM      4  C   LIG d   1      -1.458  94.341 118.324  0.00  0.00     0.028 C 
ATOM      5  C   LIG d   1      -1.262  92.877 118.701  0.00  0.00    -0.047 C 
ATOM      6  C   LIG d   1      -2.640  92.253 119.021  0.00  0.00     0.091 C 
ENDROOT
BRANCH   1   7
ATOM      7  O   LIG d   1      -4.791  92.743 120.087  0.00  0.00    -0.368 OA
BRANCH   7   8
ATOM      8  C   LIG d   1      -5.582  93.483 119.124  0.00  0.00     0.119 C 
BRANCH   8   9
ATOM      9  C   LIG d   1      -6.779  94.093 119.879  0.00  0.00     0.028 C 
ATOM     10  C   LIG d   1      -6.657  95.618 120.036  0.00  0.00     0.006 C 
ENDBRANCH   8   9
BRANCH   8  11
ATOM     11  C   LIG d   1      -6.196  92.552 118.074  0.00  0.00     0.028 C 
ATOM     12  C   LIG d   1      -7.366  93.199 117.316  0.00  0.00     0.006 C 
ENDBRANCH   8  11
ENDBRANCH   7   8
ENDBRANCH   1   7
BRANCH   6  13
ATOM     13  N   LIG d   1      -2.531  90.844 119.482  0.00  0.00    -0.311 N 
ATOM     14  C   LIG d   1      -3.074  89.816 118.831  0.00  0.00     0.210 C 
ATOM     15  C   LIG d   1      -2.859  88.449 119.488  0.00  0.00     0.109 C 
ATOM     16  O   LIG d   1      -3.684  89.903 117.755  0.00  0.00    -0.276 OA
ATOM     17  H   LIG d   1      -2.025  90.679 120.330  0.00  0.00     0.149 HD
ENDBRANCH   6  13
BRANCH   5  18
ATOM     18  N   LIG d   1      -0.575  92.214 117.577  0.00  0.00     0.381 N 
ATOM     19  H   LIG d   1       0.202  91.685 117.919  0.00  0.00    -0.090 HD
ATOM     20  H   LIG d   1      -0.225  92.918 116.950  0.00  0.00    -0.090 HD
ATOM     21  H   LIG d   1      -1.209  91.615 117.095  0.00  0.00    -0.090 HD
ENDBRANCH   5  18
BRANCH   3  22
ATOM     22  C   LIG d   1      -1.962  96.416 119.410  0.00  0.00     0.382 C 
ATOM     23  O   LIG d   1      -2.808  97.153 119.971  0.00  0.00    -0.241 OA
ATOM     24  O   LIG d   1      -0.918  96.918 118.952  0.00  0.00    -0.241 OA
ENDBRANCH   3  22
TORSDOF 7
ENDMDL
MODEL 3
REMARK VINA RESULT:      -4.4      2.361      5.423
REMARK  7 active torsions:
REMARK  status: ('A' for Active; 'I' for Inactive)
REMARK    1  A    between atoms: C_2  and  C_3 
REMARK    2  A    between atoms: C_3  and  O_6 
REMARK    3  A    between atoms: C_3  and  C_4 
REMARK    4  A    between atoms: C_7  and  O_6 
REMARK    5  A    between atoms: C_9  and  C_10 
REMARK    6  A    between atoms: N_15  and  C_14 
REMARK    7  A    between atoms: N_20  and  C_19 
REMARK       I    between atoms: C_22  and  N_20 
ROOT
ATOM      1  C   LIG d   1      -4.568  92.567 119.233  0.00  0.00     0.161 C 
ATOM      2  C   LIG d   1      -5.643  92.637 118.331  0.00  0.00     0.016 C 
ATOM      3  C   LIG d   1      -6.595  93.682 118.335  0.00  0.00     0.038 C 
ATOM      4  C   LIG d   1      -6.449  94.815 119.149  0.00  0.00     0.028 C 
ATOM      5  C   LIG d   1      -5.659  94.546 120.425  0.00  0.00    -0.047 C 
ATOM      6  C   LIG d   1      -4.329  93.851 120.055  0.00  0.00     0.091 C 
ENDROOT
BRANCH   1   7
ATOM      7  O   LIG d   1      -3.366  92.190 118.532  0.00  0.00    -0.368 OA
BRANCH   7   8
ATOM      8  C   LIG d   1      -2.699  90.995 119.008  0.00  0.00     0.119 C 
BRANCH   8   9
ATOM      9  C   LIG d   1      -1.196  91.151 118.703  0.00  0.00     0.028 C 
ATOM     10  C   LIG d   1      -0.817  92.599 118.349  0.00  0.00     0.006 C 
ENDBRANCH   8   9
BRANCH   8  11
ATOM     11  C   LIG d   1      -3.146  89.758 118.223  0.00  0.00     0.028 C 
ATOM     12  C   LIG d   1      -2.083  88.648 118.205  0.00  0.00     0.006 C 
ENDBRANCH   8  11
ENDBRANCH   7   8
ENDBRANCH   1   7
BRANCH   6  13
ATOM     13  N   LIG d   1      -3.533  93.477 121.253  0.00  0.00    -0.311 N 
ATOM     14  C   LIG d   1      -2.327  93.977 121.517  0.00  0.00     0.210 C 
ATOM     15  C   LIG d   1      -1.671  93.442 122.794  0.00  0.00     0.109 C 
ATOM     16  O   LIG d   1      -1.753  94.838 120.833  0.00  0.00    -0.276 OA
ATOM     17  H   LIG d   1      -3.937  92.807 121.878  0.00  0.00     0.149 HD
ENDBRANCH   6  13
BRANCH   5  18
ATOM     18  N   LIG d   1      -5.465  95.838 121.110  0.00  0.00     0.381 N 
ATOM     19  H   LIG d   1      -4.616  96.264 120.796  0.00  0.00    -0.090 HD
ATOM     20  H   LIG d   1      -5.390  95.674 122.098  0.00  0.00    -0.090 HD
ATOM     21  H   LIG d   1      -6.236  96.442 120.924  0.00  0.00    -0.090 HD
ENDBRANCH   5  18
BRANCH   3  22
ATOM     22  C   LIG d   1      -7.730  93.580 117.545  0.00  0.00     0.382 C 
ATOM     23  O   LIG d   1      -7.669  93.007 116.430  0.00  0.00    -0.241 OA
ATOM     24  O   LIG d   1      -8.804  94.092 117.913  0.00  0.00    -0.241 OA
ENDBRANCH   3  22
TORSDOF 7
ENDMDL
MODEL 4
REMARK VINA RESULT:      -4.3      2.168      5.023
REMARK  7 active torsions:
REMARK  status: ('A' for Active; 'I' for Inactive)
REMARK    1  A    between atoms: C_2  and  C_3 
REMARK    2  A    between atoms: C_3  and  O_6 
REMARK    3  A    between atoms: C_3  and  C_4 
REMARK    4  A    between atoms: C_7  and  O_6 
REMARK    5  A    between atoms: C_9  and  C_10 
REMARK    6  A    between atoms: N_15  and  C_14 
REMARK    7  A    between atoms: N_20  and  C_19 
REMARK       I    between atoms: C_22  and  N_20 
ROOT
ATOM      1  C   LIG d   1      -4.697  93.298 119.409  0.00  0.00     0.161 C 
ATOM      2  C   LIG d   1      -5.883  94.045 119.318  0.00  0.00     0.016 C 
ATOM      3  C   LIG d   1      -6.884  93.799 118.350  0.00  0.00     0.038 C 
ATOM      4  C   LIG d   1      -6.835  92.686 117.497  0.00  0.00     0.028 C 
ATOM      5  C   LIG d   1      -5.416  92.201 117.216  0.00  0.00    -0.047 C 
ATOM      6  C   LIG d   1      -4.676  92.010 118.560  0.00  0.00     0.091 C 
ENDROOT
BRANCH   1   7
ATOM      7  O   LIG d   1      -4.417  92.992 120.790  0.00  0.00    -0.368 OA
BRANCH   7   8
ATOM      8  C   LIG d   1      -3.229  93.604 121.350  0.00  0.00     0.119 C 
BRANCH   8   9
ATOM      9  C   LIG d   1      -2.386  92.481 121.985  0.00  0.00     0.028 C 
ATOM     10  C   LIG d   1      -3.127  91.133 122.010  0.00  0.00     0.006 C 
ENDBRANCH   8   9
BRANCH   8  11
ATOM     11  C   LIG d   1      -3.580  94.549 122.504  0.00  0.00     0.028 C 
ATOM     12  C   LIG d   1      -5.003  94.329 123.042  0.00  0.00     0.006 C 
ENDBRANCH   8  11
ENDBRANCH   7   8
ENDBRANCH   1   7
BRANCH   6  13
ATOM     13  N   LIG d   1      -3.255  91.617 118.373  0.00  0.00    -0.311 N 
ATOM     14  C   LIG d   1      -2.841  90.351 118.348  0.00  0.00     0.210 C 
ATOM     15  C   LIG d   1      -1.331  90.168 118.165  0.00  0.00     0.109 C 
ATOM     16  O   LIG d   1      -3.585  89.363 118.429  0.00  0.00    -0.276 OA
ATOM     17  H   LIG d   1      -2.587  92.356 118.268  0.00  0.00     0.149 HD
ENDBRANCH   6  13
BRANCH   5  18
ATOM     18  N   LIG d   1      -5.518  90.957 116.430  0.00  0.00     0.381 N 
ATOM     19  H   LIG d   1      -6.067  91.119 115.610  0.00  0.00    -0.090 HD
ATOM     20  H   LIG d   1      -5.980  90.259 116.986  0.00  0.00    -0.090 HD
ATOM     21  H   LIG d   1      -4.609  90.641 116.174  0.00  0.00    -0.090 HD
ENDBRANCH   5  18
BRANCH   3  22
ATOM     22  C   LIG d   1      -7.931  94.697 118.201  0.00  0.00     0.382 C 
ATOM     23  O   LIG d   1      -7.691  95.903 117.949  0.00  0.00    -0.241 OA
ATOM     24  O   LIG d   1      -9.109  94.325 118.358  0.00  0.00    -0.241 OA
ENDBRANCH   3  22
TORSDOF 7
ENDMDL
MODEL 5
REMARK VINA RESULT:      -4.1      2.583      5.622
REMARK  7 active torsions:
REMARK  status: ('A' for Active; 'I' for Inactive)
REMARK    1  A    between atoms: C_2  and  C_3 
REMARK    2  A    between atoms: C_3  and  O_6 
REMARK    3  A    between atoms: C_3  and  C_4 
REMARK    4  A    between atoms: C_7  and  O_6 
REMARK    5  A    between atoms: C_9  and  C_10 
REMARK    6  A    between atoms: N_15  and  C_14 
REMARK    7  A    between atoms: N_20  and  C_19 
REMARK       I    between atoms: C_22  and  N_20 
ROOT
ATOM      1  C   LIG d   1      -3.691  91.579 118.983  0.00  0.00     0.161 C 
ATOM      2  C   LIG d   1      -4.694  91.468 118.005  0.00  0.00     0.016 C 
ATOM      3  C   LIG d   1      -5.766  92.382 117.883  0.00  0.00     0.038 C 
ATOM      4  C   LIG d   1      -5.824  93.562 118.640  0.00  0.00     0.028 C 
ATOM      5  C   LIG d   1      -5.107  93.457 119.981  0.00  0.00    -0.047 C 
ATOM      6  C   LIG d   1      -3.677  92.920 119.745  0.00  0.00     0.091 C 
ENDROOT
BRANCH   1   7
ATOM      7  O   LIG d   1      -2.402  91.325 118.390  0.00  0.00    -0.368 OA
BRANCH   7   8
ATOM      8  C   LIG d   1      -1.970  89.942 118.372  0.00  0.00     0.119 C 
BRANCH   8   9
ATOM      9  C   LIG d   1      -2.164  89.378 119.793  0.00  0.00     0.028 C 
ATOM     10  C   LIG d   1      -2.625  87.911 119.784  0.00  0.00     0.006 C 
ENDBRANCH   8   9
BRANCH   8  11
ATOM     11  C   LIG d   1      -0.469  89.831 118.092  0.00  0.00     0.028 C 
ATOM     12  C   LIG d   1       0.181  91.188 117.780  0.00  0.00     0.006 C 
ENDBRANCH   8  11
ENDBRANCH   7   8
ENDBRANCH   1   7
BRANCH   6  13
ATOM     13  N   LIG d   1      -2.934  92.707 121.015  0.00  0.00    -0.311 N 
ATOM     14  C   LIG d   1      -2.095  93.603 121.532  0.00  0.00     0.210 C 
ATOM     15  C   LIG d   1      -1.418  93.176 122.838  0.00  0.00     0.109 C 
ATOM     16  O   LIG d   1      -1.871  94.724 121.050  0.00  0.00    -0.276 OA
ATOM     17  H   LIG d   1      -3.080  91.838 121.489  0.00  0.00     0.149 HD
ENDBRANCH   6  13
BRANCH   5  18
ATOM     18  N   LIG d   1      -5.127  94.795 120.603  0.00  0.00     0.381 N 
ATOM     19  H   LIG d   1      -6.061  95.029 120.874  0.00  0.00    -0.090 HD
ATOM     20  H   LIG d   1      -4.815  95.471 119.929  0.00  0.00    -0.090 HD
ATOM     21  H   LIG d   1      -4.529  94.809 121.400  0.00  0.00    -0.090 HD
ENDBRANCH   5  18
BRANCH   3  22
ATOM     22  C   LIG d   1      -6.816  92.099 117.023  0.00  0.00     0.382 C 
ATOM     23  O   LIG d   1      -6.860  90.994 116.430  0.00  0.00    -0.241 OA
ATOM     24  O   LIG d   1      -7.696  92.952 116.798  0.00  0.00    -0.241 OA
ENDBRANCH   3  22
TORSDOF 7
ENDMDL
MODEL 6
REMARK VINA RESULT:      -4.0      2.664      5.333
REMARK  7 active torsions:
REMARK  status: ('A' for Active; 'I' for Inactive)
REMARK    1  A    between atoms: C_2  and  C_3 
REMARK    2  A    between atoms: C_3  and  O_6 
REMARK    3  A    between atoms: C_3  and  C_4 
REMARK    4  A    between atoms: C_7  and  O_6 
REMARK    5  A    between atoms: C_9  and  C_10 
REMARK    6  A    between atoms: N_15  and  C_14 
REMARK    7  A    between atoms: N_20  and  C_19 
REMARK       I    between atoms: C_22  and  N_20 
ROOT
ATOM      1  C   LIG d   1      -4.823  93.889 120.116  0.00  0.00     0.161 C 
ATOM      2  C   LIG d   1      -6.022  94.054 119.404  0.00  0.00     0.016 C 
ATOM      3  C   LIG d   1      -6.387  93.252 118.298  0.00  0.00     0.038 C 
ATOM      4  C   LIG d   1      -5.641  92.125 117.922  0.00  0.00     0.028 C 
ATOM      5  C   LIG d   1      -4.166  92.223 118.294  0.00  0.00    -0.047 C 
ATOM      6  C   LIG d   1      -4.049  92.594 119.790  0.00  0.00     0.091 C 
ENDROOT
BRANCH   1   7
ATOM      7  O   LIG d   1      -5.080  93.976 121.532  0.00  0.00    -0.368 OA
BRANCH   7   8
ATOM      8  C   LIG d   1      -6.256  93.278 122.010  0.00  0.00     0.119 C 
BRANCH   8   9
ATOM      9  C   LIG d   1      -7.099  94.287 122.813  0.00  0.00     0.028 C 
ATOM     10  C   LIG d   1      -8.610  94.063 122.635  0.00  0.00     0.006 C 
ENDBRANCH   8   9
BRANCH   8  11
ATOM     11  C   LIG d   1      -5.883  92.177 123.008  0.00  0.00     0.028 C 
ATOM     12  C   LIG d   1      -4.446  92.312 123.535  0.00  0.00     0.006 C 
ENDBRANCH   8  11
ENDBRANCH   7   8
ENDBRANCH   1   7
BRANCH   6  13
ATOM     13  N   LIG d   1      -2.640  92.793 120.217  0.00  0.00    -0.311 N 
ATOM     14  C   LIG d   1      -1.901  91.836 120.775  0.00  0.00     0.210 C 
ATOM     15  C   LIG d   1      -0.479  92.257 121.158  0.00  0.00     0.109 C 
ATOM     16  O   LIG d   1      -2.278  90.669 120.960  0.00  0.00    -0.276 OA
ATOM     17  H   LIG d   1      -2.244  93.701 120.075  0.00  0.00     0.149 HD
ENDBRANCH   6  13
BRANCH   5  18
ATOM     18  N   LIG d   1      -3.537  90.929 117.969  0.00  0.00     0.381 N 
ATOM     19  H   LIG d   1      -3.366  90.415 118.810  0.00  0.00    -0.090 HD
ATOM     20  H   LIG d   1      -2.656  91.099 117.518  0.00  0.00    -0.090 HD
ATOM     21  H   LIG d   1      -4.131  90.403 117.365  0.00  0.00    -0.090 HD
ENDBRANCH   5  18
BRANCH   3  22
ATOM     22  C   LIG d   1      -7.489  93.599 117.531  0.00  0.00     0.382 C 
ATOM     23  O   LIG d   1      -8.317  94.436 117.966  0.00  0.00    -0.241 OA
ATOM     24  O   LIG d   1      -7.690  93.052 116.430  0.00  0.00    -0.241 OA
ENDBRANCH   3  22
TORSDOF 7
ENDMDL
MODEL 7
REMARK VINA RESULT:      -4.0      2.568      4.437
REMARK  7 active torsions:
REMARK  status: ('A' for Active; 'I' for Inactive)
REMARK    1  A    between atoms: C_2  and  C_3 
REMARK    2  A    between atoms: C_3  and  O_6 
REMARK    3  A    between atoms: C_3  and  C_4 
REMARK    4  A    between atoms: C_7  and  O_6 
REMARK    5  A    between atoms: C_9  and  C_10 
REMARK    6  A    between atoms: N_15  and  C_14 
REMARK    7  A    between atoms: N_20  and  C_19 
REMARK       I    between atoms: C_22  and  N_20 
ROOT
ATOM      1  C   LIG d   1      -5.301  94.168 119.600  0.00  0.00     0.161 C 
ATOM      2  C   LIG d   1      -6.238  93.606 118.717  0.00  0.00     0.016 C 
ATOM      3  C   LIG d   1      -5.934  92.547 117.830  0.00  0.00     0.038 C 
ATOM      4  C   LIG d   1      -4.704  91.873 117.874  0.00  0.00     0.028 C 
ATOM      5  C   LIG d   1      -3.560  92.734 118.399  0.00  0.00    -0.047 C 
ATOM      6  C   LIG d   1      -3.986  93.373 119.740  0.00  0.00     0.091 C 
ENDROOT
BRANCH   1   7
ATOM      7  O   LIG d   1      -5.906  94.368 120.892  0.00  0.00    -0.368 OA
BRANCH   7   8
ATOM      8  C   LIG d   1      -6.750  95.538 121.027  0.00  0.00     0.119 C 
BRANCH   8   9
ATOM      9  C   LIG d   1      -6.131  96.432 122.120  0.00  0.00     0.028 C 
ATOM     10  C   LIG d   1      -4.857  97.147 121.641  0.00  0.00     0.006 C 
ENDBRANCH   8   9
BRANCH   8  11
ATOM     11  C   LIG d   1      -8.141  95.166 121.548  0.00  0.00     0.028 C 
ATOM     12  C   LIG d   1      -8.097  94.100 122.654  0.00  0.00     0.006 C 
ENDBRANCH   8  11
ENDBRANCH   7   8
ENDBRANCH   1   7
BRANCH   6  13
ATOM     13  N   LIG d   1      -2.956  94.298 120.281  0.00  0.00    -0.311 N 
ATOM     14  C   LIG d   1      -2.433  94.181 121.500  0.00  0.00     0.210 C 
ATOM     15  C   LIG d   1      -1.400  95.252 121.866  0.00  0.00     0.109 C 
ATOM     16  O   LIG d   1      -2.702  93.273 122.301  0.00  0.00    -0.276 OA
ATOM     17  H   LIG d   1      -2.657  95.045 119.685  0.00  0.00     0.149 HD
ENDBRANCH   6  13
BRANCH   5  18
ATOM     18  N   LIG d   1      -2.371  91.869 118.522  0.00  0.00     0.381 N 
ATOM     19  H   LIG d   1      -1.550  92.385 118.274  0.00  0.00    -0.090 HD
ATOM     20  H   LIG d   1      -2.463  91.098 117.884  0.00  0.00    -0.090 HD
ATOM     21  H   LIG d   1      -2.291  91.531 119.455  0.00  0.00    -0.090 HD
ENDBRANCH   5  18
BRANCH   3  22
ATOM     22  C   LIG d   1      -6.852  92.179 116.859  0.00  0.00     0.382 C 
ATOM     23  O   LIG d   1      -7.687  93.015 116.437  0.00  0.00    -0.241 OA
ATOM     24  O   LIG d   1      -6.885  91.009 116.432  0.00  0.00    -0.241 OA
ENDBRANCH   3  22
TORSDOF 7
ENDMDL
MODEL 8
REMARK VINA RESULT:      -3.9      3.953      6.572
REMARK  7 active torsions:
REMARK  status: ('A' for Active; 'I' for Inactive)
REMARK    1  A    between atoms: C_2  and  C_3 
REMARK    2  A    between atoms: C_3  and  O_6 
REMARK    3  A    between atoms: C_3  and  C_4 
REMARK    4  A    between atoms: C_7  and  O_6 
REMARK    5  A    between atoms: C_9  and  C_10 
REMARK    6  A    between atoms: N_15  and  C_14 
REMARK    7  A    between atoms: N_20  and  C_19 
REMARK       I    between atoms: C_22  and  N_20 
ROOT
ATOM      1  C   LIG d   1      -2.102  89.289 118.125  0.00  0.00     0.161 C 
ATOM      2  C   LIG d   1      -0.825  88.733 117.944  0.00  0.00     0.016 C 
ATOM      3  C   LIG d   1       0.345  89.509 117.776  0.00  0.00     0.038 C 
ATOM      4  C   LIG d   1       0.337  90.904 117.928  0.00  0.00     0.028 C 
ATOM      5  C   LIG d   1      -1.011  91.541 117.610  0.00  0.00    -0.047 C 
ATOM      6  C   LIG d   1      -2.114  90.806 118.406  0.00  0.00     0.091 C 
ENDROOT
BRANCH   1   7
ATOM      7  O   LIG d   1      -2.800  88.581 119.169  0.00  0.00    -0.368 OA
BRANCH   7   8
ATOM      8  C   LIG d   1      -1.970  87.941 120.170  0.00  0.00     0.119 C 
BRANCH   8   9
ATOM      9  C   LIG d   1      -2.564  86.545 120.440  0.00  0.00     0.028 C 
ATOM     10  C   LIG d   1      -1.805  85.431 119.699  0.00  0.00     0.006 C 
ENDBRANCH   8   9
BRANCH   8  11
ATOM     11  C   LIG d   1      -2.043  88.679 121.510  0.00  0.00     0.028 C 
ATOM     12  C   LIG d   1      -0.833  89.596 121.752  0.00  0.00     0.006 C 
ENDBRANCH   8  11
ENDBRANCH   7   8
ENDBRANCH   1   7
BRANCH   6  13
ATOM     13  N   LIG d   1      -3.475  91.312 118.088  0.00  0.00    -0.311 N 
ATOM     14  C   LIG d   1      -4.075  92.282 118.775  0.00  0.00     0.210 C 
ATOM     15  C   LIG d   1      -5.485  92.638 118.293  0.00  0.00     0.109 C 
ATOM     16  O   LIG d   1      -3.562  92.903 119.717  0.00  0.00    -0.276 OA
ATOM     17  H   LIG d   1      -3.952  90.885 117.318  0.00  0.00     0.149 HD
ENDBRANCH   6  13
BRANCH   5  18
ATOM     18  N   LIG d   1      -0.916  92.975 117.943  0.00  0.00     0.381 N 
ATOM     19  H   LIG d   1      -1.658  93.476 117.496  0.00  0.00    -0.090 HD
ATOM     20  H   LIG d   1      -0.042  93.331 117.598  0.00  0.00    -0.090 HD
ATOM     21  H   LIG d   1      -0.969  93.100 118.930  0.00  0.00    -0.090 HD
ENDBRANCH   5  18
BRANCH   3  22
ATOM     22  C   LIG d   1       1.532  88.893 117.411  0.00  0.00     0.382 C 
ATOM     23  O   LIG d   1       1.553  88.098 116.441  0.00  0.00    -0.241 OA
ATOM     24  O   LIG d   1       2.572  89.088 118.067  0.00  0.00    -0.241 OA
ENDBRANCH   3  22
TORSDOF 7
ENDMDL
MODEL 9
REMARK VINA RESULT:      -3.8      5.507      8.103
REMARK  7 active torsions:
REMARK  status: ('A' for Active; 'I' for Inactive)
REMARK    1  A    between atoms: C_2  and  C_3 
REMARK    2  A    between atoms: C_3  and  O_6 
REMARK    3  A    between atoms: C_3  and  C_4 
REMARK    4  A    between atoms: C_7  and  O_6 
REMARK    5  A    between atoms: C_9  and  C_10 
REMARK    6  A    between atoms: N_15  and  C_14 
REMARK    7  A    between atoms: N_20  and  C_19 
REMARK       I    between atoms: C_22  and  N_20 
ROOT
ATOM      1  C   LIG d   1       1.037  90.312 118.390  0.00  0.00     0.161 C 
ATOM      2  C   LIG d   1       1.295  89.040 118.928  0.00  0.00     0.016 C 
ATOM      3  C   LIG d   1       0.330  88.008 118.984  0.00  0.00     0.038 C 
ATOM      4  C   LIG d   1      -0.922  88.130 118.363  0.00  0.00     0.028 C 
ATOM      5  C   LIG d   1      -1.405  89.572 118.250  0.00  0.00    -0.047 C 
ATOM      6  C   LIG d   1      -0.288  90.426 117.608  0.00  0.00     0.091 C 
ENDROOT
BRANCH   1   7
ATOM      7  O   LIG d   1       2.144  90.726 117.564  0.00  0.00    -0.368 OA
BRANCH   7   8
ATOM      8  C   LIG d   1       3.374  89.977 117.724  0.00  0.00     0.119 C 
BRANCH   8   9
ATOM      9  C   LIG d   1       4.505  90.993 117.972  0.00  0.00     0.028 C 
ATOM     10  C   LIG d   1       5.178  90.799 119.342  0.00  0.00     0.006 C 
ENDBRANCH   8   9
BRANCH   8  11
ATOM     11  C   LIG d   1       3.756  89.252 116.430  0.00  0.00     0.028 C 
ATOM     12  C   LIG d   1       4.641  88.020 116.677  0.00  0.00     0.006 C 
ENDBRANCH   8  11
ENDBRANCH   7   8
ENDBRANCH   1   7
BRANCH   6  13
ATOM     13  N   LIG d   1      -0.646  91.867 117.538  0.00  0.00    -0.311 N 
ATOM     14  C   LIG d   1      -0.936  92.603 118.609  0.00  0.00     0.210 C 
ATOM     15  C   LIG d   1      -1.297  94.062 118.313  0.00  0.00     0.109 C 
ATOM     16  O   LIG d   1      -0.897  92.195 119.779  0.00  0.00    -0.276 OA
ATOM     17  H   LIG d   1      -0.671  92.287 116.629  0.00  0.00     0.149 HD
ENDBRANCH   6  13
BRANCH   5  18
ATOM     18  N   LIG d   1      -2.652  89.565 117.464  0.00  0.00     0.381 N 
ATOM     19  H   LIG d   1      -3.270  88.860 117.814  0.00  0.00    -0.090 HD
ATOM     20  H   LIG d   1      -2.433  89.345 116.508  0.00  0.00    -0.090 HD
ATOM     21  H   LIG d   1      -3.093  90.457 117.514  0.00  0.00    -0.090 HD
ENDBRANCH   5  18
BRANCH   3  22
ATOM     22  C   LIG d   1       0.600  86.853 119.701  0.00  0.00     0.382 C 
ATOM     23  O   LIG d   1       0.172  86.728 120.874  0.00  0.00    -0.241 OA
ATOM     24  O   LIG d   1       1.303  85.952 119.206  0.00  0.00    -0.241 OA
ENDBRANCH   3  22
TORSDOF 7
ENDMDL
