MODEL 1
REMARK VINA RESULT:      -4.3      0.000      0.000
REMARK  7 active torsions:
REMARK  status: ('A' for Active; 'I' for Inactive)
REMARK    1  A    between atoms: C_2  and  C_3 
REMARK    2  A    between atoms: C_3  and  O_6 
REMARK    3  A    between atoms: C_3  and  C_4 
REMARK    4  A    between atoms: C_7  and  O_6 
REMARK    5  A    between atoms: C_9  and  C_10 
REMARK    6  A    between atoms: N_15  and  C_14 
REMARK    7  A    between atoms: N_20  and  C_19 
REMARK       I    between atoms: C_22  and  N_20 
ROOT
ATOM      1  C   LIG d   1      -0.253  92.791 119.715  0.00  0.00     0.161 C 
ATOM      2  C   LIG d   1       0.853  92.476 118.909  0.00  0.00     0.016 C 
ATOM      3  C   LIG d   1       0.740  92.039 117.569  0.00  0.00     0.038 C 
ATOM      4  C   LIG d   1      -0.489  92.034 116.892  0.00  0.00     0.028 C 
ATOM      5  C   LIG d   1      -1.689  91.862 117.817  0.00  0.00    -0.047 C 
ATOM      6  C   LIG d   1      -1.594  92.898 118.960  0.00  0.00     0.091 C 
ENDROOT
BRANCH   1   7
ATOM      7  O   LIG d   1       0.007  94.005 120.448  0.00  0.00    -0.368 OA
BRANCH   7   8
ATOM      8  C   LIG d   1       0.265  93.850 121.865  0.00  0.00     0.119 C 
BRANCH   8   9
ATOM      9  C   LIG d   1      -0.871  94.564 122.623  0.00  0.00     0.028 C 
ATOM     10  C   LIG d   1      -1.207  95.938 122.019  0.00  0.00     0.006 C 
ENDBRANCH   8   9
BRANCH   8  11
ATOM     11  C   LIG d   1       1.548  94.576 122.280  0.00  0.00     0.028 C 
ATOM     12  C   LIG d   1       2.360  95.086 121.078  0.00  0.00     0.006 C 
ENDBRANCH   8  11
ENDBRANCH   7   8
ENDBRANCH   1   7
BRANCH   6  13
ATOM     13  N   LIG d   1      -2.686  92.744 119.957  0.00  0.00    -0.311 N 
ATOM     14  C   LIG d   1      -3.572  93.700 120.228  0.00  0.00     0.210 C 
ATOM     15  C   LIG d   1      -4.602  93.341 121.303  0.00  0.00     0.109 C 
ATOM     16  O   LIG d   1      -3.622  94.800 119.657  0.00  0.00    -0.276 OA
ATOM     17  H   LIG d   1      -2.738  91.871 120.444  0.00  0.00     0.149 HD
ENDBRANCH   6  13
BRANCH   5  18
ATOM     18  N   LIG d   1      -2.907  92.013 116.999  0.00  0.00     0.381 N 
ATOM     19  H   LIG d   1      -2.685  92.482 116.143  0.00  0.00    -0.090 HD
ATOM     20  H   LIG d   1      -3.570  92.575 117.503  0.00  0.00    -0.090 HD
ATOM     21  H   LIG d   1      -3.300  91.118 116.803  0.00  0.00    -0.090 HD
ENDBRANCH   5  18
BRANCH   3  22
ATOM     22  C   LIG d   1       1.860  91.564 116.904  0.00  0.00     0.382 C 
ATOM     23  O   LIG d   1       2.744  92.364 116.513  0.00  0.00    -0.241 OA
ATOM     24  O   LIG d   1       1.977  90.350 116.651  0.00  0.00    -0.241 OA
ENDBRANCH   3  22
TORSDOF 7
ENDMDL
MODEL 2
REMARK VINA RESULT:      -4.2      0.718      1.774
REMARK  7 active torsions:
REMARK  status: ('A' for Active; 'I' for Inactive)
REMARK    1  A    between atoms: C_2  and  C_3 
REMARK    2  A    between atoms: C_3  and  O_6 
REMARK    3  A    between atoms: C_3  and  C_4 
REMARK    4  A    between atoms: C_7  and  O_6 
REMARK    5  A    between atoms: C_9  and  C_10 
REMARK    6  A    between atoms: N_15  and  C_14 
REMARK    7  A    between atoms: N_20  and  C_19 
REMARK       I    between atoms: C_22  and  N_20 
ROOT
ATOM      1  C   LIG d   1      -0.503  92.844 119.814  0.00  0.00     0.161 C 
ATOM      2  C   LIG d   1       0.649  92.516 119.080  0.00  0.00     0.016 C 
ATOM      3  C   LIG d   1       0.615  92.049 117.746  0.00  0.00     0.038 C 
ATOM      4  C   LIG d   1      -0.572  92.023 116.999  0.00  0.00     0.028 C 
ATOM      5  C   LIG d   1      -1.824  91.866 117.857  0.00  0.00    -0.047 C 
ATOM      6  C   LIG d   1      -1.799  92.928 118.980  0.00  0.00     0.091 C 
ENDROOT
BRANCH   1   7
ATOM      7  O   LIG d   1      -0.290  94.075 120.533  0.00  0.00    -0.368 OA
BRANCH   7   8
ATOM      8  C   LIG d   1      -0.194  93.962 121.974  0.00  0.00     0.119 C 
BRANCH   8   9
ATOM      9  C   LIG d   1       1.271  94.235 122.364  0.00  0.00     0.028 C 
ATOM     10  C   LIG d   1       1.958  95.225 121.408  0.00  0.00     0.006 C 
ENDBRANCH   8   9
BRANCH   8  11
ATOM     11  C   LIG d   1      -0.479  92.532 122.442  0.00  0.00     0.028 C 
ATOM     12  C   LIG d   1      -1.711  92.438 123.356  0.00  0.00     0.006 C 
ENDBRANCH   8  11
ENDBRANCH   7   8
ENDBRANCH   1   7
BRANCH   6  13
ATOM     13  N   LIG d   1      -2.945  92.790 119.916  0.00  0.00    -0.311 N 
ATOM     14  C   LIG d   1      -3.773  93.790 120.213  0.00  0.00     0.210 C 
ATOM     15  C   LIG d   1      -4.877  93.440 121.216  0.00  0.00     0.109 C 
ATOM     16  O   LIG d   1      -3.717  94.926 119.717  0.00  0.00    -0.276 OA
ATOM     17  H   LIG d   1      -3.083  91.894 120.340  0.00  0.00     0.149 HD
ENDBRANCH   6  13
BRANCH   5  18
ATOM     18  N   LIG d   1      -2.993  91.992 116.967  0.00  0.00     0.381 N 
ATOM     19  H   LIG d   1      -2.946  91.300 116.246  0.00  0.00    -0.090 HD
ATOM     20  H   LIG d   1      -2.976  92.899 116.535  0.00  0.00    -0.090 HD
ATOM     21  H   LIG d   1      -3.833  91.881 117.490  0.00  0.00    -0.090 HD
ENDBRANCH   5  18
BRANCH   3  22
ATOM     22  C   LIG d   1       1.773  91.564 117.158  0.00  0.00     0.382 C 
ATOM     23  O   LIG d   1       2.102  90.364 117.316  0.00  0.00    -0.241 OA
ATOM     24  O   LIG d   1       2.517  92.323 116.507  0.00  0.00    -0.241 OA
ENDBRANCH   3  22
TORSDOF 7
ENDMDL
MODEL 3
REMARK VINA RESULT:      -4.2      2.214      5.174
REMARK  7 active torsions:
REMARK  status: ('A' for Active; 'I' for Inactive)
REMARK    1  A    between atoms: C_2  and  C_3 
REMARK    2  A    between atoms: C_3  and  O_6 
REMARK    3  A    between atoms: C_3  and  C_4 
REMARK    4  A    between atoms: C_7  and  O_6 
REMARK    5  A    between atoms: C_9  and  C_10 
REMARK    6  A    between atoms: N_15  and  C_14 
REMARK    7  A    between atoms: N_20  and  C_19 
REMARK       I    between atoms: C_22  and  N_20 
ROOT
ATOM      1  C   LIG d   1      -0.358  91.983 118.075  0.00  0.00     0.161 C 
ATOM      2  C   LIG d   1      -1.568  91.675 117.432  0.00  0.00     0.016 C 
ATOM      3  C   LIG d   1      -2.838  91.925 118.001  0.00  0.00     0.038 C 
ATOM      4  C   LIG d   1      -2.987  92.645 119.196  0.00  0.00     0.028 C 
ATOM      5  C   LIG d   1      -1.783  92.530 120.125  0.00  0.00    -0.047 C 
ATOM      6  C   LIG d   1      -0.501  92.870 119.330  0.00  0.00     0.091 C 
ENDROOT
BRANCH   1   7
ATOM      7  O   LIG d   1       0.554  92.587 117.137  0.00  0.00    -0.368 OA
BRANCH   7   8
ATOM      8  C   LIG d   1       1.701  91.787 116.758  0.00  0.00     0.119 C 
BRANCH   8   9
ATOM      9  C   LIG d   1       1.569  90.425 117.466  0.00  0.00     0.028 C 
ATOM     10  C   LIG d   1       1.595  89.246 116.479  0.00  0.00     0.006 C 
ENDBRANCH   8   9
BRANCH   8  11
ATOM     11  C   LIG d   1       3.003  92.395 117.288  0.00  0.00     0.028 C 
ATOM     12  C   LIG d   1       3.632  91.564 118.417  0.00  0.00     0.006 C 
ENDBRANCH   8  11
ENDBRANCH   7   8
ENDBRANCH   1   7
BRANCH   6  13
ATOM     13  N   LIG d   1       0.731  92.700 120.143  0.00  0.00    -0.311 N 
ATOM     14  C   LIG d   1       1.256  93.670 120.890  0.00  0.00     0.210 C 
ATOM     15  C   LIG d   1       2.541  93.291 121.633  0.00  0.00     0.109 C 
ATOM     16  O   LIG d   1       0.761  94.798 121.034  0.00  0.00    -0.276 OA
ATOM     17  H   LIG d   1       1.180  91.806 120.110  0.00  0.00     0.149 HD
ENDBRANCH   6  13
BRANCH   5  18
ATOM     18  N   LIG d   1      -2.013  93.436 121.266  0.00  0.00     0.381 N 
ATOM     19  H   LIG d   1      -1.801  94.377 121.000  0.00  0.00    -0.090 HD
ATOM     20  H   LIG d   1      -1.399  93.175 122.018  0.00  0.00    -0.090 HD
ATOM     21  H   LIG d   1      -2.961  93.374 121.565  0.00  0.00    -0.090 HD
ENDBRANCH   5  18
BRANCH   3  22
ATOM     22  C   LIG d   1      -3.976  91.418 117.392  0.00  0.00     0.382 C 
ATOM     23  O   LIG d   1      -5.029  92.100 117.363  0.00  0.00    -0.241 OA
ATOM     24  O   LIG d   1      -3.976  90.269 116.910  0.00  0.00    -0.241 OA
ENDBRANCH   3  22
TORSDOF 7
ENDMDL
MODEL 4
REMARK VINA RESULT:      -4.0      2.249      4.695
REMARK  7 active torsions:
REMARK  status: ('A' for Active; 'I' for Inactive)
REMARK    1  A    between atoms: C_2  and  C_3 
REMARK    2  A    between atoms: C_3  and  O_6 
REMARK    3  A    between atoms: C_3  and  C_4 
REMARK    4  A    between atoms: C_7  and  O_6 
REMARK    5  A    between atoms: C_9  and  C_10 
REMARK    6  A    between atoms: N_15  and  C_14 
REMARK    7  A    between atoms: N_20  and  C_19 
REMARK       I    between atoms: C_22  and  N_20 
ROOT
ATOM      1  C   LIG d   1      -1.507  92.131 118.841  0.00  0.00     0.161 C 
ATOM      2  C   LIG d   1      -2.392  91.685 117.845  0.00  0.00     0.016 C 
ATOM      3  C   LIG d   1      -3.770  92.003 117.829  0.00  0.00     0.038 C 
ATOM      4  C   LIG d   1      -4.329  92.920 118.732  0.00  0.00     0.028 C 
ATOM      5  C   LIG d   1      -3.580  92.999 120.057  0.00  0.00    -0.047 C 
ATOM      6  C   LIG d   1      -2.077  93.222 119.772  0.00  0.00     0.091 C 
ENDROOT
BRANCH   1   7
ATOM      7  O   LIG d   1      -0.278  92.579 118.238  0.00  0.00    -0.368 OA
BRANCH   7   8
ATOM      8  C   LIG d   1       0.730  91.563 118.013  0.00  0.00     0.119 C 
BRANCH   8   9
ATOM      9  C   LIG d   1       1.654  91.547 119.246  0.00  0.00     0.028 C 
ATOM     10  C   LIG d   1       2.045  92.962 119.705  0.00  0.00     0.006 C 
ENDBRANCH   8   9
BRANCH   8  11
ATOM     11  C   LIG d   1       1.635  91.926 116.832  0.00  0.00     0.028 C 
ATOM     12  C   LIG d   1       2.813  90.954 116.663  0.00  0.00     0.006 C 
ENDBRANCH   8  11
ENDBRANCH   7   8
ENDBRANCH   1   7
BRANCH   6  13
ATOM     13  N   LIG d   1      -1.259  93.227 121.012  0.00  0.00    -0.311 N 
ATOM     14  C   LIG d   1      -0.915  94.340 121.659  0.00  0.00     0.210 C 
ATOM     15  C   LIG d   1      -0.052  94.123 122.906  0.00  0.00     0.109 C 
ATOM     16  O   LIG d   1      -1.270  95.484 121.336  0.00  0.00    -0.276 OA
ATOM     17  H   LIG d   1      -0.955  92.340 121.362  0.00  0.00     0.149 HD
ENDBRANCH   6  13
BRANCH   5  18
ATOM     18  N   LIG d   1      -4.186  94.088 120.847  0.00  0.00     0.381 N 
ATOM     19  H   LIG d   1      -4.026  93.929 121.822  0.00  0.00    -0.090 HD
ATOM     20  H   LIG d   1      -5.178  94.092 120.687  0.00  0.00    -0.090 HD
ATOM     21  H   LIG d   1      -3.794  94.963 120.577  0.00  0.00    -0.090 HD
ENDBRANCH   5  18
BRANCH   3  22
ATOM     22  C   LIG d   1      -4.610  91.371 116.926  0.00  0.00     0.382 C 
ATOM     23  O   LIG d   1      -4.313  90.236 116.481  0.00  0.00    -0.241 OA
ATOM     24  O   LIG d   1      -5.640  91.939 116.517  0.00  0.00    -0.241 OA
ENDBRANCH   3  22
TORSDOF 7
ENDMDL
MODEL 5
REMARK VINA RESULT:      -4.0      2.324      4.017
REMARK  7 active torsions:
REMARK  status: ('A' for Active; 'I' for Inactive)
REMARK    1  A    between atoms: C_2  and  C_3 
REMARK    2  A    between atoms: C_3  and  O_6 
REMARK    3  A    between atoms: C_3  and  C_4 
REMARK    4  A    between atoms: C_7  and  O_6 
REMARK    5  A    between atoms: C_9  and  C_10 
REMARK    6  A    between atoms: N_15  and  C_14 
REMARK    7  A    between atoms: N_20  and  C_19 
REMARK       I    between atoms: C_22  and  N_20 
ROOT
ATOM      1  C   LIG d   1      -2.273  93.280 119.388  0.00  0.00     0.161 C 
ATOM      2  C   LIG d   1      -1.198  93.168 120.285  0.00  0.00     0.016 C 
ATOM      3  C   LIG d   1       0.038  92.570 119.947  0.00  0.00     0.038 C 
ATOM      4  C   LIG d   1       0.337  92.176 118.634  0.00  0.00     0.028 C 
ATOM      5  C   LIG d   1      -0.896  91.809 117.816  0.00  0.00    -0.047 C 
ATOM      6  C   LIG d   1      -1.927  92.956 117.919  0.00  0.00     0.091 C 
ENDROOT
BRANCH   1   7
ATOM      7  O   LIG d   1      -2.857  94.594 119.487  0.00  0.00    -0.368 OA
BRANCH   7   8
ATOM      8  C   LIG d   1      -4.108  94.682 120.212  0.00  0.00     0.119 C 
BRANCH   8   9
ATOM      9  C   LIG d   1      -3.789  95.212 121.623  0.00  0.00     0.028 C 
ATOM     10  C   LIG d   1      -3.266  96.658 121.602  0.00  0.00     0.006 C 
ENDBRANCH   8   9
BRANCH   8  11
ATOM     11  C   LIG d   1      -4.725  93.297 120.429  0.00  0.00     0.028 C 
ATOM     12  C   LIG d   1      -5.323  93.125 121.835  0.00  0.00     0.006 C 
ENDBRANCH   8  11
ENDBRANCH   7   8
ENDBRANCH   1   7
BRANCH   6  13
ATOM     13  N   LIG d   1      -3.198  92.641 117.216  0.00  0.00    -0.311 N 
ATOM     14  C   LIG d   1      -3.777  91.442 117.250  0.00  0.00     0.210 C 
ATOM     15  C   LIG d   1      -5.072  91.327 116.440  0.00  0.00     0.109 C 
ATOM     16  O   LIG d   1      -3.358  90.473 117.901  0.00  0.00    -0.276 OA
ATOM     17  H   LIG d   1      -3.623  93.379 116.690  0.00  0.00     0.149 HD
ENDBRANCH   6  13
BRANCH   5  18
ATOM     18  N   LIG d   1      -0.453  91.552 116.433  0.00  0.00     0.381 N 
ATOM     19  H   LIG d   1      -1.218  91.687 115.802  0.00  0.00    -0.090 HD
ATOM     20  H   LIG d   1      -0.150  90.596 116.361  0.00  0.00    -0.090 HD
ATOM     21  H   LIG d   1       0.296  92.164 116.195  0.00  0.00    -0.090 HD
ENDBRANCH   5  18
BRANCH   3  22
ATOM     22  C   LIG d   1       0.976  92.325 120.938  0.00  0.00     0.382 C 
ATOM     23  O   LIG d   1       1.907  93.142 121.137  0.00  0.00    -0.241 OA
ATOM     24  O   LIG d   1       0.929  91.275 121.607  0.00  0.00    -0.241 OA
ENDBRANCH   3  22
TORSDOF 7
ENDMDL
MODEL 6
REMARK VINA RESULT:      -3.6      1.855      4.869
REMARK  7 active torsions:
REMARK  status: ('A' for Active; 'I' for Inactive)
REMARK    1  A    between atoms: C_2  and  C_3 
REMARK    2  A    between atoms: C_3  and  O_6 
REMARK    3  A    between atoms: C_3  and  C_4 
REMARK    4  A    between atoms: C_7  and  O_6 
REMARK    5  A    between atoms: C_9  and  C_10 
REMARK    6  A    between atoms: N_15  and  C_14 
REMARK    7  A    between atoms: N_20  and  C_19 
REMARK       I    between atoms: C_22  and  N_20 
ROOT
ATOM      1  C   LIG d   1      -0.219  93.190 120.234  0.00  0.00     0.161 C 
ATOM      2  C   LIG d   1      -1.541  93.629 120.421  0.00  0.00     0.016 C 
ATOM      3  C   LIG d   1      -2.583  93.372 119.500  0.00  0.00     0.038 C 
ATOM      4  C   LIG d   1      -2.406  92.524 118.397  0.00  0.00     0.028 C 
ATOM      5  C   LIG d   1      -0.966  92.472 117.898  0.00  0.00    -0.047 C 
ATOM      6  C   LIG d   1      -0.032  92.169 119.092  0.00  0.00     0.091 C 
ENDROOT
BRANCH   1   7
ATOM      7  O   LIG d   1       0.299  92.660 121.470  0.00  0.00    -0.368 OA
BRANCH   7   8
ATOM      8  C   LIG d   1       1.370  93.414 122.088  0.00  0.00     0.119 C 
BRANCH   8   9
ATOM      9  C   LIG d   1       1.628  94.655 121.212  0.00  0.00     0.028 C 
ATOM     10  C   LIG d   1       3.083  94.735 120.721  0.00  0.00     0.006 C 
ENDBRANCH   8   9
BRANCH   8  11
ATOM     11  C   LIG d   1       2.684  92.629 122.076  0.00  0.00     0.028 C 
ATOM     12  C   LIG d   1       2.470  91.107 122.114  0.00  0.00     0.006 C 
ENDBRANCH   8  11
ENDBRANCH   7   8
ENDBRANCH   1   7
BRANCH   6  13
ATOM     13  N   LIG d   1       1.403  92.184 118.707  0.00  0.00    -0.311 N 
ATOM     14  C   LIG d   1       2.103  91.082 118.441  0.00  0.00     0.210 C 
ATOM     15  C   LIG d   1       3.573  91.320 118.083  0.00  0.00     0.109 C 
ATOM     16  O   LIG d   1       1.637  89.933 118.437  0.00  0.00    -0.276 OA
ATOM     17  H   LIG d   1       1.853  93.078 118.655  0.00  0.00     0.149 HD
ENDBRANCH   6  13
BRANCH   5  18
ATOM     18  N   LIG d   1      -0.899  91.449 116.837  0.00  0.00     0.381 N 
ATOM     19  H   LIG d   1      -1.509  91.701 116.085  0.00  0.00    -0.090 HD
ATOM     20  H   LIG d   1      -1.207  90.570 117.213  0.00  0.00    -0.090 HD
ATOM     21  H   LIG d   1       0.036  91.366 116.503  0.00  0.00    -0.090 HD
ENDBRANCH   5  18
BRANCH   3  22
ATOM     22  C   LIG d   1      -3.809  94.000 119.659  0.00  0.00     0.382 C 
ATOM     23  O   LIG d   1      -4.837  93.319 119.891  0.00  0.00    -0.241 OA
ATOM     24  O   LIG d   1      -3.909  95.235 119.528  0.00  0.00    -0.241 OA
ENDBRANCH   3  22
TORSDOF 7
ENDMDL
MODEL 7
REMARK VINA RESULT:      -3.5      2.568      6.335
REMARK  7 active torsions:
REMARK  status: ('A' for Active; 'I' for Inactive)
REMARK    1  A    between atoms: C_2  and  C_3 
REMARK    2  A    between atoms: C_3  and  O_6 
REMARK    3  A    between atoms: C_3  and  C_4 
REMARK    4  A    between atoms: C_7  and  O_6 
REMARK    5  A    between atoms: C_9  and  C_10 
REMARK    6  A    between atoms: N_15  and  C_14 
REMARK    7  A    between atoms: N_20  and  C_19 
REMARK       I    between atoms: C_22  and  N_20 
ROOT
ATOM      1  C   LIG d   1      -3.887  93.336 120.176  0.00  0.00     0.161 C 
ATOM      2  C   LIG d   1      -5.038  93.407 120.978  0.00  0.00     0.016 C 
ATOM      3  C   LIG d   1      -5.163  92.743 122.220  0.00  0.00     0.038 C 
ATOM      4  C   LIG d   1      -4.082  92.081 122.819  0.00  0.00     0.028 C 
ATOM      5  C   LIG d   1      -3.060  91.559 121.815  0.00  0.00    -0.047 C 
ATOM      6  C   LIG d   1      -2.657  92.709 120.865  0.00  0.00     0.091 C 
ENDROOT
BRANCH   1   7
ATOM      7  O   LIG d   1      -3.564  94.646 119.668  0.00  0.00    -0.368 OA
BRANCH   7   8
ATOM      8  C   LIG d   1      -4.041  95.768 120.450  0.00  0.00     0.119 C 
BRANCH   8   9
ATOM      9  C   LIG d   1      -4.474  96.869 119.463  0.00  0.00     0.028 C 
ATOM     10  C   LIG d   1      -5.994  97.103 119.475  0.00  0.00     0.006 C 
ENDBRANCH   8   9
BRANCH   8  11
ATOM     11  C   LIG d   1      -2.913  96.388 121.279  0.00  0.00     0.028 C 
ATOM     12  C   LIG d   1      -2.964  95.975 122.759  0.00  0.00     0.006 C 
ENDBRANCH   8  11
ENDBRANCH   7   8
ENDBRANCH   1   7
BRANCH   6  13
ATOM     13  N   LIG d   1      -1.723  92.263 119.798  0.00  0.00    -0.311 N 
ATOM     14  C   LIG d   1      -0.554  92.852 119.554  0.00  0.00     0.210 C 
ATOM     15  C   LIG d   1       0.246  92.246 118.396  0.00  0.00     0.109 C 
ATOM     16  O   LIG d   1      -0.088  93.798 120.207  0.00  0.00    -0.276 OA
ATOM     17  H   LIG d   1      -2.008  91.482 119.240  0.00  0.00     0.149 HD
ENDBRANCH   6  13
BRANCH   5  18
ATOM     18  N   LIG d   1      -1.921  91.014 122.579  0.00  0.00     0.381 N 
ATOM     19  H   LIG d   1      -1.705  90.093 122.254  0.00  0.00    -0.090 HD
ATOM     20  H   LIG d   1      -2.180  90.954 123.548  0.00  0.00    -0.090 HD
ATOM     21  H   LIG d   1      -1.127  91.606 122.475  0.00  0.00    -0.090 HD
ENDBRANCH   5  18
BRANCH   3  22
ATOM     22  C   LIG d   1      -6.394  92.704 122.858  0.00  0.00     0.382 C 
ATOM     23  O   LIG d   1      -6.811  91.628 123.350  0.00  0.00    -0.241 OA
ATOM     24  O   LIG d   1      -7.112  93.721 122.908  0.00  0.00    -0.241 OA
ENDBRANCH   3  22
TORSDOF 7
ENDMDL
MODEL 8
REMARK VINA RESULT:      -3.5      1.963      2.493
REMARK  7 active torsions:
REMARK  status: ('A' for Active; 'I' for Inactive)
REMARK    1  A    between atoms: C_2  and  C_3 
REMARK    2  A    between atoms: C_3  and  O_6 
REMARK    3  A    between atoms: C_3  and  C_4 
REMARK    4  A    between atoms: C_7  and  O_6 
REMARK    5  A    between atoms: C_9  and  C_10 
REMARK    6  A    between atoms: N_15  and  C_14 
REMARK    7  A    between atoms: N_20  and  C_19 
REMARK       I    between atoms: C_22  and  N_20 
ROOT
ATOM      1  C   LIG d   1       1.504  92.017 119.816  0.00  0.00     0.161 C 
ATOM      2  C   LIG d   1       2.779  91.564 119.440  0.00  0.00     0.016 C 
ATOM      3  C   LIG d   1       3.068  91.021 118.167  0.00  0.00     0.038 C 
ATOM      4  C   LIG d   1       2.129  91.033 117.125  0.00  0.00     0.028 C 
ATOM      5  C   LIG d   1       0.684  91.017 117.612  0.00  0.00    -0.047 C 
ATOM      6  C   LIG d   1       0.494  92.141 118.656  0.00  0.00     0.091 C 
ENDROOT
BRANCH   1   7
ATOM      7  O   LIG d   1       1.618  93.271 120.517  0.00  0.00    -0.368 OA
BRANCH   7   8
ATOM      8  C   LIG d   1       1.731  93.187 121.959  0.00  0.00     0.119 C 
BRANCH   8   9
ATOM      9  C   LIG d   1       0.632  92.227 122.454  0.00  0.00     0.028 C 
ATOM     10  C   LIG d   1      -0.622  92.972 122.941  0.00  0.00     0.006 C 
ENDBRANCH   8   9
BRANCH   8  11
ATOM     11  C   LIG d   1       1.422  94.533 122.621  0.00  0.00     0.028 C 
ATOM     12  C   LIG d   1       1.817  95.733 121.745  0.00  0.00     0.006 C 
ENDBRANCH   8  11
ENDBRANCH   7   8
ENDBRANCH   1   7
BRANCH   6  13
ATOM     13  N   LIG d   1      -0.871  92.142 119.245  0.00  0.00    -0.311 N 
ATOM     14  C   LIG d   1      -1.892  92.824 118.729  0.00  0.00     0.210 C 
ATOM     15  C   LIG d   1      -3.207  92.704 119.505  0.00  0.00     0.109 C 
ATOM     16  O   LIG d   1      -1.841  93.492 117.685  0.00  0.00    -0.276 OA
ATOM     17  H   LIG d   1      -1.009  91.602 120.077  0.00  0.00     0.149 HD
ENDBRANCH   6  13
BRANCH   5  18
ATOM     18  N   LIG d   1      -0.186  91.172 116.431  0.00  0.00     0.381 N 
ATOM     19  H   LIG d   1      -0.430  90.271 116.070  0.00  0.00    -0.090 HD
ATOM     20  H   LIG d   1       0.318  91.671 115.719  0.00  0.00    -0.090 HD
ATOM     21  H   LIG d   1      -1.011  91.673 116.678  0.00  0.00    -0.090 HD
ENDBRANCH   5  18
BRANCH   3  22
ATOM     22  C   LIG d   1       4.297  90.420 117.939  0.00  0.00     0.382 C 
ATOM     23  O   LIG d   1       5.003  90.050 118.908  0.00  0.00    -0.241 OA
ATOM     24  O   LIG d   1       4.728  90.284 116.778  0.00  0.00    -0.241 OA
ENDBRANCH   3  22
TORSDOF 7
ENDMDL
MODEL 9
REMARK VINA RESULT:      -3.3      3.191      5.626
REMARK  7 active torsions:
REMARK  status: ('A' for Active; 'I' for Inactive)
REMARK    1  A    between atoms: C_2  and  C_3 
REMARK    2  A    between atoms: C_3  and  O_6 
REMARK    3  A    between atoms: C_3  and  C_4 
REMARK    4  A    between atoms: C_7  and  O_6 
REMARK    5  A    between atoms: C_9  and  C_10 
REMARK    6  A    between atoms: N_15  and  C_14 
REMARK    7  A    between atoms: N_20  and  C_19 
REMARK       I    between atoms: C_22  and  N_20 
ROOT
ATOM      1  C   LIG d   1       1.589  92.060 120.592  0.00  0.00     0.161 C 
ATOM      2  C   LIG d   1       1.860  93.431 120.741  0.00  0.00     0.016 C 
ATOM      3  C   LIG d   1       2.976  94.072 120.157  0.00  0.00     0.038 C 
ATOM      4  C   LIG d   1       3.822  93.411 119.253  0.00  0.00     0.028 C 
ATOM      5  C   LIG d   1       3.880  91.903 119.471  0.00  0.00    -0.047 C 
ATOM      6  C   LIG d   1       2.439  91.346 119.519  0.00  0.00     0.091 C 
ENDROOT
BRANCH   1   7
ATOM      7  O   LIG d   1       0.185  91.864 120.332  0.00  0.00    -0.368 OA
BRANCH   7   8
ATOM      8  C   LIG d   1      -0.396  92.705 119.305  0.00  0.00     0.119 C 
BRANCH   8   9
ATOM      9  C   LIG d   1      -1.773  93.173 119.814  0.00  0.00     0.028 C 
ATOM     10  C   LIG d   1      -2.867  93.057 118.739  0.00  0.00     0.006 C 
ENDBRANCH   8   9
BRANCH   8  11
ATOM     11  C   LIG d   1      -0.684  91.908 118.029  0.00  0.00     0.028 C 
ATOM     12  C   LIG d   1       0.292  92.236 116.888  0.00  0.00     0.006 C 
ENDBRANCH   8  11
ENDBRANCH   7   8
ENDBRANCH   1   7
BRANCH   6  13
ATOM     13  N   LIG d   1       2.402  89.890 119.813  0.00  0.00    -0.311 N 
ATOM     14  C   LIG d   1       2.324  88.954 118.869  0.00  0.00     0.210 C 
ATOM     15  C   LIG d   1       2.279  87.513 119.389  0.00  0.00     0.109 C 
ATOM     16  O   LIG d   1       2.319  89.178 117.649  0.00  0.00    -0.276 OA
ATOM     17  H   LIG d   1       2.434  89.618 120.776  0.00  0.00     0.149 HD
ENDBRANCH   6  13
BRANCH   5  18
ATOM     18  N   LIG d   1       4.686  91.326 118.378  0.00  0.00     0.381 N 
ATOM     19  H   LIG d   1       4.757  91.982 117.627  0.00  0.00    -0.090 HD
ATOM     20  H   LIG d   1       4.224  90.502 118.034  0.00  0.00    -0.090 HD
ATOM     21  H   LIG d   1       5.595  91.091 118.712  0.00  0.00    -0.090 HD
ENDBRANCH   5  18
BRANCH   3  22
ATOM     22  C   LIG d   1       3.279  95.379 120.507  0.00  0.00     0.382 C 
ATOM     23  O   LIG d   1       2.764  95.889 121.531  0.00  0.00    -0.241 OA
ATOM     24  O   LIG d   1       4.027  96.068 119.787  0.00  0.00    -0.241 OA
ENDBRANCH   3  22
TORSDOF 7
ENDMDL
