MODEL 1
REMARK VINA RESULT:      -4.7      0.000      0.000
REMARK  7 active torsions:
REMARK  status: ('A' for Active; 'I' for Inactive)
REMARK    1  A    between atoms: C_2  and  C_3 
REMARK    2  A    between atoms: C_3  and  O_6 
REMARK    3  A    between atoms: C_3  and  C_4 
REMARK    4  A    between atoms: C_7  and  O_6 
REMARK    5  A    between atoms: C_9  and  C_10 
REMARK    6  A    between atoms: N_15  and  C_14 
REMARK    7  A    between atoms: N_20  and  C_19 
REMARK       I    between atoms: C_22  and  N_20 
ROOT
ATOM      1  C   LIG d   1      -4.315  93.792 118.483  0.00  0.00     0.161 C 
ATOM      2  C   LIG d   1      -5.400  94.681 118.406  0.00  0.00     0.016 C 
ATOM      3  C   LIG d   1      -6.605  94.381 117.731  0.00  0.00     0.038 C 
ATOM      4  C   LIG d   1      -6.867  93.104 117.212  0.00  0.00     0.028 C 
ATOM      5  C   LIG d   1      -5.607  92.338 116.826  0.00  0.00    -0.047 C 
ATOM      6  C   LIG d   1      -4.624  92.353 118.019  0.00  0.00     0.091 C 
ENDROOT
BRANCH   1   7
ATOM      7  O   LIG d   1      -3.785  93.782 119.823  0.00  0.00    -0.368 OA
BRANCH   7   8
ATOM      8  C   LIG d   1      -4.380  92.829 120.738  0.00  0.00     0.119 C 
BRANCH   8   9
ATOM      9  C   LIG d   1      -5.081  93.630 121.851  0.00  0.00     0.028 C 
ATOM     10  C   LIG d   1      -6.614  93.577 121.736  0.00  0.00     0.006 C 
ENDBRANCH   8   9
BRANCH   8  11
ATOM     11  C   LIG d   1      -3.309  91.997 121.450  0.00  0.00     0.028 C 
ATOM     12  C   LIG d   1      -1.886  92.319 120.967  0.00  0.00     0.006 C 
ENDBRANCH   8  11
ENDBRANCH   7   8
ENDBRANCH   1   7
BRANCH   6  13
ATOM     13  N   LIG d   1      -3.330  91.697 117.696  0.00  0.00    -0.311 N 
ATOM     14  C   LIG d   1      -3.080  90.411 117.937  0.00  0.00     0.210 C 
ATOM     15  C   LIG d   1      -1.676  89.941 117.546  0.00  0.00     0.109 C 
ATOM     16  O   LIG d   1      -3.899  89.607 118.409  0.00  0.00    -0.276 OA
ATOM     17  H   LIG d   1      -2.620  92.268 117.282  0.00  0.00     0.149 HD
ENDBRANCH   6  13
BRANCH   5  18
ATOM     18  N   LIG d   1      -6.016  90.977 116.431  0.00  0.00     0.381 N 
ATOM     19  H   LIG d   1      -5.207  90.404 116.299  0.00  0.00    -0.090 HD
ATOM     20  H   LIG d   1      -6.513  91.027 115.559  0.00  0.00    -0.090 HD
ATOM     21  H   LIG d   1      -6.602  90.580 117.133  0.00  0.00    -0.090 HD
ENDBRANCH   5  18
BRANCH   3  22
ATOM     22  C   LIG d   1      -7.549  95.378 117.535  0.00  0.00     0.382 C 
ATOM     23  O   LIG d   1      -8.712  95.078 117.172  0.00  0.00    -0.241 OA
ATOM     24  O   LIG d   1      -7.240  96.577 117.673  0.00  0.00    -0.241 OA
ENDBRANCH   3  22
TORSDOF 7
ENDMDL
MODEL 2
REMARK VINA RESULT:      -4.5      1.249      1.976
REMARK  7 active torsions:
REMARK  status: ('A' for Active; 'I' for Inactive)
REMARK    1  A    between atoms: C_2  and  C_3 
REMARK    2  A    between atoms: C_3  and  O_6 
REMARK    3  A    between atoms: C_3  and  C_4 
REMARK    4  A    between atoms: C_7  and  O_6 
REMARK    5  A    between atoms: C_9  and  C_10 
REMARK    6  A    between atoms: N_15  and  C_14 
REMARK    7  A    between atoms: N_20  and  C_19 
REMARK       I    between atoms: C_22  and  N_20 
ROOT
ATOM      1  C   LIG d   1      -4.385  93.806 118.632  0.00  0.00     0.161 C 
ATOM      2  C   LIG d   1      -5.466  94.695 118.512  0.00  0.00     0.016 C 
ATOM      3  C   LIG d   1      -6.631  94.407 117.764  0.00  0.00     0.038 C 
ATOM      4  C   LIG d   1      -6.859  93.141 117.206  0.00  0.00     0.028 C 
ATOM      5  C   LIG d   1      -5.577  92.384 116.875  0.00  0.00    -0.047 C 
ATOM      6  C   LIG d   1      -4.663  92.376 118.122  0.00  0.00     0.091 C 
ENDROOT
BRANCH   1   7
ATOM      7  O   LIG d   1      -3.931  93.770 119.999  0.00  0.00    -0.368 OA
BRANCH   7   8
ATOM      8  C   LIG d   1      -2.589  94.262 120.238  0.00  0.00     0.119 C 
BRANCH   8   9
ATOM      9  C   LIG d   1      -1.761  93.091 120.803  0.00  0.00     0.028 C 
ATOM     10  C   LIG d   1      -2.642  92.001 121.437  0.00  0.00     0.006 C 
ENDBRANCH   8   9
BRANCH   8  11
ATOM     11  C   LIG d   1      -2.575  95.333 121.333  0.00  0.00     0.028 C 
ATOM     12  C   LIG d   1      -2.879  96.740 120.793  0.00  0.00     0.006 C 
ENDBRANCH   8  11
ENDBRANCH   7   8
ENDBRANCH   1   7
BRANCH   6  13
ATOM     13  N   LIG d   1      -3.352  91.729 117.859  0.00  0.00    -0.311 N 
ATOM     14  C   LIG d   1      -3.112  90.439 118.089  0.00  0.00     0.210 C 
ATOM     15  C   LIG d   1      -1.686  89.979 117.768  0.00  0.00     0.109 C 
ATOM     16  O   LIG d   1      -3.953  89.625 118.498  0.00  0.00    -0.276 OA
ATOM     17  H   LIG d   1      -2.621  92.309 117.497  0.00  0.00     0.149 HD
ENDBRANCH   6  13
BRANCH   5  18
ATOM     18  N   LIG d   1      -5.960  91.031 116.431  0.00  0.00     0.381 N 
ATOM     19  H   LIG d   1      -5.895  90.391 117.197  0.00  0.00    -0.090 HD
ATOM     20  H   LIG d   1      -5.322  90.731 115.715  0.00  0.00    -0.090 HD
ATOM     21  H   LIG d   1      -6.891  91.039 116.074  0.00  0.00    -0.090 HD
ENDBRANCH   5  18
BRANCH   3  22
ATOM     22  C   LIG d   1      -7.564  95.406 117.535  0.00  0.00     0.382 C 
ATOM     23  O   LIG d   1      -7.234  96.611 117.648  0.00  0.00    -0.241 OA
ATOM     24  O   LIG d   1      -8.744  95.117 117.260  0.00  0.00    -0.241 OA
ENDBRANCH   3  22
TORSDOF 7
ENDMDL
MODEL 3
REMARK VINA RESULT:      -4.5      4.075      7.839
REMARK  7 active torsions:
REMARK  status: ('A' for Active; 'I' for Inactive)
REMARK    1  A    between atoms: C_2  and  C_3 
REMARK    2  A    between atoms: C_3  and  O_6 
REMARK    3  A    between atoms: C_3  and  C_4 
REMARK    4  A    between atoms: C_7  and  O_6 
REMARK    5  A    between atoms: C_9  and  C_10 
REMARK    6  A    between atoms: N_15  and  C_14 
REMARK    7  A    between atoms: N_20  and  C_19 
REMARK       I    between atoms: C_22  and  N_20 
ROOT
ATOM      1  C   LIG d   1       0.180  90.863 117.147  0.00  0.00     0.161 C 
ATOM      2  C   LIG d   1       1.576  90.711 117.123  0.00  0.00     0.016 C 
ATOM      3  C   LIG d   1       2.457  91.476 117.922  0.00  0.00     0.038 C 
ATOM      4  C   LIG d   1       1.987  92.347 118.916  0.00  0.00     0.028 C 
ATOM      5  C   LIG d   1       0.597  92.903 118.628  0.00  0.00    -0.047 C 
ATOM      6  C   LIG d   1      -0.356  91.730 118.306  0.00  0.00     0.091 C 
ENDROOT
BRANCH   1   7
ATOM      7  O   LIG d   1      -0.453  89.568 117.155  0.00  0.00    -0.368 OA
BRANCH   7   8
ATOM      8  C   LIG d   1      -0.446  88.864 118.421  0.00  0.00     0.119 C 
BRANCH   8   9
ATOM      9  C   LIG d   1       0.281  87.523 118.202  0.00  0.00     0.028 C 
ATOM     10  C   LIG d   1       0.226  87.059 116.736  0.00  0.00     0.006 C 
ENDBRANCH   8   9
BRANCH   8  11
ATOM     11  C   LIG d   1      -1.866  88.488 118.858  0.00  0.00     0.028 C 
ATOM     12  C   LIG d   1      -2.920  88.791 117.781  0.00  0.00     0.006 C 
ENDBRANCH   8  11
ENDBRANCH   7   8
ENDBRANCH   1   7
BRANCH   6  13
ATOM     13  N   LIG d   1      -1.717  92.192 117.929  0.00  0.00    -0.311 N 
ATOM     14  C   LIG d   1      -2.722  92.298 118.797  0.00  0.00     0.210 C 
ATOM     15  C   LIG d   1      -4.048  92.775 118.196  0.00  0.00     0.109 C 
ATOM     16  O   LIG d   1      -2.633  92.072 120.013  0.00  0.00    -0.276 OA
ATOM     17  H   LIG d   1      -1.870  92.427 116.967  0.00  0.00     0.149 HD
ENDBRANCH   6  13
BRANCH   5  18
ATOM     18  N   LIG d   1       0.176  93.683 119.807  0.00  0.00     0.381 N 
ATOM     19  H   LIG d   1      -0.734  93.390 120.100  0.00  0.00    -0.090 HD
ATOM     20  H   LIG d   1       0.128  94.655 119.553  0.00  0.00    -0.090 HD
ATOM     21  H   LIG d   1       0.828  93.558 120.549  0.00  0.00    -0.090 HD
ENDBRANCH   5  18
BRANCH   3  22
ATOM     22  C   LIG d   1       3.824  91.403 117.701  0.00  0.00     0.382 C 
ATOM     23  O   LIG d   1       4.357  92.124 116.824  0.00  0.00    -0.241 OA
ATOM     24  O   LIG d   1       4.524  90.592 118.338  0.00  0.00    -0.241 OA
ENDBRANCH   3  22
TORSDOF 7
ENDMDL
MODEL 4
REMARK VINA RESULT:      -4.1      2.374      4.259
REMARK  7 active torsions:
REMARK  status: ('A' for Active; 'I' for Inactive)
REMARK    1  A    between atoms: C_2  and  C_3 
REMARK    2  A    between atoms: C_3  and  O_6 
REMARK    3  A    between atoms: C_3  and  C_4 
REMARK    4  A    between atoms: C_7  and  O_6 
REMARK    5  A    between atoms: C_9  and  C_10 
REMARK    6  A    between atoms: N_15  and  C_14 
REMARK    7  A    between atoms: N_20  and  C_19 
REMARK       I    between atoms: C_22  and  N_20 
ROOT
ATOM      1  C   LIG d   1      -3.426  91.996 118.551  0.00  0.00     0.161 C 
ATOM      2  C   LIG d   1      -4.489  92.056 117.634  0.00  0.00     0.016 C 
ATOM      3  C   LIG d   1      -5.403  93.133 117.572  0.00  0.00     0.038 C 
ATOM      4  C   LIG d   1      -5.225  94.301 118.327  0.00  0.00     0.028 C 
ATOM      5  C   LIG d   1      -4.458  94.072 119.625  0.00  0.00    -0.047 C 
ATOM      6  C   LIG d   1      -3.150  93.312 119.308  0.00  0.00     0.091 C 
ENDROOT
BRANCH   1   7
ATOM      7  O   LIG d   1      -2.232  91.540 117.886  0.00  0.00    -0.368 OA
BRANCH   7   8
ATOM      8  C   LIG d   1      -1.945  90.124 117.990  0.00  0.00     0.119 C 
BRANCH   8   9
ATOM      9  C   LIG d   1      -2.505  89.636 119.340  0.00  0.00     0.028 C 
ATOM     10  C   LIG d   1      -2.832  88.133 119.332  0.00  0.00     0.006 C 
ENDBRANCH   8   9
BRANCH   8  11
ATOM     11  C   LIG d   1      -0.437  89.864 118.060  0.00  0.00     0.028 C 
ATOM     12  C   LIG d   1       0.261  90.693 119.151  0.00  0.00     0.006 C 
ENDBRANCH   8  11
ENDBRANCH   7   8
ENDBRANCH   1   7
BRANCH   6  13
ATOM     13  N   LIG d   1      -2.380  92.973 120.533  0.00  0.00    -0.311 N 
ATOM     14  C   LIG d   1      -1.408  93.740 121.024  0.00  0.00     0.210 C 
ATOM     15  C   LIG d   1      -0.728  93.196 122.284  0.00  0.00     0.109 C 
ATOM     16  O   LIG d   1      -1.066  94.836 120.553  0.00  0.00    -0.276 OA
ATOM     17  H   LIG d   1      -2.613  92.116 120.996  0.00  0.00     0.149 HD
ENDBRANCH   6  13
BRANCH   5  18
ATOM     18  N   LIG d   1      -4.224  95.391 120.244  0.00  0.00     0.381 N 
ATOM     19  H   LIG d   1      -4.956  96.021 119.983  0.00  0.00    -0.090 HD
ATOM     20  H   LIG d   1      -3.354  95.760 119.904  0.00  0.00    -0.090 HD
ATOM     21  H   LIG d   1      -4.191  95.301 121.235  0.00  0.00    -0.090 HD
ENDBRANCH   5  18
BRANCH   3  22
ATOM     22  C   LIG d   1      -6.533  93.030 116.775  0.00  0.00     0.382 C 
ATOM     23  O   LIG d   1      -7.153  94.064 116.430  0.00  0.00    -0.241 OA
ATOM     24  O   LIG d   1      -6.965  91.912 116.433  0.00  0.00    -0.241 OA
ENDBRANCH   3  22
TORSDOF 7
ENDMDL
MODEL 5
REMARK VINA RESULT:      -4.1      2.718      5.087
REMARK  7 active torsions:
REMARK  status: ('A' for Active; 'I' for Inactive)
REMARK    1  A    between atoms: C_2  and  C_3 
REMARK    2  A    between atoms: C_3  and  O_6 
REMARK    3  A    between atoms: C_3  and  C_4 
REMARK    4  A    between atoms: C_7  and  O_6 
REMARK    5  A    between atoms: C_9  and  C_10 
REMARK    6  A    between atoms: N_15  and  C_14 
REMARK    7  A    between atoms: N_20  and  C_19 
REMARK       I    between atoms: C_22  and  N_20 
ROOT
ATOM      1  C   LIG d   1      -2.855  90.757 118.251  0.00  0.00     0.161 C 
ATOM      2  C   LIG d   1      -4.033  90.744 117.486  0.00  0.00     0.016 C 
ATOM      3  C   LIG d   1      -4.948  91.822 117.448  0.00  0.00     0.038 C 
ATOM      4  C   LIG d   1      -4.668  93.054 118.059  0.00  0.00     0.028 C 
ATOM      5  C   LIG d   1      -3.730  92.937 119.256  0.00  0.00    -0.047 C 
ATOM      6  C   LIG d   1      -2.478  92.134 118.836  0.00  0.00     0.091 C 
ENDROOT
BRANCH   1   7
ATOM      7  O   LIG d   1      -1.763  90.226 117.475  0.00  0.00    -0.368 OA
BRANCH   7   8
ATOM      8  C   LIG d   1      -0.958  89.208 118.120  0.00  0.00     0.119 C 
BRANCH   8   9
ATOM      9  C   LIG d   1       0.519  89.524 117.815  0.00  0.00     0.028 C 
ATOM     10  C   LIG d   1       0.700  90.897 117.147  0.00  0.00     0.006 C 
ENDBRANCH   8   9
BRANCH   8  11
ATOM     11  C   LIG d   1      -1.212  87.827 117.509  0.00  0.00     0.028 C 
ATOM     12  C   LIG d   1       0.062  87.185 116.937  0.00  0.00     0.006 C 
ENDBRANCH   8  11
ENDBRANCH   7   8
ENDBRANCH   1   7
BRANCH   6  13
ATOM     13  N   LIG d   1      -1.547  91.901 119.971  0.00  0.00    -0.311 N 
ATOM     14  C   LIG d   1      -0.466  92.646 120.197  0.00  0.00     0.210 C 
ATOM     15  C   LIG d   1       0.369  92.222 121.409  0.00  0.00     0.109 C 
ATOM     16  O   LIG d   1      -0.136  93.636 119.526  0.00  0.00    -0.276 OA
ATOM     17  H   LIG d   1      -1.756  91.137 120.583  0.00  0.00     0.149 HD
ENDBRANCH   6  13
BRANCH   5  18
ATOM     18  N   LIG d   1      -3.415  94.305 119.709  0.00  0.00     0.381 N 
ATOM     19  H   LIG d   1      -3.247  94.304 120.696  0.00  0.00    -0.090 HD
ATOM     20  H   LIG d   1      -4.203  94.899 119.524  0.00  0.00    -0.090 HD
ATOM     21  H   LIG d   1      -2.612  94.647 119.229  0.00  0.00    -0.090 HD
ENDBRANCH   5  18
BRANCH   3  22
ATOM     22  C   LIG d   1      -6.176  91.660 116.826  0.00  0.00     0.382 C 
ATOM     23  O   LIG d   1      -6.816  92.663 116.430  0.00  0.00    -0.241 OA
ATOM     24  O   LIG d   1      -6.673  90.525 116.696  0.00  0.00    -0.241 OA
ENDBRANCH   3  22
TORSDOF 7
ENDMDL
MODEL 6
REMARK VINA RESULT:      -4.1      2.170      3.804
REMARK  7 active torsions:
REMARK  status: ('A' for Active; 'I' for Inactive)
REMARK    1  A    between atoms: C_2  and  C_3 
REMARK    2  A    between atoms: C_3  and  O_6 
REMARK    3  A    between atoms: C_3  and  C_4 
REMARK    4  A    between atoms: C_7  and  O_6 
REMARK    5  A    between atoms: C_9  and  C_10 
REMARK    6  A    between atoms: N_15  and  C_14 
REMARK    7  A    between atoms: N_20  and  C_19 
REMARK       I    between atoms: C_22  and  N_20 
ROOT
ATOM      1  C   LIG d   1      -5.368  93.727 118.524  0.00  0.00     0.161 C 
ATOM      2  C   LIG d   1      -6.382  94.362 117.787  0.00  0.00     0.016 C 
ATOM      3  C   LIG d   1      -6.898  95.637 118.113  0.00  0.00     0.038 C 
ATOM      4  C   LIG d   1      -6.327  96.434 119.117  0.00  0.00     0.028 C 
ATOM      5  C   LIG d   1      -5.636  95.628 120.211  0.00  0.00    -0.047 C 
ATOM      6  C   LIG d   1      -4.656  94.628 119.555  0.00  0.00     0.091 C 
ENDROOT
BRANCH   1   7
ATOM      7  O   LIG d   1      -4.407  93.137 117.626  0.00  0.00    -0.368 OA
BRANCH   7   8
ATOM      8  C   LIG d   1      -4.543  91.714 117.392  0.00  0.00     0.119 C 
BRANCH   8   9
ATOM      9  C   LIG d   1      -5.893  91.274 117.990  0.00  0.00     0.028 C 
ATOM     10  C   LIG d   1      -6.893  90.823 116.911  0.00  0.00     0.006 C 
ENDBRANCH   8   9
BRANCH   8  11
ATOM     11  C   LIG d   1      -3.482  90.919 118.159  0.00  0.00     0.028 C 
ATOM     12  C   LIG d   1      -4.023  90.301 119.457  0.00  0.00     0.006 C 
ENDBRANCH   8  11
ENDBRANCH   7   8
ENDBRANCH   1   7
BRANCH   6  13
ATOM     13  N   LIG d   1      -4.000  93.741 120.550  0.00  0.00    -0.311 N 
ATOM     14  C   LIG d   1      -2.688  93.746 120.784  0.00  0.00     0.210 C 
ATOM     15  C   LIG d   1      -2.216  92.738 121.837  0.00  0.00     0.109 C 
ATOM     16  O   LIG d   1      -1.876  94.511 120.243  0.00  0.00    -0.276 OA
ATOM     17  H   LIG d   1      -4.589  93.110 121.057  0.00  0.00     0.149 HD
ENDBRANCH   6  13
BRANCH   5  18
ATOM     18  N   LIG d   1      -4.968  96.583 121.114  0.00  0.00     0.381 N 
ATOM     19  H   LIG d   1      -5.525  96.720 121.934  0.00  0.00    -0.090 HD
ATOM     20  H   LIG d   1      -4.878  97.467 120.644  0.00  0.00    -0.090 HD
ATOM     21  H   LIG d   1      -4.068  96.241 121.369  0.00  0.00    -0.090 HD
ENDBRANCH   5  18
BRANCH   3  22
ATOM     22  C   LIG d   1      -8.025  96.110 117.458  0.00  0.00     0.382 C 
ATOM     23  O   LIG d   1      -8.867  95.302 116.995  0.00  0.00    -0.241 OA
ATOM     24  O   LIG d   1      -8.189  97.332 117.285  0.00  0.00    -0.241 OA
ENDBRANCH   3  22
TORSDOF 7
ENDMDL
MODEL 7
REMARK VINA RESULT:      -4.0      2.060      5.123
REMARK  7 active torsions:
REMARK  status: ('A' for Active; 'I' for Inactive)
REMARK    1  A    between atoms: C_2  and  C_3 
REMARK    2  A    between atoms: C_3  and  O_6 
REMARK    3  A    between atoms: C_3  and  C_4 
REMARK    4  A    between atoms: C_7  and  O_6 
REMARK    5  A    between atoms: C_9  and  C_10 
REMARK    6  A    between atoms: N_15  and  C_14 
REMARK    7  A    between atoms: N_20  and  C_19 
REMARK       I    between atoms: C_22  and  N_20 
ROOT
ATOM      1  C   LIG d   1      -5.230  91.795 120.070  0.00  0.00     0.161 C 
ATOM      2  C   LIG d   1      -4.142  91.029 119.620  0.00  0.00     0.016 C 
ATOM      3  C   LIG d   1      -4.014  90.567 118.290  0.00  0.00     0.038 C 
ATOM      4  C   LIG d   1      -4.896  90.970 117.276  0.00  0.00     0.028 C 
ATOM      5  C   LIG d   1      -6.286  91.329 117.791  0.00  0.00    -0.047 C 
ATOM      6  C   LIG d   1      -6.146  92.338 118.953  0.00  0.00     0.091 C 
ENDROOT
BRANCH   1   7
ATOM      7  O   LIG d   1      -4.757  92.875 120.899  0.00  0.00    -0.368 OA
BRANCH   7   8
ATOM      8  C   LIG d   1      -4.490  94.128 120.223  0.00  0.00     0.119 C 
BRANCH   8   9
ATOM      9  C   LIG d   1      -2.962  94.331 120.211  0.00  0.00     0.028 C 
ATOM     10  C   LIG d   1      -2.529  95.576 121.002  0.00  0.00     0.006 C 
ENDBRANCH   8   9
BRANCH   8  11
ATOM     11  C   LIG d   1      -5.050  95.317 121.009  0.00  0.00     0.028 C 
ATOM     12  C   LIG d   1      -6.059  94.895 122.089  0.00  0.00     0.006 C 
ENDBRANCH   8  11
ENDBRANCH   7   8
ENDBRANCH   1   7
BRANCH   6  13
ATOM     13  N   LIG d   1      -7.455  92.678 119.570  0.00  0.00    -0.311 N 
ATOM     14  C   LIG d   1      -8.157  93.763 119.249  0.00  0.00     0.210 C 
ATOM     15  C   LIG d   1      -9.470  93.935 120.018  0.00  0.00     0.109 C 
ATOM     16  O   LIG d   1      -7.832  94.583 118.376  0.00  0.00    -0.276 OA
ATOM     17  H   LIG d   1      -7.808  92.051 120.266  0.00  0.00     0.149 HD
ENDBRANCH   6  13
BRANCH   5  18
ATOM     18  N   LIG d   1      -7.059  91.862 116.653  0.00  0.00     0.381 N 
ATOM     19  H   LIG d   1      -6.805  91.378 115.815  0.00  0.00    -0.090 HD
ATOM     20  H   LIG d   1      -6.836  92.835 116.535  0.00  0.00    -0.090 HD
ATOM     21  H   LIG d   1      -8.035  91.756 116.824  0.00  0.00    -0.090 HD
ENDBRANCH   5  18
BRANCH   3  22
ATOM     22  C   LIG d   1      -3.016  89.659 117.971  0.00  0.00     0.382 C 
ATOM     23  O   LIG d   1      -2.017  90.032 117.309  0.00  0.00    -0.241 OA
ATOM     24  O   LIG d   1      -3.122  88.462 118.299  0.00  0.00    -0.241 OA
ENDBRANCH   3  22
TORSDOF 7
ENDMDL
MODEL 8
REMARK VINA RESULT:      -4.0      2.613      4.971
REMARK  7 active torsions:
REMARK  status: ('A' for Active; 'I' for Inactive)
REMARK    1  A    between atoms: C_2  and  C_3 
REMARK    2  A    between atoms: C_3  and  O_6 
REMARK    3  A    between atoms: C_3  and  C_4 
REMARK    4  A    between atoms: C_7  and  O_6 
REMARK    5  A    between atoms: C_9  and  C_10 
REMARK    6  A    between atoms: N_15  and  C_14 
REMARK    7  A    between atoms: N_20  and  C_19 
REMARK       I    between atoms: C_22  and  N_20 
ROOT
ATOM      1  C   LIG d   1      -3.273  92.651 119.086  0.00  0.00     0.161 C 
ATOM      2  C   LIG d   1      -3.204  93.877 119.769  0.00  0.00     0.016 C 
ATOM      3  C   LIG d   1      -2.035  94.344 120.413  0.00  0.00     0.038 C 
ATOM      4  C   LIG d   1      -0.805  93.682 120.288  0.00  0.00     0.028 C 
ATOM      5  C   LIG d   1      -0.945  92.186 120.032  0.00  0.00    -0.047 C 
ATOM      6  C   LIG d   1      -1.910  91.968 118.844  0.00  0.00     0.091 C 
ENDROOT
BRANCH   1   7
ATOM      7  O   LIG d   1      -3.974  92.825 117.839  0.00  0.00    -0.368 OA
BRANCH   7   8
ATOM      8  C   LIG d   1      -5.340  92.343 117.803  0.00  0.00     0.119 C 
BRANCH   8   9
ATOM      9  C   LIG d   1      -5.375  91.122 116.865  0.00  0.00     0.028 C 
ATOM     10  C   LIG d   1      -6.805  90.754 116.433  0.00  0.00     0.006 C 
ENDBRANCH   8   9
BRANCH   8  11
ATOM     11  C   LIG d   1      -6.277  93.373 117.164  0.00  0.00     0.028 C 
ATOM     12  C   LIG d   1      -6.478  94.620 118.039  0.00  0.00     0.006 C 
ENDBRANCH   8  11
ENDBRANCH   7   8
ENDBRANCH   1   7
BRANCH   6  13
ATOM     13  N   LIG d   1      -2.169  90.528 118.581  0.00  0.00    -0.311 N 
ATOM     14  C   LIG d   1      -1.491  89.814 117.685  0.00  0.00     0.210 C 
ATOM     15  C   LIG d   1      -1.932  88.352 117.556  0.00  0.00     0.109 C 
ATOM     16  O   LIG d   1      -0.545  90.243 117.007  0.00  0.00    -0.276 OA
ATOM     17  H   LIG d   1      -2.899  90.092 119.109  0.00  0.00     0.149 HD
ENDBRANCH   6  13
BRANCH   5  18
ATOM     18  N   LIG d   1       0.406  91.647 119.785  0.00  0.00     0.381 N 
ATOM     19  H   LIG d   1       0.645  90.991 120.502  0.00  0.00    -0.090 HD
ATOM     20  H   LIG d   1       1.067  92.403 119.816  0.00  0.00    -0.090 HD
ATOM     21  H   LIG d   1       0.438  91.203 118.894  0.00  0.00    -0.090 HD
ENDBRANCH   5  18
BRANCH   3  22
ATOM     22  C   LIG d   1      -2.100  95.465 121.226  0.00  0.00     0.382 C 
ATOM     23  O   LIG d   1      -2.793  95.442 122.272  0.00  0.00    -0.241 OA
ATOM     24  O   LIG d   1      -1.511  96.514 120.904  0.00  0.00    -0.241 OA
ENDBRANCH   3  22
TORSDOF 7
ENDMDL
MODEL 9
REMARK VINA RESULT:      -3.9      2.351      3.267
REMARK  7 active torsions:
REMARK  status: ('A' for Active; 'I' for Inactive)
REMARK    1  A    between atoms: C_2  and  C_3 
REMARK    2  A    between atoms: C_3  and  O_6 
REMARK    3  A    between atoms: C_3  and  C_4 
REMARK    4  A    between atoms: C_7  and  O_6 
REMARK    5  A    between atoms: C_9  and  C_10 
REMARK    6  A    between atoms: N_15  and  C_14 
REMARK    7  A    between atoms: N_20  and  C_19 
REMARK       I    between atoms: C_22  and  N_20 
ROOT
ATOM      1  C   LIG d   1      -3.253  92.820 118.273  0.00  0.00     0.161 C 
ATOM      2  C   LIG d   1      -4.644  92.666 118.155  0.00  0.00     0.016 C 
ATOM      3  C   LIG d   1      -5.263  91.456 117.765  0.00  0.00     0.038 C 
ATOM      4  C   LIG d   1      -4.535  90.267 117.612  0.00  0.00     0.028 C 
ATOM      5  C   LIG d   1      -3.077  90.494 117.230  0.00  0.00    -0.047 C 
ATOM      6  C   LIG d   1      -2.450  91.503 118.219  0.00  0.00     0.091 C 
ENDROOT
BRANCH   1   7
ATOM      7  O   LIG d   1      -2.942  93.547 119.479  0.00  0.00    -0.368 OA
BRANCH   7   8
ATOM      8  C   LIG d   1      -4.051  94.226 120.116  0.00  0.00     0.119 C 
BRANCH   8   9
ATOM      9  C   LIG d   1      -3.711  95.729 120.158  0.00  0.00     0.028 C 
ATOM     10  C   LIG d   1      -4.481  96.534 119.098  0.00  0.00     0.006 C 
ENDBRANCH   8   9
BRANCH   8  11
ATOM     11  C   LIG d   1      -4.196  93.803 121.581  0.00  0.00     0.028 C 
ATOM     12  C   LIG d   1      -3.982  92.296 121.790  0.00  0.00     0.006 C 
ENDBRANCH   8  11
ENDBRANCH   7   8
ENDBRANCH   1   7
BRANCH   6  13
ATOM     13  N   LIG d   1      -1.047  91.846 117.866  0.00  0.00    -0.311 N 
ATOM     14  C   LIG d   1      -0.031  91.746 118.721  0.00  0.00     0.210 C 
ATOM     15  C   LIG d   1       1.330  92.169 118.160  0.00  0.00     0.109 C 
ATOM     16  O   LIG d   1      -0.122  91.316 119.881  0.00  0.00    -0.276 OA
ATOM     17  H   LIG d   1      -0.878  92.173 116.935  0.00  0.00     0.149 HD
ENDBRANCH   6  13
BRANCH   5  18
ATOM     18  N   LIG d   1      -2.404  89.181 117.239  0.00  0.00     0.381 N 
ATOM     19  H   LIG d   1      -2.098  88.964 118.167  0.00  0.00    -0.090 HD
ATOM     20  H   LIG d   1      -1.596  89.226 116.643  0.00  0.00    -0.090 HD
ATOM     21  H   LIG d   1      -3.028  88.476 116.914  0.00  0.00    -0.090 HD
ENDBRANCH   5  18
BRANCH   3  22
ATOM     22  C   LIG d   1      -6.621  91.438 117.485  0.00  0.00     0.382 C 
ATOM     23  O   LIG d   1      -7.144  90.413 116.985  0.00  0.00    -0.241 OA
ATOM     24  O   LIG d   1      -7.321  92.449 117.684  0.00  0.00    -0.241 OA
ENDBRANCH   3  22
TORSDOF 7
ENDMDL
