MODEL 1
REMARK VINA RESULT:      -4.0      0.000      0.000
REMARK  7 active torsions:
REMARK  status: ('A' for Active; 'I' for Inactive)
REMARK    1  A    between atoms: C_2  and  C_3 
REMARK    2  A    between atoms: C_3  and  O_6 
REMARK    3  A    between atoms: C_3  and  C_4 
REMARK    4  A    between atoms: C_7  and  O_6 
REMARK    5  A    between atoms: C_9  and  C_10 
REMARK    6  A    between atoms: N_15  and  C_14 
REMARK    7  A    between atoms: N_20  and  C_19 
REMARK       I    between atoms: C_22  and  N_20 
ROOT
ATOM      1  C   LIG d   1      -5.767  93.244 120.339  0.00  0.00     0.161 C 
ATOM      2  C   LIG d   1      -7.032  93.787 120.059  0.00  0.00     0.016 C 
ATOM      3  C   LIG d   1      -8.121  93.727 120.959  0.00  0.00     0.038 C 
ATOM      4  C   LIG d   1      -7.974  93.249 122.270  0.00  0.00     0.028 C 
ATOM      5  C   LIG d   1      -6.849  92.232 122.421  0.00  0.00    -0.047 C 
ATOM      6  C   LIG d   1      -5.557  92.818 121.807  0.00  0.00     0.091 C 
ENDROOT
BRANCH   1   7
ATOM      7  O   LIG d   1      -4.738  94.168 119.933  0.00  0.00    -0.368 OA
BRANCH   7   8
ATOM      8  C   LIG d   1      -4.857  95.519 120.444  0.00  0.00     0.119 C 
BRANCH   8   9
ATOM      9  C   LIG d   1      -5.014  96.459 119.233  0.00  0.00     0.028 C 
ATOM     10  C   LIG d   1      -6.203  97.423 119.389  0.00  0.00     0.006 C 
ENDBRANCH   8   9
BRANCH   8  11
ATOM     11  C   LIG d   1      -3.568  95.967 121.140  0.00  0.00     0.028 C 
ATOM     12  C   LIG d   1      -2.434  94.937 121.015  0.00  0.00     0.006 C 
ENDBRANCH   8  11
ENDBRANCH   7   8
ENDBRANCH   1   7
BRANCH   6  13
ATOM     13  N   LIG d   1      -4.426  91.853 121.838  0.00  0.00    -0.311 N 
ATOM     14  C   LIG d   1      -3.518  91.818 122.812  0.00  0.00     0.210 C 
ATOM     15  C   LIG d   1      -2.425  90.759 122.639  0.00  0.00     0.109 C 
ATOM     16  O   LIG d   1      -3.532  92.543 123.818  0.00  0.00    -0.276 OA
ATOM     17  H   LIG d   1      -4.357  91.208 121.076  0.00  0.00     0.149 HD
ENDBRANCH   6  13
BRANCH   5  18
ATOM     18  N   LIG d   1      -6.717  91.923 123.858  0.00  0.00     0.381 N 
ATOM     19  H   LIG d   1      -7.072  92.684 124.402  0.00  0.00    -0.090 HD
ATOM     20  H   LIG d   1      -5.744  91.804 124.077  0.00  0.00    -0.090 HD
ATOM     21  H   LIG d   1      -7.218  91.089 124.074  0.00  0.00    -0.090 HD
ENDBRANCH   5  18
BRANCH   3  22
ATOM     22  C   LIG d   1      -9.384  94.112 120.536  0.00  0.00     0.382 C 
ATOM     23  O   LIG d   1      -9.744  93.891 119.354  0.00  0.00    -0.241 OA
ATOM     24  O   LIG d   1     -10.152  94.717 121.308  0.00  0.00    -0.241 OA
ENDBRANCH   3  22
TORSDOF 7
ENDMDL
MODEL 2
REMARK VINA RESULT:      -4.0      2.142      3.832
REMARK  7 active torsions:
REMARK  status: ('A' for Active; 'I' for Inactive)
REMARK    1  A    between atoms: C_2  and  C_3 
REMARK    2  A    between atoms: C_3  and  O_6 
REMARK    3  A    between atoms: C_3  and  C_4 
REMARK    4  A    between atoms: C_7  and  O_6 
REMARK    5  A    between atoms: C_9  and  C_10 
REMARK    6  A    between atoms: N_15  and  C_14 
REMARK    7  A    between atoms: N_20  and  C_19 
REMARK       I    between atoms: C_22  and  N_20 
ROOT
ATOM      1  C   LIG d   1      -5.501  93.582 121.031  0.00  0.00     0.161 C 
ATOM      2  C   LIG d   1      -6.856  93.323 120.764  0.00  0.00     0.016 C 
ATOM      3  C   LIG d   1      -7.837  94.336 120.664  0.00  0.00     0.038 C 
ATOM      4  C   LIG d   1      -7.501  95.698 120.676  0.00  0.00     0.028 C 
ATOM      5  C   LIG d   1      -6.220  95.998 121.446  0.00  0.00    -0.047 C 
ATOM      6  C   LIG d   1      -5.096  95.068 120.936  0.00  0.00     0.091 C 
ENDROOT
BRANCH   1   7
ATOM      7  O   LIG d   1      -4.671  92.780 120.168  0.00  0.00    -0.368 OA
BRANCH   7   8
ATOM      8  C   LIG d   1      -3.936  91.707 120.807  0.00  0.00     0.119 C 
BRANCH   8   9
ATOM      9  C   LIG d   1      -4.160  91.834 122.326  0.00  0.00     0.028 C 
ATOM     10  C   LIG d   1      -2.841  91.972 123.104  0.00  0.00     0.006 C 
ENDBRANCH   8   9
BRANCH   8  11
ATOM     11  C   LIG d   1      -2.427  91.868 120.605  0.00  0.00     0.028 C 
ATOM     12  C   LIG d   1      -2.074  92.570 119.284  0.00  0.00     0.006 C 
ENDBRANCH   8  11
ENDBRANCH   7   8
ENDBRANCH   1   7
BRANCH   6  13
ATOM     13  N   LIG d   1      -3.830  95.238 121.695  0.00  0.00    -0.311 N 
ATOM     14  C   LIG d   1      -2.844  96.044 121.304  0.00  0.00     0.210 C 
ATOM     15  C   LIG d   1      -1.618  96.057 122.222  0.00  0.00     0.109 C 
ATOM     16  O   LIG d   1      -2.882  96.774 120.303  0.00  0.00    -0.276 OA
ATOM     17  H   LIG d   1      -3.728  94.706 122.537  0.00  0.00     0.149 HD
ENDBRANCH   6  13
BRANCH   5  18
ATOM     18  N   LIG d   1      -5.914  97.430 121.261  0.00  0.00     0.381 N 
ATOM     19  H   LIG d   1      -6.156  97.938 122.088  0.00  0.00    -0.090 HD
ATOM     20  H   LIG d   1      -6.465  97.784 120.499  0.00  0.00    -0.090 HD
ATOM     21  H   LIG d   1      -4.945  97.548 121.062  0.00  0.00    -0.090 HD
ENDBRANCH   5  18
BRANCH   3  22
ATOM     22  C   LIG d   1      -9.178  93.989 120.592  0.00  0.00     0.382 C 
ATOM     23  O   LIG d   1      -9.655  93.552 119.517  0.00  0.00    -0.241 OA
ATOM     24  O   LIG d   1      -9.926  94.150 121.575  0.00  0.00    -0.241 OA
ENDBRANCH   3  22
TORSDOF 7
ENDMDL
MODEL 3
REMARK VINA RESULT:      -4.0      2.063      4.253
REMARK  7 active torsions:
REMARK  status: ('A' for Active; 'I' for Inactive)
REMARK    1  A    between atoms: C_2  and  C_3 
REMARK    2  A    between atoms: C_3  and  O_6 
REMARK    3  A    between atoms: C_3  and  C_4 
REMARK    4  A    between atoms: C_7  and  O_6 
REMARK    5  A    between atoms: C_9  and  C_10 
REMARK    6  A    between atoms: N_15  and  C_14 
REMARK    7  A    between atoms: N_20  and  C_19 
REMARK       I    between atoms: C_22  and  N_20 
ROOT
ATOM      1  C   LIG d   1      -5.534  94.499 122.501  0.00  0.00     0.161 C 
ATOM      2  C   LIG d   1      -6.811  93.941 122.323  0.00  0.00     0.016 C 
ATOM      3  C   LIG d   1      -7.496  93.943 121.086  0.00  0.00     0.038 C 
ATOM      4  C   LIG d   1      -6.882  94.372 119.900  0.00  0.00     0.028 C 
ATOM      5  C   LIG d   1      -5.784  95.407 120.125  0.00  0.00    -0.047 C 
ATOM      6  C   LIG d   1      -4.804  94.872 121.194  0.00  0.00     0.091 C 
ENDROOT
BRANCH   1   7
ATOM      7  O   LIG d   1      -4.720  93.613 123.295  0.00  0.00    -0.368 OA
BRANCH   7   8
ATOM      8  C   LIG d   1      -4.560  92.266 122.785  0.00  0.00     0.119 C 
BRANCH   8   9
ATOM      9  C   LIG d   1      -4.909  91.294 123.929  0.00  0.00     0.028 C 
ATOM     10  C   LIG d   1      -6.239  90.560 123.689  0.00  0.00     0.006 C 
ENDBRANCH   8   9
BRANCH   8  11
ATOM     11  C   LIG d   1      -3.099  91.973 122.435  0.00  0.00     0.028 C 
ATOM     12  C   LIG d   1      -2.928  91.400 121.019  0.00  0.00     0.006 C 
ENDBRANCH   8  11
ENDBRANCH   7   8
ENDBRANCH   1   7
BRANCH   6  13
ATOM     13  N   LIG d   1      -3.746  95.858 121.536  0.00  0.00    -0.311 N 
ATOM     14  C   LIG d   1      -2.470  95.718 121.179  0.00  0.00     0.210 C 
ATOM     15  C   LIG d   1      -1.540  96.840 121.651  0.00  0.00     0.109 C 
ATOM     16  O   LIG d   1      -2.027  94.788 120.489  0.00  0.00    -0.276 OA
ATOM     17  H   LIG d   1      -4.024  96.660 122.068  0.00  0.00     0.149 HD
ENDBRANCH   6  13
BRANCH   5  18
ATOM     18  N   LIG d   1      -5.139  95.662 118.824  0.00  0.00     0.381 N 
ATOM     19  H   LIG d   1      -4.624  96.519 118.864  0.00  0.00    -0.090 HD
ATOM     20  H   LIG d   1      -5.850  95.754 118.120  0.00  0.00    -0.090 HD
ATOM     21  H   LIG d   1      -4.527  94.910 118.593  0.00  0.00    -0.090 HD
ENDBRANCH   5  18
BRANCH   3  22
ATOM     22  C   LIG d   1      -8.824  93.549 121.035  0.00  0.00     0.382 C 
ATOM     23  O   LIG d   1      -9.424  93.231 122.090  0.00  0.00    -0.241 OA
ATOM     24  O   LIG d   1      -9.417  93.465 119.942  0.00  0.00    -0.241 OA
ENDBRANCH   3  22
TORSDOF 7
ENDMDL
MODEL 4
REMARK VINA RESULT:      -3.9      2.345      5.245
REMARK  7 active torsions:
REMARK  status: ('A' for Active; 'I' for Inactive)
REMARK    1  A    between atoms: C_2  and  C_3 
REMARK    2  A    between atoms: C_3  and  O_6 
REMARK    3  A    between atoms: C_3  and  C_4 
REMARK    4  A    between atoms: C_7  and  O_6 
REMARK    5  A    between atoms: C_9  and  C_10 
REMARK    6  A    between atoms: N_15  and  C_14 
REMARK    7  A    between atoms: N_20  and  C_19 
REMARK       I    between atoms: C_22  and  N_20 
ROOT
ATOM      1  C   LIG d   1      -3.925  94.328 121.968  0.00  0.00     0.161 C 
ATOM      2  C   LIG d   1      -2.622  94.311 121.444  0.00  0.00     0.016 C 
ATOM      3  C   LIG d   1      -2.237  93.515 120.341  0.00  0.00     0.038 C 
ATOM      4  C   LIG d   1      -3.172  92.791 119.587  0.00  0.00     0.028 C 
ATOM      5  C   LIG d   1      -4.406  92.381 120.385  0.00  0.00    -0.047 C 
ATOM      6  C   LIG d   1      -4.984  93.629 121.090  0.00  0.00     0.091 C 
ENDROOT
BRANCH   1   7
ATOM      7  O   LIG d   1      -4.322  95.685 122.248  0.00  0.00    -0.368 OA
BRANCH   7   8
ATOM      8  C   LIG d   1      -5.241  96.287 121.304  0.00  0.00     0.119 C 
BRANCH   8   9
ATOM      9  C   LIG d   1      -4.440  97.291 120.453  0.00  0.00     0.028 C 
ATOM     10  C   LIG d   1      -4.745  97.162 118.951  0.00  0.00     0.006 C 
ENDBRANCH   8   9
BRANCH   8  11
ATOM     11  C   LIG d   1      -6.307  97.122 122.020  0.00  0.00     0.028 C 
ATOM     12  C   LIG d   1      -7.662  97.107 121.295  0.00  0.00     0.006 C 
ENDBRANCH   8  11
ENDBRANCH   7   8
ENDBRANCH   1   7
BRANCH   6  13
ATOM     13  N   LIG d   1      -6.144  93.302 121.960  0.00  0.00    -0.311 N 
ATOM     14  C   LIG d   1      -7.410  93.383 121.554  0.00  0.00     0.210 C 
ATOM     15  C   LIG d   1      -8.454  93.020 122.615  0.00  0.00     0.109 C 
ATOM     16  O   LIG d   1      -7.767  93.689 120.406  0.00  0.00    -0.276 OA
ATOM     17  H   LIG d   1      -5.944  93.014 122.898  0.00  0.00     0.149 HD
ENDBRANCH   6  13
BRANCH   5  18
ATOM     18  N   LIG d   1      -5.356  91.756 119.445  0.00  0.00     0.381 N 
ATOM     19  H   LIG d   1      -5.030  91.871 118.507  0.00  0.00    -0.090 HD
ATOM     20  H   LIG d   1      -6.246  92.216 119.528  0.00  0.00    -0.090 HD
ATOM     21  H   LIG d   1      -5.454  90.787 119.654  0.00  0.00    -0.090 HD
ENDBRANCH   5  18
BRANCH   3  22
ATOM     22  C   LIG d   1      -0.895  93.407 120.006  0.00  0.00     0.382 C 
ATOM     23  O   LIG d   1      -0.041  94.102 120.607  0.00  0.00    -0.241 OA
ATOM     24  O   LIG d   1      -0.534  92.656 119.081  0.00  0.00    -0.241 OA
ENDBRANCH   3  22
TORSDOF 7
ENDMDL
MODEL 5
REMARK VINA RESULT:      -3.8      8.501     11.901
REMARK  7 active torsions:
REMARK  status: ('A' for Active; 'I' for Inactive)
REMARK    1  A    between atoms: C_2  and  C_3 
REMARK    2  A    between atoms: C_3  and  O_6 
REMARK    3  A    between atoms: C_3  and  C_4 
REMARK    4  A    between atoms: C_7  and  O_6 
REMARK    5  A    between atoms: C_9  and  C_10 
REMARK    6  A    between atoms: N_15  and  C_14 
REMARK    7  A    between atoms: N_20  and  C_19 
REMARK       I    between atoms: C_22  and  N_20 
ROOT
ATOM      1  C   LIG d   1       3.205  90.803 117.342  0.00  0.00     0.161 C 
ATOM      2  C   LIG d   1       4.542  90.480 117.058  0.00  0.00     0.016 C 
ATOM      3  C   LIG d   1       5.644  91.146 117.641  0.00  0.00     0.038 C 
ATOM      4  C   LIG d   1       5.483  92.086 118.670  0.00  0.00     0.028 C 
ATOM      5  C   LIG d   1       4.138  92.803 118.630  0.00  0.00    -0.047 C 
ATOM      6  C   LIG d   1       3.010  91.750 118.545  0.00  0.00     0.091 C 
ENDROOT
BRANCH   1   7
ATOM      7  O   LIG d   1       2.439  89.596 117.525  0.00  0.00    -0.368 OA
BRANCH   7   8
ATOM      8  C   LIG d   1       3.189  88.357 117.509  0.00  0.00     0.119 C 
BRANCH   8   9
ATOM      9  C   LIG d   1       2.565  87.451 116.430  0.00  0.00     0.028 C 
ATOM     10  C   LIG d   1       1.688  86.340 117.032  0.00  0.00     0.006 C 
ENDBRANCH   8   9
BRANCH   8  11
ATOM     11  C   LIG d   1       3.027  87.591 118.825  0.00  0.00     0.028 C 
ATOM     12  C   LIG d   1       3.823  88.217 119.981  0.00  0.00     0.006 C 
ENDBRANCH   8  11
ENDBRANCH   7   8
ENDBRANCH   1   7
BRANCH   6  13
ATOM     13  N   LIG d   1       1.665  92.369 118.417  0.00  0.00    -0.311 N 
ATOM     14  C   LIG d   1       0.865  92.606 119.455  0.00  0.00     0.210 C 
ATOM     15  C   LIG d   1      -0.487  93.233 119.100  0.00  0.00     0.109 C 
ATOM     16  O   LIG d   1       1.160  92.387 120.639  0.00  0.00    -0.276 OA
ATOM     17  H   LIG d   1       1.358  92.607 117.494  0.00  0.00     0.149 HD
ENDBRANCH   6  13
BRANCH   5  18
ATOM     18  N   LIG d   1       4.048  93.650 119.835  0.00  0.00     0.381 N 
ATOM     19  H   LIG d   1       4.092  93.079 120.655  0.00  0.00    -0.090 HD
ATOM     20  H   LIG d   1       3.165  94.128 119.831  0.00  0.00    -0.090 HD
ATOM     21  H   LIG d   1       4.793  94.312 119.842  0.00  0.00    -0.090 HD
ENDBRANCH   5  18
BRANCH   3  22
ATOM     22  C   LIG d   1       6.924  90.902 117.167  0.00  0.00     0.382 C 
ATOM     23  O   LIG d   1       7.141  89.910 116.430  0.00  0.00    -0.241 OA
ATOM     24  O   LIG d   1       7.873  91.636 117.502  0.00  0.00    -0.241 OA
ENDBRANCH   3  22
TORSDOF 7
ENDMDL
MODEL 6
REMARK VINA RESULT:      -3.6      8.332     11.407
REMARK  7 active torsions:
REMARK  status: ('A' for Active; 'I' for Inactive)
REMARK    1  A    between atoms: C_2  and  C_3 
REMARK    2  A    between atoms: C_3  and  O_6 
REMARK    3  A    between atoms: C_3  and  C_4 
REMARK    4  A    between atoms: C_7  and  O_6 
REMARK    5  A    between atoms: C_9  and  C_10 
REMARK    6  A    between atoms: N_15  and  C_14 
REMARK    7  A    between atoms: N_20  and  C_19 
REMARK       I    between atoms: C_22  and  N_20 
ROOT
ATOM      1  C   LIG d   1       4.620  91.706 119.814  0.00  0.00     0.161 C 
ATOM      2  C   LIG d   1       5.597  91.225 118.926  0.00  0.00     0.016 C 
ATOM      3  C   LIG d   1       5.314  90.828 117.599  0.00  0.00     0.038 C 
ATOM      4  C   LIG d   1       4.053  91.029 117.017  0.00  0.00     0.028 C 
ATOM      5  C   LIG d   1       2.914  91.042 118.031  0.00  0.00    -0.047 C 
ATOM      6  C   LIG d   1       3.261  92.037 119.162  0.00  0.00     0.091 C 
ENDROOT
BRANCH   1   7
ATOM      7  O   LIG d   1       5.128  92.854 120.523  0.00  0.00    -0.368 OA
BRANCH   7   8
ATOM      8  C   LIG d   1       4.980  94.132 119.857  0.00  0.00     0.119 C 
BRANCH   8   9
ATOM      9  C   LIG d   1       6.351  94.504 119.261  0.00  0.00     0.028 C 
ATOM     10  C   LIG d   1       6.418  95.975 118.816  0.00  0.00     0.006 C 
ENDBRANCH   8   9
BRANCH   8  11
ATOM     11  C   LIG d   1       4.656  95.247 120.856  0.00  0.00     0.028 C 
ATOM     12  C   LIG d   1       3.681  94.796 121.956  0.00  0.00     0.006 C 
ENDBRANCH   8  11
ENDBRANCH   7   8
ENDBRANCH   1   7
BRANCH   6  13
ATOM     13  N   LIG d   1       2.237  92.049 120.240  0.00  0.00    -0.311 N 
ATOM     14  C   LIG d   1       1.150  92.817 120.209  0.00  0.00     0.210 C 
ATOM     15  C   LIG d   1       0.234  92.691 121.431  0.00  0.00     0.109 C 
ATOM     16  O   LIG d   1       0.841  93.568 119.272  0.00  0.00    -0.276 OA
ATOM     17  H   LIG d   1       2.393  91.446 121.024  0.00  0.00     0.149 HD
ENDBRANCH   6  13
BRANCH   5  18
ATOM     18  N   LIG d   1       1.678  91.396 117.308  0.00  0.00     0.381 N 
ATOM     19  H   LIG d   1       1.388  92.319 117.566  0.00  0.00    -0.090 HD
ATOM     20  H   LIG d   1       0.953  90.753 117.570  0.00  0.00    -0.090 HD
ATOM     21  H   LIG d   1       1.834  91.351 116.325  0.00  0.00    -0.090 HD
ENDBRANCH   5  18
BRANCH   3  22
ATOM     22  C   LIG d   1       6.290  90.186 116.851  0.00  0.00     0.382 C 
ATOM     23  O   LIG d   1       6.091  89.021 116.430  0.00  0.00    -0.241 OA
ATOM     24  O   LIG d   1       7.383  90.740 116.630  0.00  0.00    -0.241 OA
ENDBRANCH   3  22
TORSDOF 7
ENDMDL
MODEL 7
REMARK VINA RESULT:      -3.6      1.851      2.366
REMARK  7 active torsions:
REMARK  status: ('A' for Active; 'I' for Inactive)
REMARK    1  A    between atoms: C_2  and  C_3 
REMARK    2  A    between atoms: C_3  and  O_6 
REMARK    3  A    between atoms: C_3  and  C_4 
REMARK    4  A    between atoms: C_7  and  O_6 
REMARK    5  A    between atoms: C_9  and  C_10 
REMARK    6  A    between atoms: N_15  and  C_14 
REMARK    7  A    between atoms: N_20  and  C_19 
REMARK       I    between atoms: C_22  and  N_20 
ROOT
ATOM      1  C   LIG d   1      -6.526  93.662 120.245  0.00  0.00     0.161 C 
ATOM      2  C   LIG d   1      -7.742  93.855 120.921  0.00  0.00     0.016 C 
ATOM      3  C   LIG d   1      -8.036  93.273 122.176  0.00  0.00     0.038 C 
ATOM      4  C   LIG d   1      -7.068  92.577 122.915  0.00  0.00     0.028 C 
ATOM      5  C   LIG d   1      -5.992  91.931 122.048  0.00  0.00    -0.047 C 
ATOM      6  C   LIG d   1      -5.417  92.996 121.086  0.00  0.00     0.091 C 
ENDROOT
BRANCH   1   7
ATOM      7  O   LIG d   1      -6.063  94.915 119.706  0.00  0.00    -0.368 OA
BRANCH   7   8
ATOM      8  C   LIG d   1      -6.370  96.097 120.486  0.00  0.00     0.119 C 
BRANCH   8   9
ATOM      9  C   LIG d   1      -6.299  97.309 119.537  0.00  0.00     0.028 C 
ATOM     10  C   LIG d   1      -4.934  97.429 118.839  0.00  0.00     0.006 C 
ENDBRANCH   8   9
BRANCH   8  11
ATOM     11  C   LIG d   1      -5.301  96.354 121.553  0.00  0.00     0.028 C 
ATOM     12  C   LIG d   1      -5.868  96.330 122.981  0.00  0.00     0.006 C 
ENDBRANCH   8  11
ENDBRANCH   7   8
ENDBRANCH   1   7
BRANCH   6  13
ATOM     13  N   LIG d   1      -4.417  92.429 120.144  0.00  0.00    -0.311 N 
ATOM     14  C   LIG d   1      -3.239  92.997 119.895  0.00  0.00     0.210 C 
ATOM     15  C   LIG d   1      -2.367  92.258 118.876  0.00  0.00     0.109 C 
ATOM     16  O   LIG d   1      -2.820  94.027 120.445  0.00  0.00    -0.276 OA
ATOM     17  H   LIG d   1      -4.663  91.578 119.677  0.00  0.00     0.149 HD
ENDBRANCH   6  13
BRANCH   5  18
ATOM     18  N   LIG d   1      -4.976  91.359 122.950  0.00  0.00     0.381 N 
ATOM     19  H   LIG d   1      -5.099  90.368 123.014  0.00  0.00    -0.090 HD
ATOM     20  H   LIG d   1      -5.097  91.751 123.867  0.00  0.00    -0.090 HD
ATOM     21  H   LIG d   1      -4.062  91.566 122.611  0.00  0.00    -0.090 HD
ENDBRANCH   5  18
BRANCH   3  22
ATOM     22  C   LIG d   1      -9.323  93.352 122.686  0.00  0.00     0.382 C 
ATOM     23  O   LIG d   1      -9.621  92.730 123.733  0.00  0.00    -0.241 OA
ATOM     24  O   LIG d   1     -10.201  94.002 122.087  0.00  0.00    -0.241 OA
ENDBRANCH   3  22
TORSDOF 7
ENDMDL
MODEL 8
REMARK VINA RESULT:      -3.4      2.160      4.675
REMARK  7 active torsions:
REMARK  status: ('A' for Active; 'I' for Inactive)
REMARK    1  A    between atoms: C_2  and  C_3 
REMARK    2  A    between atoms: C_3  and  O_6 
REMARK    3  A    between atoms: C_3  and  C_4 
REMARK    4  A    between atoms: C_7  and  O_6 
REMARK    5  A    between atoms: C_9  and  C_10 
REMARK    6  A    between atoms: N_15  and  C_14 
REMARK    7  A    between atoms: N_20  and  C_19 
REMARK       I    between atoms: C_22  and  N_20 
ROOT
ATOM      1  C   LIG d   1      -6.480  94.660 122.112  0.00  0.00     0.161 C 
ATOM      2  C   LIG d   1      -5.590  95.653 121.671  0.00  0.00     0.016 C 
ATOM      3  C   LIG d   1      -4.645  95.450 120.640  0.00  0.00     0.038 C 
ATOM      4  C   LIG d   1      -4.628  94.277 119.870  0.00  0.00     0.028 C 
ATOM      5  C   LIG d   1      -5.171  93.059 120.610  0.00  0.00    -0.047 C 
ATOM      6  C   LIG d   1      -6.552  93.411 121.209  0.00  0.00     0.091 C 
ENDROOT
BRANCH   1   7
ATOM      7  O   LIG d   1      -7.793  95.225 122.291  0.00  0.00    -0.368 OA
BRANCH   7   8
ATOM      8  C   LIG d   1      -8.617  95.313 121.102  0.00  0.00     0.119 C 
BRANCH   8   9
ATOM      9  C   LIG d   1      -8.983  96.796 120.901  0.00  0.00     0.028 C 
ATOM     10  C   LIG d   1      -8.236  97.430 119.715  0.00  0.00     0.006 C 
ENDBRANCH   8   9
BRANCH   8  11
ATOM     11  C   LIG d   1      -9.952  94.588 121.294  0.00  0.00     0.028 C 
ATOM     12  C   LIG d   1     -11.160  95.537 121.228  0.00  0.00     0.006 C 
ENDBRANCH   8  11
ENDBRANCH   7   8
ENDBRANCH   1   7
BRANCH   6  13
ATOM     13  N   LIG d   1      -7.117  92.301 122.021  0.00  0.00    -0.311 N 
ATOM     14  C   LIG d   1      -6.458  91.714 123.019  0.00  0.00     0.210 C 
ATOM     15  C   LIG d   1      -7.214  90.578 123.713  0.00  0.00     0.109 C 
ATOM     16  O   LIG d   1      -5.331  92.049 123.416  0.00  0.00    -0.276 OA
ATOM     17  H   LIG d   1      -8.038  91.988 121.787  0.00  0.00     0.149 HD
ENDBRANCH   6  13
BRANCH   5  18
ATOM     18  N   LIG d   1      -5.225  91.941 119.649  0.00  0.00     0.381 N 
ATOM     19  H   LIG d   1      -5.120  92.290 118.717  0.00  0.00    -0.090 HD
ATOM     20  H   LIG d   1      -6.122  91.495 119.720  0.00  0.00    -0.090 HD
ATOM     21  H   LIG d   1      -4.503  91.285 119.849  0.00  0.00    -0.090 HD
ENDBRANCH   5  18
BRANCH   3  22
ATOM     22  C   LIG d   1      -3.676  96.411 120.396  0.00  0.00     0.382 C 
ATOM     23  O   LIG d   1      -3.958  97.427 119.715  0.00  0.00    -0.241 OA
ATOM     24  O   LIG d   1      -2.512  96.255 120.810  0.00  0.00    -0.241 OA
ENDBRANCH   3  22
TORSDOF 7
ENDMDL
MODEL 9
REMARK VINA RESULT:      -3.4      2.396      4.861
REMARK  7 active torsions:
REMARK  status: ('A' for Active; 'I' for Inactive)
REMARK    1  A    between atoms: C_2  and  C_3 
REMARK    2  A    between atoms: C_3  and  O_6 
REMARK    3  A    between atoms: C_3  and  C_4 
REMARK    4  A    between atoms: C_7  and  O_6 
REMARK    5  A    between atoms: C_9  and  C_10 
REMARK    6  A    between atoms: N_15  and  C_14 
REMARK    7  A    between atoms: N_20  and  C_19 
REMARK       I    between atoms: C_22  and  N_20 
ROOT
ATOM      1  C   LIG d   1      -4.538  94.688 122.215  0.00  0.00     0.161 C 
ATOM      2  C   LIG d   1      -3.675  93.820 121.525  0.00  0.00     0.016 C 
ATOM      3  C   LIG d   1      -4.128  92.786 120.674  0.00  0.00     0.038 C 
ATOM      4  C   LIG d   1      -5.482  92.645 120.335  0.00  0.00     0.028 C 
ATOM      5  C   LIG d   1      -6.433  93.179 121.401  0.00  0.00    -0.047 C 
ATOM      6  C   LIG d   1      -6.014  94.621 121.770  0.00  0.00     0.091 C 
ENDROOT
BRANCH   1   7
ATOM      7  O   LIG d   1      -4.047  96.040 122.122  0.00  0.00    -0.368 OA
BRANCH   7   8
ATOM      8  C   LIG d   1      -3.363  96.387 120.892  0.00  0.00     0.119 C 
BRANCH   8   9
ATOM      9  C   LIG d   1      -2.157  97.270 121.267  0.00  0.00     0.028 C 
ATOM     10  C   LIG d   1      -1.119  96.516 122.116  0.00  0.00     0.006 C 
ENDBRANCH   8   9
BRANCH   8  11
ATOM     11  C   LIG d   1      -4.242  97.261 119.993  0.00  0.00     0.028 C 
ATOM     12  C   LIG d   1      -4.975  96.454 118.910  0.00  0.00     0.006 C 
ENDBRANCH   8  11
ENDBRANCH   7   8
ENDBRANCH   1   7
BRANCH   6  13
ATOM     13  N   LIG d   1      -6.840  95.188 122.868  0.00  0.00    -0.311 N 
ATOM     14  C   LIG d   1      -7.920  95.938 122.659  0.00  0.00     0.210 C 
ATOM     15  C   LIG d   1      -8.616  96.438 123.929  0.00  0.00     0.109 C 
ATOM     16  O   LIG d   1      -8.387  96.211 121.543  0.00  0.00    -0.276 OA
ATOM     17  H   LIG d   1      -6.551  94.990 123.806  0.00  0.00     0.149 HD
ENDBRANCH   6  13
BRANCH   5  18
ATOM     18  N   LIG d   1      -7.802  93.096 120.860  0.00  0.00     0.381 N 
ATOM     19  H   LIG d   1      -8.315  92.386 121.344  0.00  0.00    -0.090 HD
ATOM     20  H   LIG d   1      -7.753  92.843 119.889  0.00  0.00    -0.090 HD
ATOM     21  H   LIG d   1      -8.262  93.974 120.959  0.00  0.00    -0.090 HD
ENDBRANCH   5  18
BRANCH   3  22
ATOM     22  C   LIG d   1      -3.226  91.854 120.184  0.00  0.00     0.382 C 
ATOM     23  O   LIG d   1      -3.556  91.100 119.237  0.00  0.00    -0.241 OA
ATOM     24  O   LIG d   1      -2.103  91.727 120.707  0.00  0.00    -0.241 OA
ENDBRANCH   3  22
TORSDOF 7
ENDMDL
