MODEL 1
REMARK VINA RESULT:      -5.0      0.000      0.000
REMARK  7 active torsions:
REMARK  status: ('A' for Active; 'I' for Inactive)
REMARK    1  A    between atoms: C_2  and  C_3 
REMARK    2  A    between atoms: C_3  and  O_6 
REMARK    3  A    between atoms: C_3  and  C_4 
REMARK    4  A    between atoms: C_7  and  O_6 
REMARK    5  A    between atoms: C_9  and  C_10 
REMARK    6  A    between atoms: N_15  and  C_14 
REMARK    7  A    between atoms: N_20  and  C_19 
REMARK       I    between atoms: C_22  and  N_20 
ROOT
ATOM      1  C   LIG d   1      -6.008  93.365 118.021  0.00  0.00     0.161 C 
ATOM      2  C   LIG d   1      -6.545  92.147 117.573  0.00  0.00     0.016 C 
ATOM      3  C   LIG d   1      -5.762  90.998 117.320  0.00  0.00     0.038 C 
ATOM      4  C   LIG d   1      -4.399  90.943 117.645  0.00  0.00     0.028 C 
ATOM      5  C   LIG d   1      -3.716  92.307 117.625  0.00  0.00    -0.047 C 
ATOM      6  C   LIG d   1      -4.539  93.292 118.487  0.00  0.00     0.091 C 
ENDROOT
BRANCH   1   7
ATOM      7  O   LIG d   1      -6.838  93.911 119.065  0.00  0.00    -0.368 OA
BRANCH   7   8
ATOM      8  C   LIG d   1      -8.070  94.541 118.637  0.00  0.00     0.119 C 
BRANCH   8   9
ATOM      9  C   LIG d   1      -7.702  95.907 118.024  0.00  0.00     0.028 C 
ATOM     10  C   LIG d   1      -6.978  96.823 119.025  0.00  0.00     0.006 C 
ENDBRANCH   8   9
BRANCH   8  11
ATOM     11  C   LIG d   1      -8.976  94.862 119.829  0.00  0.00     0.028 C 
ATOM     12  C   LIG d   1      -8.769  93.901 121.010  0.00  0.00     0.006 C 
ENDBRANCH   8  11
ENDBRANCH   7   8
ENDBRANCH   1   7
BRANCH   6  13
ATOM     13  N   LIG d   1      -3.986  94.671 118.454  0.00  0.00    -0.311 N 
ATOM     14  C   LIG d   1      -3.096  95.126 119.334  0.00  0.00     0.210 C 
ATOM     15  C   LIG d   1      -2.673  96.584 119.131  0.00  0.00     0.109 C 
ATOM     16  O   LIG d   1      -2.592  94.450 120.243  0.00  0.00    -0.276 OA
ATOM     17  H   LIG d   1      -4.317  95.278 117.729  0.00  0.00     0.149 HD
ENDBRANCH   6  13
BRANCH   5  18
ATOM     18  N   LIG d   1      -2.337  92.122 118.115  0.00  0.00     0.381 N 
ATOM     19  H   LIG d   1      -2.353  91.866 119.082  0.00  0.00    -0.090 HD
ATOM     20  H   LIG d   1      -1.842  92.992 118.027  0.00  0.00    -0.090 HD
ATOM     21  H   LIG d   1      -1.878  91.415 117.584  0.00  0.00    -0.090 HD
ENDBRANCH   5  18
BRANCH   3  22
ATOM     22  C   LIG d   1      -6.336  89.899 116.698  0.00  0.00     0.382 C 
ATOM     23  O   LIG d   1      -7.561  89.899 116.430  0.00  0.00    -0.241 OA
ATOM     24  O   LIG d   1      -5.652  88.890 116.442  0.00  0.00    -0.241 OA
ENDBRANCH   3  22
TORSDOF 7
ENDMDL
MODEL 2
REMARK VINA RESULT:      -4.8      1.420      2.190
REMARK  7 active torsions:
REMARK  status: ('A' for Active; 'I' for Inactive)
REMARK    1  A    between atoms: C_2  and  C_3 
REMARK    2  A    between atoms: C_3  and  O_6 
REMARK    3  A    between atoms: C_3  and  C_4 
REMARK    4  A    between atoms: C_7  and  O_6 
REMARK    5  A    between atoms: C_9  and  C_10 
REMARK    6  A    between atoms: N_15  and  C_14 
REMARK    7  A    between atoms: N_20  and  C_19 
REMARK       I    between atoms: C_22  and  N_20 
ROOT
ATOM      1  C   LIG d   1      -5.644  93.166 118.395  0.00  0.00     0.161 C 
ATOM      2  C   LIG d   1      -6.216  91.972 117.928  0.00  0.00     0.016 C 
ATOM      3  C   LIG d   1      -5.474  90.952 117.288  0.00  0.00     0.038 C 
ATOM      4  C   LIG d   1      -4.074  90.993 117.207  0.00  0.00     0.028 C 
ATOM      5  C   LIG d   1      -3.508  92.409 117.214  0.00  0.00    -0.047 C 
ATOM      6  C   LIG d   1      -4.101  93.180 118.416  0.00  0.00     0.091 C 
ENDROOT
BRANCH   1   7
ATOM      7  O   LIG d   1      -6.165  93.479 119.702  0.00  0.00    -0.368 OA
BRANCH   7   8
ATOM      8  C   LIG d   1      -6.689  92.363 120.463  0.00  0.00     0.119 C 
BRANCH   8   9
ATOM      9  C   LIG d   1      -7.988  92.836 121.144  0.00  0.00     0.028 C 
ATOM     10  C   LIG d   1      -8.870  93.676 120.206  0.00  0.00     0.006 C 
ENDBRANCH   8   9
BRANCH   8  11
ATOM     11  C   LIG d   1      -5.747  91.978 121.608  0.00  0.00     0.028 C 
ATOM     12  C   LIG d   1      -4.838  90.789 121.258  0.00  0.00     0.006 C 
ENDBRANCH   8  11
ENDBRANCH   7   8
ENDBRANCH   1   7
BRANCH   6  13
ATOM     13  N   LIG d   1      -3.665  94.601 118.449  0.00  0.00    -0.311 N 
ATOM     14  C   LIG d   1      -2.609  95.027 119.140  0.00  0.00     0.210 C 
ATOM     15  C   LIG d   1      -2.346  96.534 119.054  0.00  0.00     0.109 C 
ATOM     16  O   LIG d   1      -1.848  94.296 119.791  0.00  0.00    -0.276 OA
ATOM     17  H   LIG d   1      -4.208  95.257 117.923  0.00  0.00     0.149 HD
ENDBRANCH   6  13
BRANCH   5  18
ATOM     18  N   LIG d   1      -2.038  92.301 117.265  0.00  0.00     0.381 N 
ATOM     19  H   LIG d   1      -1.647  93.158 117.601  0.00  0.00    -0.090 HD
ATOM     20  H   LIG d   1      -1.692  92.139 116.336  0.00  0.00    -0.090 HD
ATOM     21  H   LIG d   1      -1.772  91.549 117.862  0.00  0.00    -0.090 HD
ENDBRANCH   5  18
BRANCH   3  22
ATOM     22  C   LIG d   1      -6.138  89.895 116.685  0.00  0.00     0.382 C 
ATOM     23  O   LIG d   1      -7.363  89.986 116.431  0.00  0.00    -0.241 OA
ATOM     24  O   LIG d   1      -5.537  88.833 116.431  0.00  0.00    -0.241 OA
ENDBRANCH   3  22
TORSDOF 7
ENDMDL
MODEL 3
REMARK VINA RESULT:      -4.8      0.826      1.655
REMARK  7 active torsions:
REMARK  status: ('A' for Active; 'I' for Inactive)
REMARK    1  A    between atoms: C_2  and  C_3 
REMARK    2  A    between atoms: C_3  and  O_6 
REMARK    3  A    between atoms: C_3  and  C_4 
REMARK    4  A    between atoms: C_7  and  O_6 
REMARK    5  A    between atoms: C_9  and  C_10 
REMARK    6  A    between atoms: N_15  and  C_14 
REMARK    7  A    between atoms: N_20  and  C_19 
REMARK       I    between atoms: C_22  and  N_20 
ROOT
ATOM      1  C   LIG d   1      -5.425  93.208 118.314  0.00  0.00     0.161 C 
ATOM      2  C   LIG d   1      -6.066  92.039 117.871  0.00  0.00     0.016 C 
ATOM      3  C   LIG d   1      -5.384  90.961 117.260  0.00  0.00     0.038 C 
ATOM      4  C   LIG d   1      -3.984  90.916 117.187  0.00  0.00     0.028 C 
ATOM      5  C   LIG d   1      -3.334  92.295 117.164  0.00  0.00    -0.047 C 
ATOM      6  C   LIG d   1      -3.884  93.129 118.343  0.00  0.00     0.091 C 
ENDROOT
BRANCH   1   7
ATOM      7  O   LIG d   1      -5.932  93.583 119.610  0.00  0.00    -0.368 OA
BRANCH   7   8
ATOM      8  C   LIG d   1      -6.832  94.718 119.639  0.00  0.00     0.119 C 
BRANCH   8   9
ATOM      9  C   LIG d   1      -8.271  94.168 119.622  0.00  0.00     0.028 C 
ATOM     10  C   LIG d   1      -9.301  95.203 120.106  0.00  0.00     0.006 C 
ENDBRANCH   8   9
BRANCH   8  11
ATOM     11  C   LIG d   1      -6.705  95.562 118.367  0.00  0.00     0.028 C 
ATOM     12  C   LIG d   1      -6.261  97.005 118.651  0.00  0.00     0.006 C 
ENDBRANCH   8  11
ENDBRANCH   7   8
ENDBRANCH   1   7
BRANCH   6  13
ATOM     13  N   LIG d   1      -3.363  94.521 118.345  0.00  0.00    -0.311 N 
ATOM     14  C   LIG d   1      -2.284  94.899 119.029  0.00  0.00     0.210 C 
ATOM     15  C   LIG d   1      -1.930  96.385 118.909  0.00  0.00     0.109 C 
ATOM     16  O   LIG d   1      -1.568  94.138 119.697  0.00  0.00    -0.276 OA
ATOM     17  H   LIG d   1      -3.865  95.197 117.804  0.00  0.00     0.149 HD
ENDBRANCH   6  13
BRANCH   5  18
ATOM     18  N   LIG d   1      -1.873  92.100 117.226  0.00  0.00     0.381 N 
ATOM     19  H   LIG d   1      -1.479  92.199 116.311  0.00  0.00    -0.090 HD
ATOM     20  H   LIG d   1      -1.683  91.169 117.552  0.00  0.00    -0.090 HD
ATOM     21  H   LIG d   1      -1.466  92.767 117.844  0.00  0.00    -0.090 HD
ENDBRANCH   5  18
BRANCH   3  22
ATOM     22  C   LIG d   1      -6.108  89.932 116.679  0.00  0.00     0.382 C 
ATOM     23  O   LIG d   1      -7.328  90.085 116.430  0.00  0.00    -0.241 OA
ATOM     24  O   LIG d   1      -5.567  88.835 116.440  0.00  0.00    -0.241 OA
ENDBRANCH   3  22
TORSDOF 7
ENDMDL
MODEL 4
REMARK VINA RESULT:      -4.6      2.068      4.933
REMARK  7 active torsions:
REMARK  status: ('A' for Active; 'I' for Inactive)
REMARK    1  A    between atoms: C_2  and  C_3 
REMARK    2  A    between atoms: C_3  and  O_6 
REMARK    3  A    between atoms: C_3  and  C_4 
REMARK    4  A    between atoms: C_7  and  O_6 
REMARK    5  A    between atoms: C_9  and  C_10 
REMARK    6  A    between atoms: N_15  and  C_14 
REMARK    7  A    between atoms: N_20  and  C_19 
REMARK       I    between atoms: C_22  and  N_20 
ROOT
ATOM      1  C   LIG d   1      -5.370  92.304 118.896  0.00  0.00     0.161 C 
ATOM      2  C   LIG d   1      -6.758  92.485 119.019  0.00  0.00     0.016 C 
ATOM      3  C   LIG d   1      -7.350  93.699 119.436  0.00  0.00     0.038 C 
ATOM      4  C   LIG d   1      -6.596  94.869 119.615  0.00  0.00     0.028 C 
ATOM      5  C   LIG d   1      -5.143  94.601 119.991  0.00  0.00    -0.047 C 
ATOM      6  C   LIG d   1      -4.538  93.601 118.980  0.00  0.00     0.091 C 
ENDROOT
BRANCH   1   7
ATOM      7  O   LIG d   1      -5.076  91.598 117.675  0.00  0.00    -0.368 OA
BRANCH   7   8
ATOM      8  C   LIG d   1      -5.056  90.152 117.763  0.00  0.00     0.119 C 
BRANCH   8   9
ATOM      9  C   LIG d   1      -3.581  89.714 117.859  0.00  0.00     0.028 C 
ATOM     10  C   LIG d   1      -3.195  89.260 119.276  0.00  0.00     0.006 C 
ENDBRANCH   8   9
BRANCH   8  11
ATOM     11  C   LIG d   1      -5.588  89.508 116.480  0.00  0.00     0.028 C 
ATOM     12  C   LIG d   1      -7.123  89.456 116.431  0.00  0.00     0.006 C 
ENDBRANCH   8  11
ENDBRANCH   7   8
ENDBRANCH   1   7
BRANCH   6  13
ATOM     13  N   LIG d   1      -3.144  93.220 119.324  0.00  0.00    -0.311 N 
ATOM     14  C   LIG d   1      -2.169  93.114 118.423  0.00  0.00     0.210 C 
ATOM     15  C   LIG d   1      -0.810  92.689 118.987  0.00  0.00     0.109 C 
ATOM     16  O   LIG d   1      -2.293  93.364 117.214  0.00  0.00    -0.276 OA
ATOM     17  H   LIG d   1      -2.947  93.030 120.287  0.00  0.00     0.149 HD
ENDBRANCH   6  13
BRANCH   5  18
ATOM     18  N   LIG d   1      -4.441  95.899 120.011  0.00  0.00     0.381 N 
ATOM     19  H   LIG d   1      -4.696  96.409 120.833  0.00  0.00    -0.090 HD
ATOM     20  H   LIG d   1      -4.724  96.433 119.208  0.00  0.00    -0.090 HD
ATOM     21  H   LIG d   1      -3.456  95.754 119.993  0.00  0.00    -0.090 HD
ENDBRANCH   5  18
BRANCH   3  22
ATOM     22  C   LIG d   1      -8.707  93.741 119.717  0.00  0.00     0.382 C 
ATOM     23  O   LIG d   1      -9.407  94.690 119.289  0.00  0.00    -0.241 OA
ATOM     24  O   LIG d   1      -9.231  92.865 120.431  0.00  0.00    -0.241 OA
ENDBRANCH   3  22
TORSDOF 7
ENDMDL
MODEL 5
REMARK VINA RESULT:      -4.6      2.005      4.945
REMARK  7 active torsions:
REMARK  status: ('A' for Active; 'I' for Inactive)
REMARK    1  A    between atoms: C_2  and  C_3 
REMARK    2  A    between atoms: C_3  and  O_6 
REMARK    3  A    between atoms: C_3  and  C_4 
REMARK    4  A    between atoms: C_7  and  O_6 
REMARK    5  A    between atoms: C_9  and  C_10 
REMARK    6  A    between atoms: N_15  and  C_14 
REMARK    7  A    between atoms: N_20  and  C_19 
REMARK       I    between atoms: C_22  and  N_20 
ROOT
ATOM      1  C   LIG d   1      -4.908  92.854 117.945  0.00  0.00     0.161 C 
ATOM      2  C   LIG d   1      -6.147  93.474 117.713  0.00  0.00     0.016 C 
ATOM      3  C   LIG d   1      -6.499  94.733 118.251  0.00  0.00     0.038 C 
ATOM      4  C   LIG d   1      -5.573  95.531 118.938  0.00  0.00     0.028 C 
ATOM      5  C   LIG d   1      -4.474  94.729 119.626  0.00  0.00    -0.047 C 
ATOM      6  C   LIG d   1      -3.844  93.759 118.600  0.00  0.00     0.091 C 
ENDROOT
BRANCH   1   7
ATOM      7  O   LIG d   1      -4.403  92.296 116.715  0.00  0.00    -0.368 OA
BRANCH   7   8
ATOM      8  C   LIG d   1      -4.401  90.850 116.624  0.00  0.00     0.119 C 
BRANCH   8   9
ATOM      9  C   LIG d   1      -5.550  90.329 117.509  0.00  0.00     0.028 C 
ATOM     10  C   LIG d   1      -6.741  89.816 116.682  0.00  0.00     0.006 C 
ENDBRANCH   8   9
BRANCH   8  11
ATOM     11  C   LIG d   1      -3.124  90.256 117.226  0.00  0.00     0.028 C 
ATOM     12  C   LIG d   1      -3.406  89.310 118.404  0.00  0.00     0.006 C 
ENDBRANCH   8  11
ENDBRANCH   7   8
ENDBRANCH   1   7
BRANCH   6  13
ATOM     13  N   LIG d   1      -2.816  92.876 119.211  0.00  0.00    -0.311 N 
ATOM     14  C   LIG d   1      -1.511  93.142 119.183  0.00  0.00     0.210 C 
ATOM     15  C   LIG d   1      -0.623  92.090 119.855  0.00  0.00     0.109 C 
ATOM     16  O   LIG d   1      -1.008  94.164 118.694  0.00  0.00    -0.276 OA
ATOM     17  H   LIG d   1      -3.140  92.040 119.657  0.00  0.00     0.149 HD
ENDBRANCH   6  13
BRANCH   5  18
ATOM     18  N   LIG d   1      -3.504  95.689 120.185  0.00  0.00     0.381 N 
ATOM     19  H   LIG d   1      -3.934  96.215 120.920  0.00  0.00    -0.090 HD
ATOM     20  H   LIG d   1      -3.225  96.328 119.462  0.00  0.00    -0.090 HD
ATOM     21  H   LIG d   1      -2.708  95.204 120.536  0.00  0.00    -0.090 HD
ENDBRANCH   5  18
BRANCH   3  22
ATOM     22  C   LIG d   1      -7.804  95.187 118.137  0.00  0.00     0.382 C 
ATOM     23  O   LIG d   1      -8.032  96.415 118.017  0.00  0.00    -0.241 OA
ATOM     24  O   LIG d   1      -8.759  94.389 118.197  0.00  0.00    -0.241 OA
ENDBRANCH   3  22
TORSDOF 7
ENDMDL
MODEL 6
REMARK VINA RESULT:      -4.5      2.238      5.435
REMARK  7 active torsions:
REMARK  status: ('A' for Active; 'I' for Inactive)
REMARK    1  A    between atoms: C_2  and  C_3 
REMARK    2  A    between atoms: C_3  and  O_6 
REMARK    3  A    between atoms: C_3  and  C_4 
REMARK    4  A    between atoms: C_7  and  O_6 
REMARK    5  A    between atoms: C_9  and  C_10 
REMARK    6  A    between atoms: N_15  and  C_14 
REMARK    7  A    between atoms: N_20  and  C_19 
REMARK       I    between atoms: C_22  and  N_20 
ROOT
ATOM      1  C   LIG d   1      -3.986  92.879 118.360  0.00  0.00     0.161 C 
ATOM      2  C   LIG d   1      -4.979  93.872 118.357  0.00  0.00     0.016 C 
ATOM      3  C   LIG d   1      -6.353  93.598 118.170  0.00  0.00     0.038 C 
ATOM      4  C   LIG d   1      -6.848  92.286 118.123  0.00  0.00     0.028 C 
ATOM      5  C   LIG d   1      -5.828  91.272 117.616  0.00  0.00    -0.047 C 
ATOM      6  C   LIG d   1      -4.518  91.432 118.422  0.00  0.00     0.091 C 
ENDROOT
BRANCH   1   7
ATOM      7  O   LIG d   1      -3.059  93.118 119.437  0.00  0.00    -0.368 OA
BRANCH   7   8
ATOM      8  C   LIG d   1      -1.790  93.712 119.067  0.00  0.00     0.119 C 
BRANCH   8   9
ATOM      9  C   LIG d   1      -1.975  95.242 119.074  0.00  0.00     0.028 C 
ATOM     10  C   LIG d   1      -1.056  95.948 118.063  0.00  0.00     0.006 C 
ENDBRANCH   8   9
BRANCH   8  11
ATOM     11  C   LIG d   1      -1.408  93.356 117.627  0.00  0.00     0.028 C 
ATOM     12  C   LIG d   1      -0.292  92.302 117.550  0.00  0.00     0.006 C 
ENDBRANCH   8  11
ENDBRANCH   7   8
ENDBRANCH   1   7
BRANCH   6  13
ATOM     13  N   LIG d   1      -3.439  90.535 117.933  0.00  0.00    -0.311 N 
ATOM     14  C   LIG d   1      -3.206  89.325 118.440  0.00  0.00     0.210 C 
ATOM     15  C   LIG d   1      -2.032  88.573 117.805  0.00  0.00     0.109 C 
ATOM     16  O   LIG d   1      -3.879  88.791 119.334  0.00  0.00    -0.276 OA
ATOM     17  H   LIG d   1      -2.864  90.876 117.188  0.00  0.00     0.149 HD
ENDBRANCH   6  13
BRANCH   5  18
ATOM     18  N   LIG d   1      -6.428  89.931 117.750  0.00  0.00     0.381 N 
ATOM     19  H   LIG d   1      -6.312  89.422 116.897  0.00  0.00    -0.090 HD
ATOM     20  H   LIG d   1      -7.412  90.032 117.926  0.00  0.00    -0.090 HD
ATOM     21  H   LIG d   1      -5.998  89.438 118.501  0.00  0.00    -0.090 HD
ENDBRANCH   5  18
BRANCH   3  22
ATOM     22  C   LIG d   1      -7.244  94.645 117.987  0.00  0.00     0.382 C 
ATOM     23  O   LIG d   1      -6.833  95.830 118.013  0.00  0.00    -0.241 OA
ATOM     24  O   LIG d   1      -8.461  94.420 117.841  0.00  0.00    -0.241 OA
ENDBRANCH   3  22
TORSDOF 7
ENDMDL
MODEL 7
REMARK VINA RESULT:      -4.5      2.057      4.210
REMARK  7 active torsions:
REMARK  status: ('A' for Active; 'I' for Inactive)
REMARK    1  A    between atoms: C_2  and  C_3 
REMARK    2  A    between atoms: C_3  and  O_6 
REMARK    3  A    between atoms: C_3  and  C_4 
REMARK    4  A    between atoms: C_7  and  O_6 
REMARK    5  A    between atoms: C_9  and  C_10 
REMARK    6  A    between atoms: N_15  and  C_14 
REMARK    7  A    between atoms: N_20  and  C_19 
REMARK       I    between atoms: C_22  and  N_20 
ROOT
ATOM      1  C   LIG d   1      -4.622  92.738 119.366  0.00  0.00     0.161 C 
ATOM      2  C   LIG d   1      -4.606  91.486 118.729  0.00  0.00     0.016 C 
ATOM      3  C   LIG d   1      -5.540  91.105 117.738  0.00  0.00     0.038 C 
ATOM      4  C   LIG d   1      -6.467  92.012 117.205  0.00  0.00     0.028 C 
ATOM      5  C   LIG d   1      -6.848  93.127 118.173  0.00  0.00    -0.047 C 
ATOM      6  C   LIG d   1      -5.558  93.781 118.719  0.00  0.00     0.091 C 
ENDROOT
BRANCH   1   7
ATOM      7  O   LIG d   1      -3.281  93.257 119.457  0.00  0.00    -0.368 OA
BRANCH   7   8
ATOM      8  C   LIG d   1      -2.845  94.095 118.359  0.00  0.00     0.119 C 
BRANCH   8   9
ATOM      9  C   LIG d   1      -1.776  93.311 117.574  0.00  0.00     0.028 C 
ATOM     10  C   LIG d   1      -0.870  92.474 118.493  0.00  0.00     0.006 C 
ENDBRANCH   8   9
BRANCH   8  11
ATOM     11  C   LIG d   1      -2.135  95.354 118.865  0.00  0.00     0.028 C 
ATOM     12  C   LIG d   1      -2.345  95.592 120.369  0.00  0.00     0.006 C 
ENDBRANCH   8  11
ENDBRANCH   7   8
ENDBRANCH   1   7
BRANCH   6  13
ATOM     13  N   LIG d   1      -5.839  94.826 119.737  0.00  0.00    -0.311 N 
ATOM     14  C   LIG d   1      -5.965  96.119 119.444  0.00  0.00     0.210 C 
ATOM     15  C   LIG d   1      -6.234  97.031 120.646  0.00  0.00     0.109 C 
ATOM     16  O   LIG d   1      -5.912  96.594 118.300  0.00  0.00    -0.276 OA
ATOM     17  H   LIG d   1      -5.928  94.525 120.688  0.00  0.00     0.149 HD
ENDBRANCH   6  13
BRANCH   5  18
ATOM     18  N   LIG d   1      -7.712  94.075 117.444  0.00  0.00     0.381 N 
ATOM     19  H   LIG d   1      -7.489  95.012 117.712  0.00  0.00    -0.090 HD
ATOM     20  H   LIG d   1      -8.670  93.896 117.689  0.00  0.00    -0.090 HD
ATOM     21  H   LIG d   1      -7.587  93.964 116.461  0.00  0.00    -0.090 HD
ENDBRANCH   5  18
BRANCH   3  22
ATOM     22  C   LIG d   1      -5.577  89.790 117.298  0.00  0.00     0.382 C 
ATOM     23  O   LIG d   1      -4.524  89.108 117.272  0.00  0.00    -0.241 OA
ATOM     24  O   LIG d   1      -6.641  89.292 116.886  0.00  0.00    -0.241 OA
ENDBRANCH   3  22
TORSDOF 7
ENDMDL
MODEL 8
REMARK VINA RESULT:      -4.4      2.668      5.413
REMARK  7 active torsions:
REMARK  status: ('A' for Active; 'I' for Inactive)
REMARK    1  A    between atoms: C_2  and  C_3 
REMARK    2  A    between atoms: C_3  and  O_6 
REMARK    3  A    between atoms: C_3  and  C_4 
REMARK    4  A    between atoms: C_7  and  O_6 
REMARK    5  A    between atoms: C_9  and  C_10 
REMARK    6  A    between atoms: N_15  and  C_14 
REMARK    7  A    between atoms: N_20  and  C_19 
REMARK       I    between atoms: C_22  and  N_20 
ROOT
ATOM      1  C   LIG d   1      -3.171  92.750 118.024  0.00  0.00     0.161 C 
ATOM      2  C   LIG d   1      -4.474  93.220 118.261  0.00  0.00     0.016 C 
ATOM      3  C   LIG d   1      -5.634  92.450 118.019  0.00  0.00     0.038 C 
ATOM      4  C   LIG d   1      -5.564  91.095 117.663  0.00  0.00     0.028 C 
ATOM      5  C   LIG d   1      -4.281  90.727 116.926  0.00  0.00    -0.047 C 
ATOM      6  C   LIG d   1      -3.070  91.237 117.742  0.00  0.00     0.091 C 
ENDROOT
BRANCH   1   7
ATOM      7  O   LIG d   1      -2.313  93.113 119.124  0.00  0.00    -0.368 OA
BRANCH   7   8
ATOM      8  C   LIG d   1      -1.116  93.853 118.782  0.00  0.00     0.119 C 
BRANCH   8   9
ATOM      9  C   LIG d   1       0.010  93.370 119.717  0.00  0.00     0.028 C 
ATOM     10  C   LIG d   1       1.328  93.116 118.966  0.00  0.00     0.006 C 
ENDBRANCH   8   9
BRANCH   8  11
ATOM     11  C   LIG d   1      -1.279  95.346 119.081  0.00  0.00     0.028 C 
ATOM     12  C   LIG d   1      -1.260  96.214 117.812  0.00  0.00     0.006 C 
ENDBRANCH   8  11
ENDBRANCH   7   8
ENDBRANCH   1   7
BRANCH   6  13
ATOM     13  N   LIG d   1      -1.778  90.993 117.050  0.00  0.00    -0.311 N 
ATOM     14  C   LIG d   1      -0.763  90.331 117.605  0.00  0.00     0.210 C 
ATOM     15  C   LIG d   1       0.486  90.210 116.726  0.00  0.00     0.109 C 
ATOM     16  O   LIG d   1      -0.790  89.806 118.728  0.00  0.00    -0.276 OA
ATOM     17  H   LIG d   1      -1.680  91.358 116.123  0.00  0.00     0.149 HD
ENDBRANCH   6  13
BRANCH   5  18
ATOM     18  N   LIG d   1      -4.277  89.264 116.739  0.00  0.00     0.381 N 
ATOM     19  H   LIG d   1      -3.453  88.988 116.243  0.00  0.00    -0.090 HD
ATOM     20  H   LIG d   1      -5.078  89.005 116.190  0.00  0.00    -0.090 HD
ATOM     21  H   LIG d   1      -4.310  88.807 117.624  0.00  0.00    -0.090 HD
ENDBRANCH   5  18
BRANCH   3  22
ATOM     22  C   LIG d   1      -6.883  93.047 118.093  0.00  0.00     0.382 C 
ATOM     23  O   LIG d   1      -7.309  93.731 117.131  0.00  0.00    -0.241 OA
ATOM     24  O   LIG d   1      -7.571  92.948 119.127  0.00  0.00    -0.241 OA
ENDBRANCH   3  22
TORSDOF 7
ENDMDL
MODEL 9
REMARK VINA RESULT:      -4.4      2.555      4.868
REMARK  7 active torsions:
REMARK  status: ('A' for Active; 'I' for Inactive)
REMARK    1  A    between atoms: C_2  and  C_3 
REMARK    2  A    between atoms: C_3  and  O_6 
REMARK    3  A    between atoms: C_3  and  C_4 
REMARK    4  A    between atoms: C_7  and  O_6 
REMARK    5  A    between atoms: C_9  and  C_10 
REMARK    6  A    between atoms: N_15  and  C_14 
REMARK    7  A    between atoms: N_20  and  C_19 
REMARK       I    between atoms: C_22  and  N_20 
ROOT
ATOM      1  C   LIG d   1      -3.308  92.066 118.186  0.00  0.00     0.161 C 
ATOM      2  C   LIG d   1      -2.579  90.865 118.164  0.00  0.00     0.016 C 
ATOM      3  C   LIG d   1      -3.170  89.600 117.939  0.00  0.00     0.038 C 
ATOM      4  C   LIG d   1      -4.516  89.466 117.568  0.00  0.00     0.028 C 
ATOM      5  C   LIG d   1      -5.399  90.602 118.073  0.00  0.00    -0.047 C 
ATOM      6  C   LIG d   1      -4.759  91.951 117.673  0.00  0.00     0.091 C 
ENDROOT
BRANCH   1   7
ATOM      7  O   LIG d   1      -2.596  93.083 117.453  0.00  0.00    -0.368 OA
BRANCH   7   8
ATOM      8  C   LIG d   1      -2.037  94.162 118.240  0.00  0.00     0.119 C 
BRANCH   8   9
ATOM      9  C   LIG d   1      -0.511  93.954 118.293  0.00  0.00     0.028 C 
ATOM     10  C   LIG d   1      -0.009  93.655 119.715  0.00  0.00     0.006 C 
ENDBRANCH   8   9
BRANCH   8  11
ATOM     11  C   LIG d   1      -2.507  94.092 119.696  0.00  0.00     0.028 C 
ATOM     12  C   LIG d   1      -3.346  95.311 120.111  0.00  0.00     0.006 C 
ENDBRANCH   8  11
ENDBRANCH   7   8
ENDBRANCH   1   7
BRANCH   6  13
ATOM     13  N   LIG d   1      -5.516  93.116 118.201  0.00  0.00    -0.311 N 
ATOM     14  C   LIG d   1      -6.502  93.713 117.533  0.00  0.00     0.210 C 
ATOM     15  C   LIG d   1      -7.137  94.909 118.249  0.00  0.00     0.109 C 
ATOM     16  O   LIG d   1      -6.933  93.345 116.430  0.00  0.00    -0.276 OA
ATOM     17  H   LIG d   1      -5.252  93.461 119.103  0.00  0.00     0.149 HD
ENDBRANCH   6  13
BRANCH   5  18
ATOM     18  N   LIG d   1      -6.745  90.408 117.499  0.00  0.00     0.381 N 
ATOM     19  H   LIG d   1      -6.672  89.951 116.613  0.00  0.00    -0.090 HD
ATOM     20  H   LIG d   1      -7.169  91.308 117.356  0.00  0.00    -0.090 HD
ATOM     21  H   LIG d   1      -7.304  89.863 118.118  0.00  0.00    -0.090 HD
ENDBRANCH   5  18
BRANCH   3  22
ATOM     22  C   LIG d   1      -2.419  88.449 118.125  0.00  0.00     0.382 C 
ATOM     23  O   LIG d   1      -1.277  88.356 117.615  0.00  0.00    -0.241 OA
ATOM     24  O   LIG d   1      -2.888  87.485 118.758  0.00  0.00    -0.241 OA
ENDBRANCH   3  22
TORSDOF 7
ENDMDL
