MODEL 1
REMARK VINA RESULT:      -4.7      0.000      0.000
REMARK  7 active torsions:
REMARK  status: ('A' for Active; 'I' for Inactive)
REMARK    1  A    between atoms: C_2  and  C_3 
REMARK    2  A    between atoms: C_3  and  O_6 
REMARK    3  A    between atoms: C_3  and  C_4 
REMARK    4  A    between atoms: C_7  and  O_6 
REMARK    5  A    between atoms: C_9  and  C_10 
REMARK    6  A    between atoms: N_15  and  C_14 
REMARK    7  A    between atoms: N_20  and  C_19 
REMARK       I    between atoms: C_22  and  N_20 
ROOT
ATOM      1  C   LIG d   1      -4.405  92.542 119.315  0.00  0.00     0.161 C 
ATOM      2  C   LIG d   1      -4.407  91.177 118.983  0.00  0.00     0.016 C 
ATOM      3  C   LIG d   1      -3.258  90.482 118.540  0.00  0.00     0.038 C 
ATOM      4  C   LIG d   1      -1.987  91.074 118.542  0.00  0.00     0.028 C 
ATOM      5  C   LIG d   1      -2.024  92.591 118.388  0.00  0.00    -0.047 C 
ATOM      6  C   LIG d   1      -3.003  93.177 119.430  0.00  0.00     0.091 C 
ENDROOT
BRANCH   1   7
ATOM      7  O   LIG d   1      -5.151  92.750 120.531  0.00  0.00    -0.368 OA
BRANCH   7   8
ATOM      8  C   LIG d   1      -6.445  93.385 120.383  0.00  0.00     0.119 C 
BRANCH   8   9
ATOM      9  C   LIG d   1      -6.442  94.136 119.038  0.00  0.00     0.028 C 
ATOM     10  C   LIG d   1      -7.490  93.586 118.056  0.00  0.00     0.006 C 
ENDBRANCH   8   9
BRANCH   8  11
ATOM     11  C   LIG d   1      -6.661  94.464 121.449  0.00  0.00     0.028 C 
ATOM     12  C   LIG d   1      -6.234  95.863 120.976  0.00  0.00     0.006 C 
ENDBRANCH   8  11
ENDBRANCH   7   8
ENDBRANCH   1   7
BRANCH   6  13
ATOM     13  N   LIG d   1      -3.164  94.648 119.293  0.00  0.00    -0.311 N 
ATOM     14  C   LIG d   1      -2.428  95.532 119.965  0.00  0.00     0.210 C 
ATOM     15  C   LIG d   1      -2.770  97.000 119.691  0.00  0.00     0.109 C 
ATOM     16  O   LIG d   1      -1.504  95.240 120.738  0.00  0.00    -0.276 OA
ATOM     17  H   LIG d   1      -3.871  94.973 118.663  0.00  0.00     0.149 HD
ENDBRANCH   6  13
BRANCH   5  18
ATOM     18  N   LIG d   1      -0.645  93.090 118.546  0.00  0.00     0.381 N 
ATOM     19  H   LIG d   1       0.005  92.357 118.342  0.00  0.00    -0.090 HD
ATOM     20  H   LIG d   1      -0.510  93.376 119.499  0.00  0.00    -0.090 HD
ATOM     21  H   LIG d   1      -0.489  93.861 117.934  0.00  0.00    -0.090 HD
ENDBRANCH   5  18
BRANCH   3  22
ATOM     22  C   LIG d   1      -3.383  89.191 118.049  0.00  0.00     0.382 C 
ATOM     23  O   LIG d   1      -4.054  88.977 117.011  0.00  0.00    -0.241 OA
ATOM     24  O   LIG d   1      -2.869  88.232 118.657  0.00  0.00    -0.241 OA
ENDBRANCH   3  22
TORSDOF 7
ENDMDL
MODEL 2
REMARK VINA RESULT:      -4.6      2.210      5.214
REMARK  7 active torsions:
REMARK  status: ('A' for Active; 'I' for Inactive)
REMARK    1  A    between atoms: C_2  and  C_3 
REMARK    2  A    between atoms: C_3  and  O_6 
REMARK    3  A    between atoms: C_3  and  C_4 
REMARK    4  A    between atoms: C_7  and  O_6 
REMARK    5  A    between atoms: C_9  and  C_10 
REMARK    6  A    between atoms: N_15  and  C_14 
REMARK    7  A    between atoms: N_20  and  C_19 
REMARK       I    between atoms: C_22  and  N_20 
ROOT
ATOM      1  C   LIG d   1      -4.510  92.371 119.059  0.00  0.00     0.161 C 
ATOM      2  C   LIG d   1      -5.730  93.020 118.809  0.00  0.00     0.016 C 
ATOM      3  C   LIG d   1      -6.007  94.344 119.221  0.00  0.00     0.038 C 
ATOM      4  C   LIG d   1      -5.019  95.167 119.782  0.00  0.00     0.028 C 
ATOM      5  C   LIG d   1      -3.926  94.392 120.510  0.00  0.00    -0.047 C 
ATOM      6  C   LIG d   1      -3.382  93.291 119.572  0.00  0.00     0.091 C 
ENDROOT
BRANCH   1   7
ATOM      7  O   LIG d   1      -4.082  91.663 117.879  0.00  0.00    -0.368 OA
BRANCH   7   8
ATOM      8  C   LIG d   1      -4.175  90.219 117.933  0.00  0.00     0.119 C 
BRANCH   8   9
ATOM      9  C   LIG d   1      -2.741  89.666 118.044  0.00  0.00     0.028 C 
ATOM     10  C   LIG d   1      -2.602  88.618 119.161  0.00  0.00     0.006 C 
ENDBRANCH   8   9
BRANCH   8  11
ATOM     11  C   LIG d   1      -4.730  89.647 116.625  0.00  0.00     0.028 C 
ATOM     12  C   LIG d   1      -6.225  89.946 116.430  0.00  0.00     0.006 C 
ENDBRANCH   8  11
ENDBRANCH   7   8
ENDBRANCH   1   7
BRANCH   6  13
ATOM     13  N   LIG d   1      -2.367  92.431 120.235  0.00  0.00    -0.311 N 
ATOM     14  C   LIG d   1      -1.055  92.647 120.151  0.00  0.00     0.210 C 
ATOM     15  C   LIG d   1      -0.184  91.629 120.894  0.00  0.00     0.109 C 
ATOM     16  O   LIG d   1      -0.532  93.602 119.558  0.00  0.00    -0.276 OA
ATOM     17  H   LIG d   1      -2.705  91.651 120.763  0.00  0.00     0.149 HD
ENDBRANCH   6  13
BRANCH   5  18
ATOM     18  N   LIG d   1      -2.894  95.360 120.925  0.00  0.00     0.381 N 
ATOM     19  H   LIG d   1      -2.167  94.888 121.424  0.00  0.00    -0.090 HD
ATOM     20  H   LIG d   1      -3.311  96.036 121.541  0.00  0.00    -0.090 HD
ATOM     21  H   LIG d   1      -2.514  95.818 120.126  0.00  0.00    -0.090 HD
ENDBRANCH   5  18
BRANCH   3  22
ATOM     22  C   LIG d   1      -7.295  94.844 119.109  0.00  0.00     0.382 C 
ATOM     23  O   LIG d   1      -7.745  95.621 119.985  0.00  0.00    -0.241 OA
ATOM     24  O   LIG d   1      -8.029  94.493 118.165  0.00  0.00    -0.241 OA
ENDBRANCH   3  22
TORSDOF 7
ENDMDL
MODEL 3
REMARK VINA RESULT:      -4.6      2.416      3.616
REMARK  7 active torsions:
REMARK  status: ('A' for Active; 'I' for Inactive)
REMARK    1  A    between atoms: C_2  and  C_3 
REMARK    2  A    between atoms: C_3  and  O_6 
REMARK    3  A    between atoms: C_3  and  C_4 
REMARK    4  A    between atoms: C_7  and  O_6 
REMARK    5  A    between atoms: C_9  and  C_10 
REMARK    6  A    between atoms: N_15  and  C_14 
REMARK    7  A    between atoms: N_20  and  C_19 
REMARK       I    between atoms: C_22  and  N_20 
ROOT
ATOM      1  C   LIG d   1      -2.767  91.940 117.969  0.00  0.00     0.161 C 
ATOM      2  C   LIG d   1      -4.033  91.499 117.548  0.00  0.00     0.016 C 
ATOM      3  C   LIG d   1      -4.334  90.144 117.277  0.00  0.00     0.038 C 
ATOM      4  C   LIG d   1      -3.425  89.112 117.555  0.00  0.00     0.028 C 
ATOM      5  C   LIG d   1      -1.968  89.558 117.503  0.00  0.00    -0.047 C 
ATOM      6  C   LIG d   1      -1.796  90.816 118.385  0.00  0.00     0.091 C 
ENDROOT
BRANCH   1   7
ATOM      7  O   LIG d   1      -2.914  92.897 119.037  0.00  0.00    -0.368 OA
BRANCH   7   8
ATOM      8  C   LIG d   1      -4.044  92.696 119.921  0.00  0.00     0.119 C 
BRANCH   8   9
ATOM      9  C   LIG d   1      -4.761  94.052 120.071  0.00  0.00     0.028 C 
ATOM     10  C   LIG d   1      -6.266  93.956 119.769  0.00  0.00     0.006 C 
ENDBRANCH   8   9
BRANCH   8  11
ATOM     11  C   LIG d   1      -3.586  92.322 121.334  0.00  0.00     0.028 C 
ATOM     12  C   LIG d   1      -3.675  90.812 121.609  0.00  0.00     0.006 C 
ENDBRANCH   8  11
ENDBRANCH   7   8
ENDBRANCH   1   7
BRANCH   6  13
ATOM     13  N   LIG d   1      -0.417  91.367 118.323  0.00  0.00    -0.311 N 
ATOM     14  C   LIG d   1       0.350  91.544 119.397  0.00  0.00     0.210 C 
ATOM     15  C   LIG d   1       1.731  92.145 119.113  0.00  0.00     0.109 C 
ATOM     16  O   LIG d   1       0.031  91.232 120.554  0.00  0.00    -0.276 OA
ATOM     17  H   LIG d   1      -0.067  91.619 117.420  0.00  0.00     0.149 HD
ENDBRANCH   6  13
BRANCH   5  18
ATOM     18  N   LIG d   1      -1.138  88.422 117.947  0.00  0.00     0.381 N 
ATOM     19  H   LIG d   1      -1.573  87.969 118.726  0.00  0.00    -0.090 HD
ATOM     20  H   LIG d   1      -0.244  88.770 118.244  0.00  0.00    -0.090 HD
ATOM     21  H   LIG d   1      -1.019  87.774 117.200  0.00  0.00    -0.090 HD
ENDBRANCH   5  18
BRANCH   3  22
ATOM     22  C   LIG d   1      -5.543  89.814 116.683  0.00  0.00     0.382 C 
ATOM     23  O   LIG d   1      -6.386  90.711 116.437  0.00  0.00    -0.241 OA
ATOM     24  O   LIG d   1      -5.820  88.626 116.430  0.00  0.00    -0.241 OA
ENDBRANCH   3  22
TORSDOF 7
ENDMDL
MODEL 4
REMARK VINA RESULT:      -4.6      2.148      4.958
REMARK  7 active torsions:
REMARK  status: ('A' for Active; 'I' for Inactive)
REMARK    1  A    between atoms: C_2  and  C_3 
REMARK    2  A    between atoms: C_3  and  O_6 
REMARK    3  A    between atoms: C_3  and  C_4 
REMARK    4  A    between atoms: C_7  and  O_6 
REMARK    5  A    between atoms: C_9  and  C_10 
REMARK    6  A    between atoms: N_15  and  C_14 
REMARK    7  A    between atoms: N_20  and  C_19 
REMARK       I    between atoms: C_22  and  N_20 
ROOT
ATOM      1  C   LIG d   1      -4.837  92.984 120.157  0.00  0.00     0.161 C 
ATOM      2  C   LIG d   1      -6.091  93.485 119.771  0.00  0.00     0.016 C 
ATOM      3  C   LIG d   1      -6.306  94.826 119.377  0.00  0.00     0.038 C 
ATOM      4  C   LIG d   1      -5.245  95.725 119.197  0.00  0.00     0.028 C 
ATOM      5  C   LIG d   1      -4.028  95.406 120.059  0.00  0.00    -0.047 C 
ATOM      6  C   LIG d   1      -3.647  93.921 119.860  0.00  0.00     0.091 C 
ENDROOT
BRANCH   1   7
ATOM      7  O   LIG d   1      -4.620  91.693 119.555  0.00  0.00    -0.368 OA
BRANCH   7   8
ATOM      8  C   LIG d   1      -3.967  91.694 118.262  0.00  0.00     0.119 C 
BRANCH   8   9
ATOM      9  C   LIG d   1      -5.013  91.261 117.215  0.00  0.00     0.028 C 
ATOM     10  C   LIG d   1      -4.845  89.793 116.790  0.00  0.00     0.006 C 
ENDBRANCH   8   9
BRANCH   8  11
ATOM     11  C   LIG d   1      -2.863  90.635 118.193  0.00  0.00     0.028 C 
ATOM     12  C   LIG d   1      -2.480  90.084 119.576  0.00  0.00     0.006 C 
ENDBRANCH   8  11
ENDBRANCH   7   8
ENDBRANCH   1   7
BRANCH   6  13
ATOM     13  N   LIG d   1      -2.518  93.504 120.732  0.00  0.00    -0.311 N 
ATOM     14  C   LIG d   1      -1.247  93.500 120.333  0.00  0.00     0.210 C 
ATOM     15  C   LIG d   1      -0.242  93.015 121.382  0.00  0.00     0.109 C 
ATOM     16  O   LIG d   1      -0.853  93.884 119.221  0.00  0.00    -0.276 OA
ATOM     17  H   LIG d   1      -2.744  93.207 121.661  0.00  0.00     0.149 HD
ENDBRANCH   6  13
BRANCH   5  18
ATOM     18  N   LIG d   1      -2.951  96.336 119.671  0.00  0.00     0.381 N 
ATOM     19  H   LIG d   1      -3.004  97.167 120.226  0.00  0.00    -0.090 HD
ATOM     20  H   LIG d   1      -3.074  96.592 118.707  0.00  0.00    -0.090 HD
ATOM     21  H   LIG d   1      -2.063  95.901 119.796  0.00  0.00    -0.090 HD
ENDBRANCH   5  18
BRANCH   3  22
ATOM     22  C   LIG d   1      -7.600  95.290 119.198  0.00  0.00     0.382 C 
ATOM     23  O   LIG d   1      -8.161  95.950 120.105  0.00  0.00    -0.241 OA
ATOM     24  O   LIG d   1      -8.230  95.019 118.158  0.00  0.00    -0.241 OA
ENDBRANCH   3  22
TORSDOF 7
ENDMDL
MODEL 5
REMARK VINA RESULT:      -4.6      2.762      5.135
REMARK  7 active torsions:
REMARK  status: ('A' for Active; 'I' for Inactive)
REMARK    1  A    between atoms: C_2  and  C_3 
REMARK    2  A    between atoms: C_3  and  O_6 
REMARK    3  A    between atoms: C_3  and  C_4 
REMARK    4  A    between atoms: C_7  and  O_6 
REMARK    5  A    between atoms: C_9  and  C_10 
REMARK    6  A    between atoms: N_15  and  C_14 
REMARK    7  A    between atoms: N_20  and  C_19 
REMARK       I    between atoms: C_22  and  N_20 
ROOT
ATOM      1  C   LIG d   1      -2.472  90.037 119.200  0.00  0.00     0.161 C 
ATOM      2  C   LIG d   1      -3.345  89.523 118.227  0.00  0.00     0.016 C 
ATOM      3  C   LIG d   1      -4.339  90.297 117.586  0.00  0.00     0.038 C 
ATOM      4  C   LIG d   1      -4.428  91.686 117.766  0.00  0.00     0.028 C 
ATOM      5  C   LIG d   1      -3.897  92.156 119.116  0.00  0.00    -0.047 C 
ATOM      6  C   LIG d   1      -2.481  91.575 119.328  0.00  0.00     0.091 C 
ENDROOT
BRANCH   1   7
ATOM      7  O   LIG d   1      -1.134  89.563 118.955  0.00  0.00    -0.368 OA
BRANCH   7   8
ATOM      8  C   LIG d   1      -0.440  90.162 117.833  0.00  0.00     0.119 C 
BRANCH   8   9
ATOM      9  C   LIG d   1      -0.015  89.020 116.889  0.00  0.00     0.028 C 
ATOM     10  C   LIG d   1      -0.135  87.637 117.549  0.00  0.00     0.006 C 
ENDBRANCH   8   9
BRANCH   8  11
ATOM     11  C   LIG d   1       0.865  90.829 118.276  0.00  0.00     0.028 C 
ATOM     12  C   LIG d   1       1.313  90.388 119.678  0.00  0.00     0.006 C 
ENDBRANCH   8  11
ENDBRANCH   7   8
ENDBRANCH   1   7
BRANCH   6  13
ATOM     13  N   LIG d   1      -1.922  91.918 120.662  0.00  0.00    -0.311 N 
ATOM     14  C   LIG d   1      -1.082  92.931 120.866  0.00  0.00     0.210 C 
ATOM     15  C   LIG d   1      -0.609  93.098 122.314  0.00  0.00     0.109 C 
ATOM     16  O   LIG d   1      -0.708  93.727 119.991  0.00  0.00    -0.276 OA
ATOM     17  H   LIG d   1      -2.197  91.343 121.434  0.00  0.00     0.149 HD
ENDBRANCH   6  13
BRANCH   5  18
ATOM     18  N   LIG d   1      -3.923  93.631 119.115  0.00  0.00     0.381 N 
ATOM     19  H   LIG d   1      -3.483  93.977 118.285  0.00  0.00    -0.090 HD
ATOM     20  H   LIG d   1      -3.406  93.966 119.909  0.00  0.00    -0.090 HD
ATOM     21  H   LIG d   1      -4.863  93.956 119.160  0.00  0.00    -0.090 HD
ENDBRANCH   5  18
BRANCH   3  22
ATOM     22  C   LIG d   1      -5.284  89.675 116.783  0.00  0.00     0.382 C 
ATOM     23  O   LIG d   1      -6.315  90.297 116.431  0.00  0.00    -0.241 OA
ATOM     24  O   LIG d   1      -5.139  88.486 116.444  0.00  0.00    -0.241 OA
ENDBRANCH   3  22
TORSDOF 7
ENDMDL
MODEL 6
REMARK VINA RESULT:      -4.5      3.139      6.357
REMARK  7 active torsions:
REMARK  status: ('A' for Active; 'I' for Inactive)
REMARK    1  A    between atoms: C_2  and  C_3 
REMARK    2  A    between atoms: C_3  and  O_6 
REMARK    3  A    between atoms: C_3  and  C_4 
REMARK    4  A    between atoms: C_7  and  O_6 
REMARK    5  A    between atoms: C_9  and  C_10 
REMARK    6  A    between atoms: N_15  and  C_14 
REMARK    7  A    between atoms: N_20  and  C_19 
REMARK       I    between atoms: C_22  and  N_20 
ROOT
ATOM      1  C   LIG d   1      -0.716  90.649 117.713  0.00  0.00     0.161 C 
ATOM      2  C   LIG d   1       0.565  90.941 118.211  0.00  0.00     0.016 C 
ATOM      3  C   LIG d   1       0.832  92.022 119.082  0.00  0.00     0.038 C 
ATOM      4  C   LIG d   1      -0.195  92.799 119.638  0.00  0.00     0.028 C 
ATOM      5  C   LIG d   1      -1.447  92.858 118.769  0.00  0.00    -0.047 C 
ATOM      6  C   LIG d   1      -1.867  91.417 118.395  0.00  0.00     0.091 C 
ENDROOT
BRANCH   1   7
ATOM      7  O   LIG d   1      -0.953  89.229 117.779  0.00  0.00    -0.368 OA
BRANCH   7   8
ATOM      8  C   LIG d   1      -0.134  88.488 118.716  0.00  0.00     0.119 C 
BRANCH   8   9
ATOM      9  C   LIG d   1       0.332  87.202 118.008  0.00  0.00     0.028 C 
ATOM     10  C   LIG d   1      -0.421  86.951 116.691  0.00  0.00     0.006 C 
ENDBRANCH   8   9
BRANCH   8  11
ATOM     11  C   LIG d   1      -0.954  88.014 119.920  0.00  0.00     0.028 C 
ATOM     12  C   LIG d   1      -2.466  88.001 119.643  0.00  0.00     0.006 C 
ENDBRANCH   8  11
ENDBRANCH   7   8
ENDBRANCH   1   7
BRANCH   6  13
ATOM     13  N   LIG d   1      -3.035  91.388 117.477  0.00  0.00    -0.311 N 
ATOM     14  C   LIG d   1      -4.290  91.232 117.892  0.00  0.00     0.210 C 
ATOM     15  C   LIG d   1      -5.342  91.210 116.778  0.00  0.00     0.109 C 
ATOM     16  O   LIG d   1      -4.636  91.142 119.080  0.00  0.00    -0.276 OA
ATOM     17  H   LIG d   1      -2.848  91.485 116.498  0.00  0.00     0.149 HD
ENDBRANCH   6  13
BRANCH   5  18
ATOM     18  N   LIG d   1      -2.483  93.583 119.529  0.00  0.00     0.381 N 
ATOM     19  H   LIG d   1      -3.037  92.934 120.050  0.00  0.00    -0.090 HD
ATOM     20  H   LIG d   1      -3.084  94.062 118.882  0.00  0.00    -0.090 HD
ATOM     21  H   LIG d   1      -2.057  94.238 120.146  0.00  0.00    -0.090 HD
ENDBRANCH   5  18
BRANCH   3  22
ATOM     22  C   LIG d   1       2.145  92.360 119.375  0.00  0.00     0.382 C 
ATOM     23  O   LIG d   1       3.058  92.092 118.557  0.00  0.00    -0.241 OA
ATOM     24  O   LIG d   1       2.433  92.889 120.465  0.00  0.00    -0.241 OA
ENDBRANCH   3  22
TORSDOF 7
ENDMDL
MODEL 7
REMARK VINA RESULT:      -4.5      2.371      3.972
REMARK  7 active torsions:
REMARK  status: ('A' for Active; 'I' for Inactive)
REMARK    1  A    between atoms: C_2  and  C_3 
REMARK    2  A    between atoms: C_3  and  O_6 
REMARK    3  A    between atoms: C_3  and  C_4 
REMARK    4  A    between atoms: C_7  and  O_6 
REMARK    5  A    between atoms: C_9  and  C_10 
REMARK    6  A    between atoms: N_15  and  C_14 
REMARK    7  A    between atoms: N_20  and  C_19 
REMARK       I    between atoms: C_22  and  N_20 
ROOT
ATOM      1  C   LIG d   1      -2.684  91.940 118.322  0.00  0.00     0.161 C 
ATOM      2  C   LIG d   1      -3.922  91.435 117.893  0.00  0.00     0.016 C 
ATOM      3  C   LIG d   1      -4.098  90.120 117.403  0.00  0.00     0.038 C 
ATOM      4  C   LIG d   1      -3.070  89.167 117.450  0.00  0.00     0.028 C 
ATOM      5  C   LIG d   1      -1.674  89.779 117.405  0.00  0.00    -0.047 C 
ATOM      6  C   LIG d   1      -1.574  90.881 118.485  0.00  0.00     0.091 C 
ENDROOT
BRANCH   1   7
ATOM      7  O   LIG d   1      -2.855  92.679 119.548  0.00  0.00    -0.368 OA
BRANCH   7   8
ATOM      8  C   LIG d   1      -2.821  94.122 119.433  0.00  0.00     0.119 C 
BRANCH   8   9
ATOM      9  C   LIG d   1      -1.808  94.646 120.469  0.00  0.00     0.028 C 
ATOM     10  C   LIG d   1      -1.276  93.530 121.384  0.00  0.00     0.006 C 
ENDBRANCH   8   9
BRANCH   8  11
ATOM     11  C   LIG d   1      -4.163  94.745 119.827  0.00  0.00     0.028 C 
ATOM     12  C   LIG d   1      -4.260  96.234 119.460  0.00  0.00     0.006 C 
ENDBRANCH   8  11
ENDBRANCH   7   8
ENDBRANCH   1   7
BRANCH   6  13
ATOM     13  N   LIG d   1      -0.268  91.589 118.453  0.00  0.00    -0.311 N 
ATOM     14  C   LIG d   1       0.776  91.236 119.202  0.00  0.00     0.210 C 
ATOM     15  C   LIG d   1       2.021  92.112 119.030  0.00  0.00     0.109 C 
ATOM     16  O   LIG d   1       0.799  90.261 119.969  0.00  0.00    -0.276 OA
ATOM     17  H   LIG d   1      -0.189  92.373 117.836  0.00  0.00     0.149 HD
ENDBRANCH   6  13
BRANCH   5  18
ATOM     18  N   LIG d   1      -0.702  88.687 117.600  0.00  0.00     0.381 N 
ATOM     19  H   LIG d   1      -0.017  88.961 118.276  0.00  0.00    -0.090 HD
ATOM     20  H   LIG d   1      -0.233  88.510 116.730  0.00  0.00    -0.090 HD
ATOM     21  H   LIG d   1      -1.171  87.864 117.907  0.00  0.00    -0.090 HD
ENDBRANCH   5  18
BRANCH   3  22
ATOM     22  C   LIG d   1      -5.304  89.760 116.821  0.00  0.00     0.382 C 
ATOM     23  O   LIG d   1      -5.484  88.581 116.430  0.00  0.00    -0.241 OA
ATOM     24  O   LIG d   1      -6.198  90.609 116.641  0.00  0.00    -0.241 OA
ENDBRANCH   3  22
TORSDOF 7
ENDMDL
MODEL 8
REMARK VINA RESULT:      -4.4      2.320      4.229
REMARK  7 active torsions:
REMARK  status: ('A' for Active; 'I' for Inactive)
REMARK    1  A    between atoms: C_2  and  C_3 
REMARK    2  A    between atoms: C_3  and  O_6 
REMARK    3  A    between atoms: C_3  and  C_4 
REMARK    4  A    between atoms: C_7  and  O_6 
REMARK    5  A    between atoms: C_9  and  C_10 
REMARK    6  A    between atoms: N_15  and  C_14 
REMARK    7  A    between atoms: N_20  and  C_19 
REMARK       I    between atoms: C_22  and  N_20 
ROOT
ATOM      1  C   LIG d   1      -3.794  90.761 120.154  0.00  0.00     0.161 C 
ATOM      2  C   LIG d   1      -2.962  89.694 119.776  0.00  0.00     0.016 C 
ATOM      3  C   LIG d   1      -2.810  89.262 118.438  0.00  0.00     0.038 C 
ATOM      4  C   LIG d   1      -3.368  89.970 117.363  0.00  0.00     0.028 C 
ATOM      5  C   LIG d   1      -4.623  90.751 117.737  0.00  0.00    -0.047 C 
ATOM      6  C   LIG d   1      -4.323  91.615 118.983  0.00  0.00     0.091 C 
ENDROOT
BRANCH   1   7
ATOM      7  O   LIG d   1      -3.114  91.593 121.115  0.00  0.00    -0.368 OA
BRANCH   7   8
ATOM      8  C   LIG d   1      -1.688  91.755 120.921  0.00  0.00     0.119 C 
BRANCH   8   9
ATOM      9  C   LIG d   1      -0.997  91.409 122.254  0.00  0.00     0.028 C 
ATOM     10  C   LIG d   1       0.401  90.801 122.050  0.00  0.00     0.006 C 
ENDBRANCH   8   9
BRANCH   8  11
ATOM     11  C   LIG d   1      -1.326  93.218 120.644  0.00  0.00     0.028 C 
ATOM     12  C   LIG d   1      -1.078  93.498 119.153  0.00  0.00     0.006 C 
ENDBRANCH   8  11
ENDBRANCH   7   8
ENDBRANCH   1   7
BRANCH   6  13
ATOM     13  N   LIG d   1      -5.522  92.348 119.467  0.00  0.00    -0.311 N 
ATOM     14  C   LIG d   1      -5.509  93.638 119.796  0.00  0.00     0.210 C 
ATOM     15  C   LIG d   1      -6.849  94.193 120.291  0.00  0.00     0.109 C 
ATOM     16  O   LIG d   1      -4.524  94.384 119.696  0.00  0.00    -0.276 OA
ATOM     17  H   LIG d   1      -6.373  91.826 119.549  0.00  0.00     0.149 HD
ENDBRANCH   6  13
BRANCH   5  18
ATOM     18  N   LIG d   1      -5.018  91.549 116.561  0.00  0.00     0.381 N 
ATOM     19  H   LIG d   1      -5.846  91.164 116.153  0.00  0.00    -0.090 HD
ATOM     20  H   LIG d   1      -4.282  91.510 115.879  0.00  0.00    -0.090 HD
ATOM     21  H   LIG d   1      -5.181  92.495 116.830  0.00  0.00    -0.090 HD
ENDBRANCH   5  18
BRANCH   3  22
ATOM     22  C   LIG d   1      -2.127  88.086 118.168  0.00  0.00     0.382 C 
ATOM     23  O   LIG d   1      -2.539  87.312 117.271  0.00  0.00    -0.241 OA
ATOM     24  O   LIG d   1      -1.128  87.768 118.841  0.00  0.00    -0.241 OA
ENDBRANCH   3  22
TORSDOF 7
ENDMDL
MODEL 9
REMARK VINA RESULT:      -4.3      2.626      3.885
REMARK  7 active torsions:
REMARK  status: ('A' for Active; 'I' for Inactive)
REMARK    1  A    between atoms: C_2  and  C_3 
REMARK    2  A    between atoms: C_3  and  O_6 
REMARK    3  A    between atoms: C_3  and  C_4 
REMARK    4  A    between atoms: C_7  and  O_6 
REMARK    5  A    between atoms: C_9  and  C_10 
REMARK    6  A    between atoms: N_15  and  C_14 
REMARK    7  A    between atoms: N_20  and  C_19 
REMARK       I    between atoms: C_22  and  N_20 
ROOT
ATOM      1  C   LIG d   1      -4.022  91.054 120.249  0.00  0.00     0.161 C 
ATOM      2  C   LIG d   1      -3.193  89.942 120.025  0.00  0.00     0.016 C 
ATOM      3  C   LIG d   1      -2.962  89.390 118.744  0.00  0.00     0.038 C 
ATOM      4  C   LIG d   1      -3.427  90.009 117.575  0.00  0.00     0.028 C 
ATOM      5  C   LIG d   1      -4.684  90.844 117.790  0.00  0.00    -0.047 C 
ATOM      6  C   LIG d   1      -4.448  91.810 118.974  0.00  0.00     0.091 C 
ENDROOT
BRANCH   1   7
ATOM      7  O   LIG d   1      -3.388  91.955 121.178  0.00  0.00    -0.368 OA
BRANCH   7   8
ATOM      8  C   LIG d   1      -3.984  92.035 122.497  0.00  0.00     0.119 C 
BRANCH   8   9
ATOM      9  C   LIG d   1      -3.076  91.249 123.463  0.00  0.00     0.028 C 
ATOM     10  C   LIG d   1      -1.582  91.453 123.161  0.00  0.00     0.006 C 
ENDBRANCH   8   9
BRANCH   8  11
ATOM     11  C   LIG d   1      -5.338  91.320 122.540  0.00  0.00     0.028 C 
ATOM     12  C   LIG d   1      -5.495  90.417 123.774  0.00  0.00     0.006 C 
ENDBRANCH   8  11
ENDBRANCH   7   8
ENDBRANCH   1   7
BRANCH   6  13
ATOM     13  N   LIG d   1      -5.659  92.606 119.307  0.00  0.00    -0.311 N 
ATOM     14  C   LIG d   1      -5.620  93.894 119.643  0.00  0.00     0.210 C 
ATOM     15  C   LIG d   1      -6.981  94.519 119.967  0.00  0.00     0.109 C 
ATOM     16  O   LIG d   1      -4.592  94.586 119.673  0.00  0.00    -0.276 OA
ATOM     17  H   LIG d   1      -6.539  92.130 119.277  0.00  0.00     0.149 HD
ENDBRANCH   6  13
BRANCH   5  18
ATOM     18  N   LIG d   1      -4.979  91.542 116.525  0.00  0.00     0.381 N 
ATOM     19  H   LIG d   1      -4.145  91.967 116.170  0.00  0.00    -0.090 HD
ATOM     20  H   LIG d   1      -5.651  92.267 116.702  0.00  0.00    -0.090 HD
ATOM     21  H   LIG d   1      -5.342  90.898 115.857  0.00  0.00    -0.090 HD
ENDBRANCH   5  18
BRANCH   3  22
ATOM     22  C   LIG d   1      -2.291  88.182 118.627  0.00  0.00     0.382 C 
ATOM     23  O   LIG d   1      -1.446  87.848 119.493  0.00  0.00    -0.241 OA
ATOM     24  O   LIG d   1      -2.487  87.443 117.644  0.00  0.00    -0.241 OA
ENDBRANCH   3  22
TORSDOF 7
ENDMDL
