MODEL 1
REMARK VINA RESULT:      -4.5      0.000      0.000
REMARK  7 active torsions:
REMARK  status: ('A' for Active; 'I' for Inactive)
REMARK    1  A    between atoms: C_2  and  C_3 
REMARK    2  A    between atoms: C_3  and  O_6 
REMARK    3  A    between atoms: C_3  and  C_4 
REMARK    4  A    between atoms: C_7  and  O_6 
REMARK    5  A    between atoms: C_9  and  C_10 
REMARK    6  A    between atoms: N_15  and  C_14 
REMARK    7  A    between atoms: N_20  and  C_19 
REMARK       I    between atoms: C_22  and  N_20 
ROOT
ATOM      1  C   LIG d   1      -4.728  92.986 117.923  0.00  0.00     0.161 C 
ATOM      2  C   LIG d   1      -4.633  91.623 117.598  0.00  0.00     0.016 C 
ATOM      3  C   LIG d   1      -3.407  90.921 117.533  0.00  0.00     0.038 C 
ATOM      4  C   LIG d   1      -2.197  91.504 117.939  0.00  0.00     0.028 C 
ATOM      5  C   LIG d   1      -2.176  93.022 117.792  0.00  0.00    -0.047 C 
ATOM      6  C   LIG d   1      -3.430  93.610 118.477  0.00  0.00     0.091 C 
ENDROOT
BRANCH   1   7
ATOM      7  O   LIG d   1      -5.817  93.194 118.843  0.00  0.00    -0.368 OA
BRANCH   7   8
ATOM      8  C   LIG d   1      -7.137  93.300 118.255  0.00  0.00     0.119 C 
BRANCH   8   9
ATOM      9  C   LIG d   1      -7.115  94.495 117.282  0.00  0.00     0.028 C 
ATOM     10  C   LIG d   1      -7.172  95.848 118.012  0.00  0.00     0.006 C 
ENDBRANCH   8   9
BRANCH   8  11
ATOM     11  C   LIG d   1      -8.190  93.655 119.309  0.00  0.00     0.028 C 
ATOM     12  C   LIG d   1      -7.930  92.975 120.663  0.00  0.00     0.006 C 
ENDBRANCH   8  11
ENDBRANCH   7   8
ENDBRANCH   1   7
BRANCH   6  13
ATOM     13  N   LIG d   1      -3.531  95.083 118.307  0.00  0.00    -0.311 N 
ATOM     14  C   LIG d   1      -3.593  95.937 119.327  0.00  0.00     0.210 C 
ATOM     15  C   LIG d   1      -3.714  97.411 118.930  0.00  0.00     0.109 C 
ATOM     16  O   LIG d   1      -3.528  95.616 120.523  0.00  0.00    -0.276 OA
ATOM     17  H   LIG d   1      -3.559  95.433 117.369  0.00  0.00     0.149 HD
ENDBRANCH   6  13
BRANCH   5  18
ATOM     18  N   LIG d   1      -0.914  93.509 118.379  0.00  0.00     0.381 N 
ATOM     19  H   LIG d   1      -0.223  93.608 117.662  0.00  0.00    -0.090 HD
ATOM     20  H   LIG d   1      -0.583  92.833 119.044  0.00  0.00    -0.090 HD
ATOM     21  H   LIG d   1      -1.063  94.385 118.829  0.00  0.00    -0.090 HD
ENDBRANCH   5  18
BRANCH   3  22
ATOM     22  C   LIG d   1      -3.378  89.634 117.019  0.00  0.00     0.382 C 
ATOM     23  O   LIG d   1      -4.384  89.171 116.430  0.00  0.00    -0.241 OA
ATOM     24  O   LIG d   1      -2.374  88.913 117.176  0.00  0.00    -0.241 OA
ENDBRANCH   3  22
TORSDOF 7
ENDMDL
MODEL 2
REMARK VINA RESULT:      -4.5      2.671      5.739
REMARK  7 active torsions:
REMARK  status: ('A' for Active; 'I' for Inactive)
REMARK    1  A    between atoms: C_2  and  C_3 
REMARK    2  A    between atoms: C_3  and  O_6 
REMARK    3  A    between atoms: C_3  and  C_4 
REMARK    4  A    between atoms: C_7  and  O_6 
REMARK    5  A    between atoms: C_9  and  C_10 
REMARK    6  A    between atoms: N_15  and  C_14 
REMARK    7  A    between atoms: N_20  and  C_19 
REMARK       I    between atoms: C_22  and  N_20 
ROOT
ATOM      1  C   LIG d   1      -2.715  90.916 117.673  0.00  0.00     0.161 C 
ATOM      2  C   LIG d   1      -4.039  90.746 117.237  0.00  0.00     0.016 C 
ATOM      3  C   LIG d   1      -4.959  91.812 117.106  0.00  0.00     0.038 C 
ATOM      4  C   LIG d   1      -4.568  93.151 117.260  0.00  0.00     0.028 C 
ATOM      5  C   LIG d   1      -3.373  93.330 118.190  0.00  0.00    -0.047 C 
ATOM      6  C   LIG d   1      -2.239  92.382 117.738  0.00  0.00     0.091 C 
ENDROOT
BRANCH   1   7
ATOM      7  O   LIG d   1      -1.825  90.137 116.849  0.00  0.00    -0.368 OA
BRANCH   7   8
ATOM      8  C   LIG d   1      -1.081  89.094 117.524  0.00  0.00     0.119 C 
BRANCH   8   9
ATOM      9  C   LIG d   1       0.364  89.137 116.990  0.00  0.00     0.028 C 
ATOM     10  C   LIG d   1       1.402  88.816 118.079  0.00  0.00     0.006 C 
ENDBRANCH   8   9
BRANCH   8  11
ATOM     11  C   LIG d   1      -1.608  87.704 117.156  0.00  0.00     0.028 C 
ATOM     12  C   LIG d   1      -2.044  86.887 118.382  0.00  0.00     0.006 C 
ENDBRANCH   8  11
ENDBRANCH   7   8
ENDBRANCH   1   7
BRANCH   6  13
ATOM     13  N   LIG d   1      -1.062  92.434 118.644  0.00  0.00    -0.311 N 
ATOM     14  C   LIG d   1       0.177  92.682 118.224  0.00  0.00     0.210 C 
ATOM     15  C   LIG d   1       1.246  92.669 119.321  0.00  0.00     0.109 C 
ATOM     16  O   LIG d   1       0.487  92.943 117.052  0.00  0.00    -0.276 OA
ATOM     17  H   LIG d   1      -1.228  92.264 119.617  0.00  0.00     0.149 HD
ENDBRANCH   6  13
BRANCH   5  18
ATOM     18  N   LIG d   1      -2.987  94.754 118.150  0.00  0.00     0.381 N 
ATOM     19  H   LIG d   1      -3.205  95.188 119.024  0.00  0.00    -0.090 HD
ATOM     20  H   LIG d   1      -3.516  95.214 117.429  0.00  0.00    -0.090 HD
ATOM     21  H   LIG d   1      -2.013  94.838 117.962  0.00  0.00    -0.090 HD
ENDBRANCH   5  18
BRANCH   3  22
ATOM     22  C   LIG d   1      -6.296  91.540 116.858  0.00  0.00     0.382 C 
ATOM     23  O   LIG d   1      -7.168  92.407 117.107  0.00  0.00    -0.241 OA
ATOM     24  O   LIG d   1      -6.644  90.424 116.430  0.00  0.00    -0.241 OA
ENDBRANCH   3  22
TORSDOF 7
ENDMDL
MODEL 3
REMARK VINA RESULT:      -4.5      4.062      7.228
REMARK  7 active torsions:
REMARK  status: ('A' for Active; 'I' for Inactive)
REMARK    1  A    between atoms: C_2  and  C_3 
REMARK    2  A    between atoms: C_3  and  O_6 
REMARK    3  A    between atoms: C_3  and  C_4 
REMARK    4  A    between atoms: C_7  and  O_6 
REMARK    5  A    between atoms: C_9  and  C_10 
REMARK    6  A    between atoms: N_15  and  C_14 
REMARK    7  A    between atoms: N_20  and  C_19 
REMARK       I    between atoms: C_22  and  N_20 
ROOT
ATOM      1  C   LIG d   1       0.372  89.936 116.554  0.00  0.00     0.161 C 
ATOM      2  C   LIG d   1       1.724  90.284 116.705  0.00  0.00     0.016 C 
ATOM      3  C   LIG d   1       2.155  91.532 117.210  0.00  0.00     0.038 C 
ATOM      4  C   LIG d   1       1.255  92.466 117.744  0.00  0.00     0.028 C 
ATOM      5  C   LIG d   1      -0.145  92.366 117.149  0.00  0.00    -0.047 C 
ATOM      6  C   LIG d   1      -0.623  90.899 117.235  0.00  0.00     0.091 C 
ENDROOT
BRANCH   1   7
ATOM      7  O   LIG d   1       0.159  88.587 117.017  0.00  0.00    -0.368 OA
BRANCH   7   8
ATOM      8  C   LIG d   1      -0.177  88.439 118.418  0.00  0.00     0.119 C 
BRANCH   8   9
ATOM      9  C   LIG d   1       0.991  87.701 119.100  0.00  0.00     0.028 C 
ATOM     10  C   LIG d   1       1.582  86.592 118.212  0.00  0.00     0.006 C 
ENDBRANCH   8   9
BRANCH   8  11
ATOM     11  C   LIG d   1      -1.396  87.531 118.606  0.00  0.00     0.028 C 
ATOM     12  C   LIG d   1      -2.033  87.105 117.274  0.00  0.00     0.006 C 
ENDBRANCH   8  11
ENDBRANCH   7   8
ENDBRANCH   1   7
BRANCH   6  13
ATOM     13  N   LIG d   1      -1.951  90.697 116.599  0.00  0.00    -0.311 N 
ATOM     14  C   LIG d   1      -3.098  90.710 117.276  0.00  0.00     0.210 C 
ATOM     15  C   LIG d   1      -4.351  90.462 116.430  0.00  0.00     0.109 C 
ATOM     16  O   LIG d   1      -3.200  90.936 118.491  0.00  0.00    -0.276 OA
ATOM     17  H   LIG d   1      -1.964  90.538 115.610  0.00  0.00     0.149 HD
ENDBRANCH   6  13
BRANCH   5  18
ATOM     18  N   LIG d   1      -1.012  93.301 117.891  0.00  0.00     0.381 N 
ATOM     19  H   LIG d   1      -1.221  94.096 117.320  0.00  0.00    -0.090 HD
ATOM     20  H   LIG d   1      -0.522  93.620 118.709  0.00  0.00    -0.090 HD
ATOM     21  H   LIG d   1      -1.856  92.844 118.158  0.00  0.00    -0.090 HD
ENDBRANCH   5  18
BRANCH   3  22
ATOM     22  C   LIG d   1       3.498  91.872 117.147  0.00  0.00     0.382 C 
ATOM     23  O   LIG d   1       3.865  93.034 117.446  0.00  0.00    -0.241 OA
ATOM     24  O   LIG d   1       4.341  91.045 116.753  0.00  0.00    -0.241 OA
ENDBRANCH   3  22
TORSDOF 7
ENDMDL
MODEL 4
REMARK VINA RESULT:      -4.3      2.335      4.157
REMARK  7 active torsions:
REMARK  status: ('A' for Active; 'I' for Inactive)
REMARK    1  A    between atoms: C_2  and  C_3 
REMARK    2  A    between atoms: C_3  and  O_6 
REMARK    3  A    between atoms: C_3  and  C_4 
REMARK    4  A    between atoms: C_7  and  O_6 
REMARK    5  A    between atoms: C_9  and  C_10 
REMARK    6  A    between atoms: N_15  and  C_14 
REMARK    7  A    between atoms: N_20  and  C_19 
REMARK       I    between atoms: C_22  and  N_20 
ROOT
ATOM      1  C   LIG d   1      -3.184  93.328 117.540  0.00  0.00     0.161 C 
ATOM      2  C   LIG d   1      -4.575  93.196 117.398  0.00  0.00     0.016 C 
ATOM      3  C   LIG d   1      -5.215  91.971 117.099  0.00  0.00     0.038 C 
ATOM      4  C   LIG d   1      -4.514  90.756 117.072  0.00  0.00     0.028 C 
ATOM      5  C   LIG d   1      -3.041  90.915 116.711  0.00  0.00    -0.047 C 
ATOM      6  C   LIG d   1      -2.413  91.993 117.624  0.00  0.00     0.091 C 
ENDROOT
BRANCH   1   7
ATOM      7  O   LIG d   1      -2.885  94.151 118.685  0.00  0.00    -0.368 OA
BRANCH   7   8
ATOM      8  C   LIG d   1      -3.978  94.955 119.194  0.00  0.00     0.119 C 
BRANCH   8   9
ATOM      9  C   LIG d   1      -3.574  96.434 119.043  0.00  0.00     0.028 C 
ATOM     10  C   LIG d   1      -4.789  97.376 119.031  0.00  0.00     0.006 C 
ENDBRANCH   8   9
BRANCH   8  11
ATOM     11  C   LIG d   1      -4.174  94.740 120.698  0.00  0.00     0.028 C 
ATOM     12  C   LIG d   1      -3.794  93.321 121.152  0.00  0.00     0.006 C 
ENDBRANCH   8  11
ENDBRANCH   7   8
ENDBRANCH   1   7
BRANCH   6  13
ATOM     13  N   LIG d   1      -0.994  92.271 117.280  0.00  0.00    -0.311 N 
ATOM     14  C   LIG d   1       0.035  91.677 117.882  0.00  0.00     0.210 C 
ATOM     15  C   LIG d   1       1.416  92.123 117.390  0.00  0.00     0.109 C 
ATOM     16  O   LIG d   1      -0.065  90.800 118.753  0.00  0.00    -0.276 OA
ATOM     17  H   LIG d   1      -0.823  92.947 116.562  0.00  0.00     0.149 HD
ENDBRANCH   6  13
BRANCH   5  18
ATOM     18  N   LIG d   1      -2.402  89.593 116.854  0.00  0.00     0.381 N 
ATOM     19  H   LIG d   1      -2.880  89.060 117.552  0.00  0.00    -0.090 HD
ATOM     20  H   LIG d   1      -1.451  89.722 117.152  0.00  0.00    -0.090 HD
ATOM     21  H   LIG d   1      -2.422  89.109 115.983  0.00  0.00    -0.090 HD
ENDBRANCH   5  18
BRANCH   3  22
ATOM     22  C   LIG d   1      -6.565  91.960 116.785  0.00  0.00     0.382 C 
ATOM     23  O   LIG d   1      -7.117  90.890 116.430  0.00  0.00    -0.241 OA
ATOM     24  O   LIG d   1      -7.228  93.014 116.808  0.00  0.00    -0.241 OA
ENDBRANCH   3  22
TORSDOF 7
ENDMDL
MODEL 5
REMARK VINA RESULT:      -4.3      2.249      4.060
REMARK  7 active torsions:
REMARK  status: ('A' for Active; 'I' for Inactive)
REMARK    1  A    between atoms: C_2  and  C_3 
REMARK    2  A    between atoms: C_3  and  O_6 
REMARK    3  A    between atoms: C_3  and  C_4 
REMARK    4  A    between atoms: C_7  and  O_6 
REMARK    5  A    between atoms: C_9  and  C_10 
REMARK    6  A    between atoms: N_15  and  C_14 
REMARK    7  A    between atoms: N_20  and  C_19 
REMARK       I    between atoms: C_22  and  N_20 
ROOT
ATOM      1  C   LIG d   1      -4.813  93.111 119.511  0.00  0.00     0.161 C 
ATOM      2  C   LIG d   1      -3.587  92.671 118.983  0.00  0.00     0.016 C 
ATOM      3  C   LIG d   1      -3.475  91.948 117.774  0.00  0.00     0.038 C 
ATOM      4  C   LIG d   1      -4.575  91.744 116.927  0.00  0.00     0.028 C 
ATOM      5  C   LIG d   1      -5.911  91.730 117.662  0.00  0.00    -0.047 C 
ATOM      6  C   LIG d   1      -6.011  92.995 118.546  0.00  0.00     0.091 C 
ENDROOT
BRANCH   1   7
ATOM      7  O   LIG d   1      -4.682  94.465 119.987  0.00  0.00    -0.368 OA
BRANCH   7   8
ATOM      8  C   LIG d   1      -4.837  95.508 118.993  0.00  0.00     0.119 C 
BRANCH   8   9
ATOM      9  C   LIG d   1      -3.552  96.357 119.009  0.00  0.00     0.028 C 
ATOM     10  C   LIG d   1      -3.025  96.597 120.434  0.00  0.00     0.006 C 
ENDBRANCH   8   9
BRANCH   8  11
ATOM     11  C   LIG d   1      -5.966  96.472 119.368  0.00  0.00     0.028 C 
ATOM     12  C   LIG d   1      -6.678  97.063 118.141  0.00  0.00     0.006 C 
ENDBRANCH   8  11
ENDBRANCH   7   8
ENDBRANCH   1   7
BRANCH   6  13
ATOM     13  N   LIG d   1      -7.252  93.018 119.364  0.00  0.00    -0.311 N 
ATOM     14  C   LIG d   1      -8.381  93.601 118.967  0.00  0.00     0.210 C 
ATOM     15  C   LIG d   1      -9.535  93.527 119.971  0.00  0.00     0.109 C 
ATOM     16  O   LIG d   1      -8.546  94.146 117.864  0.00  0.00    -0.276 OA
ATOM     17  H   LIG d   1      -7.215  92.572 120.260  0.00  0.00     0.149 HD
ENDBRANCH   6  13
BRANCH   5  18
ATOM     18  N   LIG d   1      -6.978  91.648 116.647  0.00  0.00     0.381 N 
ATOM     19  H   LIG d   1      -6.641  91.999 115.773  0.00  0.00    -0.090 HD
ATOM     20  H   LIG d   1      -7.750  92.220 116.940  0.00  0.00    -0.090 HD
ATOM     21  H   LIG d   1      -7.276  90.703 116.541  0.00  0.00    -0.090 HD
ENDBRANCH   5  18
BRANCH   3  22
ATOM     22  C   LIG d   1      -2.259  91.384 117.420  0.00  0.00     0.382 C 
ATOM     23  O   LIG d   1      -2.211  90.198 117.015  0.00  0.00    -0.241 OA
ATOM     24  O   LIG d   1      -1.202  92.033 117.543  0.00  0.00    -0.241 OA
ENDBRANCH   3  22
TORSDOF 7
ENDMDL
MODEL 6
REMARK VINA RESULT:      -4.2      2.832      5.826
REMARK  7 active torsions:
REMARK  status: ('A' for Active; 'I' for Inactive)
REMARK    1  A    between atoms: C_2  and  C_3 
REMARK    2  A    between atoms: C_3  and  O_6 
REMARK    3  A    between atoms: C_3  and  C_4 
REMARK    4  A    between atoms: C_7  and  O_6 
REMARK    5  A    between atoms: C_9  and  C_10 
REMARK    6  A    between atoms: N_15  and  C_14 
REMARK    7  A    between atoms: N_20  and  C_19 
REMARK       I    between atoms: C_22  and  N_20 
ROOT
ATOM      1  C   LIG d   1      -2.130  90.540 117.005  0.00  0.00     0.161 C 
ATOM      2  C   LIG d   1      -0.726  90.498 117.018  0.00  0.00     0.016 C 
ATOM      3  C   LIG d   1       0.081  91.569 117.467  0.00  0.00     0.038 C 
ATOM      4  C   LIG d   1      -0.469  92.705 118.078  0.00  0.00     0.028 C 
ATOM      5  C   LIG d   1      -1.893  93.008 117.625  0.00  0.00    -0.047 C 
ATOM      6  C   LIG d   1      -2.748  91.728 117.771  0.00  0.00     0.091 C 
ENDROOT
BRANCH   1   7
ATOM      7  O   LIG d   1      -2.661  89.295 117.498  0.00  0.00    -0.368 OA
BRANCH   7   8
ATOM      8  C   LIG d   1      -1.693  88.252 117.771  0.00  0.00     0.119 C 
BRANCH   8   9
ATOM      9  C   LIG d   1      -2.055  87.042 116.889  0.00  0.00     0.028 C 
ATOM     10  C   LIG d   1      -1.319  85.761 117.319  0.00  0.00     0.006 C 
ENDBRANCH   8   9
BRANCH   8  11
ATOM     11  C   LIG d   1      -1.806  87.751 119.214  0.00  0.00     0.028 C 
ATOM     12  C   LIG d   1      -1.189  88.722 120.233  0.00  0.00     0.006 C 
ENDBRANCH   8  11
ENDBRANCH   7   8
ENDBRANCH   1   7
BRANCH   6  13
ATOM     13  N   LIG d   1      -4.135  91.914 117.271  0.00  0.00    -0.311 N 
ATOM     14  C   LIG d   1      -5.172  92.176 118.064  0.00  0.00     0.210 C 
ATOM     15  C   LIG d   1      -6.519  92.311 117.346  0.00  0.00     0.109 C 
ATOM     16  O   LIG d   1      -5.100  92.343 119.291  0.00  0.00    -0.276 OA
ATOM     17  H   LIG d   1      -4.279  91.826 116.284  0.00  0.00     0.149 HD
ENDBRANCH   6  13
BRANCH   5  18
ATOM     18  N   LIG d   1      -2.391  94.132 118.441  0.00  0.00     0.381 N 
ATOM     19  H   LIG d   1      -2.266  94.991 117.944  0.00  0.00    -0.090 HD
ATOM     20  H   LIG d   1      -1.857  94.179 119.291  0.00  0.00    -0.090 HD
ATOM     21  H   LIG d   1      -3.355  93.999 118.652  0.00  0.00    -0.090 HD
ENDBRANCH   5  18
BRANCH   3  22
ATOM     22  C   LIG d   1       1.453  91.525 117.269  0.00  0.00     0.382 C 
ATOM     23  O   LIG d   1       2.031  90.421 117.126  0.00  0.00    -0.241 OA
ATOM     24  O   LIG d   1       2.125  92.574 117.277  0.00  0.00    -0.241 OA
ENDBRANCH   3  22
TORSDOF 7
ENDMDL
MODEL 7
REMARK VINA RESULT:      -4.2      2.350      4.106
REMARK  7 active torsions:
REMARK  status: ('A' for Active; 'I' for Inactive)
REMARK    1  A    between atoms: C_2  and  C_3 
REMARK    2  A    between atoms: C_3  and  O_6 
REMARK    3  A    between atoms: C_3  and  C_4 
REMARK    4  A    between atoms: C_7  and  O_6 
REMARK    5  A    between atoms: C_9  and  C_10 
REMARK    6  A    between atoms: N_15  and  C_14 
REMARK    7  A    between atoms: N_20  and  C_19 
REMARK       I    between atoms: C_22  and  N_20 
ROOT
ATOM      1  C   LIG d   1      -4.657  92.447 119.200  0.00  0.00     0.161 C 
ATOM      2  C   LIG d   1      -3.526  91.785 118.693  0.00  0.00     0.016 C 
ATOM      3  C   LIG d   1      -3.549  90.987 117.526  0.00  0.00     0.038 C 
ATOM      4  C   LIG d   1      -4.678  90.920 116.696  0.00  0.00     0.028 C 
ATOM      5  C   LIG d   1      -5.989  91.165 117.436  0.00  0.00    -0.047 C 
ATOM      6  C   LIG d   1      -5.870  92.475 118.247  0.00  0.00     0.091 C 
ENDROOT
BRANCH   1   7
ATOM      7  O   LIG d   1      -4.301  93.786 119.598  0.00  0.00    -0.368 OA
BRANCH   7   8
ATOM      8  C   LIG d   1      -4.361  94.065 121.019  0.00  0.00     0.119 C 
BRANCH   8   9
ATOM      9  C   LIG d   1      -4.865  95.511 121.185  0.00  0.00     0.028 C 
ATOM     10  C   LIG d   1      -5.665  95.998 119.966  0.00  0.00     0.006 C 
ENDBRANCH   8   9
BRANCH   8  11
ATOM     11  C   LIG d   1      -2.965  94.046 121.649  0.00  0.00     0.028 C 
ATOM     12  C   LIG d   1      -2.188  95.351 121.414  0.00  0.00     0.006 C 
ENDBRANCH   8  11
ENDBRANCH   7   8
ENDBRANCH   1   7
BRANCH   6  13
ATOM     13  N   LIG d   1      -7.080  92.746 119.067  0.00  0.00    -0.311 N 
ATOM     14  C   LIG d   1      -8.103  93.486 118.643  0.00  0.00     0.210 C 
ATOM     15  C   LIG d   1      -9.241  93.657 119.654  0.00  0.00     0.109 C 
ATOM     16  O   LIG d   1      -8.189  93.992 117.514  0.00  0.00    -0.276 OA
ATOM     17  H   LIG d   1      -7.107  92.348 119.985  0.00  0.00     0.149 HD
ENDBRANCH   6  13
BRANCH   5  18
ATOM     18  N   LIG d   1      -7.068  91.203 116.430  0.00  0.00     0.381 N 
ATOM     19  H   LIG d   1      -6.696  90.991 115.526  0.00  0.00    -0.090 HD
ATOM     20  H   LIG d   1      -7.455  92.130 116.404  0.00  0.00    -0.090 HD
ATOM     21  H   LIG d   1      -7.778  90.545 116.667  0.00  0.00    -0.090 HD
ENDBRANCH   5  18
BRANCH   3  22
ATOM     22  C   LIG d   1      -2.445  90.214 117.200  0.00  0.00     0.382 C 
ATOM     23  O   LIG d   1      -2.549  88.965 117.143  0.00  0.00    -0.241 OA
ATOM     24  O   LIG d   1      -1.336  90.747 117.006  0.00  0.00    -0.241 OA
ENDBRANCH   3  22
TORSDOF 7
ENDMDL
MODEL 8
REMARK VINA RESULT:      -4.1      2.657      5.263
REMARK  7 active torsions:
REMARK  status: ('A' for Active; 'I' for Inactive)
REMARK    1  A    between atoms: C_2  and  C_3 
REMARK    2  A    between atoms: C_3  and  O_6 
REMARK    3  A    between atoms: C_3  and  C_4 
REMARK    4  A    between atoms: C_7  and  O_6 
REMARK    5  A    between atoms: C_9  and  C_10 
REMARK    6  A    between atoms: N_15  and  C_14 
REMARK    7  A    between atoms: N_20  and  C_19 
REMARK       I    between atoms: C_22  and  N_20 
ROOT
ATOM      1  C   LIG d   1      -5.264  92.251 119.889  0.00  0.00     0.161 C 
ATOM      2  C   LIG d   1      -6.459  92.531 119.205  0.00  0.00     0.016 C 
ATOM      3  C   LIG d   1      -7.322  93.596 119.550  0.00  0.00     0.038 C 
ATOM      4  C   LIG d   1      -6.970  94.553 120.514  0.00  0.00     0.028 C 
ATOM      5  C   LIG d   1      -6.012  94.020 121.574  0.00  0.00    -0.047 C 
ATOM      6  C   LIG d   1      -4.809  93.350 120.871  0.00  0.00     0.091 C 
ENDROOT
BRANCH   1   7
ATOM      7  O   LIG d   1      -4.216  91.960 118.943  0.00  0.00    -0.368 OA
BRANCH   7   8
ATOM      8  C   LIG d   1      -4.166  92.805 117.767  0.00  0.00     0.119 C 
BRANCH   8   9
ATOM      9  C   LIG d   1      -4.214  91.885 116.532  0.00  0.00     0.028 C 
ATOM     10  C   LIG d   1      -4.076  90.399 116.903  0.00  0.00     0.006 C 
ENDBRANCH   8   9
BRANCH   8  11
ATOM     11  C   LIG d   1      -2.828  93.545 117.670  0.00  0.00     0.028 C 
ATOM     12  C   LIG d   1      -1.697  92.834 118.429  0.00  0.00     0.006 C 
ENDBRANCH   8  11
ENDBRANCH   7   8
ENDBRANCH   1   7
BRANCH   6  13
ATOM     13  N   LIG d   1      -3.864  92.728 121.835  0.00  0.00    -0.311 N 
ATOM     14  C   LIG d   1      -2.649  93.214 122.088  0.00  0.00     0.210 C 
ATOM     15  C   LIG d   1      -1.829  92.408 123.101  0.00  0.00     0.109 C 
ATOM     16  O   LIG d   1      -2.186  94.252 121.594  0.00  0.00    -0.276 OA
ATOM     17  H   LIG d   1      -4.171  91.899 122.305  0.00  0.00     0.149 HD
ENDBRANCH   6  13
BRANCH   5  18
ATOM     18  N   LIG d   1      -5.621  95.155 122.432  0.00  0.00     0.381 N 
ATOM     19  H   LIG d   1      -5.469  94.835 123.368  0.00  0.00    -0.090 HD
ATOM     20  H   LIG d   1      -6.370  95.825 122.446  0.00  0.00    -0.090 HD
ATOM     21  H   LIG d   1      -4.792  95.580 122.079  0.00  0.00    -0.090 HD
ENDBRANCH   5  18
BRANCH   3  22
ATOM     22  C   LIG d   1      -8.571  93.689 118.955  0.00  0.00     0.382 C 
ATOM     23  O   LIG d   1      -9.580  93.229 119.541  0.00  0.00    -0.241 OA
ATOM     24  O   LIG d   1      -8.695  94.188 117.820  0.00  0.00    -0.241 OA
ENDBRANCH   3  22
TORSDOF 7
ENDMDL
MODEL 9
REMARK VINA RESULT:      -4.1      2.307      4.168
REMARK  7 active torsions:
REMARK  status: ('A' for Active; 'I' for Inactive)
REMARK    1  A    between atoms: C_2  and  C_3 
REMARK    2  A    between atoms: C_3  and  O_6 
REMARK    3  A    between atoms: C_3  and  C_4 
REMARK    4  A    between atoms: C_7  and  O_6 
REMARK    5  A    between atoms: C_9  and  C_10 
REMARK    6  A    between atoms: N_15  and  C_14 
REMARK    7  A    between atoms: N_20  and  C_19 
REMARK       I    between atoms: C_22  and  N_20 
ROOT
ATOM      1  C   LIG d   1      -5.230  92.873 119.472  0.00  0.00     0.161 C 
ATOM      2  C   LIG d   1      -4.427  91.950 118.780  0.00  0.00     0.016 C 
ATOM      3  C   LIG d   1      -4.607  91.633 117.414  0.00  0.00     0.038 C 
ATOM      4  C   LIG d   1      -5.512  92.335 116.603  0.00  0.00     0.028 C 
ATOM      5  C   LIG d   1      -6.689  92.920 117.375  0.00  0.00    -0.047 C 
ATOM      6  C   LIG d   1      -6.149  93.729 118.576  0.00  0.00     0.091 C 
ENDROOT
BRANCH   1   7
ATOM      7  O   LIG d   1      -4.403  93.719 120.295  0.00  0.00    -0.368 OA
BRANCH   7   8
ATOM      8  C   LIG d   1      -3.183  94.207 119.684  0.00  0.00     0.119 C 
BRANCH   8   9
ATOM      9  C   LIG d   1      -2.092  94.219 120.772  0.00  0.00     0.028 C 
ATOM     10  C   LIG d   1      -1.770  92.809 121.295  0.00  0.00     0.006 C 
ENDBRANCH   8   9
BRANCH   8  11
ATOM     11  C   LIG d   1      -3.328  95.665 119.239  0.00  0.00     0.028 C 
ATOM     12  C   LIG d   1      -4.205  96.494 120.192  0.00  0.00     0.006 C 
ENDBRANCH   8  11
ENDBRANCH   7   8
ENDBRANCH   1   7
BRANCH   6  13
ATOM     13  N   LIG d   1      -7.238  94.266 119.433  0.00  0.00    -0.311 N 
ATOM     14  C   LIG d   1      -7.774  95.474 119.266  0.00  0.00     0.210 C 
ATOM     15  C   LIG d   1      -8.871  95.840 120.272  0.00  0.00     0.109 C 
ATOM     16  O   LIG d   1      -7.468  96.265 118.361  0.00  0.00    -0.276 OA
ATOM     17  H   LIG d   1      -7.569  93.678 120.173  0.00  0.00     0.149 HD
ENDBRANCH   6  13
BRANCH   5  18
ATOM     18  N   LIG d   1      -7.476  93.738 116.434  0.00  0.00     0.381 N 
ATOM     19  H   LIG d   1      -8.445  93.705 116.684  0.00  0.00    -0.090 HD
ATOM     20  H   LIG d   1      -7.376  93.358 115.509  0.00  0.00    -0.090 HD
ATOM     21  H   LIG d   1      -7.154  94.681 116.449  0.00  0.00    -0.090 HD
ENDBRANCH   5  18
BRANCH   3  22
ATOM     22  C   LIG d   1      -3.904  90.576 116.856  0.00  0.00     0.382 C 
ATOM     23  O   LIG d   1      -4.520  89.569 116.430  0.00  0.00    -0.241 OA
ATOM     24  O   LIG d   1      -2.660  90.598 116.812  0.00  0.00    -0.241 OA
ENDBRANCH   3  22
TORSDOF 7
ENDMDL
