MODEL 1
REMARK VINA RESULT:      -4.5      0.000      0.000
REMARK  7 active torsions:
REMARK  status: ('A' for Active; 'I' for Inactive)
REMARK    1  A    between atoms: C_2  and  C_3 
REMARK    2  A    between atoms: C_3  and  O_6 
REMARK    3  A    between atoms: C_3  and  C_4 
REMARK    4  A    between atoms: C_7  and  O_6 
REMARK    5  A    between atoms: C_9  and  C_10 
REMARK    6  A    between atoms: N_15  and  C_14 
REMARK    7  A    between atoms: N_20  and  C_19 
REMARK       I    between atoms: C_22  and  N_20 
ROOT
ATOM      1  C   LIG d   1      -5.416  93.298 119.992  0.00  0.00     0.161 C 
ATOM      2  C   LIG d   1      -4.133  93.012 119.498  0.00  0.00     0.016 C 
ATOM      3  C   LIG d   1      -3.896  92.473 118.213  0.00  0.00     0.038 C 
ATOM      4  C   LIG d   1      -4.925  92.324 117.271  0.00  0.00     0.028 C 
ATOM      5  C   LIG d   1      -6.300  92.126 117.901  0.00  0.00    -0.047 C 
ATOM      6  C   LIG d   1      -6.542  93.246 118.938  0.00  0.00     0.091 C 
ENDROOT
BRANCH   1   7
ATOM      7  O   LIG d   1      -5.410  94.578 120.656  0.00  0.00    -0.368 OA
BRANCH   7   8
ATOM      8  C   LIG d   1      -5.357  95.742 119.795  0.00  0.00     0.119 C 
BRANCH   8   9
ATOM      9  C   LIG d   1      -4.141  96.584 120.230  0.00  0.00     0.028 C 
ATOM     10  C   LIG d   1      -3.021  96.586 119.176  0.00  0.00     0.006 C 
ENDBRANCH   8   9
BRANCH   8  11
ATOM     11  C   LIG d   1      -6.574  96.647 120.006  0.00  0.00     0.028 C 
ATOM     12  C   LIG d   1      -7.176  97.153 118.685  0.00  0.00     0.006 C 
ENDBRANCH   8  11
ENDBRANCH   7   8
ENDBRANCH   1   7
BRANCH   6  13
ATOM     13  N   LIG d   1      -7.829  93.080 119.662  0.00  0.00    -0.311 N 
ATOM     14  C   LIG d   1      -8.977  93.613 119.248  0.00  0.00     0.210 C 
ATOM     15  C   LIG d   1     -10.182  93.336 120.153  0.00  0.00     0.109 C 
ATOM     16  O   LIG d   1      -9.119  94.263 118.201  0.00  0.00    -0.276 OA
ATOM     17  H   LIG d   1      -7.811  92.541 120.505  0.00  0.00     0.149 HD
ENDBRANCH   6  13
BRANCH   5  18
ATOM     18  N   LIG d   1      -7.293  92.123 116.810  0.00  0.00     0.381 N 
ATOM     19  H   LIG d   1      -8.178  92.433 117.158  0.00  0.00    -0.090 HD
ATOM     20  H   LIG d   1      -7.400  91.183 116.471  0.00  0.00    -0.090 HD
ATOM     21  H   LIG d   1      -6.991  92.719 116.071  0.00  0.00    -0.090 HD
ENDBRANCH   5  18
BRANCH   3  22
ATOM     22  C   LIG d   1      -2.624  92.039 117.873  0.00  0.00     0.382 C 
ATOM     23  O   LIG d   1      -1.660  92.842 117.899  0.00  0.00    -0.241 OA
ATOM     24  O   LIG d   1      -2.435  90.867 117.497  0.00  0.00    -0.241 OA
ENDBRANCH   3  22
TORSDOF 7
ENDMDL
MODEL 2
REMARK VINA RESULT:      -4.4      2.301      3.735
REMARK  7 active torsions:
REMARK  status: ('A' for Active; 'I' for Inactive)
REMARK    1  A    between atoms: C_2  and  C_3 
REMARK    2  A    between atoms: C_3  and  O_6 
REMARK    3  A    between atoms: C_3  and  C_4 
REMARK    4  A    between atoms: C_7  and  O_6 
REMARK    5  A    between atoms: C_9  and  C_10 
REMARK    6  A    between atoms: N_15  and  C_14 
REMARK    7  A    between atoms: N_20  and  C_19 
REMARK       I    between atoms: C_22  and  N_20 
ROOT
ATOM      1  C   LIG d   1      -6.170  93.609 119.810  0.00  0.00     0.161 C 
ATOM      2  C   LIG d   1      -5.970  92.570 118.885  0.00  0.00     0.016 C 
ATOM      3  C   LIG d   1      -6.763  92.395 117.728  0.00  0.00     0.038 C 
ATOM      4  C   LIG d   1      -7.720  93.342 117.335  0.00  0.00     0.028 C 
ATOM      5  C   LIG d   1      -8.299  94.137 118.500  0.00  0.00    -0.047 C 
ATOM      6  C   LIG d   1      -7.137  94.715 119.340  0.00  0.00     0.091 C 
ENDROOT
BRANCH   1   7
ATOM      7  O   LIG d   1      -4.901  94.179 120.186  0.00  0.00    -0.368 OA
BRANCH   7   8
ATOM      8  C   LIG d   1      -3.723  93.511 119.670  0.00  0.00     0.119 C 
BRANCH   8   9
ATOM      9  C   LIG d   1      -2.924  92.984 120.878  0.00  0.00     0.028 C 
ATOM     10  C   LIG d   1      -2.523  91.508 120.718  0.00  0.00     0.006 C 
ENDBRANCH   8   9
BRANCH   8  11
ATOM     11  C   LIG d   1      -2.788  94.496 118.963  0.00  0.00     0.028 C 
ATOM     12  C   LIG d   1      -2.104  93.886 117.729  0.00  0.00     0.006 C 
ENDBRANCH   8  11
ENDBRANCH   7   8
ENDBRANCH   1   7
BRANCH   6  13
ATOM     13  N   LIG d   1      -7.616  95.437 120.548  0.00  0.00    -0.311 N 
ATOM     14  C   LIG d   1      -7.994  96.714 120.537  0.00  0.00     0.210 C 
ATOM     15  C   LIG d   1      -8.433  97.270 121.895  0.00  0.00     0.109 C 
ATOM     16  O   LIG d   1      -8.038  97.430 119.526  0.00  0.00    -0.276 OA
ATOM     17  H   LIG d   1      -7.642  94.922 121.407  0.00  0.00     0.149 HD
ENDBRANCH   6  13
BRANCH   5  18
ATOM     18  N   LIG d   1      -9.178  95.179 117.936  0.00  0.00     0.381 N 
ATOM     19  H   LIG d   1      -9.466  94.916 117.014  0.00  0.00    -0.090 HD
ATOM     20  H   LIG d   1      -8.664  96.039 117.872  0.00  0.00    -0.090 HD
ATOM     21  H   LIG d   1      -9.977  95.303 118.518  0.00  0.00    -0.090 HD
ENDBRANCH   5  18
BRANCH   3  22
ATOM     22  C   LIG d   1      -6.628  91.241 116.971  0.00  0.00     0.382 C 
ATOM     23  O   LIG d   1      -7.637  90.723 116.433  0.00  0.00    -0.241 OA
ATOM     24  O   LIG d   1      -5.519  90.687 116.855  0.00  0.00    -0.241 OA
ENDBRANCH   3  22
TORSDOF 7
ENDMDL
MODEL 3
REMARK VINA RESULT:      -4.4      2.750      3.868
REMARK  7 active torsions:
REMARK  status: ('A' for Active; 'I' for Inactive)
REMARK    1  A    between atoms: C_2  and  C_3 
REMARK    2  A    between atoms: C_3  and  O_6 
REMARK    3  A    between atoms: C_3  and  C_4 
REMARK    4  A    between atoms: C_7  and  O_6 
REMARK    5  A    between atoms: C_9  and  C_10 
REMARK    6  A    between atoms: N_15  and  C_14 
REMARK    7  A    between atoms: N_20  and  C_19 
REMARK       I    between atoms: C_22  and  N_20 
ROOT
ATOM      1  C   LIG d   1      -7.976  93.304 120.482  0.00  0.00     0.161 C 
ATOM      2  C   LIG d   1      -7.319  92.521 119.518  0.00  0.00     0.016 C 
ATOM      3  C   LIG d   1      -7.315  92.828 118.138  0.00  0.00     0.038 C 
ATOM      4  C   LIG d   1      -7.844  94.030 117.644  0.00  0.00     0.028 C 
ATOM      5  C   LIG d   1      -8.957  94.604 118.514  0.00  0.00    -0.047 C 
ATOM      6  C   LIG d   1      -8.464  94.677 119.977  0.00  0.00     0.091 C 
ENDROOT
BRANCH   1   7
ATOM      7  O   LIG d   1      -7.130  93.467 121.638  0.00  0.00    -0.368 OA
BRANCH   7   8
ATOM      8  C   LIG d   1      -5.704  93.492 121.385  0.00  0.00     0.119 C 
BRANCH   8   9
ATOM      9  C   LIG d   1      -5.021  92.684 122.506  0.00  0.00     0.028 C 
ATOM     10  C   LIG d   1      -5.929  92.500 123.733  0.00  0.00     0.006 C 
ENDBRANCH   8   9
BRANCH   8  11
ATOM     11  C   LIG d   1      -5.141  94.911 121.509  0.00  0.00     0.028 C 
ATOM     12  C   LIG d   1      -4.725  95.507 120.154  0.00  0.00     0.006 C 
ENDBRANCH   8  11
ENDBRANCH   7   8
ENDBRANCH   1   7
BRANCH   6  13
ATOM     13  N   LIG d   1      -9.522  95.150 120.908  0.00  0.00    -0.311 N 
ATOM     14  C   LIG d   1      -9.368  96.190 121.725  0.00  0.00     0.210 C 
ATOM     15  C   LIG d   1     -10.575  96.496 122.617  0.00  0.00     0.109 C 
ATOM     16  O   LIG d   1      -8.358  96.908 121.773  0.00  0.00    -0.276 OA
ATOM     17  H   LIG d   1     -10.385  94.643 120.912  0.00  0.00     0.149 HD
ENDBRANCH   6  13
BRANCH   5  18
ATOM     18  N   LIG d   1      -9.321  95.922 117.959  0.00  0.00     0.381 N 
ATOM     19  H   LIG d   1      -9.994  95.807 117.227  0.00  0.00    -0.090 HD
ATOM     20  H   LIG d   1      -8.500  96.348 117.569  0.00  0.00    -0.090 HD
ATOM     21  H   LIG d   1      -9.697  96.502 118.677  0.00  0.00    -0.090 HD
ENDBRANCH   5  18
BRANCH   3  22
ATOM     22  C   LIG d   1      -6.811  91.908 117.231  0.00  0.00     0.382 C 
ATOM     23  O   LIG d   1      -5.739  92.148 116.625  0.00  0.00    -0.241 OA
ATOM     24  O   LIG d   1      -7.438  90.862 116.978  0.00  0.00    -0.241 OA
ENDBRANCH   3  22
TORSDOF 7
ENDMDL
MODEL 4
REMARK VINA RESULT:      -4.3      2.075      5.076
REMARK  7 active torsions:
REMARK  status: ('A' for Active; 'I' for Inactive)
REMARK    1  A    between atoms: C_2  and  C_3 
REMARK    2  A    between atoms: C_3  and  O_6 
REMARK    3  A    between atoms: C_3  and  C_4 
REMARK    4  A    between atoms: C_7  and  O_6 
REMARK    5  A    between atoms: C_9  and  C_10 
REMARK    6  A    between atoms: N_15  and  C_14 
REMARK    7  A    between atoms: N_20  and  C_19 
REMARK       I    between atoms: C_22  and  N_20 
ROOT
ATOM      1  C   LIG d   1      -4.995  93.619 119.119  0.00  0.00     0.161 C 
ATOM      2  C   LIG d   1      -6.197  94.345 119.173  0.00  0.00     0.016 C 
ATOM      3  C   LIG d   1      -7.330  94.034 118.386  0.00  0.00     0.038 C 
ATOM      4  C   LIG d   1      -7.389  92.876 117.596  0.00  0.00     0.028 C 
ATOM      5  C   LIG d   1      -6.021  92.394 117.124  0.00  0.00    -0.047 C 
ATOM      6  C   LIG d   1      -5.079  92.286 118.345  0.00  0.00     0.091 C 
ENDROOT
BRANCH   1   7
ATOM      7  O   LIG d   1      -4.500  93.393 120.453  0.00  0.00    -0.368 OA
BRANCH   7   8
ATOM      8  C   LIG d   1      -3.276  94.084 120.804  0.00  0.00     0.119 C 
BRANCH   8   9
ATOM      9  C   LIG d   1      -2.820  94.878 119.564  0.00  0.00     0.028 C 
ATOM     10  C   LIG d   1      -1.421  94.461 119.082  0.00  0.00     0.006 C 
ENDBRANCH   8   9
BRANCH   8  11
ATOM     11  C   LIG d   1      -2.142  93.096 121.093  0.00  0.00     0.028 C 
ATOM     12  C   LIG d   1      -2.651  91.687 121.432  0.00  0.00     0.006 C 
ENDBRANCH   8  11
ENDBRANCH   7   8
ENDBRANCH   1   7
BRANCH   6  13
ATOM     13  N   LIG d   1      -3.696  91.901 117.961  0.00  0.00    -0.311 N 
ATOM     14  C   LIG d   1      -3.268  90.640 117.929  0.00  0.00     0.210 C 
ATOM     15  C   LIG d   1      -1.800  90.466 117.526  0.00  0.00     0.109 C 
ATOM     16  O   LIG d   1      -3.973  89.648 118.166  0.00  0.00    -0.276 OA
ATOM     17  H   LIG d   1      -3.065  92.642 117.724  0.00  0.00     0.149 HD
ENDBRANCH   6  13
BRANCH   5  18
ATOM     18  N   LIG d   1      -6.217  91.107 116.430  0.00  0.00     0.381 N 
ATOM     19  H   LIG d   1      -6.936  91.201 115.740  0.00  0.00    -0.090 HD
ATOM     20  H   LIG d   1      -6.511  90.418 117.100  0.00  0.00    -0.090 HD
ATOM     21  H   LIG d   1      -5.367  90.820 115.998  0.00  0.00    -0.090 HD
ENDBRANCH   5  18
BRANCH   3  22
ATOM     22  C   LIG d   1      -8.405  94.909 118.354  0.00  0.00     0.382 C 
ATOM     23  O   LIG d   1      -9.565  94.470 118.169  0.00  0.00    -0.241 OA
ATOM     24  O   LIG d   1      -8.224  96.137 118.463  0.00  0.00    -0.241 OA
ENDBRANCH   3  22
TORSDOF 7
ENDMDL
MODEL 5
REMARK VINA RESULT:      -4.3      2.263      5.791
REMARK  7 active torsions:
REMARK  status: ('A' for Active; 'I' for Inactive)
REMARK    1  A    between atoms: C_2  and  C_3 
REMARK    2  A    between atoms: C_3  and  O_6 
REMARK    3  A    between atoms: C_3  and  C_4 
REMARK    4  A    between atoms: C_7  and  O_6 
REMARK    5  A    between atoms: C_9  and  C_10 
REMARK    6  A    between atoms: N_15  and  C_14 
REMARK    7  A    between atoms: N_20  and  C_19 
REMARK       I    between atoms: C_22  and  N_20 
ROOT
ATOM      1  C   LIG d   1      -5.547  93.288 120.085  0.00  0.00     0.161 C 
ATOM      2  C   LIG d   1      -6.906  93.084 119.795  0.00  0.00     0.016 C 
ATOM      3  C   LIG d   1      -7.763  94.104 119.323  0.00  0.00     0.038 C 
ATOM      4  C   LIG d   1      -7.279  95.370 118.961  0.00  0.00     0.028 C 
ATOM      5  C   LIG d   1      -6.014  95.772 119.712  0.00  0.00    -0.047 C 
ATOM      6  C   LIG d   1      -4.976  94.634 119.591  0.00  0.00     0.091 C 
ENDROOT
BRANCH   1   7
ATOM      7  O   LIG d   1      -4.767  92.192 119.566  0.00  0.00    -0.368 OA
BRANCH   7   8
ATOM      8  C   LIG d   1      -4.317  92.323 118.196  0.00  0.00     0.119 C 
BRANCH   8   9
ATOM      9  C   LIG d   1      -4.973  91.189 117.383  0.00  0.00     0.028 C 
ATOM     10  C   LIG d   1      -6.067  91.705 116.434  0.00  0.00     0.006 C 
ENDBRANCH   8   9
BRANCH   8  11
ATOM     11  C   LIG d   1      -2.809  92.085 118.079  0.00  0.00     0.028 C 
ATOM     12  C   LIG d   1      -2.166  91.671 119.413  0.00  0.00     0.006 C 
ENDBRANCH   8  11
ENDBRANCH   7   8
ENDBRANCH   1   7
BRANCH   6  13
ATOM     13  N   LIG d   1      -3.739  94.909 120.368  0.00  0.00    -0.311 N 
ATOM     14  C   LIG d   1      -2.631  95.414 119.828  0.00  0.00     0.210 C 
ATOM     15  C   LIG d   1      -1.464  95.602 120.803  0.00  0.00     0.109 C 
ATOM     16  O   LIG d   1      -2.515  95.755 118.641  0.00  0.00    -0.276 OA
ATOM     17  H   LIG d   1      -3.756  94.692 121.345  0.00  0.00     0.149 HD
ENDBRANCH   6  13
BRANCH   5  18
ATOM     18  N   LIG d   1      -5.543  97.048 119.140  0.00  0.00     0.381 N 
ATOM     19  H   LIG d   1      -4.560  97.149 119.301  0.00  0.00    -0.090 HD
ATOM     20  H   LIG d   1      -6.017  97.805 119.600  0.00  0.00    -0.090 HD
ATOM     21  H   LIG d   1      -5.731  97.073 118.162  0.00  0.00    -0.090 HD
ENDBRANCH   5  18
BRANCH   3  22
ATOM     22  C   LIG d   1      -9.128  93.875 119.245  0.00  0.00     0.382 C 
ATOM     23  O   LIG d   1      -9.658  92.995 119.966  0.00  0.00    -0.241 OA
ATOM     24  O   LIG d   1      -9.830  94.505 118.431  0.00  0.00    -0.241 OA
ENDBRANCH   3  22
TORSDOF 7
ENDMDL
MODEL 6
REMARK VINA RESULT:      -4.2      2.104      5.262
REMARK  7 active torsions:
REMARK  status: ('A' for Active; 'I' for Inactive)
REMARK    1  A    between atoms: C_2  and  C_3 
REMARK    2  A    between atoms: C_3  and  O_6 
REMARK    3  A    between atoms: C_3  and  C_4 
REMARK    4  A    between atoms: C_7  and  O_6 
REMARK    5  A    between atoms: C_9  and  C_10 
REMARK    6  A    between atoms: N_15  and  C_14 
REMARK    7  A    between atoms: N_20  and  C_19 
REMARK       I    between atoms: C_22  and  N_20 
ROOT
ATOM      1  C   LIG d   1      -6.020  93.500 120.442  0.00  0.00     0.161 C 
ATOM      2  C   LIG d   1      -7.327  93.407 120.948  0.00  0.00     0.016 C 
ATOM      3  C   LIG d   1      -8.465  93.209 120.132  0.00  0.00     0.038 C 
ATOM      4  C   LIG d   1      -8.355  92.937 118.760  0.00  0.00     0.028 C 
ATOM      5  C   LIG d   1      -7.098  93.521 118.126  0.00  0.00    -0.047 C 
ATOM      6  C   LIG d   1      -5.869  93.095 118.961  0.00  0.00     0.091 C 
ENDROOT
BRANCH   1   7
ATOM      7  O   LIG d   1      -5.121  92.730 121.266  0.00  0.00    -0.368 OA
BRANCH   7   8
ATOM      8  C   LIG d   1      -4.339  93.480 122.228  0.00  0.00     0.119 C 
BRANCH   8   9
ATOM      9  C   LIG d   1      -4.172  94.909 121.677  0.00  0.00     0.028 C 
ATOM     10  C   LIG d   1      -2.727  95.203 121.239  0.00  0.00     0.006 C 
ENDBRANCH   8   9
BRANCH   8  11
ATOM     11  C   LIG d   1      -2.918  92.921 122.347  0.00  0.00     0.028 C 
ATOM     12  C   LIG d   1      -2.766  91.537 121.698  0.00  0.00     0.006 C 
ENDBRANCH   8  11
ENDBRANCH   7   8
ENDBRANCH   1   7
BRANCH   6  13
ATOM     13  N   LIG d   1      -4.605  93.693 118.457  0.00  0.00    -0.311 N 
ATOM     14  C   LIG d   1      -3.519  92.979 118.170  0.00  0.00     0.210 C 
ATOM     15  C   LIG d   1      -2.318  93.795 117.684  0.00  0.00     0.109 C 
ATOM     16  O   LIG d   1      -3.446  91.743 118.242  0.00  0.00    -0.276 OA
ATOM     17  H   LIG d   1      -4.587  94.688 118.340  0.00  0.00     0.149 HD
ENDBRANCH   6  13
BRANCH   5  18
ATOM     18  N   LIG d   1      -7.041  93.047 116.730  0.00  0.00     0.381 N 
ATOM     19  H   LIG d   1      -7.128  92.050 116.707  0.00  0.00    -0.090 HD
ATOM     20  H   LIG d   1      -6.149  93.295 116.338  0.00  0.00    -0.090 HD
ATOM     21  H   LIG d   1      -7.773  93.464 116.198  0.00  0.00    -0.090 HD
ENDBRANCH   5  18
BRANCH   3  22
ATOM     22  C   LIG d   1      -9.732  93.321 120.682  0.00  0.00     0.382 C 
ATOM     23  O   LIG d   1     -10.701  93.660 119.960  0.00  0.00    -0.241 OA
ATOM     24  O   LIG d   1      -9.912  93.132 121.900  0.00  0.00    -0.241 OA
ENDBRANCH   3  22
TORSDOF 7
ENDMDL
MODEL 7
REMARK VINA RESULT:      -4.2      2.254      4.936
REMARK  7 active torsions:
REMARK  status: ('A' for Active; 'I' for Inactive)
REMARK    1  A    between atoms: C_2  and  C_3 
REMARK    2  A    between atoms: C_3  and  O_6 
REMARK    3  A    between atoms: C_3  and  C_4 
REMARK    4  A    between atoms: C_7  and  O_6 
REMARK    5  A    between atoms: C_9  and  C_10 
REMARK    6  A    between atoms: N_15  and  C_14 
REMARK    7  A    between atoms: N_20  and  C_19 
REMARK       I    between atoms: C_22  and  N_20 
ROOT
ATOM      1  C   LIG d   1      -5.041  93.631 119.248  0.00  0.00     0.161 C 
ATOM      2  C   LIG d   1      -6.247  94.351 119.234  0.00  0.00     0.016 C 
ATOM      3  C   LIG d   1      -7.322  94.054 118.365  0.00  0.00     0.038 C 
ATOM      4  C   LIG d   1      -7.321  92.913 117.549  0.00  0.00     0.028 C 
ATOM      5  C   LIG d   1      -5.922  92.445 117.163  0.00  0.00    -0.047 C 
ATOM      6  C   LIG d   1      -5.065  92.315 118.443  0.00  0.00     0.091 C 
ENDROOT
BRANCH   1   7
ATOM      7  O   LIG d   1      -4.638  93.379 120.608  0.00  0.00    -0.368 OA
BRANCH   7   8
ATOM      8  C   LIG d   1      -5.564  93.807 121.637  0.00  0.00     0.119 C 
BRANCH   8   9
ATOM      9  C   LIG d   1      -4.740  94.482 122.750  0.00  0.00     0.028 C 
ATOM     10  C   LIG d   1      -5.327  95.838 123.175  0.00  0.00     0.006 C 
ENDBRANCH   8   9
BRANCH   8  11
ATOM     11  C   LIG d   1      -6.245  92.609 122.307  0.00  0.00     0.028 C 
ATOM     12  C   LIG d   1      -7.768  92.596 122.097  0.00  0.00     0.006 C 
ENDBRANCH   8  11
ENDBRANCH   7   8
ENDBRANCH   1   7
BRANCH   6  13
ATOM     13  N   LIG d   1      -3.657  91.942 118.147  0.00  0.00    -0.311 N 
ATOM     14  C   LIG d   1      -3.246  90.684 118.006  0.00  0.00     0.210 C 
ATOM     15  C   LIG d   1      -1.749  90.520 117.724  0.00  0.00     0.109 C 
ATOM     16  O   LIG d   1      -3.984  89.688 118.055  0.00  0.00    -0.276 OA
ATOM     17  H   LIG d   1      -2.996  92.690 118.060  0.00  0.00     0.149 HD
ENDBRANCH   6  13
BRANCH   5  18
ATOM     18  N   LIG d   1      -6.063  91.172 116.430  0.00  0.00     0.381 N 
ATOM     19  H   LIG d   1      -5.287  90.576 116.634  0.00  0.00    -0.090 HD
ATOM     20  H   LIG d   1      -6.064  91.364 115.444  0.00  0.00    -0.090 HD
ATOM     21  H   LIG d   1      -6.914  90.723 116.689  0.00  0.00    -0.090 HD
ENDBRANCH   5  18
BRANCH   3  22
ATOM     22  C   LIG d   1      -8.396  94.926 118.277  0.00  0.00     0.382 C 
ATOM     23  O   LIG d   1      -8.201  96.165 118.296  0.00  0.00    -0.241 OA
ATOM     24  O   LIG d   1      -9.561  94.489 118.223  0.00  0.00    -0.241 OA
ENDBRANCH   3  22
TORSDOF 7
ENDMDL
MODEL 8
REMARK VINA RESULT:      -4.1      2.668      5.082
REMARK  7 active torsions:
REMARK  status: ('A' for Active; 'I' for Inactive)
REMARK    1  A    between atoms: C_2  and  C_3 
REMARK    2  A    between atoms: C_3  and  O_6 
REMARK    3  A    between atoms: C_3  and  C_4 
REMARK    4  A    between atoms: C_7  and  O_6 
REMARK    5  A    between atoms: C_9  and  C_10 
REMARK    6  A    between atoms: N_15  and  C_14 
REMARK    7  A    between atoms: N_20  and  C_19 
REMARK       I    between atoms: C_22  and  N_20 
ROOT
ATOM      1  C   LIG d   1      -4.430  93.418 119.094  0.00  0.00     0.161 C 
ATOM      2  C   LIG d   1      -5.663  93.048 118.530  0.00  0.00     0.016 C 
ATOM      3  C   LIG d   1      -5.808  91.992 117.602  0.00  0.00     0.038 C 
ATOM      4  C   LIG d   1      -4.746  91.131 117.286  0.00  0.00     0.028 C 
ATOM      5  C   LIG d   1      -3.374  91.778 117.443  0.00  0.00    -0.047 C 
ATOM      6  C   LIG d   1      -3.280  92.420 118.846  0.00  0.00     0.091 C 
ENDROOT
BRANCH   1   7
ATOM      7  O   LIG d   1      -4.591  93.658 120.506  0.00  0.00    -0.368 OA
BRANCH   7   8
ATOM      8  C   LIG d   1      -5.948  93.869 120.966  0.00  0.00     0.119 C 
BRANCH   8   9
ATOM      9  C   LIG d   1      -6.012  95.276 121.591  0.00  0.00     0.028 C 
ATOM     10  C   LIG d   1      -6.112  96.385 120.530  0.00  0.00     0.006 C 
ENDBRANCH   8   9
BRANCH   8  11
ATOM     11  C   LIG d   1      -6.307  92.905 122.101  0.00  0.00     0.028 C 
ATOM     12  C   LIG d   1      -7.787  92.489 122.084  0.00  0.00     0.006 C 
ENDBRANCH   8  11
ENDBRANCH   7   8
ENDBRANCH   1   7
BRANCH   6  13
ATOM     13  N   LIG d   1      -2.001  93.147 119.052  0.00  0.00    -0.311 N 
ATOM     14  C   LIG d   1      -0.924  92.595 119.609  0.00  0.00     0.210 C 
ATOM     15  C   LIG d   1       0.284  93.527 119.745  0.00  0.00     0.109 C 
ATOM     16  O   LIG d   1      -0.845  91.412 119.975  0.00  0.00    -0.276 OA
ATOM     17  H   LIG d   1      -1.967  94.103 118.756  0.00  0.00     0.149 HD
ENDBRANCH   6  13
BRANCH   5  18
ATOM     18  N   LIG d   1      -2.360  90.731 117.217  0.00  0.00     0.381 N 
ATOM     19  H   LIG d   1      -1.779  90.641 118.027  0.00  0.00    -0.090 HD
ATOM     20  H   LIG d   1      -1.780  91.003 116.442  0.00  0.00    -0.090 HD
ATOM     21  H   LIG d   1      -2.804  89.862 117.020  0.00  0.00    -0.090 HD
ENDBRANCH   5  18
BRANCH   3  22
ATOM     22  C   LIG d   1      -7.017  91.814 116.948  0.00  0.00     0.382 C 
ATOM     23  O   LIG d   1      -7.505  90.663 116.835  0.00  0.00    -0.241 OA
ATOM     24  O   LIG d   1      -7.605  92.783 116.430  0.00  0.00    -0.241 OA
ENDBRANCH   3  22
TORSDOF 7
ENDMDL
MODEL 9
REMARK VINA RESULT:      -4.1      2.427      5.622
REMARK  7 active torsions:
REMARK  status: ('A' for Active; 'I' for Inactive)
REMARK    1  A    between atoms: C_2  and  C_3 
REMARK    2  A    between atoms: C_3  and  O_6 
REMARK    3  A    between atoms: C_3  and  C_4 
REMARK    4  A    between atoms: C_7  and  O_6 
REMARK    5  A    between atoms: C_9  and  C_10 
REMARK    6  A    between atoms: N_15  and  C_14 
REMARK    7  A    between atoms: N_20  and  C_19 
REMARK       I    between atoms: C_22  and  N_20 
ROOT
ATOM      1  C   LIG d   1      -3.950  93.269 118.852  0.00  0.00     0.161 C 
ATOM      2  C   LIG d   1      -5.259  93.740 119.049  0.00  0.00     0.016 C 
ATOM      3  C   LIG d   1      -6.394  93.163 118.435  0.00  0.00     0.038 C 
ATOM      4  C   LIG d   1      -6.313  91.974 117.694  0.00  0.00     0.028 C 
ATOM      5  C   LIG d   1      -4.947  91.751 117.054  0.00  0.00    -0.047 C 
ATOM      6  C   LIG d   1      -3.854  91.905 118.136  0.00  0.00     0.091 C 
ENDROOT
BRANCH   1   7
ATOM      7  O   LIG d   1      -3.252  93.224 120.112  0.00  0.00    -0.368 OA
BRANCH   7   8
ATOM      8  C   LIG d   1      -3.598  92.127 120.994  0.00  0.00     0.119 C 
BRANCH   8   9
ATOM      9  C   LIG d   1      -4.022  92.736 122.345  0.00  0.00     0.028 C 
ATOM     10  C   LIG d   1      -5.547  92.726 122.540  0.00  0.00     0.006 C 
ENDBRANCH   8   9
BRANCH   8  11
ATOM     11  C   LIG d   1      -2.378  91.256 121.306  0.00  0.00     0.028 C 
ATOM     12  C   LIG d   1      -1.047  91.969 121.015  0.00  0.00     0.006 C 
ENDBRANCH   8  11
ENDBRANCH   7   8
ENDBRANCH   1   7
BRANCH   6  13
ATOM     13  N   LIG d   1      -2.482  91.786 117.578  0.00  0.00    -0.311 N 
ATOM     14  C   LIG d   1      -1.775  90.658 117.607  0.00  0.00     0.210 C 
ATOM     15  C   LIG d   1      -0.374  90.757 116.994  0.00  0.00     0.109 C 
ATOM     16  O   LIG d   1      -2.186  89.576 118.052  0.00  0.00    -0.276 OA
ATOM     17  H   LIG d   1      -2.083  92.608 117.169  0.00  0.00     0.149 HD
ENDBRANCH   6  13
BRANCH   5  18
ATOM     18  N   LIG d   1      -4.960  90.414 116.431  0.00  0.00     0.381 N 
ATOM     19  H   LIG d   1      -5.657  90.381 115.715  0.00  0.00    -0.090 HD
ATOM     20  H   LIG d   1      -5.193  89.732 117.131  0.00  0.00    -0.090 HD
ATOM     21  H   LIG d   1      -4.065  90.211 116.043  0.00  0.00    -0.090 HD
ENDBRANCH   5  18
BRANCH   3  22
ATOM     22  C   LIG d   1      -7.622  93.800 118.525  0.00  0.00     0.382 C 
ATOM     23  O   LIG d   1      -8.331  93.944 117.499  0.00  0.00    -0.241 OA
ATOM     24  O   LIG d   1      -8.010  94.273 119.610  0.00  0.00    -0.241 OA
ENDBRANCH   3  22
TORSDOF 7
ENDMDL
