MODEL 1
REMARK VINA RESULT:      -4.7      0.000      0.000
REMARK  7 active torsions:
REMARK  status: ('A' for Active; 'I' for Inactive)
REMARK    1  A    between atoms: C_2  and  C_3 
REMARK    2  A    between atoms: C_3  and  O_6 
REMARK    3  A    between atoms: C_3  and  C_4 
REMARK    4  A    between atoms: C_7  and  O_6 
REMARK    5  A    between atoms: C_9  and  C_10 
REMARK    6  A    between atoms: N_15  and  C_14 
REMARK    7  A    between atoms: N_20  and  C_19 
REMARK       I    between atoms: C_22  and  N_20 
ROOT
ATOM      1  C   LIG d   1      -4.185  92.625 119.300  0.00  0.00     0.161 C 
ATOM      2  C   LIG d   1      -4.528  91.482 118.560  0.00  0.00     0.016 C 
ATOM      3  C   LIG d   1      -5.600  91.444 117.639  0.00  0.00     0.038 C 
ATOM      4  C   LIG d   1      -6.313  92.599 117.282  0.00  0.00     0.028 C 
ATOM      5  C   LIG d   1      -6.330  93.662 118.376  0.00  0.00    -0.047 C 
ATOM      6  C   LIG d   1      -4.880  93.925 118.843  0.00  0.00     0.091 C 
ENDROOT
BRANCH   1   7
ATOM      7  O   LIG d   1      -2.754  92.796 119.300  0.00  0.00    -0.368 OA
BRANCH   7   8
ATOM      8  C   LIG d   1      -2.077  92.506 118.053  0.00  0.00     0.119 C 
BRANCH   8   9
ATOM      9  C   LIG d   1      -0.839  91.651 118.386  0.00  0.00     0.028 C 
ATOM     10  C   LIG d   1       0.241  91.732 117.293  0.00  0.00     0.006 C 
ENDBRANCH   8   9
BRANCH   8  11
ATOM     11  C   LIG d   1      -1.528  93.781 117.407  0.00  0.00     0.028 C 
ATOM     12  C   LIG d   1      -1.357  94.932 118.412  0.00  0.00     0.006 C 
ENDBRANCH   8  11
ENDBRANCH   7   8
ENDBRANCH   1   7
BRANCH   6  13
ATOM     13  N   LIG d   1      -4.814  94.891 119.970  0.00  0.00    -0.311 N 
ATOM     14  C   LIG d   1      -4.632  96.200 119.805  0.00  0.00     0.210 C 
ATOM     15  C   LIG d   1      -4.575  97.014 121.101  0.00  0.00     0.109 C 
ATOM     16  O   LIG d   1      -4.544  96.768 118.706  0.00  0.00    -0.276 OA
ATOM     17  H   LIG d   1      -4.908  94.520 120.895  0.00  0.00     0.149 HD
ENDBRANCH   6  13
BRANCH   5  18
ATOM     18  N   LIG d   1      -6.986  94.861 117.821  0.00  0.00     0.381 N 
ATOM     19  H   LIG d   1      -7.079  94.768 116.830  0.00  0.00    -0.090 HD
ATOM     20  H   LIG d   1      -6.410  95.663 118.010  0.00  0.00    -0.090 HD
ATOM     21  H   LIG d   1      -7.883  94.982 118.237  0.00  0.00    -0.090 HD
ENDBRANCH   5  18
BRANCH   3  22
ATOM     22  C   LIG d   1      -5.996  90.232 117.094  0.00  0.00     0.382 C 
ATOM     23  O   LIG d   1      -5.163  89.516 116.487  0.00  0.00    -0.241 OA
ATOM     24  O   LIG d   1      -7.184  89.866 117.162  0.00  0.00    -0.241 OA
ENDBRANCH   3  22
TORSDOF 7
ENDMDL
MODEL 2
REMARK VINA RESULT:      -4.6      2.285      4.508
REMARK  7 active torsions:
REMARK  status: ('A' for Active; 'I' for Inactive)
REMARK    1  A    between atoms: C_2  and  C_3 
REMARK    2  A    between atoms: C_3  and  O_6 
REMARK    3  A    between atoms: C_3  and  C_4 
REMARK    4  A    between atoms: C_7  and  O_6 
REMARK    5  A    between atoms: C_9  and  C_10 
REMARK    6  A    between atoms: N_15  and  C_14 
REMARK    7  A    between atoms: N_20  and  C_19 
REMARK       I    between atoms: C_22  and  N_20 
ROOT
ATOM      1  C   LIG d   1      -5.804  92.897 119.450  0.00  0.00     0.161 C 
ATOM      2  C   LIG d   1      -7.105  93.387 119.251  0.00  0.00     0.016 C 
ATOM      3  C   LIG d   1      -7.389  94.737 118.940  0.00  0.00     0.038 C 
ATOM      4  C   LIG d   1      -6.373  95.662 118.658  0.00  0.00     0.028 C 
ATOM      5  C   LIG d   1      -5.049  95.335 119.341  0.00  0.00    -0.047 C 
ATOM      6  C   LIG d   1      -4.677  93.866 119.037  0.00  0.00     0.091 C 
ENDROOT
BRANCH   1   7
ATOM      7  O   LIG d   1      -5.650  91.632 118.775  0.00  0.00    -0.368 OA
BRANCH   7   8
ATOM      8  C   LIG d   1      -5.054  91.683 117.455  0.00  0.00     0.119 C 
BRANCH   8   9
ATOM      9  C   LIG d   1      -6.179  91.442 116.431  0.00  0.00     0.028 C 
ATOM     10  C   LIG d   1      -6.706  89.997 116.466  0.00  0.00     0.006 C 
ENDBRANCH   8   9
BRANCH   8  11
ATOM     11  C   LIG d   1      -4.063  90.534 117.247  0.00  0.00     0.028 C 
ATOM     12  C   LIG d   1      -3.588  89.910 118.569  0.00  0.00     0.006 C 
ENDBRANCH   8  11
ENDBRANCH   7   8
ENDBRANCH   1   7
BRANCH   6  13
ATOM     13  N   LIG d   1      -3.437  93.439 119.736  0.00  0.00    -0.311 N 
ATOM     14  C   LIG d   1      -2.237  93.428 119.159  0.00  0.00     0.210 C 
ATOM     15  C   LIG d   1      -1.095  92.934 120.052  0.00  0.00     0.109 C 
ATOM     16  O   LIG d   1      -2.004  93.812 118.003  0.00  0.00    -0.276 OA
ATOM     17  H   LIG d   1      -3.530  93.142 120.688  0.00  0.00     0.149 HD
ENDBRANCH   6  13
BRANCH   5  18
ATOM     18  N   LIG d   1      -4.046  96.299 118.851  0.00  0.00     0.381 N 
ATOM     19  H   LIG d   1      -4.499  97.028 118.336  0.00  0.00    -0.090 HD
ATOM     20  H   LIG d   1      -3.412  95.823 118.233  0.00  0.00    -0.090 HD
ATOM     21  H   LIG d   1      -3.544  96.688 119.619  0.00  0.00    -0.090 HD
ENDBRANCH   5  18
BRANCH   3  22
ATOM     22  C   LIG d   1      -8.702  95.182 118.950  0.00  0.00     0.382 C 
ATOM     23  O   LIG d   1      -9.641  94.364 119.097  0.00  0.00    -0.241 OA
ATOM     24  O   LIG d   1      -8.962  96.387 118.768  0.00  0.00    -0.241 OA
ENDBRANCH   3  22
TORSDOF 7
ENDMDL
MODEL 3
REMARK VINA RESULT:      -4.6      2.604      6.240
REMARK  7 active torsions:
REMARK  status: ('A' for Active; 'I' for Inactive)
REMARK    1  A    between atoms: C_2  and  C_3 
REMARK    2  A    between atoms: C_3  and  O_6 
REMARK    3  A    between atoms: C_3  and  C_4 
REMARK    4  A    between atoms: C_7  and  O_6 
REMARK    5  A    between atoms: C_9  and  C_10 
REMARK    6  A    between atoms: N_15  and  C_14 
REMARK    7  A    between atoms: N_20  and  C_19 
REMARK       I    between atoms: C_22  and  N_20 
ROOT
ATOM      1  C   LIG d   1      -3.075  92.613 119.256  0.00  0.00     0.161 C 
ATOM      2  C   LIG d   1      -2.893  94.004 119.185  0.00  0.00     0.016 C 
ATOM      3  C   LIG d   1      -1.903  94.620 118.385  0.00  0.00     0.038 C 
ATOM      4  C   LIG d   1      -1.121  93.888 117.479  0.00  0.00     0.028 C 
ATOM      5  C   LIG d   1      -0.926  92.431 117.887  0.00  0.00    -0.047 C 
ATOM      6  C   LIG d   1      -2.306  91.805 118.190  0.00  0.00     0.091 C 
ENDROOT
BRANCH   1   7
ATOM      7  O   LIG d   1      -4.481  92.302 119.203  0.00  0.00    -0.368 OA
BRANCH   7   8
ATOM      8  C   LIG d   1      -5.248  92.988 118.183  0.00  0.00     0.119 C 
BRANCH   8   9
ATOM      9  C   LIG d   1      -6.539  93.507 118.845  0.00  0.00     0.028 C 
ATOM     10  C   LIG d   1      -7.074  94.782 118.172  0.00  0.00     0.006 C 
ENDBRANCH   8   9
BRANCH   8  11
ATOM     11  C   LIG d   1      -5.713  92.021 117.090  0.00  0.00     0.028 C 
ATOM     12  C   LIG d   1      -6.218  90.684 117.653  0.00  0.00     0.006 C 
ENDBRANCH   8  11
ENDBRANCH   7   8
ENDBRANCH   1   7
BRANCH   6  13
ATOM     13  N   LIG d   1      -2.199  90.405 118.678  0.00  0.00    -0.311 N 
ATOM     14  C   LIG d   1      -2.661  89.356 118.001  0.00  0.00     0.210 C 
ATOM     15  C   LIG d   1      -2.465  88.003 118.693  0.00  0.00     0.109 C 
ATOM     16  O   LIG d   1      -3.185  89.413 116.878  0.00  0.00    -0.276 OA
ATOM     17  H   LIG d   1      -1.759  90.264 119.566  0.00  0.00     0.149 HD
ENDBRANCH   6  13
BRANCH   5  18
ATOM     18  N   LIG d   1      -0.212  91.753 116.788  0.00  0.00     0.381 N 
ATOM     19  H   LIG d   1       0.776  91.847 116.917  0.00  0.00    -0.090 HD
ATOM     20  H   LIG d   1      -0.459  92.193 115.919  0.00  0.00    -0.090 HD
ATOM     21  H   LIG d   1      -0.461  90.789 116.764  0.00  0.00    -0.090 HD
ENDBRANCH   5  18
BRANCH   3  22
ATOM     22  C   LIG d   1      -1.660  95.978 118.517  0.00  0.00     0.382 C 
ATOM     23  O   LIG d   1      -2.570  96.805 118.266  0.00  0.00    -0.241 OA
ATOM     24  O   LIG d   1      -0.529  96.390 118.839  0.00  0.00    -0.241 OA
ENDBRANCH   3  22
TORSDOF 7
ENDMDL
MODEL 4
REMARK VINA RESULT:      -4.5      2.013      4.299
REMARK  7 active torsions:
REMARK  status: ('A' for Active; 'I' for Inactive)
REMARK    1  A    between atoms: C_2  and  C_3 
REMARK    2  A    between atoms: C_3  and  O_6 
REMARK    3  A    between atoms: C_3  and  C_4 
REMARK    4  A    between atoms: C_7  and  O_6 
REMARK    5  A    between atoms: C_9  and  C_10 
REMARK    6  A    between atoms: N_15  and  C_14 
REMARK    7  A    between atoms: N_20  and  C_19 
REMARK       I    between atoms: C_22  and  N_20 
ROOT
ATOM      1  C   LIG d   1      -5.309  93.272 118.860  0.00  0.00     0.161 C 
ATOM      2  C   LIG d   1      -5.957  92.115 118.398  0.00  0.00     0.016 C 
ATOM      3  C   LIG d   1      -5.300  91.089 117.680  0.00  0.00     0.038 C 
ATOM      4  C   LIG d   1      -3.908  91.081 117.506  0.00  0.00     0.028 C 
ATOM      5  C   LIG d   1      -3.288  92.474 117.515  0.00  0.00    -0.047 C 
ATOM      6  C   LIG d   1      -3.769  93.228 118.776  0.00  0.00     0.091 C 
ENDROOT
BRANCH   1   7
ATOM      7  O   LIG d   1      -5.729  93.563 120.208  0.00  0.00    -0.368 OA
BRANCH   7   8
ATOM      8  C   LIG d   1      -6.596  94.712 120.372  0.00  0.00     0.119 C 
BRANCH   8   9
ATOM      9  C   LIG d   1      -8.040  94.187 120.500  0.00  0.00     0.028 C 
ATOM     10  C   LIG d   1      -8.982  94.799 119.449  0.00  0.00     0.006 C 
ENDBRANCH   8   9
BRANCH   8  11
ATOM     11  C   LIG d   1      -6.595  95.594 119.120  0.00  0.00     0.028 C 
ATOM     12  C   LIG d   1      -5.907  96.949 119.347  0.00  0.00     0.006 C 
ENDBRANCH   8  11
ENDBRANCH   7   8
ENDBRANCH   1   7
BRANCH   6  13
ATOM     13  N   LIG d   1      -3.275  94.629 118.820  0.00  0.00    -0.311 N 
ATOM     14  C   LIG d   1      -2.139  94.988 119.415  0.00  0.00     0.210 C 
ATOM     15  C   LIG d   1      -1.827  96.487 119.363  0.00  0.00     0.109 C 
ATOM     16  O   LIG d   1      -1.344  94.203 119.954  0.00  0.00    -0.276 OA
ATOM     17  H   LIG d   1      -3.843  95.327 118.380  0.00  0.00     0.149 HD
ENDBRANCH   6  13
BRANCH   5  18
ATOM     18  N   LIG d   1      -1.823  92.310 117.463  0.00  0.00     0.381 N 
ATOM     19  H   LIG d   1      -1.580  91.660 116.742  0.00  0.00    -0.090 HD
ATOM     20  H   LIG d   1      -1.506  91.939 118.341  0.00  0.00    -0.090 HD
ATOM     21  H   LIG d   1      -1.387  93.188 117.288  0.00  0.00    -0.090 HD
ENDBRANCH   5  18
BRANCH   3  22
ATOM     22  C   LIG d   1      -6.044  90.077 117.093  0.00  0.00     0.382 C 
ATOM     23  O   LIG d   1      -7.288  90.039 117.253  0.00  0.00    -0.241 OA
ATOM     24  O   LIG d   1      -5.481  89.175 116.442  0.00  0.00    -0.241 OA
ENDBRANCH   3  22
TORSDOF 7
ENDMDL
MODEL 5
REMARK VINA RESULT:      -4.5      2.271      3.575
REMARK  7 active torsions:
REMARK  status: ('A' for Active; 'I' for Inactive)
REMARK    1  A    between atoms: C_2  and  C_3 
REMARK    2  A    between atoms: C_3  and  O_6 
REMARK    3  A    between atoms: C_3  and  C_4 
REMARK    4  A    between atoms: C_7  and  O_6 
REMARK    5  A    between atoms: C_9  and  C_10 
REMARK    6  A    between atoms: N_15  and  C_14 
REMARK    7  A    between atoms: N_20  and  C_19 
REMARK       I    between atoms: C_22  and  N_20 
ROOT
ATOM      1  C   LIG d   1      -3.997  92.367 118.989  0.00  0.00     0.161 C 
ATOM      2  C   LIG d   1      -3.025  91.512 118.444  0.00  0.00     0.016 C 
ATOM      3  C   LIG d   1      -3.337  90.388 117.645  0.00  0.00     0.038 C 
ATOM      4  C   LIG d   1      -4.645  90.129 117.208  0.00  0.00     0.028 C 
ATOM      5  C   LIG d   1      -5.716  90.674 118.147  0.00  0.00    -0.047 C 
ATOM      6  C   LIG d   1      -5.422  92.165 118.432  0.00  0.00     0.091 C 
ENDROOT
BRANCH   1   7
ATOM      7  O   LIG d   1      -3.586  93.739 118.828  0.00  0.00    -0.368 OA
BRANCH   7   8
ATOM      8  C   LIG d   1      -3.033  94.381 120.004  0.00  0.00     0.119 C 
BRANCH   8   9
ATOM      9  C   LIG d   1      -4.054  95.432 120.481  0.00  0.00     0.028 C 
ATOM     10  C   LIG d   1      -4.605  96.282 119.324  0.00  0.00     0.006 C 
ENDBRANCH   8   9
BRANCH   8  11
ATOM     11  C   LIG d   1      -1.766  95.171 119.663  0.00  0.00     0.028 C 
ATOM     12  C   LIG d   1      -1.244  94.878 118.248  0.00  0.00     0.006 C 
ENDBRANCH   8  11
ENDBRANCH   7   8
ENDBRANCH   1   7
BRANCH   6  13
ATOM     13  N   LIG d   1      -6.374  92.753 119.409  0.00  0.00    -0.311 N 
ATOM     14  C   LIG d   1      -7.240  93.717 119.100  0.00  0.00     0.210 C 
ATOM     15  C   LIG d   1      -8.118  94.195 120.261  0.00  0.00     0.109 C 
ATOM     16  O   LIG d   1      -7.387  94.198 117.966  0.00  0.00    -0.276 OA
ATOM     17  H   LIG d   1      -6.345  92.399 120.345  0.00  0.00     0.149 HD
ENDBRANCH   6  13
BRANCH   5  18
ATOM     18  N   LIG d   1      -7.025  90.456 117.503  0.00  0.00     0.381 N 
ATOM     19  H   LIG d   1      -7.311  89.506 117.631  0.00  0.00    -0.090 HD
ATOM     20  H   LIG d   1      -6.936  90.629 116.518  0.00  0.00    -0.090 HD
ATOM     21  H   LIG d   1      -7.704  91.071 117.896  0.00  0.00    -0.090 HD
ENDBRANCH   5  18
BRANCH   3  22
ATOM     22  C   LIG d   1      -2.339  89.487 117.306  0.00  0.00     0.382 C 
ATOM     23  O   LIG d   1      -1.195  89.903 117.005  0.00  0.00    -0.241 OA
ATOM     24  O   LIG d   1      -2.581  88.266 117.256  0.00  0.00    -0.241 OA
ENDBRANCH   3  22
TORSDOF 7
ENDMDL
MODEL 6
REMARK VINA RESULT:      -4.4      3.072      5.521
REMARK  7 active torsions:
REMARK  status: ('A' for Active; 'I' for Inactive)
REMARK    1  A    between atoms: C_2  and  C_3 
REMARK    2  A    between atoms: C_3  and  O_6 
REMARK    3  A    between atoms: C_3  and  C_4 
REMARK    4  A    between atoms: C_7  and  O_6 
REMARK    5  A    between atoms: C_9  and  C_10 
REMARK    6  A    between atoms: N_15  and  C_14 
REMARK    7  A    between atoms: N_20  and  C_19 
REMARK       I    between atoms: C_22  and  N_20 
ROOT
ATOM      1  C   LIG d   1      -2.061  90.678 117.684  0.00  0.00     0.161 C 
ATOM      2  C   LIG d   1      -0.708  90.528 118.032  0.00  0.00     0.016 C 
ATOM      3  C   LIG d   1       0.167  91.618 118.240  0.00  0.00     0.038 C 
ATOM      4  C   LIG d   1      -0.292  92.944 118.263  0.00  0.00     0.028 C 
ATOM      5  C   LIG d   1      -1.543  93.166 117.420  0.00  0.00    -0.047 C 
ATOM      6  C   LIG d   1      -2.606  92.115 117.814  0.00  0.00     0.091 C 
ENDROOT
BRANCH   1   7
ATOM      7  O   LIG d   1      -2.867  89.764 118.454  0.00  0.00    -0.368 OA
BRANCH   7   8
ATOM      8  C   LIG d   1      -2.314  89.341 119.724  0.00  0.00     0.119 C 
BRANCH   8   9
ATOM      9  C   LIG d   1      -2.574  87.828 119.861  0.00  0.00     0.028 C 
ATOM     10  C   LIG d   1      -1.278  87.002 119.805  0.00  0.00     0.006 C 
ENDBRANCH   8   9
BRANCH   8  11
ATOM     11  C   LIG d   1      -3.054  89.987 120.899  0.00  0.00     0.028 C 
ATOM     12  C   LIG d   1      -2.306  91.198 121.480  0.00  0.00     0.006 C 
ENDBRANCH   8  11
ENDBRANCH   7   8
ENDBRANCH   1   7
BRANCH   6  13
ATOM     13  N   LIG d   1      -3.832  92.208 116.978  0.00  0.00    -0.311 N 
ATOM     14  C   LIG d   1      -5.064  92.091 117.468  0.00  0.00     0.210 C 
ATOM     15  C   LIG d   1      -6.186  92.198 116.430  0.00  0.00     0.109 C 
ATOM     16  O   LIG d   1      -5.337  91.939 118.669  0.00  0.00    -0.276 OA
ATOM     17  H   LIG d   1      -3.704  92.361 115.996  0.00  0.00     0.149 HD
ENDBRANCH   6  13
BRANCH   5  18
ATOM     18  N   LIG d   1      -1.991  94.553 117.644  0.00  0.00     0.381 N 
ATOM     19  H   LIG d   1      -1.228  95.183 117.497  0.00  0.00    -0.090 HD
ATOM     20  H   LIG d   1      -2.297  94.646 118.597  0.00  0.00    -0.090 HD
ATOM     21  H   LIG d   1      -2.738  94.775 117.024  0.00  0.00    -0.090 HD
ENDBRANCH   5  18
BRANCH   3  22
ATOM     22  C   LIG d   1       1.527  91.390 118.389  0.00  0.00     0.382 C 
ATOM     23  O   LIG d   1       2.021  91.275 119.537  0.00  0.00    -0.241 OA
ATOM     24  O   LIG d   1       2.272  91.341 117.393  0.00  0.00    -0.241 OA
ENDBRANCH   3  22
TORSDOF 7
ENDMDL
MODEL 7
REMARK VINA RESULT:      -4.2      2.788      4.880
REMARK  7 active torsions:
REMARK  status: ('A' for Active; 'I' for Inactive)
REMARK    1  A    between atoms: C_2  and  C_3 
REMARK    2  A    between atoms: C_3  and  O_6 
REMARK    3  A    between atoms: C_3  and  C_4 
REMARK    4  A    between atoms: C_7  and  O_6 
REMARK    5  A    between atoms: C_9  and  C_10 
REMARK    6  A    between atoms: N_15  and  C_14 
REMARK    7  A    between atoms: N_20  and  C_19 
REMARK       I    between atoms: C_22  and  N_20 
ROOT
ATOM      1  C   LIG d   1      -2.781  92.255 117.802  0.00  0.00     0.161 C 
ATOM      2  C   LIG d   1      -4.182  92.201 117.720  0.00  0.00     0.016 C 
ATOM      3  C   LIG d   1      -4.900  91.015 117.442  0.00  0.00     0.038 C 
ATOM      4  C   LIG d   1      -4.268  89.764 117.375  0.00  0.00     0.028 C 
ATOM      5  C   LIG d   1      -2.805  89.847 116.950  0.00  0.00    -0.047 C 
ATOM      6  C   LIG d   1      -2.081  90.881 117.842  0.00  0.00     0.091 C 
ENDROOT
BRANCH   1   7
ATOM      7  O   LIG d   1      -2.388  93.050 118.939  0.00  0.00    -0.368 OA
BRANCH   7   8
ATOM      8  C   LIG d   1      -3.010  94.355 119.049  0.00  0.00     0.119 C 
BRANCH   8   9
ATOM      9  C   LIG d   1      -1.997  95.395 118.534  0.00  0.00     0.028 C 
ATOM     10  C   LIG d   1      -2.470  96.840 118.765  0.00  0.00     0.006 C 
ENDBRANCH   8   9
BRANCH   8  11
ATOM     11  C   LIG d   1      -3.265  94.728 120.512  0.00  0.00     0.028 C 
ATOM     12  C   LIG d   1      -4.728  94.517 120.934  0.00  0.00     0.006 C 
ENDBRANCH   8  11
ENDBRANCH   7   8
ENDBRANCH   1   7
BRANCH   6  13
ATOM     13  N   LIG d   1      -0.665  91.085 117.439  0.00  0.00    -0.311 N 
ATOM     14  C   LIG d   1       0.370  90.786 118.221  0.00  0.00     0.210 C 
ATOM     15  C   LIG d   1       1.745  91.094 117.619  0.00  0.00     0.109 C 
ATOM     16  O   LIG d   1       0.282  90.266 119.344  0.00  0.00    -0.276 OA
ATOM     17  H   LIG d   1      -0.501  91.473 116.531  0.00  0.00     0.149 HD
ENDBRANCH   6  13
BRANCH   5  18
ATOM     18  N   LIG d   1      -2.233  88.491 117.055  0.00  0.00     0.381 N 
ATOM     19  H   LIG d   1      -2.258  88.186 118.008  0.00  0.00    -0.090 HD
ATOM     20  H   LIG d   1      -1.274  88.519 116.758  0.00  0.00    -0.090 HD
ATOM     21  H   LIG d   1      -2.748  87.858 116.483  0.00  0.00    -0.090 HD
ENDBRANCH   5  18
BRANCH   3  22
ATOM     22  C   LIG d   1      -6.261  91.079 117.187  0.00  0.00     0.382 C 
ATOM     23  O   LIG d   1      -6.987  90.079 117.404  0.00  0.00    -0.241 OA
ATOM     24  O   LIG d   1      -6.765  92.110 116.701  0.00  0.00    -0.241 OA
ENDBRANCH   3  22
TORSDOF 7
ENDMDL
MODEL 8
REMARK VINA RESULT:      -4.1      3.523      5.304
REMARK  7 active torsions:
REMARK  status: ('A' for Active; 'I' for Inactive)
REMARK    1  A    between atoms: C_2  and  C_3 
REMARK    2  A    between atoms: C_3  and  O_6 
REMARK    3  A    between atoms: C_3  and  C_4 
REMARK    4  A    between atoms: C_7  and  O_6 
REMARK    5  A    between atoms: C_9  and  C_10 
REMARK    6  A    between atoms: N_15  and  C_14 
REMARK    7  A    between atoms: N_20  and  C_19 
REMARK       I    between atoms: C_22  and  N_20 
ROOT
ATOM      1  C   LIG d   1      -2.922  90.250 119.281  0.00  0.00     0.161 C 
ATOM      2  C   LIG d   1      -4.263  90.221 118.864  0.00  0.00     0.016 C 
ATOM      3  C   LIG d   1      -4.814  91.148 117.948  0.00  0.00     0.038 C 
ATOM      4  C   LIG d   1      -4.017  92.080 117.268  0.00  0.00     0.028 C 
ATOM      5  C   LIG d   1      -2.758  92.474 118.034  0.00  0.00    -0.047 C 
ATOM      6  C   LIG d   1      -2.011  91.191 118.465  0.00  0.00     0.091 C 
ENDROOT
BRANCH   1   7
ATOM      7  O   LIG d   1      -2.384  88.913 119.287  0.00  0.00    -0.368 OA
BRANCH   7   8
ATOM      8  C   LIG d   1      -2.671  88.116 120.463  0.00  0.00     0.119 C 
BRANCH   8   9
ATOM      9  C   LIG d   1      -1.898  88.736 121.643  0.00  0.00     0.028 C 
ATOM     10  C   LIG d   1      -2.823  89.135 122.805  0.00  0.00     0.006 C 
ENDBRANCH   8   9
BRANCH   8  11
ATOM     11  C   LIG d   1      -2.120  86.694 120.320  0.00  0.00     0.028 C 
ATOM     12  C   LIG d   1      -2.709  85.720 121.353  0.00  0.00     0.006 C 
ENDBRANCH   8  11
ENDBRANCH   7   8
ENDBRANCH   1   7
BRANCH   6  13
ATOM     13  N   LIG d   1      -0.812  91.485 119.292  0.00  0.00    -0.311 N 
ATOM     14  C   LIG d   1       0.430  91.185 118.915  0.00  0.00     0.210 C 
ATOM     15  C   LIG d   1       1.520  91.555 119.926  0.00  0.00     0.109 C 
ATOM     16  O   LIG d   1       0.735  90.676 117.826  0.00  0.00    -0.276 OA
ATOM     17  H   LIG d   1      -0.965  91.925 120.178  0.00  0.00     0.149 HD
ENDBRANCH   6  13
BRANCH   5  18
ATOM     18  N   LIG d   1      -1.954  93.342 117.153  0.00  0.00     0.381 N 
ATOM     19  H   LIG d   1      -1.974  92.988 116.217  0.00  0.00    -0.090 HD
ATOM     20  H   LIG d   1      -1.001  93.336 117.472  0.00  0.00    -0.090 HD
ATOM     21  H   LIG d   1      -2.312  94.272 117.171  0.00  0.00    -0.090 HD
ENDBRANCH   5  18
BRANCH   3  22
ATOM     22  C   LIG d   1      -6.184  91.172 117.736  0.00  0.00     0.382 C 
ATOM     23  O   LIG d   1      -6.816  92.251 117.845  0.00  0.00    -0.241 OA
ATOM     24  O   LIG d   1      -6.802  90.122 117.480  0.00  0.00    -0.241 OA
ENDBRANCH   3  22
TORSDOF 7
ENDMDL
MODEL 9
REMARK VINA RESULT:      -4.0      3.289      5.667
REMARK  7 active torsions:
REMARK  status: ('A' for Active; 'I' for Inactive)
REMARK    1  A    between atoms: C_2  and  C_3 
REMARK    2  A    between atoms: C_3  and  O_6 
REMARK    3  A    between atoms: C_3  and  C_4 
REMARK    4  A    between atoms: C_7  and  O_6 
REMARK    5  A    between atoms: C_9  and  C_10 
REMARK    6  A    between atoms: N_15  and  C_14 
REMARK    7  A    between atoms: N_20  and  C_19 
REMARK       I    between atoms: C_22  and  N_20 
ROOT
ATOM      1  C   LIG d   1      -1.482  91.052 119.624  0.00  0.00     0.161 C 
ATOM      2  C   LIG d   1      -2.744  91.511 120.036  0.00  0.00     0.016 C 
ATOM      3  C   LIG d   1      -3.417  92.592 119.422  0.00  0.00     0.038 C 
ATOM      4  C   LIG d   1      -2.938  93.194 118.249  0.00  0.00     0.028 C 
ATOM      5  C   LIG d   1      -1.424  93.097 118.094  0.00  0.00    -0.047 C 
ATOM      6  C   LIG d   1      -0.994  91.624 118.277  0.00  0.00     0.091 C 
ENDROOT
BRANCH   1   7
ATOM      7  O   LIG d   1      -1.475  89.611 119.589  0.00  0.00    -0.368 OA
BRANCH   7   8
ATOM      8  C   LIG d   1      -2.728  88.975 119.235  0.00  0.00     0.119 C 
BRANCH   8   9
ATOM      9  C   LIG d   1      -2.851  87.692 120.080  0.00  0.00     0.028 C 
ATOM     10  C   LIG d   1      -1.550  86.872 120.094  0.00  0.00     0.006 C 
ENDBRANCH   8   9
BRANCH   8  11
ATOM     11  C   LIG d   1      -2.721  88.502 117.779  0.00  0.00     0.028 C 
ATOM     12  C   LIG d   1      -3.605  89.369 116.867  0.00  0.00     0.006 C 
ENDBRANCH   8  11
ENDBRANCH   7   8
ENDBRANCH   1   7
BRANCH   6  13
ATOM     13  N   LIG d   1       0.481  91.453 118.224  0.00  0.00    -0.311 N 
ATOM     14  C   LIG d   1       1.098  90.675 117.336  0.00  0.00     0.210 C 
ATOM     15  C   LIG d   1       2.623  90.625 117.468  0.00  0.00     0.109 C 
ATOM     16  O   LIG d   1       0.529  90.047 116.430  0.00  0.00    -0.276 OA
ATOM     17  H   LIG d   1       1.023  91.951 118.902  0.00  0.00     0.149 HD
ENDBRANCH   6  13
BRANCH   5  18
ATOM     18  N   LIG d   1      -1.076  93.641 116.767  0.00  0.00     0.381 N 
ATOM     19  H   LIG d   1      -1.705  94.381 116.529  0.00  0.00    -0.090 HD
ATOM     20  H   LIG d   1      -1.173  92.912 116.082  0.00  0.00    -0.090 HD
ATOM     21  H   LIG d   1      -0.139  93.979 116.773  0.00  0.00    -0.090 HD
ENDBRANCH   5  18
BRANCH   3  22
ATOM     22  C   LIG d   1      -4.564  93.108 120.006  0.00  0.00     0.382 C 
ATOM     23  O   LIG d   1      -5.506  92.342 120.321  0.00  0.00    -0.241 OA
ATOM     24  O   LIG d   1      -4.687  94.335 120.180  0.00  0.00    -0.241 OA
ENDBRANCH   3  22
TORSDOF 7
ENDMDL
