MODEL 1
REMARK VINA RESULT:      -4.6      0.000      0.000
REMARK  7 active torsions:
REMARK  status: ('A' for Active; 'I' for Inactive)
REMARK    1  A    between atoms: C_2  and  C_3 
REMARK    2  A    between atoms: C_3  and  O_6 
REMARK    3  A    between atoms: C_3  and  C_4 
REMARK    4  A    between atoms: C_7  and  O_6 
REMARK    5  A    between atoms: C_9  and  C_10 
REMARK    6  A    between atoms: N_15  and  C_14 
REMARK    7  A    between atoms: N_20  and  C_19 
REMARK       I    between atoms: C_22  and  N_20 
ROOT
ATOM      1  C   LIG d   1      -4.577  93.041 118.956  0.00  0.00     0.161 C 
ATOM      2  C   LIG d   1      -5.833  93.666 119.017  0.00  0.00     0.016 C 
ATOM      3  C   LIG d   1      -6.958  93.224 118.283  0.00  0.00     0.038 C 
ATOM      4  C   LIG d   1      -6.942  92.027 117.551  0.00  0.00     0.028 C 
ATOM      5  C   LIG d   1      -5.553  91.638 117.057  0.00  0.00    -0.047 C 
ATOM      6  C   LIG d   1      -4.569  91.670 118.249  0.00  0.00     0.091 C 
ENDROOT
BRANCH   1   7
ATOM      7  O   LIG d   1      -4.025  92.924 120.282  0.00  0.00    -0.368 OA
BRANCH   7   8
ATOM      8  C   LIG d   1      -2.772  93.615 120.515  0.00  0.00     0.119 C 
BRANCH   8   9
ATOM      9  C   LIG d   1      -1.804  92.610 121.168  0.00  0.00     0.028 C 
ATOM     10  C   LIG d   1      -2.484  91.272 121.503  0.00  0.00     0.006 C 
ENDBRANCH   8   9
BRANCH   8  11
ATOM     11  C   LIG d   1      -2.939  94.741 121.539  0.00  0.00     0.028 C 
ATOM     12  C   LIG d   1      -4.207  94.587 122.393  0.00  0.00     0.006 C 
ENDBRANCH   8  11
ENDBRANCH   7   8
ENDBRANCH   1   7
BRANCH   6  13
ATOM     13  N   LIG d   1      -3.171  91.384 117.837  0.00  0.00    -0.311 N 
ATOM     14  C   LIG d   1      -2.602  90.185 117.956  0.00  0.00     0.210 C 
ATOM     15  C   LIG d   1      -1.145  90.112 117.490  0.00  0.00     0.109 C 
ATOM     16  O   LIG d   1      -3.176  89.168 118.374  0.00  0.00    -0.276 OA
ATOM     17  H   LIG d   1      -2.642  92.145 117.458  0.00  0.00     0.149 HD
ENDBRANCH   6  13
BRANCH   5  18
ATOM     18  N   LIG d   1      -5.660  90.307 116.430  0.00  0.00     0.381 N 
ATOM     19  H   LIG d   1      -4.795  89.814 116.533  0.00  0.00    -0.090 HD
ATOM     20  H   LIG d   1      -5.841  90.424 115.449  0.00  0.00    -0.090 HD
ATOM     21  H   LIG d   1      -6.398  89.789 116.853  0.00  0.00    -0.090 HD
ENDBRANCH   5  18
BRANCH   3  22
ATOM     22  C   LIG d   1      -8.105  94.003 118.247  0.00  0.00     0.382 C 
ATOM     23  O   LIG d   1      -8.885  94.016 119.229  0.00  0.00    -0.241 OA
ATOM     24  O   LIG d   1      -8.391  94.658 117.227  0.00  0.00    -0.241 OA
ENDBRANCH   3  22
TORSDOF 7
ENDMDL
MODEL 2
REMARK VINA RESULT:      -4.4      0.693      1.663
REMARK  7 active torsions:
REMARK  status: ('A' for Active; 'I' for Inactive)
REMARK    1  A    between atoms: C_2  and  C_3 
REMARK    2  A    between atoms: C_3  and  O_6 
REMARK    3  A    between atoms: C_3  and  C_4 
REMARK    4  A    between atoms: C_7  and  O_6 
REMARK    5  A    between atoms: C_9  and  C_10 
REMARK    6  A    between atoms: N_15  and  C_14 
REMARK    7  A    between atoms: N_20  and  C_19 
REMARK       I    between atoms: C_22  and  N_20 
ROOT
ATOM      1  C   LIG d   1      -4.547  93.290 118.863  0.00  0.00     0.161 C 
ATOM      2  C   LIG d   1      -5.812  93.899 118.926  0.00  0.00     0.016 C 
ATOM      3  C   LIG d   1      -6.959  93.377 118.285  0.00  0.00     0.038 C 
ATOM      4  C   LIG d   1      -6.952  92.121 117.659  0.00  0.00     0.028 C 
ATOM      5  C   LIG d   1      -5.578  91.711 117.139  0.00  0.00    -0.047 C 
ATOM      6  C   LIG d   1      -4.545  91.862 118.278  0.00  0.00     0.091 C 
ENDROOT
BRANCH   1   7
ATOM      7  O   LIG d   1      -3.937  93.298 120.169  0.00  0.00    -0.368 OA
BRANCH   7   8
ATOM      8  C   LIG d   1      -4.300  92.206 121.049  0.00  0.00     0.119 C 
BRANCH   8   9
ATOM      9  C   LIG d   1      -4.985  92.817 122.287  0.00  0.00     0.028 C 
ATOM     10  C   LIG d   1      -4.618  94.296 122.490  0.00  0.00     0.006 C 
ENDBRANCH   8   9
BRANCH   8  11
ATOM     11  C   LIG d   1      -3.059  91.486 121.586  0.00  0.00     0.028 C 
ATOM     12  C   LIG d   1      -1.747  92.169 121.168  0.00  0.00     0.006 C 
ENDBRANCH   8  11
ENDBRANCH   7   8
ENDBRANCH   1   7
BRANCH   6  13
ATOM     13  N   LIG d   1      -3.160  91.562 117.831  0.00  0.00    -0.311 N 
ATOM     14  C   LIG d   1      -2.585  90.369 117.975  0.00  0.00     0.210 C 
ATOM     15  C   LIG d   1      -1.144  90.280 117.464  0.00  0.00     0.109 C 
ATOM     16  O   LIG d   1      -3.143  89.368 118.449  0.00  0.00    -0.276 OA
ATOM     17  H   LIG d   1      -2.645  92.309 117.407  0.00  0.00     0.149 HD
ENDBRANCH   6  13
BRANCH   5  18
ATOM     18  N   LIG d   1      -5.686  90.329 116.635  0.00  0.00     0.381 N 
ATOM     19  H   LIG d   1      -6.008  89.727 117.366  0.00  0.00    -0.090 HD
ATOM     20  H   LIG d   1      -4.776  90.016 116.346  0.00  0.00    -0.090 HD
ATOM     21  H   LIG d   1      -6.317  90.295 115.865  0.00  0.00    -0.090 HD
ENDBRANCH   5  18
BRANCH   3  22
ATOM     22  C   LIG d   1      -8.121  94.132 118.232  0.00  0.00     0.382 C 
ATOM     23  O   LIG d   1      -8.876  94.191 119.231  0.00  0.00    -0.241 OA
ATOM     24  O   LIG d   1      -8.445  94.720 117.182  0.00  0.00    -0.241 OA
ENDBRANCH   3  22
TORSDOF 7
ENDMDL
MODEL 3
REMARK VINA RESULT:      -4.4      2.497      4.503
REMARK  7 active torsions:
REMARK  status: ('A' for Active; 'I' for Inactive)
REMARK    1  A    between atoms: C_2  and  C_3 
REMARK    2  A    between atoms: C_3  and  O_6 
REMARK    3  A    between atoms: C_3  and  C_4 
REMARK    4  A    between atoms: C_7  and  O_6 
REMARK    5  A    between atoms: C_9  and  C_10 
REMARK    6  A    between atoms: N_15  and  C_14 
REMARK    7  A    between atoms: N_20  and  C_19 
REMARK       I    between atoms: C_22  and  N_20 
ROOT
ATOM      1  C   LIG d   1      -3.163  90.655 118.531  0.00  0.00     0.161 C 
ATOM      2  C   LIG d   1      -4.289  90.620 117.693  0.00  0.00     0.016 C 
ATOM      3  C   LIG d   1      -5.256  91.651 117.644  0.00  0.00     0.038 C 
ATOM      4  C   LIG d   1      -5.081  92.864 118.326  0.00  0.00     0.028 C 
ATOM      5  C   LIG d   1      -4.214  92.738 119.574  0.00  0.00    -0.047 C 
ATOM      6  C   LIG d   1      -2.897  92.021 119.200  0.00  0.00     0.091 C 
ENDROOT
BRANCH   1   7
ATOM      7  O   LIG d   1      -1.998  90.218 117.804  0.00  0.00    -0.368 OA
BRANCH   7   8
ATOM      8  C   LIG d   1      -1.634  88.825 117.961  0.00  0.00     0.119 C 
BRANCH   8   9
ATOM      9  C   LIG d   1      -2.134  88.369 119.346  0.00  0.00     0.028 C 
ATOM     10  C   LIG d   1      -1.599  86.981 119.736  0.00  0.00     0.006 C 
ENDBRANCH   8   9
BRANCH   8  11
ATOM     11  C   LIG d   1      -0.113  88.647 118.001  0.00  0.00     0.028 C 
ATOM     12  C   LIG d   1       0.604  89.806 118.713  0.00  0.00     0.006 C 
ENDBRANCH   8  11
ENDBRANCH   7   8
ENDBRANCH   1   7
BRANCH   6  13
ATOM     13  N   LIG d   1      -2.026  91.781 120.380  0.00  0.00    -0.311 N 
ATOM     14  C   LIG d   1      -1.037  92.597 120.739  0.00  0.00     0.210 C 
ATOM     15  C   LIG d   1      -0.249  92.154 121.976  0.00  0.00     0.109 C 
ATOM     16  O   LIG d   1      -0.757  93.663 120.169  0.00  0.00    -0.276 OA
ATOM     17  H   LIG d   1      -2.204  90.955 120.918  0.00  0.00     0.149 HD
ENDBRANCH   6  13
BRANCH   5  18
ATOM     18  N   LIG d   1      -4.000  94.097 120.107  0.00  0.00     0.381 N 
ATOM     19  H   LIG d   1      -4.026  94.762 119.361  0.00  0.00    -0.090 HD
ATOM     20  H   LIG d   1      -3.092  94.139 120.536  0.00  0.00    -0.090 HD
ATOM     21  H   LIG d   1      -4.703  94.314 120.779  0.00  0.00    -0.090 HD
ENDBRANCH   5  18
BRANCH   3  22
ATOM     22  C   LIG d   1      -6.433  91.456 116.938  0.00  0.00     0.382 C 
ATOM     23  O   LIG d   1      -6.878  90.295 116.769  0.00  0.00    -0.241 OA
ATOM     24  O   LIG d   1      -7.033  92.423 116.430  0.00  0.00    -0.241 OA
ENDBRANCH   3  22
TORSDOF 7
ENDMDL
MODEL 4
REMARK VINA RESULT:      -4.2      1.607      4.943
REMARK  7 active torsions:
REMARK  status: ('A' for Active; 'I' for Inactive)
REMARK    1  A    between atoms: C_2  and  C_3 
REMARK    2  A    between atoms: C_3  and  O_6 
REMARK    3  A    between atoms: C_3  and  C_4 
REMARK    4  A    between atoms: C_7  and  O_6 
REMARK    5  A    between atoms: C_9  and  C_10 
REMARK    6  A    between atoms: N_15  and  C_14 
REMARK    7  A    between atoms: N_20  and  C_19 
REMARK       I    between atoms: C_22  and  N_20 
ROOT
ATOM      1  C   LIG d   1      -4.686  92.556 119.520  0.00  0.00     0.161 C 
ATOM      2  C   LIG d   1      -3.612  91.730 119.153  0.00  0.00     0.016 C 
ATOM      3  C   LIG d   1      -3.643  90.862 118.037  0.00  0.00     0.038 C 
ATOM      4  C   LIG d   1      -4.703  90.874 117.118  0.00  0.00     0.028 C 
ATOM      5  C   LIG d   1      -6.027  91.325 117.727  0.00  0.00    -0.047 C 
ATOM      6  C   LIG d   1      -5.808  92.665 118.467  0.00  0.00     0.091 C 
ENDROOT
BRANCH   1   7
ATOM      7  O   LIG d   1      -4.198  93.867 119.869  0.00  0.00    -0.368 OA
BRANCH   7   8
ATOM      8  C   LIG d   1      -4.407  94.281 121.242  0.00  0.00     0.119 C 
BRANCH   8   9
ATOM      9  C   LIG d   1      -5.233  95.581 121.212  0.00  0.00     0.028 C 
ATOM     10  C   LIG d   1      -5.254  96.232 119.819  0.00  0.00     0.006 C 
ENDBRANCH   8   9
BRANCH   8  11
ATOM     11  C   LIG d   1      -3.085  94.655 121.918  0.00  0.00     0.028 C 
ATOM     12  C   LIG d   1      -1.878  94.537 120.974  0.00  0.00     0.006 C 
ENDBRANCH   8  11
ENDBRANCH   7   8
ENDBRANCH   1   7
BRANCH   6  13
ATOM     13  N   LIG d   1      -7.035  93.135 119.162  0.00  0.00    -0.311 N 
ATOM     14  C   LIG d   1      -7.956  93.904 118.584  0.00  0.00     0.210 C 
ATOM     15  C   LIG d   1      -9.133  94.291 119.486  0.00  0.00     0.109 C 
ATOM     16  O   LIG d   1      -7.927  94.275 117.401  0.00  0.00    -0.276 OA
ATOM     17  H   LIG d   1      -7.154  92.854 120.116  0.00  0.00     0.149 HD
ENDBRANCH   6  13
BRANCH   5  18
ATOM     18  N   LIG d   1      -7.010  91.423 116.632  0.00  0.00     0.381 N 
ATOM     19  H   LIG d   1      -6.604  91.089 115.781  0.00  0.00    -0.090 HD
ATOM     20  H   LIG d   1      -7.260  92.388 116.504  0.00  0.00    -0.090 HD
ATOM     21  H   LIG d   1      -7.822  90.890 116.853  0.00  0.00    -0.090 HD
ENDBRANCH   5  18
BRANCH   3  22
ATOM     22  C   LIG d   1      -2.623  89.941 117.854  0.00  0.00     0.382 C 
ATOM     23  O   LIG d   1      -1.456  90.337 117.617  0.00  0.00    -0.241 OA
ATOM     24  O   LIG d   1      -2.863  88.719 117.877  0.00  0.00    -0.241 OA
ENDBRANCH   3  22
TORSDOF 7
ENDMDL
MODEL 5
REMARK VINA RESULT:      -4.2      1.833      4.942
REMARK  7 active torsions:
REMARK  status: ('A' for Active; 'I' for Inactive)
REMARK    1  A    between atoms: C_2  and  C_3 
REMARK    2  A    between atoms: C_3  and  O_6 
REMARK    3  A    between atoms: C_3  and  C_4 
REMARK    4  A    between atoms: C_7  and  O_6 
REMARK    5  A    between atoms: C_9  and  C_10 
REMARK    6  A    between atoms: N_15  and  C_14 
REMARK    7  A    between atoms: N_20  and  C_19 
REMARK       I    between atoms: C_22  and  N_20 
ROOT
ATOM      1  C   LIG d   1      -4.739  93.164 119.359  0.00  0.00     0.161 C 
ATOM      2  C   LIG d   1      -3.683  92.308 119.005  0.00  0.00     0.016 C 
ATOM      3  C   LIG d   1      -3.826  91.228 118.104  0.00  0.00     0.038 C 
ATOM      4  C   LIG d   1      -5.006  91.021 117.375  0.00  0.00     0.028 C 
ATOM      5  C   LIG d   1      -6.252  91.554 118.075  0.00  0.00    -0.047 C 
ATOM      6  C   LIG d   1      -6.006  93.023 118.488  0.00  0.00     0.091 C 
ENDROOT
BRANCH   1   7
ATOM      7  O   LIG d   1      -4.281  94.531 119.358  0.00  0.00    -0.368 OA
BRANCH   7   8
ATOM      8  C   LIG d   1      -4.156  95.162 120.656  0.00  0.00     0.119 C 
BRANCH   8   9
ATOM      9  C   LIG d   1      -4.763  94.202 121.698  0.00  0.00     0.028 C 
ATOM     10  C   LIG d   1      -5.869  94.867 122.535  0.00  0.00     0.006 C 
ENDBRANCH   8   9
BRANCH   8  11
ATOM     11  C   LIG d   1      -5.000  96.437 120.739  0.00  0.00     0.028 C 
ATOM     12  C   LIG d   1      -5.552  96.877 119.374  0.00  0.00     0.006 C 
ENDBRANCH   8  11
ENDBRANCH   7   8
ENDBRANCH   1   7
BRANCH   6  13
ATOM     13  N   LIG d   1      -7.144  93.594 119.254  0.00  0.00    -0.311 N 
ATOM     14  C   LIG d   1      -8.156  94.247 118.686  0.00  0.00     0.210 C 
ATOM     15  C   LIG d   1      -9.215  94.773 119.660  0.00  0.00     0.109 C 
ATOM     16  O   LIG d   1      -8.293  94.413 117.464  0.00  0.00    -0.276 OA
ATOM     17  H   LIG d   1      -7.129  93.478 120.249  0.00  0.00     0.149 HD
ENDBRANCH   6  13
BRANCH   5  18
ATOM     18  N   LIG d   1      -7.387  91.397 117.146  0.00  0.00     0.381 N 
ATOM     19  H   LIG d   1      -7.467  92.210 116.569  0.00  0.00    -0.090 HD
ATOM     20  H   LIG d   1      -8.233  91.303 117.679  0.00  0.00    -0.090 HD
ATOM     21  H   LIG d   1      -7.253  90.590 116.577  0.00  0.00    -0.090 HD
ENDBRANCH   5  18
BRANCH   3  22
ATOM     22  C   LIG d   1      -2.792  90.316 117.956  0.00  0.00     0.382 C 
ATOM     23  O   LIG d   1      -1.605  90.718 117.893  0.00  0.00    -0.241 OA
ATOM     24  O   LIG d   1      -3.034  89.099 117.840  0.00  0.00    -0.241 OA
ENDBRANCH   3  22
TORSDOF 7
ENDMDL
MODEL 6
REMARK VINA RESULT:      -4.0      2.483      4.497
REMARK  7 active torsions:
REMARK  status: ('A' for Active; 'I' for Inactive)
REMARK    1  A    between atoms: C_2  and  C_3 
REMARK    2  A    between atoms: C_3  and  O_6 
REMARK    3  A    between atoms: C_3  and  C_4 
REMARK    4  A    between atoms: C_7  and  O_6 
REMARK    5  A    between atoms: C_9  and  C_10 
REMARK    6  A    between atoms: N_15  and  C_14 
REMARK    7  A    between atoms: N_20  and  C_19 
REMARK       I    between atoms: C_22  and  N_20 
ROOT
ATOM      1  C   LIG d   1      -5.255  93.188 120.482  0.00  0.00     0.161 C 
ATOM      2  C   LIG d   1      -6.419  93.190 119.696  0.00  0.00     0.016 C 
ATOM      3  C   LIG d   1      -7.000  94.366 119.169  0.00  0.00     0.038 C 
ATOM      4  C   LIG d   1      -6.367  95.614 119.267  0.00  0.00     0.028 C 
ATOM      5  C   LIG d   1      -5.453  95.735 120.482  0.00  0.00    -0.047 C 
ATOM      6  C   LIG d   1      -4.489  94.527 120.507  0.00  0.00     0.091 C 
ENDROOT
BRANCH   1   7
ATOM      7  O   LIG d   1      -4.383  92.120 120.062  0.00  0.00    -0.368 OA
BRANCH   7   8
ATOM      8  C   LIG d   1      -3.693  92.318 118.804  0.00  0.00     0.119 C 
BRANCH   8   9
ATOM      9  C   LIG d   1      -4.023  91.115 117.899  0.00  0.00     0.028 C 
ATOM     10  C   LIG d   1      -5.026  91.473 116.789  0.00  0.00     0.006 C 
ENDBRANCH   8   9
BRANCH   8  11
ATOM     11  C   LIG d   1      -2.173  92.280 118.990  0.00  0.00     0.028 C 
ATOM     12  C   LIG d   1      -1.505  91.142 118.202  0.00  0.00     0.006 C 
ENDBRANCH   8  11
ENDBRANCH   7   8
ENDBRANCH   1   7
BRANCH   6  13
ATOM     13  N   LIG d   1      -3.616  94.523 121.709  0.00  0.00    -0.311 N 
ATOM     14  C   LIG d   1      -2.391  95.047 121.728  0.00  0.00     0.210 C 
ATOM     15  C   LIG d   1      -1.653  94.919 123.064  0.00  0.00     0.109 C 
ATOM     16  O   LIG d   1      -1.858  95.634 120.774  0.00  0.00    -0.276 OA
ATOM     17  H   LIG d   1      -3.981  94.095 122.537  0.00  0.00     0.149 HD
ENDBRANCH   6  13
BRANCH   5  18
ATOM     18  N   LIG d   1      -4.753  97.030 120.385  0.00  0.00     0.381 N 
ATOM     19  H   LIG d   1      -4.973  97.470 119.514  0.00  0.00    -0.090 HD
ATOM     20  H   LIG d   1      -3.762  96.868 120.416  0.00  0.00    -0.090 HD
ATOM     21  H   LIG d   1      -5.024  97.621 121.141  0.00  0.00    -0.090 HD
ENDBRANCH   5  18
BRANCH   3  22
ATOM     22  C   LIG d   1      -8.249  94.306 118.569  0.00  0.00     0.382 C 
ATOM     23  O   LIG d   1      -8.368  94.547 117.343  0.00  0.00    -0.241 OA
ATOM     24  O   LIG d   1      -9.264  94.058 119.246  0.00  0.00    -0.241 OA
ENDBRANCH   3  22
TORSDOF 7
ENDMDL
MODEL 7
REMARK VINA RESULT:      -4.0      2.131      2.955
REMARK  7 active torsions:
REMARK  status: ('A' for Active; 'I' for Inactive)
REMARK    1  A    between atoms: C_2  and  C_3 
REMARK    2  A    between atoms: C_3  and  O_6 
REMARK    3  A    between atoms: C_3  and  C_4 
REMARK    4  A    between atoms: C_7  and  O_6 
REMARK    5  A    between atoms: C_9  and  C_10 
REMARK    6  A    between atoms: N_15  and  C_14 
REMARK    7  A    between atoms: N_20  and  C_19 
REMARK       I    between atoms: C_22  and  N_20 
ROOT
ATOM      1  C   LIG d   1      -4.002  92.655 119.122  0.00  0.00     0.161 C 
ATOM      2  C   LIG d   1      -5.225  92.377 118.489  0.00  0.00     0.016 C 
ATOM      3  C   LIG d   1      -5.400  91.325 117.561  0.00  0.00     0.038 C 
ATOM      4  C   LIG d   1      -4.394  90.379 117.315  0.00  0.00     0.028 C 
ATOM      5  C   LIG d   1      -2.986  90.917 117.548  0.00  0.00    -0.047 C 
ATOM      6  C   LIG d   1      -2.923  91.565 118.950  0.00  0.00     0.091 C 
ENDROOT
BRANCH   1   7
ATOM      7  O   LIG d   1      -4.225  92.923 120.521  0.00  0.00    -0.368 OA
BRANCH   7   8
ATOM      8  C   LIG d   1      -4.399  94.315 120.883  0.00  0.00     0.119 C 
BRANCH   8   9
ATOM      9  C   LIG d   1      -3.022  94.856 121.314  0.00  0.00     0.028 C 
ATOM     10  C   LIG d   1      -2.560  94.279 122.662  0.00  0.00     0.006 C 
ENDBRANCH   8   9
BRANCH   8  11
ATOM     11  C   LIG d   1      -5.296  94.461 122.116  0.00  0.00     0.028 C 
ATOM     12  C   LIG d   1      -6.714  94.939 121.767  0.00  0.00     0.006 C 
ENDBRANCH   8  11
ENDBRANCH   7   8
ENDBRANCH   1   7
BRANCH   6  13
ATOM     13  N   LIG d   1      -1.604  92.192 119.226  0.00  0.00    -0.311 N 
ATOM     14  C   LIG d   1      -0.875  91.921 120.308  0.00  0.00     0.210 C 
ATOM     15  C   LIG d   1       0.445  92.691 120.408  0.00  0.00     0.109 C 
ATOM     16  O   LIG d   1      -1.182  91.091 121.177  0.00  0.00    -0.276 OA
ATOM     17  H   LIG d   1      -1.264  92.854 118.556  0.00  0.00     0.149 HD
ENDBRANCH   6  13
BRANCH   5  18
ATOM     18  N   LIG d   1      -2.047  89.791 117.389  0.00  0.00     0.381 N 
ATOM     19  H   LIG d   1      -2.111  89.425 116.460  0.00  0.00    -0.090 HD
ATOM     20  H   LIG d   1      -2.300  89.063 118.034  0.00  0.00    -0.090 HD
ATOM     21  H   LIG d   1      -1.115  90.096 117.570  0.00  0.00    -0.090 HD
ENDBRANCH   5  18
BRANCH   3  22
ATOM     22  C   LIG d   1      -6.579  91.236 116.837  0.00  0.00     0.382 C 
ATOM     23  O   LIG d   1      -7.146  92.279 116.430  0.00  0.00    -0.241 OA
ATOM     24  O   LIG d   1      -7.108  90.128 116.625  0.00  0.00    -0.241 OA
ENDBRANCH   3  22
TORSDOF 7
ENDMDL
MODEL 8
REMARK VINA RESULT:      -3.9      2.113      4.881
REMARK  7 active torsions:
REMARK  status: ('A' for Active; 'I' for Inactive)
REMARK    1  A    between atoms: C_2  and  C_3 
REMARK    2  A    between atoms: C_3  and  O_6 
REMARK    3  A    between atoms: C_3  and  C_4 
REMARK    4  A    between atoms: C_7  and  O_6 
REMARK    5  A    between atoms: C_9  and  C_10 
REMARK    6  A    between atoms: N_15  and  C_14 
REMARK    7  A    between atoms: N_20  and  C_19 
REMARK       I    between atoms: C_22  and  N_20 
ROOT
ATOM      1  C   LIG d   1      -3.976  92.884 119.915  0.00  0.00     0.161 C 
ATOM      2  C   LIG d   1      -3.180  91.786 119.548  0.00  0.00     0.016 C 
ATOM      3  C   LIG d   1      -3.405  91.017 118.383  0.00  0.00     0.038 C 
ATOM      4  C   LIG d   1      -4.356  91.389 117.421  0.00  0.00     0.028 C 
ATOM      5  C   LIG d   1      -5.516  92.194 117.996  0.00  0.00    -0.047 C 
ATOM      6  C   LIG d   1      -4.949  93.372 118.821  0.00  0.00     0.091 C 
ENDROOT
BRANCH   1   7
ATOM      7  O   LIG d   1      -3.138  93.969 120.360  0.00  0.00    -0.368 OA
BRANCH   7   8
ATOM      8  C   LIG d   1      -1.977  93.597 121.143  0.00  0.00     0.119 C 
BRANCH   8   9
ATOM      9  C   LIG d   1      -2.325  93.827 122.626  0.00  0.00     0.028 C 
ATOM     10  C   LIG d   1      -1.124  93.585 123.556  0.00  0.00     0.006 C 
ENDBRANCH   8   9
BRANCH   8  11
ATOM     11  C   LIG d   1      -0.792  94.523 120.856  0.00  0.00     0.028 C 
ATOM     12  C   LIG d   1       0.122  93.994 119.740  0.00  0.00     0.006 C 
ENDBRANCH   8  11
ENDBRANCH   7   8
ENDBRANCH   1   7
BRANCH   6  13
ATOM     13  N   LIG d   1      -6.016  94.163 119.488  0.00  0.00    -0.311 N 
ATOM     14  C   LIG d   1      -6.057  95.494 119.479  0.00  0.00     0.210 C 
ATOM     15  C   LIG d   1      -7.232  96.110 120.244  0.00  0.00     0.109 C 
ATOM     16  O   LIG d   1      -5.250  96.222 118.882  0.00  0.00    -0.276 OA
ATOM     17  H   LIG d   1      -6.729  93.651 119.970  0.00  0.00     0.149 HD
ENDBRANCH   6  13
BRANCH   5  18
ATOM     18  N   LIG d   1      -6.357  92.632 116.866  0.00  0.00     0.381 N 
ATOM     19  H   LIG d   1      -5.783  93.031 116.151  0.00  0.00    -0.090 HD
ATOM     20  H   LIG d   1      -6.994  93.339 117.190  0.00  0.00    -0.090 HD
ATOM     21  H   LIG d   1      -6.866  91.858 116.500  0.00  0.00    -0.090 HD
ENDBRANCH   5  18
BRANCH   3  22
ATOM     22  C   LIG d   1      -2.700  89.839 118.192  0.00  0.00     0.382 C 
ATOM     23  O   LIG d   1      -1.609  89.854 117.573  0.00  0.00    -0.241 OA
ATOM     24  O   LIG d   1      -3.163  88.753 118.591  0.00  0.00    -0.241 OA
ENDBRANCH   3  22
TORSDOF 7
ENDMDL
MODEL 9
REMARK VINA RESULT:      -3.9      2.414      5.071
REMARK  7 active torsions:
REMARK  status: ('A' for Active; 'I' for Inactive)
REMARK    1  A    between atoms: C_2  and  C_3 
REMARK    2  A    between atoms: C_3  and  O_6 
REMARK    3  A    between atoms: C_3  and  C_4 
REMARK    4  A    between atoms: C_7  and  O_6 
REMARK    5  A    between atoms: C_9  and  C_10 
REMARK    6  A    between atoms: N_15  and  C_14 
REMARK    7  A    between atoms: N_20  and  C_19 
REMARK       I    between atoms: C_22  and  N_20 
ROOT
ATOM      1  C   LIG d   1      -6.061  93.691 119.355  0.00  0.00     0.161 C 
ATOM      2  C   LIG d   1      -6.504  92.697 118.467  0.00  0.00     0.016 C 
ATOM      3  C   LIG d   1      -5.657  91.701 117.929  0.00  0.00     0.038 C 
ATOM      4  C   LIG d   1      -4.332  91.540 118.362  0.00  0.00     0.028 C 
ATOM      5  C   LIG d   1      -3.703  92.830 118.877  0.00  0.00    -0.047 C 
ATOM      6  C   LIG d   1      -4.645  93.465 119.926  0.00  0.00     0.091 C 
ENDROOT
BRANCH   1   7
ATOM      7  O   LIG d   1      -7.013  93.850 120.426  0.00  0.00    -0.368 OA
BRANCH   7   8
ATOM      8  C   LIG d   1      -8.371  93.437 120.137  0.00  0.00     0.119 C 
BRANCH   8   9
ATOM      9  C   LIG d   1      -9.177  94.704 119.792  0.00  0.00     0.028 C 
ATOM     10  C   LIG d   1     -10.193  95.069 120.887  0.00  0.00     0.006 C 
ENDBRANCH   8   9
BRANCH   8  11
ATOM     11  C   LIG d   1      -9.050  92.849 121.378  0.00  0.00     0.028 C 
ATOM     12  C   LIG d   1      -8.109  91.964 122.210  0.00  0.00     0.006 C 
ENDBRANCH   8  11
ENDBRANCH   7   8
ENDBRANCH   1   7
BRANCH   6  13
ATOM     13  N   LIG d   1      -4.144  94.774 120.419  0.00  0.00    -0.311 N 
ATOM     14  C   LIG d   1      -3.372  94.905 121.496  0.00  0.00     0.210 C 
ATOM     15  C   LIG d   1      -2.984  96.346 121.842  0.00  0.00     0.109 C 
ATOM     16  O   LIG d   1      -2.944  93.962 122.179  0.00  0.00    -0.276 OA
ATOM     17  H   LIG d   1      -4.417  95.590 119.906  0.00  0.00     0.149 HD
ENDBRANCH   6  13
BRANCH   5  18
ATOM     18  N   LIG d   1      -2.375  92.491 119.423  0.00  0.00     0.381 N 
ATOM     19  H   LIG d   1      -2.473  92.126 120.349  0.00  0.00    -0.090 HD
ATOM     20  H   LIG d   1      -1.820  93.328 119.471  0.00  0.00    -0.090 HD
ATOM     21  H   LIG d   1      -1.927  91.820 118.839  0.00  0.00    -0.090 HD
ENDBRANCH   5  18
BRANCH   3  22
ATOM     22  C   LIG d   1      -6.122  90.878 116.915  0.00  0.00     0.382 C 
ATOM     23  O   LIG d   1      -5.383  89.977 116.449  0.00  0.00    -0.241 OA
ATOM     24  O   LIG d   1      -7.256  91.052 116.430  0.00  0.00    -0.241 OA
ENDBRANCH   3  22
TORSDOF 7
ENDMDL
