MODEL 1
REMARK VINA RESULT:      -5.0      0.000      0.000
REMARK  7 active torsions:
REMARK  status: ('A' for Active; 'I' for Inactive)
REMARK    1  A    between atoms: C_2  and  C_3 
REMARK    2  A    between atoms: C_3  and  O_6 
REMARK    3  A    between atoms: C_3  and  C_4 
REMARK    4  A    between atoms: C_7  and  O_6 
REMARK    5  A    between atoms: C_9  and  C_10 
REMARK    6  A    between atoms: N_15  and  C_14 
REMARK    7  A    between atoms: N_20  and  C_19 
REMARK       I    between atoms: C_22  and  N_20 
ROOT
ATOM      1  C   LIG d   1      -2.510  90.053 118.597  0.00  0.00     0.161 C 
ATOM      2  C   LIG d   1      -3.883  90.004 118.304  0.00  0.00     0.016 C 
ATOM      3  C   LIG d   1      -4.592  91.076 117.716  0.00  0.00     0.038 C 
ATOM      4  C   LIG d   1      -3.941  92.223 117.239  0.00  0.00     0.028 C 
ATOM      5  C   LIG d   1      -2.637  92.527 117.969  0.00  0.00    -0.047 C 
ATOM      6  C   LIG d   1      -1.760  91.254 117.982  0.00  0.00     0.091 C 
ENDROOT
BRANCH   1   7
ATOM      7  O   LIG d   1      -1.881  88.817 118.205  0.00  0.00    -0.368 OA
BRANCH   7   8
ATOM      8  C   LIG d   1      -1.002  88.211 119.184  0.00  0.00     0.119 C 
BRANCH   8   9
ATOM      9  C   LIG d   1       0.147  87.530 118.415  0.00  0.00     0.028 C 
ATOM     10  C   LIG d   1       0.401  88.179 117.044  0.00  0.00     0.006 C 
ENDBRANCH   8   9
BRANCH   8  11
ATOM     11  C   LIG d   1      -1.706  87.083 119.943  0.00  0.00     0.028 C 
ATOM     12  C   LIG d   1      -0.903  85.772 119.944  0.00  0.00     0.006 C 
ENDBRANCH   8  11
ENDBRANCH   7   8
ENDBRANCH   1   7
BRANCH   6  13
ATOM     13  N   LIG d   1      -0.502  91.440 118.750  0.00  0.00    -0.311 N 
ATOM     14  C   LIG d   1       0.664  91.749 118.184  0.00  0.00     0.210 C 
ATOM     15  C   LIG d   1       1.841  91.875 119.156  0.00  0.00     0.109 C 
ATOM     16  O   LIG d   1       0.827  91.962 116.973  0.00  0.00    -0.276 OA
ATOM     17  H   LIG d   1      -0.551  91.317 119.742  0.00  0.00     0.149 HD
ENDBRANCH   6  13
BRANCH   5  18
ATOM     18  N   LIG d   1      -1.996  93.664 117.281  0.00  0.00     0.381 N 
ATOM     19  H   LIG d   1      -2.044  93.531 116.291  0.00  0.00    -0.090 HD
ATOM     20  H   LIG d   1      -1.028  93.701 117.548  0.00  0.00    -0.090 HD
ATOM     21  H   LIG d   1      -2.451  94.514 117.532  0.00  0.00    -0.090 HD
ENDBRANCH   5  18
BRANCH   3  22
ATOM     22  C   LIG d   1      -5.976  91.023 117.637  0.00  0.00     0.382 C 
ATOM     23  O   LIG d   1      -6.541  89.976 117.240  0.00  0.00    -0.241 OA
ATOM     24  O   LIG d   1      -6.663  92.023 117.916  0.00  0.00    -0.241 OA
ENDBRANCH   3  22
TORSDOF 7
ENDMDL
MODEL 2
REMARK VINA RESULT:      -4.9      3.861      5.746
REMARK  7 active torsions:
REMARK  status: ('A' for Active; 'I' for Inactive)
REMARK    1  A    between atoms: C_2  and  C_3 
REMARK    2  A    between atoms: C_3  and  O_6 
REMARK    3  A    between atoms: C_3  and  C_4 
REMARK    4  A    between atoms: C_7  and  O_6 
REMARK    5  A    between atoms: C_9  and  C_10 
REMARK    6  A    between atoms: N_15  and  C_14 
REMARK    7  A    between atoms: N_20  and  C_19 
REMARK       I    between atoms: C_22  and  N_20 
ROOT
ATOM      1  C   LIG d   1      -5.666  93.646 118.819  0.00  0.00     0.161 C 
ATOM      2  C   LIG d   1      -6.306  92.541 118.232  0.00  0.00     0.016 C 
ATOM      3  C   LIG d   1      -5.623  91.549 117.492  0.00  0.00     0.038 C 
ATOM      4  C   LIG d   1      -4.223  91.513 117.416  0.00  0.00     0.028 C 
ATOM      5  C   LIG d   1      -3.573  92.884 117.567  0.00  0.00    -0.047 C 
ATOM      6  C   LIG d   1      -4.125  93.564 118.841  0.00  0.00     0.091 C 
ENDROOT
BRANCH   1   7
ATOM      7  O   LIG d   1      -6.175  93.854 120.151  0.00  0.00    -0.368 OA
BRANCH   7   8
ATOM      8  C   LIG d   1      -6.984  92.784 120.699  0.00  0.00     0.119 C 
BRANCH   8   9
ATOM      9  C   LIG d   1      -8.277  93.416 121.248  0.00  0.00     0.028 C 
ATOM     10  C   LIG d   1      -8.598  94.767 120.586  0.00  0.00     0.006 C 
ENDBRANCH   8   9
BRANCH   8  11
ATOM     11  C   LIG d   1      -6.304  92.136 121.909  0.00  0.00     0.028 C 
ATOM     12  C   LIG d   1      -7.301  91.727 123.004  0.00  0.00     0.006 C 
ENDBRANCH   8  11
ENDBRANCH   7   8
ENDBRANCH   1   7
BRANCH   6  13
ATOM     13  N   LIG d   1      -3.604  94.944 119.018  0.00  0.00    -0.311 N 
ATOM     14  C   LIG d   1      -2.492  95.227 119.694  0.00  0.00     0.210 C 
ATOM     15  C   LIG d   1      -2.144  96.717 119.773  0.00  0.00     0.109 C 
ATOM     16  O   LIG d   1      -1.743  94.383 120.208  0.00  0.00    -0.276 OA
ATOM     17  H   LIG d   1      -4.133  95.688 118.606  0.00  0.00     0.149 HD
ENDBRANCH   6  13
BRANCH   5  18
ATOM     18  N   LIG d   1      -2.112  92.683 117.606  0.00  0.00     0.381 N 
ATOM     19  H   LIG d   1      -1.907  91.727 117.816  0.00  0.00    -0.090 HD
ATOM     20  H   LIG d   1      -1.724  93.256 118.335  0.00  0.00    -0.090 HD
ATOM     21  H   LIG d   1      -1.710  92.932 116.729  0.00  0.00    -0.090 HD
ENDBRANCH   5  18
BRANCH   3  22
ATOM     22  C   LIG d   1      -6.345  90.600 116.785  0.00  0.00     0.382 C 
ATOM     23  O   LIG d   1      -5.805  89.516 116.457  0.00  0.00    -0.241 OA
ATOM     24  O   LIG d   1      -7.517  90.833 116.431  0.00  0.00    -0.241 OA
ENDBRANCH   3  22
TORSDOF 7
ENDMDL
MODEL 3
REMARK VINA RESULT:      -4.9      0.700      1.665
REMARK  7 active torsions:
REMARK  status: ('A' for Active; 'I' for Inactive)
REMARK    1  A    between atoms: C_2  and  C_3 
REMARK    2  A    between atoms: C_3  and  O_6 
REMARK    3  A    between atoms: C_3  and  C_4 
REMARK    4  A    between atoms: C_7  and  O_6 
REMARK    5  A    between atoms: C_9  and  C_10 
REMARK    6  A    between atoms: N_15  and  C_14 
REMARK    7  A    between atoms: N_20  and  C_19 
REMARK       I    between atoms: C_22  and  N_20 
ROOT
ATOM      1  C   LIG d   1      -2.556  90.040 118.183  0.00  0.00     0.161 C 
ATOM      2  C   LIG d   1      -3.895  89.900 117.783  0.00  0.00     0.016 C 
ATOM      3  C   LIG d   1      -4.700  90.985 117.364  0.00  0.00     0.038 C 
ATOM      4  C   LIG d   1      -4.170  92.269 117.170  0.00  0.00     0.028 C 
ATOM      5  C   LIG d   1      -2.953  92.560 118.041  0.00  0.00    -0.047 C 
ATOM      6  C   LIG d   1      -1.929  91.415 117.872  0.00  0.00     0.091 C 
ENDROOT
BRANCH   1   7
ATOM      7  O   LIG d   1      -1.761  88.985 117.606  0.00  0.00    -0.368 OA
BRANCH   7   8
ATOM      8  C   LIG d   1      -1.243  87.998 118.532  0.00  0.00     0.119 C 
BRANCH   8   9
ATOM      9  C   LIG d   1      -1.666  88.427 119.950  0.00  0.00     0.028 C 
ATOM     10  C   LIG d   1      -2.297  87.274 120.748  0.00  0.00     0.006 C 
ENDBRANCH   8   9
BRANCH   8  11
ATOM     11  C   LIG d   1       0.288  87.998 118.547  0.00  0.00     0.028 C 
ATOM     12  C   LIG d   1       0.898  88.224 117.155  0.00  0.00     0.006 C 
ENDBRANCH   8  11
ENDBRANCH   7   8
ENDBRANCH   1   7
BRANCH   6  13
ATOM     13  N   LIG d   1      -0.744  91.579 118.754  0.00  0.00    -0.311 N 
ATOM     14  C   LIG d   1       0.488  91.792 118.295  0.00  0.00     0.210 C 
ATOM     15  C   LIG d   1       1.568  91.912 119.374  0.00  0.00     0.109 C 
ATOM     16  O   LIG d   1       0.784  91.924 117.098  0.00  0.00    -0.276 OA
ATOM     17  H   LIG d   1      -0.898  91.517 119.741  0.00  0.00     0.149 HD
ENDBRANCH   6  13
BRANCH   5  18
ATOM     18  N   LIG d   1      -2.421  93.876 117.639  0.00  0.00     0.381 N 
ATOM     19  H   LIG d   1      -2.530  93.998 116.652  0.00  0.00    -0.090 HD
ATOM     20  H   LIG d   1      -1.440  93.910 117.854  0.00  0.00    -0.090 HD
ATOM     21  H   LIG d   1      -2.901  94.601 118.125  0.00  0.00    -0.090 HD
ENDBRANCH   5  18
BRANCH   3  22
ATOM     22  C   LIG d   1      -6.060  90.797 117.172  0.00  0.00     0.382 C 
ATOM     23  O   LIG d   1      -6.494  89.678 116.808  0.00  0.00    -0.241 OA
ATOM     24  O   LIG d   1      -6.855  91.746 117.315  0.00  0.00    -0.241 OA
ENDBRANCH   3  22
TORSDOF 7
ENDMDL
MODEL 4
REMARK VINA RESULT:      -4.6      2.643      5.716
REMARK  7 active torsions:
REMARK  status: ('A' for Active; 'I' for Inactive)
REMARK    1  A    between atoms: C_2  and  C_3 
REMARK    2  A    between atoms: C_3  and  O_6 
REMARK    3  A    between atoms: C_3  and  C_4 
REMARK    4  A    between atoms: C_7  and  O_6 
REMARK    5  A    between atoms: C_9  and  C_10 
REMARK    6  A    between atoms: N_15  and  C_14 
REMARK    7  A    between atoms: N_20  and  C_19 
REMARK       I    between atoms: C_22  and  N_20 
ROOT
ATOM      1  C   LIG d   1      -2.896  92.709 119.299  0.00  0.00     0.161 C 
ATOM      2  C   LIG d   1      -2.797  94.094 119.085  0.00  0.00     0.016 C 
ATOM      3  C   LIG d   1      -1.807  94.686 118.267  0.00  0.00     0.038 C 
ATOM      4  C   LIG d   1      -0.935  93.916 117.483  0.00  0.00     0.028 C 
ATOM      5  C   LIG d   1      -0.671  92.527 118.056  0.00  0.00    -0.047 C 
ATOM      6  C   LIG d   1      -2.023  91.846 118.364  0.00  0.00     0.091 C 
ENDROOT
BRANCH   1   7
ATOM      7  O   LIG d   1      -4.275  92.299 119.217  0.00  0.00    -0.368 OA
BRANCH   7   8
ATOM      8  C   LIG d   1      -5.081  92.971 118.217  0.00  0.00     0.119 C 
BRANCH   8   9
ATOM      9  C   LIG d   1      -6.457  93.259 118.849  0.00  0.00     0.028 C 
ATOM     10  C   LIG d   1      -6.913  94.711 118.624  0.00  0.00     0.006 C 
ENDBRANCH   8   9
BRANCH   8  11
ATOM     11  C   LIG d   1      -5.367  92.054 117.024  0.00  0.00     0.028 C 
ATOM     12  C   LIG d   1      -6.332  90.909 117.371  0.00  0.00     0.006 C 
ENDBRANCH   8  11
ENDBRANCH   7   8
ENDBRANCH   1   7
BRANCH   6  13
ATOM     13  N   LIG d   1      -1.855  90.516 119.006  0.00  0.00    -0.311 N 
ATOM     14  C   LIG d   1      -2.476  89.415 118.586  0.00  0.00     0.210 C 
ATOM     15  C   LIG d   1      -2.177  88.153 119.402  0.00  0.00     0.109 C 
ATOM     16  O   LIG d   1      -3.220  89.357 117.596  0.00  0.00    -0.276 OA
ATOM     17  H   LIG d   1      -1.244  90.466 119.798  0.00  0.00     0.149 HD
ENDBRANCH   6  13
BRANCH   5  18
ATOM     18  N   LIG d   1       0.140  91.786 117.072  0.00  0.00     0.381 N 
ATOM     19  H   LIG d   1      -0.262  91.882 116.161  0.00  0.00    -0.090 HD
ATOM     20  H   LIG d   1       0.137  90.811 117.316  0.00  0.00    -0.090 HD
ATOM     21  H   LIG d   1       1.074  92.132 117.069  0.00  0.00    -0.090 HD
ENDBRANCH   5  18
BRANCH   3  22
ATOM     22  C   LIG d   1      -1.655  96.064 118.260  0.00  0.00     0.382 C 
ATOM     23  O   LIG d   1      -1.991  96.737 119.265  0.00  0.00    -0.241 OA
ATOM     24  O   LIG d   1      -1.229  96.648 117.246  0.00  0.00    -0.241 OA
ENDBRANCH   3  22
TORSDOF 7
ENDMDL
MODEL 5
REMARK VINA RESULT:      -4.6      1.962      5.286
REMARK  7 active torsions:
REMARK  status: ('A' for Active; 'I' for Inactive)
REMARK    1  A    between atoms: C_2  and  C_3 
REMARK    2  A    between atoms: C_3  and  O_6 
REMARK    3  A    between atoms: C_3  and  C_4 
REMARK    4  A    between atoms: C_7  and  O_6 
REMARK    5  A    between atoms: C_9  and  C_10 
REMARK    6  A    between atoms: N_15  and  C_14 
REMARK    7  A    between atoms: N_20  and  C_19 
REMARK       I    between atoms: C_22  and  N_20 
ROOT
ATOM      1  C   LIG d   1       0.052  89.821 117.038  0.00  0.00     0.161 C 
ATOM      2  C   LIG d   1       1.413  90.070 117.283  0.00  0.00     0.016 C 
ATOM      3  C   LIG d   1       1.890  91.255 117.889  0.00  0.00     0.038 C 
ATOM      4  C   LIG d   1       1.020  92.212 118.433  0.00  0.00     0.028 C 
ATOM      5  C   LIG d   1      -0.348  92.239 117.759  0.00  0.00    -0.047 C 
ATOM      6  C   LIG d   1      -0.919  90.804 117.725  0.00  0.00     0.091 C 
ENDROOT
BRANCH   1   7
ATOM      7  O   LIG d   1      -0.269  88.463 117.401  0.00  0.00    -0.368 OA
BRANCH   7   8
ATOM      8  C   LIG d   1       0.444  87.923 118.541  0.00  0.00     0.119 C 
BRANCH   8   9
ATOM      9  C   LIG d   1       0.855  86.480 118.188  0.00  0.00     0.028 C 
ATOM     10  C   LIG d   1       0.173  85.438 119.091  0.00  0.00     0.006 C 
ENDBRANCH   8   9
BRANCH   8  11
ATOM     11  C   LIG d   1      -0.471  87.797 119.762  0.00  0.00     0.028 C 
ATOM     12  C   LIG d   1      -0.208  88.882 120.818  0.00  0.00     0.006 C 
ENDBRANCH   8  11
ENDBRANCH   7   8
ENDBRANCH   1   7
BRANCH   6  13
ATOM     13  N   LIG d   1      -2.218  90.728 117.007  0.00  0.00    -0.311 N 
ATOM     14  C   LIG d   1      -3.290  90.106 117.494  0.00  0.00     0.210 C 
ATOM     15  C   LIG d   1      -4.521  90.129 116.583  0.00  0.00     0.109 C 
ATOM     16  O   LIG d   1      -3.348  89.565 118.609  0.00  0.00    -0.276 OA
ATOM     17  H   LIG d   1      -2.269  91.167 116.108  0.00  0.00     0.149 HD
ENDBRANCH   6  13
BRANCH   5  18
ATOM     18  N   LIG d   1      -1.196  93.182 118.512  0.00  0.00     0.381 N 
ATOM     19  H   LIG d   1      -0.793  94.097 118.485  0.00  0.00    -0.090 HD
ATOM     20  H   LIG d   1      -1.241  92.885 119.471  0.00  0.00    -0.090 HD
ATOM     21  H   LIG d   1      -2.112  93.204 118.120  0.00  0.00    -0.090 HD
ENDBRANCH   5  18
BRANCH   3  22
ATOM     22  C   LIG d   1       3.253  91.510 117.921  0.00  0.00     0.382 C 
ATOM     23  O   LIG d   1       3.920  91.227 118.944  0.00  0.00    -0.241 OA
ATOM     24  O   LIG d   1       3.814  92.061 116.955  0.00  0.00    -0.241 OA
ENDBRANCH   3  22
TORSDOF 7
ENDMDL
MODEL 6
REMARK VINA RESULT:      -4.6      2.432      4.429
REMARK  7 active torsions:
REMARK  status: ('A' for Active; 'I' for Inactive)
REMARK    1  A    between atoms: C_2  and  C_3 
REMARK    2  A    between atoms: C_3  and  O_6 
REMARK    3  A    between atoms: C_3  and  C_4 
REMARK    4  A    between atoms: C_7  and  O_6 
REMARK    5  A    between atoms: C_9  and  C_10 
REMARK    6  A    between atoms: N_15  and  C_14 
REMARK    7  A    between atoms: N_20  and  C_19 
REMARK       I    between atoms: C_22  and  N_20 
ROOT
ATOM      1  C   LIG d   1      -3.236  92.633 117.561  0.00  0.00     0.161 C 
ATOM      2  C   LIG d   1      -4.596  92.336 117.372  0.00  0.00     0.016 C 
ATOM      3  C   LIG d   1      -5.099  91.018 117.277  0.00  0.00     0.038 C 
ATOM      4  C   LIG d   1      -4.290  89.897 117.518  0.00  0.00     0.028 C 
ATOM      5  C   LIG d   1      -2.816  90.137 117.212  0.00  0.00    -0.047 C 
ATOM      6  C   LIG d   1      -2.356  91.423 117.937  0.00  0.00     0.091 C 
ENDROOT
BRANCH   1   7
ATOM      7  O   LIG d   1      -3.096  93.678 118.543  0.00  0.00    -0.368 OA
BRANCH   7   8
ATOM      8  C   LIG d   1      -4.196  93.829 119.474  0.00  0.00     0.119 C 
BRANCH   8   9
ATOM      9  C   LIG d   1      -4.365  95.335 119.751  0.00  0.00     0.028 C 
ATOM     10  C   LIG d   1      -3.101  96.141 119.407  0.00  0.00     0.006 C 
ENDBRANCH   8   9
BRANCH   8  11
ATOM     11  C   LIG d   1      -3.866  93.202 120.832  0.00  0.00     0.028 C 
ATOM     12  C   LIG d   1      -4.626  91.890 121.083  0.00  0.00     0.006 C 
ENDBRANCH   8  11
ENDBRANCH   7   8
ENDBRANCH   1   7
BRANCH   6  13
ATOM     13  N   LIG d   1      -0.947  91.777 117.624  0.00  0.00    -0.311 N 
ATOM     14  C   LIG d   1       0.091  91.363 118.348  0.00  0.00     0.210 C 
ATOM     15  C   LIG d   1       1.457  91.860 117.863  0.00  0.00     0.109 C 
ATOM     16  O   LIG d   1       0.014  90.607 119.328  0.00  0.00    -0.276 OA
ATOM     17  H   LIG d   1      -0.790  92.362 116.827  0.00  0.00     0.149 HD
ENDBRANCH   6  13
BRANCH   5  18
ATOM     18  N   LIG d   1      -2.072  88.936 117.637  0.00  0.00     0.381 N 
ATOM     19  H   LIG d   1      -2.565  88.475 118.375  0.00  0.00    -0.090 HD
ATOM     20  H   LIG d   1      -1.173  89.218 117.987  0.00  0.00    -0.090 HD
ATOM     21  H   LIG d   1      -1.957  88.316 116.867  0.00  0.00    -0.090 HD
ENDBRANCH   5  18
BRANCH   3  22
ATOM     22  C   LIG d   1      -6.417  90.811 116.899  0.00  0.00     0.382 C 
ATOM     23  O   LIG d   1      -6.857  89.642 116.775  0.00  0.00    -0.241 OA
ATOM     24  O   LIG d   1      -7.158  91.776 116.636  0.00  0.00    -0.241 OA
ENDBRANCH   3  22
TORSDOF 7
ENDMDL
MODEL 7
REMARK VINA RESULT:      -4.5      1.847      5.061
REMARK  7 active torsions:
REMARK  status: ('A' for Active; 'I' for Inactive)
REMARK    1  A    between atoms: C_2  and  C_3 
REMARK    2  A    between atoms: C_3  and  O_6 
REMARK    3  A    between atoms: C_3  and  C_4 
REMARK    4  A    between atoms: C_7  and  O_6 
REMARK    5  A    between atoms: C_9  and  C_10 
REMARK    6  A    between atoms: N_15  and  C_14 
REMARK    7  A    between atoms: N_20  and  C_19 
REMARK       I    between atoms: C_22  and  N_20 
ROOT
ATOM      1  C   LIG d   1      -2.024  90.845 117.638  0.00  0.00     0.161 C 
ATOM      2  C   LIG d   1      -0.654  90.596 117.827  0.00  0.00     0.016 C 
ATOM      3  C   LIG d   1       0.313  91.620 117.950  0.00  0.00     0.038 C 
ATOM      4  C   LIG d   1      -0.047  92.973 118.043  0.00  0.00     0.028 C 
ATOM      5  C   LIG d   1      -1.366  93.298 117.352  0.00  0.00    -0.047 C 
ATOM      6  C   LIG d   1      -2.449  92.313 117.849  0.00  0.00     0.091 C 
ENDROOT
BRANCH   1   7
ATOM      7  O   LIG d   1      -2.800  89.972 118.483  0.00  0.00    -0.368 OA
BRANCH   7   8
ATOM      8  C   LIG d   1      -2.203  89.619 119.755  0.00  0.00     0.119 C 
BRANCH   8   9
ATOM      9  C   LIG d   1      -2.515  88.133 120.016  0.00  0.00     0.028 C 
ATOM     10  C   LIG d   1      -1.326  87.216 119.683  0.00  0.00     0.006 C 
ENDBRANCH   8   9
BRANCH   8  11
ATOM     11  C   LIG d   1      -2.860  90.381 120.909  0.00  0.00     0.028 C 
ATOM     12  C   LIG d   1      -1.923  91.418 121.549  0.00  0.00     0.006 C 
ENDBRANCH   8  11
ENDBRANCH   7   8
ENDBRANCH   1   7
BRANCH   6  13
ATOM     13  N   LIG d   1      -3.752  92.508 117.160  0.00  0.00    -0.311 N 
ATOM     14  C   LIG d   1      -4.911  92.633 117.804  0.00  0.00     0.210 C 
ATOM     15  C   LIG d   1      -6.137  92.805 116.902  0.00  0.00     0.109 C 
ATOM     16  O   LIG d   1      -5.036  92.652 119.038  0.00  0.00    -0.276 OA
ATOM     17  H   LIG d   1      -3.738  92.536 116.159  0.00  0.00     0.149 HD
ENDBRANCH   6  13
BRANCH   5  18
ATOM     18  N   LIG d   1      -1.688  94.707 117.645  0.00  0.00     0.381 N 
ATOM     19  H   LIG d   1      -1.245  95.302 116.973  0.00  0.00    -0.090 HD
ATOM     20  H   LIG d   1      -1.332  94.939 118.555  0.00  0.00    -0.090 HD
ATOM     21  H   LIG d   1      -2.674  94.844 117.621  0.00  0.00    -0.090 HD
ENDBRANCH   5  18
BRANCH   3  22
ATOM     22  C   LIG d   1       1.661  91.296 117.940  0.00  0.00     0.382 C 
ATOM     23  O   LIG d   1       2.439  91.874 117.142  0.00  0.00    -0.241 OA
ATOM     24  O   LIG d   1       2.102  90.402 118.687  0.00  0.00    -0.241 OA
ENDBRANCH   3  22
TORSDOF 7
ENDMDL
MODEL 8
REMARK VINA RESULT:      -4.5      2.517      3.507
REMARK  7 active torsions:
REMARK  status: ('A' for Active; 'I' for Inactive)
REMARK    1  A    between atoms: C_2  and  C_3 
REMARK    2  A    between atoms: C_3  and  O_6 
REMARK    3  A    between atoms: C_3  and  C_4 
REMARK    4  A    between atoms: C_7  and  O_6 
REMARK    5  A    between atoms: C_9  and  C_10 
REMARK    6  A    between atoms: N_15  and  C_14 
REMARK    7  A    between atoms: N_20  and  C_19 
REMARK       I    between atoms: C_22  and  N_20 
ROOT
ATOM      1  C   LIG d   1      -3.986  91.902 118.878  0.00  0.00     0.161 C 
ATOM      2  C   LIG d   1      -4.736  91.050 118.050  0.00  0.00     0.016 C 
ATOM      3  C   LIG d   1      -5.884  91.468 117.339  0.00  0.00     0.038 C 
ATOM      4  C   LIG d   1      -6.276  92.814 117.289  0.00  0.00     0.028 C 
ATOM      5  C   LIG d   1      -5.846  93.616 118.512  0.00  0.00    -0.047 C 
ATOM      6  C   LIG d   1      -4.333  93.400 118.748  0.00  0.00     0.091 C 
ENDROOT
BRANCH   1   7
ATOM      7  O   LIG d   1      -2.579  91.692 118.649  0.00  0.00    -0.368 OA
BRANCH   7   8
ATOM      8  C   LIG d   1      -1.917  90.770 119.550  0.00  0.00     0.119 C 
BRANCH   8   9
ATOM      9  C   LIG d   1      -0.584  91.416 119.976  0.00  0.00     0.028 C 
ATOM     10  C   LIG d   1       0.070  92.218 118.838  0.00  0.00     0.006 C 
ENDBRANCH   8   9
BRANCH   8  11
ATOM     11  C   LIG d   1      -1.528  89.473 118.834  0.00  0.00     0.028 C 
ATOM     12  C   LIG d   1      -1.832  88.218 119.667  0.00  0.00     0.006 C 
ENDBRANCH   8  11
ENDBRANCH   7   8
ENDBRANCH   1   7
BRANCH   6  13
ATOM     13  N   LIG d   1      -3.848  94.082 119.976  0.00  0.00    -0.311 N 
ATOM     14  C   LIG d   1      -2.794  94.897 119.993  0.00  0.00     0.210 C 
ATOM     15  C   LIG d   1      -2.451  95.480 121.368  0.00  0.00     0.109 C 
ATOM     16  O   LIG d   1      -2.130  95.216 118.996  0.00  0.00    -0.276 OA
ATOM     17  H   LIG d   1      -4.347  93.903 120.825  0.00  0.00     0.149 HD
ENDBRANCH   6  13
BRANCH   5  18
ATOM     18  N   LIG d   1      -6.197  95.027 118.266  0.00  0.00     0.381 N 
ATOM     19  H   LIG d   1      -6.542  95.132 117.333  0.00  0.00    -0.090 HD
ATOM     20  H   LIG d   1      -5.369  95.589 118.361  0.00  0.00    -0.090 HD
ATOM     21  H   LIG d   1      -6.887  95.326 118.919  0.00  0.00    -0.090 HD
ENDBRANCH   5  18
BRANCH   3  22
ATOM     22  C   LIG d   1      -6.677  90.527 116.700  0.00  0.00     0.382 C 
ATOM     23  O   LIG d   1      -7.873  90.794 116.430  0.00  0.00    -0.241 OA
ATOM     24  O   LIG d   1      -6.225  89.398 116.430  0.00  0.00    -0.241 OA
ENDBRANCH   3  22
TORSDOF 7
ENDMDL
MODEL 9
REMARK VINA RESULT:      -4.4      2.584      4.131
REMARK  7 active torsions:
REMARK  status: ('A' for Active; 'I' for Inactive)
REMARK    1  A    between atoms: C_2  and  C_3 
REMARK    2  A    between atoms: C_3  and  O_6 
REMARK    3  A    between atoms: C_3  and  C_4 
REMARK    4  A    between atoms: C_7  and  O_6 
REMARK    5  A    between atoms: C_9  and  C_10 
REMARK    6  A    between atoms: N_15  and  C_14 
REMARK    7  A    between atoms: N_20  and  C_19 
REMARK       I    between atoms: C_22  and  N_20 
ROOT
ATOM      1  C   LIG d   1      -2.935  92.791 118.275  0.00  0.00     0.161 C 
ATOM      2  C   LIG d   1      -4.251  93.228 118.501  0.00  0.00     0.016 C 
ATOM      3  C   LIG d   1      -5.393  92.508 118.080  0.00  0.00     0.038 C 
ATOM      4  C   LIG d   1      -5.297  91.219 117.535  0.00  0.00     0.028 C 
ATOM      5  C   LIG d   1      -3.971  90.956 116.829  0.00  0.00    -0.047 C 
ATOM      6  C   LIG d   1      -2.813  91.334 117.781  0.00  0.00     0.091 C 
ENDROOT
BRANCH   1   7
ATOM      7  O   LIG d   1      -2.145  92.984 119.465  0.00  0.00    -0.368 OA
BRANCH   7   8
ATOM      8  C   LIG d   1      -2.859  92.910 120.723  0.00  0.00     0.119 C 
BRANCH   8   9
ATOM      9  C   LIG d   1      -2.288  94.004 121.645  0.00  0.00     0.028 C 
ATOM     10  C   LIG d   1      -2.476  95.417 121.066  0.00  0.00     0.006 C 
ENDBRANCH   8   9
BRANCH   8  11
ATOM     11  C   LIG d   1      -2.583  91.587 121.444  0.00  0.00     0.028 C 
ATOM     12  C   LIG d   1      -1.082  91.274 121.560  0.00  0.00     0.006 C 
ENDBRANCH   8  11
ENDBRANCH   7   8
ENDBRANCH   1   7
BRANCH   6  13
ATOM     13  N   LIG d   1      -1.481  91.187 117.138  0.00  0.00    -0.311 N 
ATOM     14  C   LIG d   1      -0.553  90.330 117.561  0.00  0.00     0.210 C 
ATOM     15  C   LIG d   1       0.758  90.353 116.769  0.00  0.00     0.109 C 
ATOM     16  O   LIG d   1      -0.704  89.530 118.497  0.00  0.00    -0.276 OA
ATOM     17  H   LIG d   1      -1.286  91.776 116.352  0.00  0.00     0.149 HD
ENDBRANCH   6  13
BRANCH   5  18
ATOM     18  N   LIG d   1      -3.952  89.536 116.431  0.00  0.00     0.381 N 
ATOM     19  H   LIG d   1      -4.372  88.978 117.146  0.00  0.00    -0.090 HD
ATOM     20  H   LIG d   1      -2.997  89.242 116.321  0.00  0.00    -0.090 HD
ATOM     21  H   LIG d   1      -4.445  89.416 115.573  0.00  0.00    -0.090 HD
ENDBRANCH   5  18
BRANCH   3  22
ATOM     22  C   LIG d   1      -6.646  93.095 118.168  0.00  0.00     0.382 C 
ATOM     23  O   LIG d   1      -7.176  93.277 119.290  0.00  0.00    -0.241 OA
ATOM     24  O   LIG d   1      -7.272  93.403 117.136  0.00  0.00    -0.241 OA
ENDBRANCH   3  22
TORSDOF 7
ENDMDL
