MODEL 1
REMARK VINA RESULT:      -4.5      0.000      0.000
REMARK  7 active torsions:
REMARK  status: ('A' for Active; 'I' for Inactive)
REMARK    1  A    between atoms: C_2  and  C_3 
REMARK    2  A    between atoms: C_3  and  O_6 
REMARK    3  A    between atoms: C_3  and  C_4 
REMARK    4  A    between atoms: C_7  and  O_6 
REMARK    5  A    between atoms: C_9  and  C_10 
REMARK    6  A    between atoms: N_15  and  C_14 
REMARK    7  A    between atoms: N_20  and  C_19 
REMARK       I    between atoms: C_22  and  N_20 
ROOT
ATOM      1  C   LIG d   1      -5.024  93.462 119.390  0.00  0.00     0.161 C 
ATOM      2  C   LIG d   1      -6.226  93.118 118.751  0.00  0.00     0.016 C 
ATOM      3  C   LIG d   1      -6.307  92.175 117.700  0.00  0.00     0.038 C 
ATOM      4  C   LIG d   1      -5.205  91.397 117.316  0.00  0.00     0.028 C 
ATOM      5  C   LIG d   1      -3.863  92.069 117.589  0.00  0.00    -0.047 C 
ATOM      6  C   LIG d   1      -3.829  92.542 119.060  0.00  0.00     0.091 C 
ENDROOT
BRANCH   1   7
ATOM      7  O   LIG d   1      -5.229  93.525 120.815  0.00  0.00    -0.368 OA
BRANCH   7   8
ATOM      8  C   LIG d   1      -6.588  93.768 121.254  0.00  0.00     0.119 C 
BRANCH   8   9
ATOM      9  C   LIG d   1      -6.660  95.224 121.754  0.00  0.00     0.028 C 
ATOM     10  C   LIG d   1      -7.342  96.159 120.741  0.00  0.00     0.006 C 
ENDBRANCH   8   9
BRANCH   8  11
ATOM     11  C   LIG d   1      -6.945  92.904 122.467  0.00  0.00     0.028 C 
ATOM     12  C   LIG d   1      -8.288  93.296 123.103  0.00  0.00     0.006 C 
ENDBRANCH   8  11
ENDBRANCH   7   8
ENDBRANCH   1   7
BRANCH   6  13
ATOM     13  N   LIG d   1      -2.585  93.286 119.388  0.00  0.00    -0.311 N 
ATOM     14  C   LIG d   1      -1.504  92.711 119.912  0.00  0.00     0.210 C 
ATOM     15  C   LIG d   1      -0.337  93.662 120.192  0.00  0.00     0.109 C 
ATOM     16  O   LIG d   1      -1.389  91.497 120.142  0.00  0.00    -0.276 OA
ATOM     17  H   LIG d   1      -2.580  94.270 119.205  0.00  0.00     0.149 HD
ENDBRANCH   6  13
BRANCH   5  18
ATOM     18  N   LIG d   1      -2.803  91.095 117.270  0.00  0.00     0.381 N 
ATOM     19  H   LIG d   1      -2.949  90.253 117.791  0.00  0.00    -0.090 HD
ATOM     20  H   LIG d   1      -1.915  91.481 117.538  0.00  0.00    -0.090 HD
ATOM     21  H   LIG d   1      -2.806  90.895 116.294  0.00  0.00    -0.090 HD
ENDBRANCH   5  18
BRANCH   3  22
ATOM     22  C   LIG d   1      -7.491  92.033 116.994  0.00  0.00     0.382 C 
ATOM     23  O   LIG d   1      -8.317  92.978 116.957  0.00  0.00    -0.241 OA
ATOM     24  O   LIG d   1      -7.766  90.957 116.430  0.00  0.00    -0.241 OA
ENDBRANCH   3  22
TORSDOF 7
ENDMDL
MODEL 2
REMARK VINA RESULT:      -4.5      2.751      4.943
REMARK  7 active torsions:
REMARK  status: ('A' for Active; 'I' for Inactive)
REMARK    1  A    between atoms: C_2  and  C_3 
REMARK    2  A    between atoms: C_3  and  O_6 
REMARK    3  A    between atoms: C_3  and  C_4 
REMARK    4  A    between atoms: C_7  and  O_6 
REMARK    5  A    between atoms: C_9  and  C_10 
REMARK    6  A    between atoms: N_15  and  C_14 
REMARK    7  A    between atoms: N_20  and  C_19 
REMARK       I    between atoms: C_22  and  N_20 
ROOT
ATOM      1  C   LIG d   1      -5.487  93.345 119.938  0.00  0.00     0.161 C 
ATOM      2  C   LIG d   1      -4.475  92.486 119.477  0.00  0.00     0.016 C 
ATOM      3  C   LIG d   1      -4.523  91.828 118.227  0.00  0.00     0.038 C 
ATOM      4  C   LIG d   1      -5.522  92.104 117.281  0.00  0.00     0.028 C 
ATOM      5  C   LIG d   1      -6.830  92.579 117.904  0.00  0.00    -0.047 C 
ATOM      6  C   LIG d   1      -6.531  93.744 118.874  0.00  0.00     0.091 C 
ENDROOT
BRANCH   1   7
ATOM      7  O   LIG d   1      -4.899  94.520 120.530  0.00  0.00    -0.368 OA
BRANCH   7   8
ATOM      8  C   LIG d   1      -4.473  95.553 119.607  0.00  0.00     0.119 C 
BRANCH   8   9
ATOM      9  C   LIG d   1      -2.940  95.664 119.712  0.00  0.00     0.028 C 
ATOM     10  C   LIG d   1      -2.234  95.302 118.394  0.00  0.00     0.006 C 
ENDBRANCH   8   9
BRANCH   8  11
ATOM     11  C   LIG d   1      -5.009  96.926 120.022  0.00  0.00     0.028 C 
ATOM     12  C   LIG d   1      -5.867  96.871 121.296  0.00  0.00     0.006 C 
ENDBRANCH   8  11
ENDBRANCH   7   8
ENDBRANCH   1   7
BRANCH   6  13
ATOM     13  N   LIG d   1      -7.746  94.213 119.590  0.00  0.00    -0.311 N 
ATOM     14  C   LIG d   1      -8.476  95.253 119.191  0.00  0.00     0.210 C 
ATOM     15  C   LIG d   1      -9.678  95.579 120.084  0.00  0.00     0.109 C 
ATOM     16  O   LIG d   1      -8.262  95.915 118.165  0.00  0.00    -0.276 OA
ATOM     17  H   LIG d   1      -8.010  93.712 120.416  0.00  0.00     0.149 HD
ENDBRANCH   6  13
BRANCH   5  18
ATOM     18  N   LIG d   1      -7.735  92.961 116.803  0.00  0.00     0.381 N 
ATOM     19  H   LIG d   1      -7.210  93.079 115.959  0.00  0.00    -0.090 HD
ATOM     20  H   LIG d   1      -8.169  93.838 117.029  0.00  0.00    -0.090 HD
ATOM     21  H   LIG d   1      -8.431  92.260 116.675  0.00  0.00    -0.090 HD
ENDBRANCH   5  18
BRANCH   3  22
ATOM     22  C   LIG d   1      -3.584  90.852 117.928  0.00  0.00     0.382 C 
ATOM     23  O   LIG d   1      -3.908  89.640 117.958  0.00  0.00    -0.241 OA
ATOM     24  O   LIG d   1      -2.406  91.166 117.672  0.00  0.00    -0.241 OA
ENDBRANCH   3  22
TORSDOF 7
ENDMDL
MODEL 3
REMARK VINA RESULT:      -4.5      1.122      1.848
REMARK  7 active torsions:
REMARK  status: ('A' for Active; 'I' for Inactive)
REMARK    1  A    between atoms: C_2  and  C_3 
REMARK    2  A    between atoms: C_3  and  O_6 
REMARK    3  A    between atoms: C_3  and  C_4 
REMARK    4  A    between atoms: C_7  and  O_6 
REMARK    5  A    between atoms: C_9  and  C_10 
REMARK    6  A    between atoms: N_15  and  C_14 
REMARK    7  A    between atoms: N_20  and  C_19 
REMARK       I    between atoms: C_22  and  N_20 
ROOT
ATOM      1  C   LIG d   1      -4.996  93.571 119.267  0.00  0.00     0.161 C 
ATOM      2  C   LIG d   1      -6.214  93.200 118.672  0.00  0.00     0.016 C 
ATOM      3  C   LIG d   1      -6.323  92.192 117.687  0.00  0.00     0.038 C 
ATOM      4  C   LIG d   1      -5.237  91.375 117.338  0.00  0.00     0.028 C 
ATOM      5  C   LIG d   1      -3.884  92.047 117.544  0.00  0.00    -0.047 C 
ATOM      6  C   LIG d   1      -3.819  92.616 118.980  0.00  0.00     0.091 C 
ENDROOT
BRANCH   1   7
ATOM      7  O   LIG d   1      -5.176  93.730 120.689  0.00  0.00    -0.368 OA
BRANCH   7   8
ATOM      8  C   LIG d   1      -5.176  95.093 121.182  0.00  0.00     0.119 C 
BRANCH   8   9
ATOM      9  C   LIG d   1      -6.641  95.490 121.446  0.00  0.00     0.028 C 
ATOM     10  C   LIG d   1      -7.156  96.535 120.442  0.00  0.00     0.006 C 
ENDBRANCH   8   9
BRANCH   8  11
ATOM     11  C   LIG d   1      -4.676  96.071 120.115  0.00  0.00     0.028 C 
ATOM     12  C   LIG d   1      -3.326  96.710 120.478  0.00  0.00     0.006 C 
ENDBRANCH   8  11
ENDBRANCH   7   8
ENDBRANCH   1   7
BRANCH   6  13
ATOM     13  N   LIG d   1      -2.561  93.363 119.238  0.00  0.00    -0.311 N 
ATOM     14  C   LIG d   1      -1.487  92.817 119.806  0.00  0.00     0.210 C 
ATOM     15  C   LIG d   1      -0.302  93.769 119.998  0.00  0.00     0.109 C 
ATOM     16  O   LIG d   1      -1.391  91.626 120.139  0.00  0.00    -0.276 OA
ATOM     17  H   LIG d   1      -2.540  94.327 118.970  0.00  0.00     0.149 HD
ENDBRANCH   6  13
BRANCH   5  18
ATOM     18  N   LIG d   1      -2.840  91.040 117.273  0.00  0.00     0.381 N 
ATOM     19  H   LIG d   1      -2.018  91.490 116.924  0.00  0.00    -0.090 HD
ATOM     20  H   LIG d   1      -3.176  90.406 116.570  0.00  0.00    -0.090 HD
ATOM     21  H   LIG d   1      -2.625  90.540 118.107  0.00  0.00    -0.090 HD
ENDBRANCH   5  18
BRANCH   3  22
ATOM     22  C   LIG d   1      -7.522  92.018 117.011  0.00  0.00     0.382 C 
ATOM     23  O   LIG d   1      -8.384  92.930 117.020  0.00  0.00    -0.241 OA
ATOM     24  O   LIG d   1      -7.769  90.945 116.430  0.00  0.00    -0.241 OA
ENDBRANCH   3  22
TORSDOF 7
ENDMDL
MODEL 4
REMARK VINA RESULT:      -4.4      3.350      7.281
REMARK  7 active torsions:
REMARK  status: ('A' for Active; 'I' for Inactive)
REMARK    1  A    between atoms: C_2  and  C_3 
REMARK    2  A    between atoms: C_3  and  O_6 
REMARK    3  A    between atoms: C_3  and  C_4 
REMARK    4  A    between atoms: C_7  and  O_6 
REMARK    5  A    between atoms: C_9  and  C_10 
REMARK    6  A    between atoms: N_15  and  C_14 
REMARK    7  A    between atoms: N_20  and  C_19 
REMARK       I    between atoms: C_22  and  N_20 
ROOT
ATOM      1  C   LIG d   1      -0.813  91.504 118.149  0.00  0.00     0.161 C 
ATOM      2  C   LIG d   1       0.504  91.915 118.415  0.00  0.00     0.016 C 
ATOM      3  C   LIG d   1       0.892  93.271 118.511  0.00  0.00     0.038 C 
ATOM      4  C   LIG d   1      -0.047  94.313 118.496  0.00  0.00     0.028 C 
ATOM      5  C   LIG d   1      -1.318  93.973 117.725  0.00  0.00    -0.047 C 
ATOM      6  C   LIG d   1      -1.871  92.624 118.240  0.00  0.00     0.091 C 
ENDROOT
BRANCH   1   7
ATOM      7  O   LIG d   1      -1.168  90.408 119.015  0.00  0.00    -0.368 OA
BRANCH   7   8
ATOM      8  C   LIG d   1      -1.646  89.207 118.360  0.00  0.00     0.119 C 
BRANCH   8   9
ATOM      9  C   LIG d   1      -3.007  88.849 118.987  0.00  0.00     0.028 C 
ATOM     10  C   LIG d   1      -2.868  87.887 120.180  0.00  0.00     0.006 C 
ENDBRANCH   8   9
BRANCH   8  11
ATOM     11  C   LIG d   1      -0.736  88.012 118.654  0.00  0.00     0.028 C 
ATOM     12  C   LIG d   1       0.329  87.791 117.568  0.00  0.00     0.006 C 
ENDBRANCH   8  11
ENDBRANCH   7   8
ENDBRANCH   1   7
BRANCH   6  13
ATOM     13  N   LIG d   1      -3.067  92.175 117.481  0.00  0.00    -0.311 N 
ATOM     14  C   LIG d   1      -4.317  92.393 117.886  0.00  0.00     0.210 C 
ATOM     15  C   LIG d   1      -5.403  91.829 116.965  0.00  0.00     0.109 C 
ATOM     16  O   LIG d   1      -4.629  93.028 118.905  0.00  0.00    -0.276 OA
ATOM     17  H   LIG d   1      -2.906  91.679 116.626  0.00  0.00     0.149 HD
ENDBRANCH   6  13
BRANCH   5  18
ATOM     18  N   LIG d   1      -2.263  95.091 117.907  0.00  0.00     0.381 N 
ATOM     19  H   LIG d   1      -2.818  95.203 117.082  0.00  0.00    -0.090 HD
ATOM     20  H   LIG d   1      -1.740  95.938 118.052  0.00  0.00    -0.090 HD
ATOM     21  H   LIG d   1      -2.851  94.917 118.692  0.00  0.00    -0.090 HD
ENDBRANCH   5  18
BRANCH   3  22
ATOM     22  C   LIG d   1       2.237  93.598 118.584  0.00  0.00     0.382 C 
ATOM     23  O   LIG d   1       2.692  94.159 119.610  0.00  0.00    -0.241 OA
ATOM     24  O   LIG d   1       2.994  93.378 117.619  0.00  0.00    -0.241 OA
ENDBRANCH   3  22
TORSDOF 7
ENDMDL
MODEL 5
REMARK VINA RESULT:      -4.4      1.132      1.693
REMARK  7 active torsions:
REMARK  status: ('A' for Active; 'I' for Inactive)
REMARK    1  A    between atoms: C_2  and  C_3 
REMARK    2  A    between atoms: C_3  and  O_6 
REMARK    3  A    between atoms: C_3  and  C_4 
REMARK    4  A    between atoms: C_7  and  O_6 
REMARK    5  A    between atoms: C_9  and  C_10 
REMARK    6  A    between atoms: N_15  and  C_14 
REMARK    7  A    between atoms: N_20  and  C_19 
REMARK       I    between atoms: C_22  and  N_20 
ROOT
ATOM      1  C   LIG d   1      -4.979  93.809 119.174  0.00  0.00     0.161 C 
ATOM      2  C   LIG d   1      -6.210  93.398 118.637  0.00  0.00     0.016 C 
ATOM      3  C   LIG d   1      -6.344  92.312 117.741  0.00  0.00     0.038 C 
ATOM      4  C   LIG d   1      -5.269  91.464 117.438  0.00  0.00     0.028 C 
ATOM      5  C   LIG d   1      -3.909  92.142 117.559  0.00  0.00    -0.047 C 
ATOM      6  C   LIG d   1      -3.812  92.827 118.942  0.00  0.00     0.091 C 
ENDROOT
BRANCH   1   7
ATOM      7  O   LIG d   1      -5.128  94.087 120.580  0.00  0.00    -0.368 OA
BRANCH   7   8
ATOM      8  C   LIG d   1      -5.187  92.933 121.455  0.00  0.00     0.119 C 
BRANCH   8   9
ATOM      9  C   LIG d   1      -6.572  92.936 122.131  0.00  0.00     0.028 C 
ATOM     10  C   LIG d   1      -7.221  94.330 122.135  0.00  0.00     0.006 C 
ENDBRANCH   8   9
BRANCH   8  11
ATOM     11  C   LIG d   1      -4.177  93.050 122.600  0.00  0.00     0.028 C 
ATOM     12  C   LIG d   1      -3.407  94.379 122.582  0.00  0.00     0.006 C 
ENDBRANCH   8  11
ENDBRANCH   7   8
ENDBRANCH   1   7
BRANCH   6  13
ATOM     13  N   LIG d   1      -2.545  93.586 119.110  0.00  0.00    -0.311 N 
ATOM     14  C   LIG d   1      -1.467  93.088 119.714  0.00  0.00     0.210 C 
ATOM     15  C   LIG d   1      -0.274  94.045 119.799  0.00  0.00     0.109 C 
ATOM     16  O   LIG d   1      -1.375  91.934 120.158  0.00  0.00    -0.276 OA
ATOM     17  H   LIG d   1      -2.522  94.520 118.751  0.00  0.00     0.149 HD
ENDBRANCH   6  13
BRANCH   5  18
ATOM     18  N   LIG d   1      -2.876  91.110 117.351  0.00  0.00     0.381 N 
ATOM     19  H   LIG d   1      -3.272  90.326 116.872  0.00  0.00    -0.090 HD
ATOM     20  H   LIG d   1      -2.543  90.798 118.246  0.00  0.00    -0.090 HD
ATOM     21  H   LIG d   1      -2.121  91.486 116.821  0.00  0.00    -0.090 HD
ENDBRANCH   5  18
BRANCH   3  22
ATOM     22  C   LIG d   1      -7.558  92.090 117.107  0.00  0.00     0.382 C 
ATOM     23  O   LIG d   1      -7.730  91.048 116.430  0.00  0.00    -0.241 OA
ATOM     24  O   LIG d   1      -8.466  92.940 117.167  0.00  0.00    -0.241 OA
ENDBRANCH   3  22
TORSDOF 7
ENDMDL
MODEL 6
REMARK VINA RESULT:      -4.1      3.193      6.696
REMARK  7 active torsions:
REMARK  status: ('A' for Active; 'I' for Inactive)
REMARK    1  A    between atoms: C_2  and  C_3 
REMARK    2  A    between atoms: C_3  and  O_6 
REMARK    3  A    between atoms: C_3  and  C_4 
REMARK    4  A    between atoms: C_7  and  O_6 
REMARK    5  A    between atoms: C_9  and  C_10 
REMARK    6  A    between atoms: N_15  and  C_14 
REMARK    7  A    between atoms: N_20  and  C_19 
REMARK       I    between atoms: C_22  and  N_20 
ROOT
ATOM      1  C   LIG d   1      -1.993  90.776 117.765  0.00  0.00     0.161 C 
ATOM      2  C   LIG d   1      -0.660  90.964 118.166  0.00  0.00     0.016 C 
ATOM      3  C   LIG d   1      -0.139  92.212 118.578  0.00  0.00     0.038 C 
ATOM      4  C   LIG d   1      -0.962  93.334 118.761  0.00  0.00     0.028 C 
ATOM      5  C   LIG d   1      -2.211  93.319 117.887  0.00  0.00    -0.047 C 
ATOM      6  C   LIG d   1      -2.932  91.963 118.065  0.00  0.00     0.091 C 
ENDROOT
BRANCH   1   7
ATOM      7  O   LIG d   1      -2.513  89.565 118.349  0.00  0.00    -0.368 OA
BRANCH   7   8
ATOM      8  C   LIG d   1      -1.912  89.153 119.602  0.00  0.00     0.119 C 
BRANCH   8   9
ATOM      9  C   LIG d   1      -1.778  87.618 119.567  0.00  0.00     0.028 C 
ATOM     10  C   LIG d   1      -0.438  87.160 118.967  0.00  0.00     0.006 C 
ENDBRANCH   8   9
BRANCH   8  11
ATOM     11  C   LIG d   1      -2.834  89.453 120.787  0.00  0.00     0.028 C 
ATOM     12  C   LIG d   1      -2.413  90.709 121.566  0.00  0.00     0.006 C 
ENDBRANCH   8  11
ENDBRANCH   7   8
ENDBRANCH   1   7
BRANCH   6  13
ATOM     13  N   LIG d   1      -4.119  91.832 117.180  0.00  0.00    -0.311 N 
ATOM     14  C   LIG d   1      -5.359  92.124 117.569  0.00  0.00     0.210 C 
ATOM     15  C   LIG d   1      -6.440  91.899 116.507  0.00  0.00     0.109 C 
ATOM     16  O   LIG d   1      -5.662  92.578 118.682  0.00  0.00    -0.276 OA
ATOM     17  H   LIG d   1      -3.960  91.499 116.249  0.00  0.00     0.149 HD
ENDBRANCH   6  13
BRANCH   5  18
ATOM     18  N   LIG d   1      -3.043  94.472 118.279  0.00  0.00     0.381 N 
ATOM     19  H   LIG d   1      -2.789  94.776 119.197  0.00  0.00    -0.090 HD
ATOM     20  H   LIG d   1      -4.007  94.186 118.296  0.00  0.00    -0.090 HD
ATOM     21  H   LIG d   1      -2.922  95.217 117.628  0.00  0.00    -0.090 HD
ENDBRANCH   5  18
BRANCH   3  22
ATOM     22  C   LIG d   1       1.226  92.358 118.772  0.00  0.00     0.382 C 
ATOM     23  O   LIG d   1       1.829  93.339 118.275  0.00  0.00    -0.241 OA
ATOM     24  O   LIG d   1       1.870  91.496 119.401  0.00  0.00    -0.241 OA
ENDBRANCH   3  22
TORSDOF 7
ENDMDL
MODEL 7
REMARK VINA RESULT:      -4.1      4.250      8.323
REMARK  7 active torsions:
REMARK  status: ('A' for Active; 'I' for Inactive)
REMARK    1  A    between atoms: C_2  and  C_3 
REMARK    2  A    between atoms: C_3  and  O_6 
REMARK    3  A    between atoms: C_3  and  C_4 
REMARK    4  A    between atoms: C_7  and  O_6 
REMARK    5  A    between atoms: C_9  and  C_10 
REMARK    6  A    between atoms: N_15  and  C_14 
REMARK    7  A    between atoms: N_20  and  C_19 
REMARK       I    between atoms: C_22  and  N_20 
ROOT
ATOM      1  C   LIG d   1       0.014  90.636 117.051  0.00  0.00     0.161 C 
ATOM      2  C   LIG d   1       1.399  90.828 117.187  0.00  0.00     0.016 C 
ATOM      3  C   LIG d   1       1.969  91.877 117.945  0.00  0.00     0.038 C 
ATOM      4  C   LIG d   1       1.188  92.720 118.748  0.00  0.00     0.028 C 
ATOM      5  C   LIG d   1      -0.243  92.881 118.245  0.00  0.00    -0.047 C 
ATOM      6  C   LIG d   1      -0.852  91.480 118.010  0.00  0.00     0.091 C 
ENDROOT
BRANCH   1   7
ATOM      7  O   LIG d   1      -0.301  89.237 117.191  0.00  0.00    -0.368 OA
BRANCH   7   8
ATOM      8  C   LIG d   1       0.688  88.425 117.870  0.00  0.00     0.119 C 
BRANCH   8   9
ATOM      9  C   LIG d   1       1.045  87.252 116.937  0.00  0.00     0.028 C 
ATOM     10  C   LIG d   1       1.205  85.925 117.697  0.00  0.00     0.006 C 
ENDBRANCH   8   9
BRANCH   8  11
ATOM     11  C   LIG d   1       0.107  87.778 119.131  0.00  0.00     0.028 C 
ATOM     12  C   LIG d   1      -1.416  87.951 119.242  0.00  0.00     0.006 C 
ENDBRANCH   8  11
ENDBRANCH   7   8
ENDBRANCH   1   7
BRANCH   6  13
ATOM     13  N   LIG d   1      -2.222  91.546 117.437  0.00  0.00    -0.311 N 
ATOM     14  C   LIG d   1      -3.321  91.246 118.128  0.00  0.00     0.210 C 
ATOM     15  C   LIG d   1      -4.630  91.361 117.342  0.00  0.00     0.109 C 
ATOM     16  O   LIG d   1      -3.338  90.926 119.326  0.00  0.00    -0.276 OA
ATOM     17  H   LIG d   1      -2.303  91.827 116.480  0.00  0.00     0.149 HD
ENDBRANCH   6  13
BRANCH   5  18
ATOM     18  N   LIG d   1      -0.982  93.671 119.248  0.00  0.00     0.381 N 
ATOM     19  H   LIG d   1      -0.504  93.636 120.126  0.00  0.00    -0.090 HD
ATOM     20  H   LIG d   1      -1.895  93.270 119.369  0.00  0.00    -0.090 HD
ATOM     21  H   LIG d   1      -1.064  94.616 118.944  0.00  0.00    -0.090 HD
ENDBRANCH   5  18
BRANCH   3  22
ATOM     22  C   LIG d   1       3.333  92.114 117.873  0.00  0.00     0.382 C 
ATOM     23  O   LIG d   1       4.137  91.325 118.426  0.00  0.00    -0.241 OA
ATOM     24  O   LIG d   1       3.768  93.131 117.300  0.00  0.00    -0.241 OA
ENDBRANCH   3  22
TORSDOF 7
ENDMDL
MODEL 8
REMARK VINA RESULT:      -4.0      3.183      4.744
REMARK  7 active torsions:
REMARK  status: ('A' for Active; 'I' for Inactive)
REMARK    1  A    between atoms: C_2  and  C_3 
REMARK    2  A    between atoms: C_3  and  O_6 
REMARK    3  A    between atoms: C_3  and  C_4 
REMARK    4  A    between atoms: C_7  and  O_6 
REMARK    5  A    between atoms: C_9  and  C_10 
REMARK    6  A    between atoms: N_15  and  C_14 
REMARK    7  A    between atoms: N_20  and  C_19 
REMARK       I    between atoms: C_22  and  N_20 
ROOT
ATOM      1  C   LIG d   1      -1.750  92.976 117.981  0.00  0.00     0.161 C 
ATOM      2  C   LIG d   1      -3.154  92.997 118.016  0.00  0.00     0.016 C 
ATOM      3  C   LIG d   1      -3.950  91.829 118.002  0.00  0.00     0.038 C 
ATOM      4  C   LIG d   1      -3.389  90.548 118.105  0.00  0.00     0.028 C 
ATOM      5  C   LIG d   1      -1.966  90.465 117.563  0.00  0.00    -0.047 C 
ATOM      6  C   LIG d   1      -1.118  91.586 118.205  0.00  0.00     0.091 C 
ENDROOT
BRANCH   1   7
ATOM      7  O   LIG d   1      -1.223  93.925 118.929  0.00  0.00    -0.368 OA
BRANCH   7   8
ATOM      8  C   LIG d   1      -0.631  95.124 118.370  0.00  0.00     0.119 C 
BRANCH   8   9
ATOM      9  C   LIG d   1       0.871  95.102 118.713  0.00  0.00     0.028 C 
ATOM     10  C   LIG d   1       1.133  94.719 120.179  0.00  0.00     0.006 C 
ENDBRANCH   8   9
BRANCH   8  11
ATOM     11  C   LIG d   1      -1.182  96.384 119.045  0.00  0.00     0.028 C 
ATOM     12  C   LIG d   1      -2.662  96.637 118.716  0.00  0.00     0.006 C 
ENDBRANCH   8  11
ENDBRANCH   7   8
ENDBRANCH   1   7
BRANCH   6  13
ATOM     13  N   LIG d   1       0.267  91.630 117.666  0.00  0.00    -0.311 N 
ATOM     14  C   LIG d   1       1.352  91.447 118.417  0.00  0.00     0.210 C 
ATOM     15  C   LIG d   1       2.683  91.552 117.666  0.00  0.00     0.109 C 
ATOM     16  O   LIG d   1       1.337  91.176 119.627  0.00  0.00    -0.276 OA
ATOM     17  H   LIG d   1       0.370  91.813 116.687  0.00  0.00     0.149 HD
ENDBRANCH   6  13
BRANCH   5  18
ATOM     18  N   LIG d   1      -1.455  89.113 117.858  0.00  0.00     0.381 N 
ATOM     19  H   LIG d   1      -0.483  89.161 118.091  0.00  0.00    -0.090 HD
ATOM     20  H   LIG d   1      -1.553  88.542 117.037  0.00  0.00    -0.090 HD
ATOM     21  H   LIG d   1      -1.966  88.712 118.613  0.00  0.00    -0.090 HD
ENDBRANCH   5  18
BRANCH   3  22
ATOM     22  C   LIG d   1      -5.324  91.936 117.844  0.00  0.00     0.382 C 
ATOM     23  O   LIG d   1      -5.974  92.751 118.541  0.00  0.00    -0.241 OA
ATOM     24  O   LIG d   1      -5.927  91.195 117.044  0.00  0.00    -0.241 OA
ENDBRANCH   3  22
TORSDOF 7
ENDMDL
MODEL 9
REMARK VINA RESULT:      -4.0      2.206      4.212
REMARK  7 active torsions:
REMARK  status: ('A' for Active; 'I' for Inactive)
REMARK    1  A    between atoms: C_2  and  C_3 
REMARK    2  A    between atoms: C_3  and  O_6 
REMARK    3  A    between atoms: C_3  and  C_4 
REMARK    4  A    between atoms: C_7  and  O_6 
REMARK    5  A    between atoms: C_9  and  C_10 
REMARK    6  A    between atoms: N_15  and  C_14 
REMARK    7  A    between atoms: N_20  and  C_19 
REMARK       I    between atoms: C_22  and  N_20 
ROOT
ATOM      1  C   LIG d   1      -3.172  93.217 119.230  0.00  0.00     0.161 C 
ATOM      2  C   LIG d   1      -4.444  93.753 119.488  0.00  0.00     0.016 C 
ATOM      3  C   LIG d   1      -5.621  93.308 118.844  0.00  0.00     0.038 C 
ATOM      4  C   LIG d   1      -5.627  92.187 118.001  0.00  0.00     0.028 C 
ATOM      5  C   LIG d   1      -4.285  91.933 117.322  0.00  0.00    -0.047 C 
ATOM      6  C   LIG d   1      -3.174  91.919 118.396  0.00  0.00     0.091 C 
ENDROOT
BRANCH   1   7
ATOM      7  O   LIG d   1      -2.465  93.016 120.470  0.00  0.00    -0.368 OA
BRANCH   7   8
ATOM      8  C   LIG d   1      -1.301  93.851 120.684  0.00  0.00     0.119 C 
BRANCH   8   9
ATOM      9  C   LIG d   1      -1.185  94.801 119.476  0.00  0.00     0.028 C 
ATOM     10  C   LIG d   1       0.168  94.674 118.757  0.00  0.00     0.006 C 
ENDBRANCH   8   9
BRANCH   8  11
ATOM     11  C   LIG d   1      -0.012  93.024 120.674  0.00  0.00     0.028 C 
ATOM     12  C   LIG d   1      -0.232  91.574 121.134  0.00  0.00     0.006 C 
ENDBRANCH   8  11
ENDBRANCH   7   8
ENDBRANCH   1   7
BRANCH   6  13
ATOM     13  N   LIG d   1      -1.818  91.760 117.808  0.00  0.00    -0.311 N 
ATOM     14  C   LIG d   1      -1.198  90.586 117.700  0.00  0.00     0.210 C 
ATOM     15  C   LIG d   1       0.202  90.649 117.082  0.00  0.00     0.109 C 
ATOM     16  O   LIG d   1      -1.688  89.495 118.029  0.00  0.00    -0.276 OA
ATOM     17  H   LIG d   1      -1.360  92.591 117.486  0.00  0.00     0.149 HD
ENDBRANCH   6  13
BRANCH   5  18
ATOM     18  N   LIG d   1      -4.392  90.660 116.584  0.00  0.00     0.381 N 
ATOM     19  H   LIG d   1      -3.651  90.046 116.858  0.00  0.00    -0.090 HD
ATOM     20  H   LIG d   1      -4.301  90.845 115.601  0.00  0.00    -0.090 HD
ATOM     21  H   LIG d   1      -5.273  90.232 116.769  0.00  0.00    -0.090 HD
ENDBRANCH   5  18
BRANCH   3  22
ATOM     22  C   LIG d   1      -6.804  94.014 119.009  0.00  0.00     0.382 C 
ATOM     23  O   LIG d   1      -7.583  94.168 118.037  0.00  0.00    -0.241 OA
ATOM     24  O   LIG d   1      -7.080  94.535 120.105  0.00  0.00    -0.241 OA
ENDBRANCH   3  22
TORSDOF 7
ENDMDL
