MODEL 1
REMARK VINA RESULT:      -4.8      0.000      0.000
REMARK  7 active torsions:
REMARK  status: ('A' for Active; 'I' for Inactive)
REMARK    1  A    between atoms: C_2  and  C_3 
REMARK    2  A    between atoms: C_3  and  O_6 
REMARK    3  A    between atoms: C_3  and  C_4 
REMARK    4  A    between atoms: C_7  and  O_6 
REMARK    5  A    between atoms: C_9  and  C_10 
REMARK    6  A    between atoms: N_15  and  C_14 
REMARK    7  A    between atoms: N_20  and  C_19 
REMARK       I    between atoms: C_22  and  N_20 
ROOT
ATOM      1  C   LIG d   1      -2.862  90.653 118.009  0.00  0.00     0.161 C 
ATOM      2  C   LIG d   1      -4.161  90.481 117.504  0.00  0.00     0.016 C 
ATOM      3  C   LIG d   1      -5.090  91.539 117.370  0.00  0.00     0.038 C 
ATOM      4  C   LIG d   1      -4.729  92.876 117.593  0.00  0.00     0.028 C 
ATOM      5  C   LIG d   1      -3.582  93.036 118.586  0.00  0.00    -0.047 C 
ATOM      6  C   LIG d   1      -2.413  92.122 118.153  0.00  0.00     0.091 C 
ENDROOT
BRANCH   1   7
ATOM      7  O   LIG d   1      -1.922  89.919 117.200  0.00  0.00    -0.368 OA
BRANCH   7   8
ATOM      8  C   LIG d   1      -1.660  88.553 117.607  0.00  0.00     0.119 C 
BRANCH   8   9
ATOM      9  C   LIG d   1      -1.587  88.535 119.147  0.00  0.00     0.028 C 
ATOM     10  C   LIG d   1      -2.379  87.368 119.758  0.00  0.00     0.006 C 
ENDBRANCH   8   9
BRANCH   8  11
ATOM     11  C   LIG d   1      -0.283  88.084 117.130  0.00  0.00     0.028 C 
ATOM     12  C   LIG d   1       0.801  89.163 117.283  0.00  0.00     0.006 C 
ENDBRANCH   8  11
ENDBRANCH   7   8
ENDBRANCH   1   7
BRANCH   6  13
ATOM     13  N   LIG d   1      -1.282  92.155 119.117  0.00  0.00    -0.311 N 
ATOM     14  C   LIG d   1      -0.043  92.512 118.782  0.00  0.00     0.210 C 
ATOM     15  C   LIG d   1       0.977  92.456 119.924  0.00  0.00     0.109 C 
ATOM     16  O   LIG d   1       0.301  92.900 117.656  0.00  0.00    -0.276 OA
ATOM     17  H   LIG d   1      -1.479  91.885 120.061  0.00  0.00     0.149 HD
ENDBRANCH   6  13
BRANCH   5  18
ATOM     18  N   LIG d   1      -3.218  94.465 118.619  0.00  0.00     0.381 N 
ATOM     19  H   LIG d   1      -2.459  94.636 117.990  0.00  0.00    -0.090 HD
ATOM     20  H   LIG d   1      -2.917  94.702 119.548  0.00  0.00    -0.090 HD
ATOM     21  H   LIG d   1      -4.003  95.023 118.364  0.00  0.00    -0.090 HD
ENDBRANCH   5  18
BRANCH   3  22
ATOM     22  C   LIG d   1      -6.409  91.258 117.048  0.00  0.00     0.382 C 
ATOM     23  O   LIG d   1      -6.693  90.203 116.432  0.00  0.00    -0.241 OA
ATOM     24  O   LIG d   1      -7.314  92.068 117.326  0.00  0.00    -0.241 OA
ENDBRANCH   3  22
TORSDOF 7
ENDMDL
MODEL 2
REMARK VINA RESULT:      -4.7      3.149      6.493
REMARK  7 active torsions:
REMARK  status: ('A' for Active; 'I' for Inactive)
REMARK    1  A    between atoms: C_2  and  C_3 
REMARK    2  A    between atoms: C_3  and  O_6 
REMARK    3  A    between atoms: C_3  and  C_4 
REMARK    4  A    between atoms: C_7  and  O_6 
REMARK    5  A    between atoms: C_9  and  C_10 
REMARK    6  A    between atoms: N_15  and  C_14 
REMARK    7  A    between atoms: N_20  and  C_19 
REMARK       I    between atoms: C_22  and  N_20 
ROOT
ATOM      1  C   LIG d   1      -5.303  92.769 119.766  0.00  0.00     0.161 C 
ATOM      2  C   LIG d   1      -4.201  92.003 119.352  0.00  0.00     0.016 C 
ATOM      3  C   LIG d   1      -4.098  91.416 118.070  0.00  0.00     0.038 C 
ATOM      4  C   LIG d   1      -5.030  91.683 117.056  0.00  0.00     0.028 C 
ATOM      5  C   LIG d   1      -6.416  92.039 117.585  0.00  0.00    -0.047 C 
ATOM      6  C   LIG d   1      -6.277  93.163 118.637  0.00  0.00     0.091 C 
ENDROOT
BRANCH   1   7
ATOM      7  O   LIG d   1      -4.847  93.943 120.467  0.00  0.00    -0.368 OA
BRANCH   7   8
ATOM      8  C   LIG d   1      -4.423  95.054 119.640  0.00  0.00     0.119 C 
BRANCH   8   9
ATOM      9  C   LIG d   1      -2.904  95.226 119.839  0.00  0.00     0.028 C 
ATOM     10  C   LIG d   1      -2.098  94.810 118.597  0.00  0.00     0.006 C 
ENDBRANCH   8   9
BRANCH   8  11
ATOM     11  C   LIG d   1      -5.046  96.371 120.113  0.00  0.00     0.028 C 
ATOM     12  C   LIG d   1      -5.862  96.213 121.406  0.00  0.00     0.006 C 
ENDBRANCH   8  11
ENDBRANCH   7   8
ENDBRANCH   1   7
BRANCH   6  13
ATOM     13  N   LIG d   1      -7.577  93.513 119.266  0.00  0.00    -0.311 N 
ATOM     14  C   LIG d   1      -8.235  94.643 119.010  0.00  0.00     0.210 C 
ATOM     15  C   LIG d   1      -9.547  94.816 119.781  0.00  0.00     0.109 C 
ATOM     16  O   LIG d   1      -7.872  95.503 118.193  0.00  0.00    -0.276 OA
ATOM     17  H   LIG d   1      -7.960  92.857 119.919  0.00  0.00     0.149 HD
ENDBRANCH   6  13
BRANCH   5  18
ATOM     18  N   LIG d   1      -7.248  92.426 116.430  0.00  0.00     0.381 N 
ATOM     19  H   LIG d   1      -8.140  91.979 116.490  0.00  0.00    -0.090 HD
ATOM     20  H   LIG d   1      -6.796  92.119 115.587  0.00  0.00    -0.090 HD
ATOM     21  H   LIG d   1      -7.365  93.416 116.411  0.00  0.00    -0.090 HD
ENDBRANCH   5  18
BRANCH   3  22
ATOM     22  C   LIG d   1      -3.075  90.518 117.805  0.00  0.00     0.382 C 
ATOM     23  O   LIG d   1      -1.881  90.855 117.993  0.00  0.00    -0.241 OA
ATOM     24  O   LIG d   1      -3.328  89.392 117.337  0.00  0.00    -0.241 OA
ENDBRANCH   3  22
TORSDOF 7
ENDMDL
MODEL 3
REMARK VINA RESULT:      -4.7      2.619      4.470
REMARK  7 active torsions:
REMARK  status: ('A' for Active; 'I' for Inactive)
REMARK    1  A    between atoms: C_2  and  C_3 
REMARK    2  A    between atoms: C_3  and  O_6 
REMARK    3  A    between atoms: C_3  and  C_4 
REMARK    4  A    between atoms: C_7  and  O_6 
REMARK    5  A    between atoms: C_9  and  C_10 
REMARK    6  A    between atoms: N_15  and  C_14 
REMARK    7  A    between atoms: N_20  and  C_19 
REMARK       I    between atoms: C_22  and  N_20 
ROOT
ATOM      1  C   LIG d   1      -4.382  93.248 118.796  0.00  0.00     0.161 C 
ATOM      2  C   LIG d   1      -5.547  94.020 118.934  0.00  0.00     0.016 C 
ATOM      3  C   LIG d   1      -6.770  93.705 118.300  0.00  0.00     0.038 C 
ATOM      4  C   LIG d   1      -6.954  92.503 117.600  0.00  0.00     0.028 C 
ATOM      5  C   LIG d   1      -5.663  91.941 117.013  0.00  0.00    -0.047 C 
ATOM      6  C   LIG d   1      -4.593  91.874 118.126  0.00  0.00     0.091 C 
ENDROOT
BRANCH   1   7
ATOM      7  O   LIG d   1      -3.746  93.087 120.079  0.00  0.00    -0.368 OA
BRANCH   7   8
ATOM      8  C   LIG d   1      -2.449  93.713 120.231  0.00  0.00     0.119 C 
BRANCH   8   9
ATOM      9  C   LIG d   1      -2.094  94.375 118.885  0.00  0.00     0.028 C 
ATOM     10  C   LIG d   1      -0.844  93.755 118.238  0.00  0.00     0.006 C 
ENDBRANCH   8   9
BRANCH   8  11
ATOM     11  C   LIG d   1      -1.352  92.672 120.473  0.00  0.00     0.028 C 
ATOM     12  C   LIG d   1      -1.887  91.380 121.110  0.00  0.00     0.006 C 
ENDBRANCH   8  11
ENDBRANCH   7   8
ENDBRANCH   1   7
BRANCH   6  13
ATOM     13  N   LIG d   1      -3.275  91.413 117.618  0.00  0.00    -0.311 N 
ATOM     14  C   LIG d   1      -2.831  90.165 117.756  0.00  0.00     0.210 C 
ATOM     15  C   LIG d   1      -1.436  89.907 117.177  0.00  0.00     0.109 C 
ATOM     16  O   LIG d   1      -3.473  89.239 118.274  0.00  0.00    -0.276 OA
ATOM     17  H   LIG d   1      -2.701  92.092 117.156  0.00  0.00     0.149 HD
ENDBRANCH   6  13
BRANCH   5  18
ATOM     18  N   LIG d   1      -5.976  90.622 116.431  0.00  0.00     0.381 N 
ATOM     19  H   LIG d   1      -5.323  90.409 115.704  0.00  0.00    -0.090 HD
ATOM     20  H   LIG d   1      -6.896  90.654 116.029  0.00  0.00    -0.090 HD
ATOM     21  H   LIG d   1      -5.939  89.920 117.137  0.00  0.00    -0.090 HD
ENDBRANCH   5  18
BRANCH   3  22
ATOM     22  C   LIG d   1      -7.815  94.616 118.329  0.00  0.00     0.382 C 
ATOM     23  O   LIG d   1      -9.002  94.210 118.311  0.00  0.00    -0.241 OA
ATOM     24  O   LIG d   1      -7.585  95.840 118.329  0.00  0.00    -0.241 OA
ENDBRANCH   3  22
TORSDOF 7
ENDMDL
MODEL 4
REMARK VINA RESULT:      -4.6      2.159      5.537
REMARK  7 active torsions:
REMARK  status: ('A' for Active; 'I' for Inactive)
REMARK    1  A    between atoms: C_2  and  C_3 
REMARK    2  A    between atoms: C_3  and  O_6 
REMARK    3  A    between atoms: C_3  and  C_4 
REMARK    4  A    between atoms: C_7  and  O_6 
REMARK    5  A    between atoms: C_9  and  C_10 
REMARK    6  A    between atoms: N_15  and  C_14 
REMARK    7  A    between atoms: N_20  and  C_19 
REMARK       I    between atoms: C_22  and  N_20 
ROOT
ATOM      1  C   LIG d   1      -0.180  90.910 116.951  0.00  0.00     0.161 C 
ATOM      2  C   LIG d   1       1.220  90.831 117.028  0.00  0.00     0.016 C 
ATOM      3  C   LIG d   1       1.995  91.602 117.925  0.00  0.00     0.038 C 
ATOM      4  C   LIG d   1       1.406  92.399 118.917  0.00  0.00     0.028 C 
ATOM      5  C   LIG d   1       0.012  92.896 118.547  0.00  0.00    -0.047 C 
ATOM      6  C   LIG d   1      -0.848  91.692 118.102  0.00  0.00     0.091 C 
ENDROOT
BRANCH   1   7
ATOM      7  O   LIG d   1      -0.740  89.585 116.855  0.00  0.00    -0.368 OA
BRANCH   7   8
ATOM      8  C   LIG d   1      -0.883  88.861 118.102  0.00  0.00     0.119 C 
BRANCH   8   9
ATOM      9  C   LIG d   1      -0.033  87.580 117.994  0.00  0.00     0.028 C 
ATOM     10  C   LIG d   1       1.195  87.611 118.919  0.00  0.00     0.006 C 
ENDBRANCH   8   9
BRANCH   8  11
ATOM     11  C   LIG d   1      -2.322  88.378 118.304  0.00  0.00     0.028 C 
ATOM     12  C   LIG d   1      -2.555  87.763 119.693  0.00  0.00     0.006 C 
ENDBRANCH   8  11
ENDBRANCH   7   8
ENDBRANCH   1   7
BRANCH   6  13
ATOM     13  N   LIG d   1      -2.201  92.101 117.642  0.00  0.00    -0.311 N 
ATOM     14  C   LIG d   1      -3.286  92.041 118.412  0.00  0.00     0.210 C 
ATOM     15  C   LIG d   1      -4.585  92.491 117.736  0.00  0.00     0.109 C 
ATOM     16  O   LIG d   1      -3.291  91.687 119.601  0.00  0.00    -0.276 OA
ATOM     17  H   LIG d   1      -2.283  92.430 116.700  0.00  0.00     0.149 HD
ENDBRANCH   6  13
BRANCH   5  18
ATOM     18  N   LIG d   1      -0.538  93.597 119.723  0.00  0.00     0.381 N 
ATOM     19  H   LIG d   1      -1.248  94.239 119.433  0.00  0.00    -0.090 HD
ATOM     20  H   LIG d   1       0.199  94.119 120.164  0.00  0.00    -0.090 HD
ATOM     21  H   LIG d   1      -0.918  92.937 120.365  0.00  0.00    -0.090 HD
ENDBRANCH   5  18
BRANCH   3  22
ATOM     22  C   LIG d   1       3.377  91.610 117.807  0.00  0.00     0.382 C 
ATOM     23  O   LIG d   1       3.939  92.470 117.088  0.00  0.00    -0.241 OA
ATOM     24  O   LIG d   1       4.064  90.741 118.376  0.00  0.00    -0.241 OA
ENDBRANCH   3  22
TORSDOF 7
ENDMDL
MODEL 5
REMARK VINA RESULT:      -4.5      2.962      4.542
REMARK  7 active torsions:
REMARK  status: ('A' for Active; 'I' for Inactive)
REMARK    1  A    between atoms: C_2  and  C_3 
REMARK    2  A    between atoms: C_3  and  O_6 
REMARK    3  A    between atoms: C_3  and  C_4 
REMARK    4  A    between atoms: C_7  and  O_6 
REMARK    5  A    between atoms: C_9  and  C_10 
REMARK    6  A    between atoms: N_15  and  C_14 
REMARK    7  A    between atoms: N_20  and  C_19 
REMARK       I    between atoms: C_22  and  N_20 
ROOT
ATOM      1  C   LIG d   1      -4.364  93.477 118.882  0.00  0.00     0.161 C 
ATOM      2  C   LIG d   1      -5.563  94.203 118.974  0.00  0.00     0.016 C 
ATOM      3  C   LIG d   1      -6.753  93.826 118.310  0.00  0.00     0.038 C 
ATOM      4  C   LIG d   1      -6.866  92.607 117.625  0.00  0.00     0.028 C 
ATOM      5  C   LIG d   1      -5.537  92.091 117.085  0.00  0.00    -0.047 C 
ATOM      6  C   LIG d   1      -4.498  92.086 118.230  0.00  0.00     0.091 C 
ENDROOT
BRANCH   1   7
ATOM      7  O   LIG d   1      -3.760  93.363 120.186  0.00  0.00    -0.368 OA
BRANCH   7   8
ATOM      8  C   LIG d   1      -4.213  92.256 121.003  0.00  0.00     0.119 C 
BRANCH   8   9
ATOM      9  C   LIG d   1      -4.960  92.850 122.214  0.00  0.00     0.028 C 
ATOM     10  C   LIG d   1      -6.472  92.575 122.163  0.00  0.00     0.006 C 
ENDBRANCH   8   9
BRANCH   8  11
ATOM     11  C   LIG d   1      -3.033  91.481 121.595  0.00  0.00     0.028 C 
ATOM     12  C   LIG d   1      -1.672  92.000 121.103  0.00  0.00     0.006 C 
ENDBRANCH   8  11
ENDBRANCH   7   8
ENDBRANCH   1   7
BRANCH   6  13
ATOM     13  N   LIG d   1      -3.147  91.673 117.767  0.00  0.00    -0.311 N 
ATOM     14  C   LIG d   1      -2.695  90.423 117.847  0.00  0.00     0.210 C 
ATOM     15  C   LIG d   1      -1.267  90.218 117.332  0.00  0.00     0.109 C 
ATOM     16  O   LIG d   1      -3.353  89.458 118.266  0.00  0.00    -0.276 OA
ATOM     17  H   LIG d   1      -2.558  92.387 117.385  0.00  0.00     0.149 HD
ENDBRANCH   6  13
BRANCH   5  18
ATOM     18  N   LIG d   1      -5.778  90.751 116.517  0.00  0.00     0.381 N 
ATOM     19  H   LIG d   1      -5.342  90.057 117.090  0.00  0.00    -0.090 HD
ATOM     20  H   LIG d   1      -5.366  90.708 115.601  0.00  0.00    -0.090 HD
ATOM     21  H   LIG d   1      -6.757  90.577 116.457  0.00  0.00    -0.090 HD
ENDBRANCH   5  18
BRANCH   3  22
ATOM     22  C   LIG d   1      -7.835  94.694 118.294  0.00  0.00     0.382 C 
ATOM     23  O   LIG d   1      -7.644  95.933 118.262  0.00  0.00    -0.241 OA
ATOM     24  O   LIG d   1      -8.999  94.253 118.357  0.00  0.00    -0.241 OA
ENDBRANCH   3  22
TORSDOF 7
ENDMDL
MODEL 6
REMARK VINA RESULT:      -4.1      2.907      5.199
REMARK  7 active torsions:
REMARK  status: ('A' for Active; 'I' for Inactive)
REMARK    1  A    between atoms: C_2  and  C_3 
REMARK    2  A    between atoms: C_3  and  O_6 
REMARK    3  A    between atoms: C_3  and  C_4 
REMARK    4  A    between atoms: C_7  and  O_6 
REMARK    5  A    between atoms: C_9  and  C_10 
REMARK    6  A    between atoms: N_15  and  C_14 
REMARK    7  A    between atoms: N_20  and  C_19 
REMARK       I    between atoms: C_22  and  N_20 
ROOT
ATOM      1  C   LIG d   1      -2.763  91.984 118.741  0.00  0.00     0.161 C 
ATOM      2  C   LIG d   1      -1.573  91.397 118.281  0.00  0.00     0.016 C 
ATOM      3  C   LIG d   1      -0.509  92.137 117.716  0.00  0.00     0.038 C 
ATOM      4  C   LIG d   1      -0.502  93.540 117.710  0.00  0.00     0.028 C 
ATOM      5  C   LIG d   1      -1.898  94.153 117.703  0.00  0.00    -0.047 C 
ATOM      6  C   LIG d   1      -2.728  93.523 118.845  0.00  0.00     0.091 C 
ENDROOT
BRANCH   1   7
ATOM      7  O   LIG d   1      -3.136  91.404 120.007  0.00  0.00    -0.368 OA
BRANCH   7   8
ATOM      8  C   LIG d   1      -2.236  91.658 121.114  0.00  0.00     0.119 C 
BRANCH   8   9
ATOM      9  C   LIG d   1      -1.919  90.302 121.773  0.00  0.00     0.028 C 
ATOM     10  C   LIG d   1      -0.486  89.827 121.478  0.00  0.00     0.006 C 
ENDBRANCH   8   9
BRANCH   8  11
ATOM     11  C   LIG d   1      -2.916  92.490 122.206  0.00  0.00     0.028 C 
ATOM     12  C   LIG d   1      -4.446  92.343 122.201  0.00  0.00     0.006 C 
ENDBRANCH   8  11
ENDBRANCH   7   8
ENDBRANCH   1   7
BRANCH   6  13
ATOM     13  N   LIG d   1      -4.134  94.005 118.857  0.00  0.00    -0.311 N 
ATOM     14  C   LIG d   1      -4.561  94.999 119.635  0.00  0.00     0.210 C 
ATOM     15  C   LIG d   1      -6.053  95.325 119.506  0.00  0.00     0.109 C 
ATOM     16  O   LIG d   1      -3.841  95.662 120.396  0.00  0.00    -0.276 OA
ATOM     17  H   LIG d   1      -4.780  93.544 118.247  0.00  0.00     0.149 HD
ENDBRANCH   6  13
BRANCH   5  18
ATOM     18  N   LIG d   1      -1.744  95.613 117.838  0.00  0.00     0.381 N 
ATOM     19  H   LIG d   1      -1.588  96.022 116.938  0.00  0.00    -0.090 HD
ATOM     20  H   LIG d   1      -0.944  95.804 118.415  0.00  0.00    -0.090 HD
ATOM     21  H   LIG d   1      -2.562  96.006 118.251  0.00  0.00    -0.090 HD
ENDBRANCH   5  18
BRANCH   3  22
ATOM     22  C   LIG d   1       0.546  91.471 117.111  0.00  0.00     0.382 C 
ATOM     23  O   LIG d   1       0.347  90.376 116.532  0.00  0.00    -0.241 OA
ATOM     24  O   LIG d   1       1.703  91.929 117.176  0.00  0.00    -0.241 OA
ENDBRANCH   3  22
TORSDOF 7
ENDMDL
MODEL 7
REMARK VINA RESULT:      -4.0      2.706      5.624
REMARK  7 active torsions:
REMARK  status: ('A' for Active; 'I' for Inactive)
REMARK    1  A    between atoms: C_2  and  C_3 
REMARK    2  A    between atoms: C_3  and  O_6 
REMARK    3  A    between atoms: C_3  and  C_4 
REMARK    4  A    between atoms: C_7  and  O_6 
REMARK    5  A    between atoms: C_9  and  C_10 
REMARK    6  A    between atoms: N_15  and  C_14 
REMARK    7  A    between atoms: N_20  and  C_19 
REMARK       I    between atoms: C_22  and  N_20 
ROOT
ATOM      1  C   LIG d   1      -4.189  92.550 118.799  0.00  0.00     0.161 C 
ATOM      2  C   LIG d   1      -3.773  91.253 118.456  0.00  0.00     0.016 C 
ATOM      3  C   LIG d   1      -2.442  90.931 118.103  0.00  0.00     0.038 C 
ATOM      4  C   LIG d   1      -1.399  91.862 118.215  0.00  0.00     0.028 C 
ATOM      5  C   LIG d   1      -1.860  93.309 118.071  0.00  0.00    -0.047 C 
ATOM      6  C   LIG d   1      -3.044  93.556 119.034  0.00  0.00     0.091 C 
ENDROOT
BRANCH   1   7
ATOM      7  O   LIG d   1      -5.055  92.497 119.950  0.00  0.00    -0.368 OA
BRANCH   7   8
ATOM      8  C   LIG d   1      -6.447  92.824 119.717  0.00  0.00     0.119 C 
BRANCH   8   9
ATOM      9  C   LIG d   1      -6.556  93.392 118.288  0.00  0.00     0.028 C 
ATOM     10  C   LIG d   1      -7.237  94.770 118.255  0.00  0.00     0.006 C 
ENDBRANCH   8   9
BRANCH   8  11
ATOM     11  C   LIG d   1      -6.917  93.953 120.639  0.00  0.00     0.028 C 
ATOM     12  C   LIG d   1      -6.390  93.807 122.075  0.00  0.00     0.006 C 
ENDBRANCH   8  11
ENDBRANCH   7   8
ENDBRANCH   1   7
BRANCH   6  13
ATOM     13  N   LIG d   1      -3.610  94.923 118.897  0.00  0.00    -0.311 N 
ATOM     14  C   LIG d   1      -3.768  95.758 119.922  0.00  0.00     0.210 C 
ATOM     15  C   LIG d   1      -4.389  97.112 119.564  0.00  0.00     0.109 C 
ATOM     16  O   LIG d   1      -3.423  95.518 121.089  0.00  0.00    -0.276 OA
ATOM     17  H   LIG d   1      -3.888  95.212 117.979  0.00  0.00     0.149 HD
ENDBRANCH   6  13
BRANCH   5  18
ATOM     18  N   LIG d   1      -0.700  94.176 118.346  0.00  0.00     0.381 N 
ATOM     19  H   LIG d   1      -0.814  95.054 117.879  0.00  0.00    -0.090 HD
ATOM     20  H   LIG d   1       0.129  93.734 117.989  0.00  0.00    -0.090 HD
ATOM     21  H   LIG d   1      -0.609  94.324 119.327  0.00  0.00    -0.090 HD
ENDBRANCH   5  18
BRANCH   3  22
ATOM     22  C   LIG d   1      -2.151  89.675 117.593  0.00  0.00     0.382 C 
ATOM     23  O   LIG d   1      -1.111  89.499 116.914  0.00  0.00    -0.241 OA
ATOM     24  O   LIG d   1      -2.939  88.725 117.765  0.00  0.00    -0.241 OA
ENDBRANCH   3  22
TORSDOF 7
ENDMDL
MODEL 8
REMARK VINA RESULT:      -4.0      1.875      2.501
REMARK  7 active torsions:
REMARK  status: ('A' for Active; 'I' for Inactive)
REMARK    1  A    between atoms: C_2  and  C_3 
REMARK    2  A    between atoms: C_3  and  O_6 
REMARK    3  A    between atoms: C_3  and  C_4 
REMARK    4  A    between atoms: C_7  and  O_6 
REMARK    5  A    between atoms: C_9  and  C_10 
REMARK    6  A    between atoms: N_15  and  C_14 
REMARK    7  A    between atoms: N_20  and  C_19 
REMARK       I    between atoms: C_22  and  N_20 
ROOT
ATOM      1  C   LIG d   1      -3.178  91.512 118.762  0.00  0.00     0.161 C 
ATOM      2  C   LIG d   1      -4.181  91.186 117.834  0.00  0.00     0.016 C 
ATOM      3  C   LIG d   1      -5.349  91.960 117.647  0.00  0.00     0.038 C 
ATOM      4  C   LIG d   1      -5.523  93.203 118.273  0.00  0.00     0.028 C 
ATOM      5  C   LIG d   1      -4.773  93.326 119.595  0.00  0.00    -0.047 C 
ATOM      6  C   LIG d   1      -3.297  92.923 119.374  0.00  0.00     0.091 C 
ENDROOT
BRANCH   1   7
ATOM      7  O   LIG d   1      -1.880  91.335 118.160  0.00  0.00    -0.368 OA
BRANCH   7   8
ATOM      8  C   LIG d   1      -1.010  90.366 118.796  0.00  0.00     0.119 C 
BRANCH   8   9
ATOM      9  C   LIG d   1       0.443  90.823 118.560  0.00  0.00     0.028 C 
ATOM     10  C   LIG d   1       0.568  91.787 117.368  0.00  0.00     0.006 C 
ENDBRANCH   8   9
BRANCH   8  11
ATOM     11  C   LIG d   1      -1.118  88.994 118.124  0.00  0.00     0.028 C 
ATOM     12  C   LIG d   1      -2.096  88.053 118.844  0.00  0.00     0.006 C 
ENDBRANCH   8  11
ENDBRANCH   7   8
ENDBRANCH   1   7
BRANCH   6  13
ATOM     13  N   LIG d   1      -2.511  92.934 120.635  0.00  0.00    -0.311 N 
ATOM     14  C   LIG d   1      -1.816  93.989 121.057  0.00  0.00     0.210 C 
ATOM     15  C   LIG d   1      -1.060  93.782 122.373  0.00  0.00     0.109 C 
ATOM     16  O   LIG d   1      -1.779  95.088 120.482  0.00  0.00    -0.276 OA
ATOM     17  H   LIG d   1      -2.511  92.094 121.180  0.00  0.00     0.149 HD
ENDBRANCH   6  13
BRANCH   5  18
ATOM     18  N   LIG d   1      -4.929  94.714 120.069  0.00  0.00     0.381 N 
ATOM     19  H   LIG d   1      -4.531  95.346 119.403  0.00  0.00    -0.090 HD
ATOM     20  H   LIG d   1      -4.434  94.819 120.937  0.00  0.00    -0.090 HD
ATOM     21  H   LIG d   1      -5.894  94.923 120.200  0.00  0.00    -0.090 HD
ENDBRANCH   5  18
BRANCH   3  22
ATOM     22  C   LIG d   1      -6.378  91.472 116.856  0.00  0.00     0.382 C 
ATOM     23  O   LIG d   1      -6.336  90.292 116.430  0.00  0.00    -0.241 OA
ATOM     24  O   LIG d   1      -7.326  92.209 116.526  0.00  0.00    -0.241 OA
ENDBRANCH   3  22
TORSDOF 7
ENDMDL
MODEL 9
REMARK VINA RESULT:      -3.9      2.469      4.072
REMARK  7 active torsions:
REMARK  status: ('A' for Active; 'I' for Inactive)
REMARK    1  A    between atoms: C_2  and  C_3 
REMARK    2  A    between atoms: C_3  and  O_6 
REMARK    3  A    between atoms: C_3  and  C_4 
REMARK    4  A    between atoms: C_7  and  O_6 
REMARK    5  A    between atoms: C_9  and  C_10 
REMARK    6  A    between atoms: N_15  and  C_14 
REMARK    7  A    between atoms: N_20  and  C_19 
REMARK       I    between atoms: C_22  and  N_20 
ROOT
ATOM      1  C   LIG d   1      -3.311  92.491 119.204  0.00  0.00     0.161 C 
ATOM      2  C   LIG d   1      -4.255  93.486 119.512  0.00  0.00     0.016 C 
ATOM      3  C   LIG d   1      -5.504  93.602 118.860  0.00  0.00     0.038 C 
ATOM      4  C   LIG d   1      -5.960  92.634 117.953  0.00  0.00     0.028 C 
ATOM      5  C   LIG d   1      -4.833  91.893 117.241  0.00  0.00    -0.047 C 
ATOM      6  C   LIG d   1      -3.837  91.360 118.296  0.00  0.00     0.091 C 
ENDROOT
BRANCH   1   7
ATOM      7  O   LIG d   1      -2.763  91.944 120.420  0.00  0.00    -0.368 OA
BRANCH   7   8
ATOM      8  C   LIG d   1      -1.321  91.991 120.546  0.00  0.00     0.119 C 
BRANCH   8   9
ATOM      9  C   LIG d   1      -0.997  92.435 121.986  0.00  0.00     0.028 C 
ATOM     10  C   LIG d   1      -0.028  91.471 122.693  0.00  0.00     0.006 C 
ENDBRANCH   8   9
BRANCH   8  11
ATOM     11  C   LIG d   1      -0.717  93.071 119.644  0.00  0.00     0.028 C 
ATOM     12  C   LIG d   1       0.396  92.531 118.731  0.00  0.00     0.006 C 
ENDBRANCH   8  11
ENDBRANCH   7   8
ENDBRANCH   1   7
BRANCH   6  13
ATOM     13  N   LIG d   1      -2.660  90.694 117.679  0.00  0.00    -0.311 N 
ATOM     14  C   LIG d   1      -2.348  89.416 117.887  0.00  0.00     0.210 C 
ATOM     15  C   LIG d   1      -1.083  88.935 117.171  0.00  0.00     0.109 C 
ATOM     16  O   LIG d   1      -3.018  88.627 118.570  0.00  0.00    -0.276 OA
ATOM     17  H   LIG d   1      -2.080  91.253 117.085  0.00  0.00     0.149 HD
ENDBRANCH   6  13
BRANCH   5  18
ATOM     18  N   LIG d   1      -5.446  90.822 116.432  0.00  0.00     0.381 N 
ATOM     19  H   LIG d   1      -5.271  90.989 115.461  0.00  0.00    -0.090 HD
ATOM     20  H   LIG d   1      -6.440  90.832 116.579  0.00  0.00    -0.090 HD
ATOM     21  H   LIG d   1      -5.072  89.938 116.697  0.00  0.00    -0.090 HD
ENDBRANCH   5  18
BRANCH   3  22
ATOM     22  C   LIG d   1      -6.294  94.719 119.083  0.00  0.00     0.382 C 
ATOM     23  O   LIG d   1      -7.525  94.674 118.846  0.00  0.00    -0.241 OA
ATOM     24  O   LIG d   1      -5.784  95.785 119.476  0.00  0.00    -0.241 OA
ENDBRANCH   3  22
TORSDOF 7
ENDMDL
