MODEL 1
REMARK VINA RESULT:      -4.6      0.000      0.000
REMARK  7 active torsions:
REMARK  status: ('A' for Active; 'I' for Inactive)
REMARK    1  A    between atoms: C_2  and  C_3 
REMARK    2  A    between atoms: C_3  and  O_6 
REMARK    3  A    between atoms: C_3  and  C_4 
REMARK    4  A    between atoms: C_7  and  O_6 
REMARK    5  A    between atoms: C_9  and  C_10 
REMARK    6  A    between atoms: N_15  and  C_14 
REMARK    7  A    between atoms: N_20  and  C_19 
REMARK       I    between atoms: C_22  and  N_20 
ROOT
ATOM      1  C   LIG d   1      -5.314  91.789 119.819  0.00  0.00     0.161 C 
ATOM      2  C   LIG d   1      -6.640  92.247 119.734  0.00  0.00     0.016 C 
ATOM      3  C   LIG d   1      -6.989  93.616 119.681  0.00  0.00     0.038 C 
ATOM      4  C   LIG d   1      -6.021  94.623 119.555  0.00  0.00     0.028 C 
ATOM      5  C   LIG d   1      -4.667  94.240 120.145  0.00  0.00    -0.047 C 
ATOM      6  C   LIG d   1      -4.240  92.870 119.571  0.00  0.00     0.091 C 
ENDROOT
BRANCH   1   7
ATOM      7  O   LIG d   1      -5.122  90.678 118.922  0.00  0.00    -0.368 OA
BRANCH   7   8
ATOM      8  C   LIG d   1      -4.512  90.987 117.645  0.00  0.00     0.119 C 
BRANCH   8   9
ATOM      9  C   LIG d   1      -5.642  91.071 116.600  0.00  0.00     0.028 C 
ATOM     10  C   LIG d   1      -6.385  89.735 116.431  0.00  0.00     0.006 C 
ENDBRANCH   8   9
BRANCH   8  11
ATOM     11  C   LIG d   1      -3.605  89.848 117.170  0.00  0.00     0.028 C 
ATOM     12  C   LIG d   1      -2.860  89.159 118.325  0.00  0.00     0.006 C 
ENDBRANCH   8  11
ENDBRANCH   7   8
ENDBRANCH   1   7
BRANCH   6  13
ATOM     13  N   LIG d   1      -2.966  92.381 120.161  0.00  0.00    -0.311 N 
ATOM     14  C   LIG d   1      -1.781  92.531 119.572  0.00  0.00     0.210 C 
ATOM     15  C   LIG d   1      -0.597  91.935 120.340  0.00  0.00     0.109 C 
ATOM     16  O   LIG d   1      -1.594  93.128 118.501  0.00  0.00    -0.276 OA
ATOM     17  H   LIG d   1      -3.023  91.911 121.043  0.00  0.00     0.149 HD
ENDBRANCH   6  13
BRANCH   5  18
ATOM     18  N   LIG d   1      -3.718  95.323 119.824  0.00  0.00     0.381 N 
ATOM     19  H   LIG d   1      -3.352  95.190 118.902  0.00  0.00    -0.090 HD
ATOM     20  H   LIG d   1      -2.954  95.288 120.475  0.00  0.00    -0.090 HD
ATOM     21  H   LIG d   1      -4.176  96.206 119.883  0.00  0.00    -0.090 HD
ENDBRANCH   5  18
BRANCH   3  22
ATOM     22  C   LIG d   1      -8.319  93.991 119.793  0.00  0.00     0.382 C 
ATOM     23  O   LIG d   1      -9.171  93.165 120.202  0.00  0.00    -0.241 OA
ATOM     24  O   LIG d   1      -8.685  95.130 119.448  0.00  0.00    -0.241 OA
ENDBRANCH   3  22
TORSDOF 7
ENDMDL
MODEL 2
REMARK VINA RESULT:      -4.4      0.976      1.998
REMARK  7 active torsions:
REMARK  status: ('A' for Active; 'I' for Inactive)
REMARK    1  A    between atoms: C_2  and  C_3 
REMARK    2  A    between atoms: C_3  and  O_6 
REMARK    3  A    between atoms: C_3  and  C_4 
REMARK    4  A    between atoms: C_7  and  O_6 
REMARK    5  A    between atoms: C_9  and  C_10 
REMARK    6  A    between atoms: N_15  and  C_14 
REMARK    7  A    between atoms: N_20  and  C_19 
REMARK       I    between atoms: C_22  and  N_20 
ROOT
ATOM      1  C   LIG d   1      -4.508  92.168 119.221  0.00  0.00     0.161 C 
ATOM      2  C   LIG d   1      -5.820  92.570 118.924  0.00  0.00     0.016 C 
ATOM      3  C   LIG d   1      -6.375  93.797 119.357  0.00  0.00     0.038 C 
ATOM      4  C   LIG d   1      -5.599  94.778 119.993  0.00  0.00     0.028 C 
ATOM      5  C   LIG d   1      -4.409  94.207 120.757  0.00  0.00    -0.047 C 
ATOM      6  C   LIG d   1      -3.611  93.273 119.819  0.00  0.00     0.091 C 
ENDROOT
BRANCH   1   7
ATOM      7  O   LIG d   1      -3.892  91.604 118.046  0.00  0.00    -0.368 OA
BRANCH   7   8
ATOM      8  C   LIG d   1      -3.943  90.161 117.930  0.00  0.00     0.119 C 
BRANCH   8   9
ATOM      9  C   LIG d   1      -2.495  89.639 118.004  0.00  0.00     0.028 C 
ATOM     10  C   LIG d   1      -2.155  89.045 119.381  0.00  0.00     0.006 C 
ENDBRANCH   8   9
BRANCH   8  11
ATOM     11  C   LIG d   1      -4.459  89.731 116.553  0.00  0.00     0.028 C 
ATOM     12  C   LIG d   1      -5.987  89.838 116.430  0.00  0.00     0.006 C 
ENDBRANCH   8  11
ENDBRANCH   7   8
ENDBRANCH   1   7
BRANCH   6  13
ATOM     13  N   LIG d   1      -2.478  92.607 120.511  0.00  0.00    -0.311 N 
ATOM     14  C   LIG d   1      -1.244  92.550 120.012  0.00  0.00     0.210 C 
ATOM     15  C   LIG d   1      -0.229  91.799 120.878  0.00  0.00     0.109 C 
ATOM     16  O   LIG d   1      -0.887  93.079 118.948  0.00  0.00    -0.276 OA
ATOM     17  H   LIG d   1      -2.671  92.178 121.395  0.00  0.00     0.149 HD
ENDBRANCH   6  13
BRANCH   5  18
ATOM     18  N   LIG d   1      -3.611  95.345 121.254  0.00  0.00     0.381 N 
ATOM     19  H   LIG d   1      -4.220  96.066 121.587  0.00  0.00    -0.090 HD
ATOM     20  H   LIG d   1      -3.068  95.717 120.495  0.00  0.00    -0.090 HD
ATOM     21  H   LIG d   1      -3.008  95.044 121.988  0.00  0.00    -0.090 HD
ENDBRANCH   5  18
BRANCH   3  22
ATOM     22  C   LIG d   1      -7.730  94.035 119.190  0.00  0.00     0.382 C 
ATOM     23  O   LIG d   1      -8.125  94.794 118.272  0.00  0.00    -0.241 OA
ATOM     24  O   LIG d   1      -8.561  93.537 119.974  0.00  0.00    -0.241 OA
ENDBRANCH   3  22
TORSDOF 7
ENDMDL
MODEL 3
REMARK VINA RESULT:      -4.4      2.948      6.353
REMARK  7 active torsions:
REMARK  status: ('A' for Active; 'I' for Inactive)
REMARK    1  A    between atoms: C_2  and  C_3 
REMARK    2  A    between atoms: C_3  and  O_6 
REMARK    3  A    between atoms: C_3  and  C_4 
REMARK    4  A    between atoms: C_7  and  O_6 
REMARK    5  A    between atoms: C_9  and  C_10 
REMARK    6  A    between atoms: N_15  and  C_14 
REMARK    7  A    between atoms: N_20  and  C_19 
REMARK       I    between atoms: C_22  and  N_20 
ROOT
ATOM      1  C   LIG d   1      -0.962  92.597 118.405  0.00  0.00     0.161 C 
ATOM      2  C   LIG d   1       0.205  91.948 117.965  0.00  0.00     0.016 C 
ATOM      3  C   LIG d   1       1.504  92.471 118.156  0.00  0.00     0.038 C 
ATOM      4  C   LIG d   1       1.737  93.613 118.937  0.00  0.00     0.028 C 
ATOM      5  C   LIG d   1       0.554  94.574 118.973  0.00  0.00    -0.047 C 
ATOM      6  C   LIG d   1      -0.720  93.787 119.357  0.00  0.00     0.091 C 
ENDROOT
BRANCH   1   7
ATOM      7  O   LIG d   1      -1.852  91.641 119.014  0.00  0.00    -0.368 OA
BRANCH   7   8
ATOM      8  C   LIG d   1      -3.051  91.320 118.267  0.00  0.00     0.119 C 
BRANCH   8   9
ATOM      9  C   LIG d   1      -4.257  91.604 119.182  0.00  0.00     0.028 C 
ATOM     10  C   LIG d   1      -5.593  91.563 118.421  0.00  0.00     0.006 C 
ENDBRANCH   8   9
BRANCH   8  11
ATOM     11  C   LIG d   1      -3.126  89.823 117.950  0.00  0.00     0.028 C 
ATOM     12  C   LIG d   1      -2.270  88.970 118.900  0.00  0.00     0.006 C 
ENDBRANCH   8  11
ENDBRANCH   7   8
ENDBRANCH   1   7
BRANCH   6  13
ATOM     13  N   LIG d   1      -1.939  94.636 119.333  0.00  0.00    -0.311 N 
ATOM     14  C   LIG d   1      -2.741  94.798 120.385  0.00  0.00     0.210 C 
ATOM     15  C   LIG d   1      -3.955  95.700 120.140  0.00  0.00     0.109 C 
ATOM     16  O   LIG d   1      -2.544  94.306 121.506  0.00  0.00    -0.276 OA
ATOM     17  H   LIG d   1      -2.157  95.098 118.472  0.00  0.00     0.149 HD
ENDBRANCH   6  13
BRANCH   5  18
ATOM     18  N   LIG d   1       0.881  95.647 119.931  0.00  0.00     0.381 N 
ATOM     19  H   LIG d   1       0.778  96.539 119.489  0.00  0.00    -0.090 HD
ATOM     20  H   LIG d   1       1.839  95.546 120.218  0.00  0.00    -0.090 HD
ATOM     21  H   LIG d   1       0.281  95.590 120.724  0.00  0.00    -0.090 HD
ENDBRANCH   5  18
BRANCH   3  22
ATOM     22  C   LIG d   1       2.585  91.872 117.526  0.00  0.00     0.382 C 
ATOM     23  O   LIG d   1       3.517  92.579 117.073  0.00  0.00    -0.241 OA
ATOM     24  O   LIG d   1       2.618  90.637 117.367  0.00  0.00    -0.241 OA
ENDBRANCH   3  22
TORSDOF 7
ENDMDL
MODEL 4
REMARK VINA RESULT:      -4.2      2.355      3.786
REMARK  7 active torsions:
REMARK  status: ('A' for Active; 'I' for Inactive)
REMARK    1  A    between atoms: C_2  and  C_3 
REMARK    2  A    between atoms: C_3  and  O_6 
REMARK    3  A    between atoms: C_3  and  C_4 
REMARK    4  A    between atoms: C_7  and  O_6 
REMARK    5  A    between atoms: C_9  and  C_10 
REMARK    6  A    between atoms: N_15  and  C_14 
REMARK    7  A    between atoms: N_20  and  C_19 
REMARK       I    between atoms: C_22  and  N_20 
ROOT
ATOM      1  C   LIG d   1      -3.524  92.452 119.536  0.00  0.00     0.161 C 
ATOM      2  C   LIG d   1      -4.656  93.248 119.776  0.00  0.00     0.016 C 
ATOM      3  C   LIG d   1      -5.901  93.042 119.137  0.00  0.00     0.038 C 
ATOM      4  C   LIG d   1      -6.141  91.926 118.323  0.00  0.00     0.028 C 
ATOM      5  C   LIG d   1      -4.883  91.381 117.656  0.00  0.00    -0.047 C 
ATOM      6  C   LIG d   1      -3.798  91.162 118.735  0.00  0.00     0.091 C 
ENDROOT
BRANCH   1   7
ATOM      7  O   LIG d   1      -2.874  92.139 120.783  0.00  0.00    -0.368 OA
BRANCH   7   8
ATOM      8  C   LIG d   1      -3.196  90.851 121.364  0.00  0.00     0.119 C 
BRANCH   8   9
ATOM      9  C   LIG d   1      -4.068  91.109 122.608  0.00  0.00     0.028 C 
ATOM     10  C   LIG d   1      -5.549  90.768 122.367  0.00  0.00     0.006 C 
ENDBRANCH   8   9
BRANCH   8  11
ATOM     11  C   LIG d   1      -1.941  90.147 121.888  0.00  0.00     0.028 C 
ATOM     12  C   LIG d   1      -2.025  88.616 121.773  0.00  0.00     0.006 C 
ENDBRANCH   8  11
ENDBRANCH   7   8
ENDBRANCH   1   7
BRANCH   6  13
ATOM     13  N   LIG d   1      -2.506  90.710 118.156  0.00  0.00    -0.311 N 
ATOM     14  C   LIG d   1      -2.175  89.427 118.014  0.00  0.00     0.210 C 
ATOM     15  C   LIG d   1      -0.788  89.180 117.414  0.00  0.00     0.109 C 
ATOM     16  O   LIG d   1      -2.912  88.471 118.299  0.00  0.00    -0.276 OA
ATOM     17  H   LIG d   1      -1.861  91.420 117.869  0.00  0.00     0.149 HD
ENDBRANCH   6  13
BRANCH   5  18
ATOM     18  N   LIG d   1      -5.254  90.140 116.950  0.00  0.00     0.381 N 
ATOM     19  H   LIG d   1      -5.577  89.459 117.608  0.00  0.00    -0.090 HD
ATOM     20  H   LIG d   1      -4.441  89.772 116.489  0.00  0.00    -0.090 HD
ATOM     21  H   LIG d   1      -5.967  90.329 116.280  0.00  0.00    -0.090 HD
ENDBRANCH   5  18
BRANCH   3  22
ATOM     22  C   LIG d   1      -6.910  93.983 119.280  0.00  0.00     0.382 C 
ATOM     23  O   LIG d   1      -7.668  94.241 118.314  0.00  0.00    -0.241 OA
ATOM     24  O   LIG d   1      -7.045  94.608 120.349  0.00  0.00    -0.241 OA
ENDBRANCH   3  22
TORSDOF 7
ENDMDL
MODEL 5
REMARK VINA RESULT:      -4.1      2.071      3.967
REMARK  7 active torsions:
REMARK  status: ('A' for Active; 'I' for Inactive)
REMARK    1  A    between atoms: C_2  and  C_3 
REMARK    2  A    between atoms: C_3  and  O_6 
REMARK    3  A    between atoms: C_3  and  C_4 
REMARK    4  A    between atoms: C_7  and  O_6 
REMARK    5  A    between atoms: C_9  and  C_10 
REMARK    6  A    between atoms: N_15  and  C_14 
REMARK    7  A    between atoms: N_20  and  C_19 
REMARK       I    between atoms: C_22  and  N_20 
ROOT
ATOM      1  C   LIG d   1      -3.576  92.236 119.513  0.00  0.00     0.161 C 
ATOM      2  C   LIG d   1      -4.685  93.060 119.768  0.00  0.00     0.016 C 
ATOM      3  C   LIG d   1      -5.891  92.990 119.033  0.00  0.00     0.038 C 
ATOM      4  C   LIG d   1      -6.125  91.982 118.086  0.00  0.00     0.028 C 
ATOM      5  C   LIG d   1      -4.850  91.446 117.444  0.00  0.00    -0.047 C 
ATOM      6  C   LIG d   1      -3.852  91.056 118.558  0.00  0.00     0.091 C 
ENDROOT
BRANCH   1   7
ATOM      7  O   LIG d   1      -3.027  91.756 120.757  0.00  0.00    -0.368 OA
BRANCH   7   8
ATOM      8  C   LIG d   1      -1.696  92.221 121.088  0.00  0.00     0.119 C 
BRANCH   8   9
ATOM      9  C   LIG d   1      -1.257  93.196 119.978  0.00  0.00     0.028 C 
ATOM     10  C   LIG d   1       0.068  92.777 119.319  0.00  0.00     0.006 C 
ENDBRANCH   8   9
BRANCH   8  11
ATOM     11  C   LIG d   1      -0.680  91.076 121.047  0.00  0.00     0.028 C 
ATOM     12  C   LIG d   1      -1.307  89.711 121.369  0.00  0.00     0.006 C 
ENDBRANCH   8  11
ENDBRANCH   7   8
ENDBRANCH   1   7
BRANCH   6  13
ATOM     13  N   LIG d   1      -2.546  90.601 118.015  0.00  0.00    -0.311 N 
ATOM     14  C   LIG d   1      -2.241  89.320 117.816  0.00  0.00     0.210 C 
ATOM     15  C   LIG d   1      -0.833  89.068 117.268  0.00  0.00     0.109 C 
ATOM     16  O   LIG d   1      -3.014  88.370 118.011  0.00  0.00    -0.276 OA
ATOM     17  H   LIG d   1      -1.870  91.308 117.800  0.00  0.00     0.149 HD
ENDBRANCH   6  13
BRANCH   5  18
ATOM     18  N   LIG d   1      -5.228  90.310 116.582  0.00  0.00     0.381 N 
ATOM     19  H   LIG d   1      -4.665  90.310 115.756  0.00  0.00    -0.090 HD
ATOM     20  H   LIG d   1      -6.189  90.416 116.309  0.00  0.00    -0.090 HD
ATOM     21  H   LIG d   1      -5.108  89.453 117.076  0.00  0.00    -0.090 HD
ENDBRANCH   5  18
BRANCH   3  22
ATOM     22  C   LIG d   1      -6.863  93.962 119.215  0.00  0.00     0.382 C 
ATOM     23  O   LIG d   1      -6.968  94.545 120.321  0.00  0.00    -0.241 OA
ATOM     24  O   LIG d   1      -7.666  94.231 118.302  0.00  0.00    -0.241 OA
ENDBRANCH   3  22
TORSDOF 7
ENDMDL
MODEL 6
REMARK VINA RESULT:      -4.1      2.995      4.748
REMARK  7 active torsions:
REMARK  status: ('A' for Active; 'I' for Inactive)
REMARK    1  A    between atoms: C_2  and  C_3 
REMARK    2  A    between atoms: C_3  and  O_6 
REMARK    3  A    between atoms: C_3  and  C_4 
REMARK    4  A    between atoms: C_7  and  O_6 
REMARK    5  A    between atoms: C_9  and  C_10 
REMARK    6  A    between atoms: N_15  and  C_14 
REMARK    7  A    between atoms: N_20  and  C_19 
REMARK       I    between atoms: C_22  and  N_20 
ROOT
ATOM      1  C   LIG d   1      -2.761  91.747 118.938  0.00  0.00     0.161 C 
ATOM      2  C   LIG d   1      -4.041  91.726 118.360  0.00  0.00     0.016 C 
ATOM      3  C   LIG d   1      -4.472  90.726 117.458  0.00  0.00     0.038 C 
ATOM      4  C   LIG d   1      -3.697  89.588 117.188  0.00  0.00     0.028 C 
ATOM      5  C   LIG d   1      -2.200  89.821 117.355  0.00  0.00    -0.047 C 
ATOM      6  C   LIG d   1      -1.942  90.454 118.742  0.00  0.00     0.091 C 
ENDROOT
BRANCH   1   7
ATOM      7  O   LIG d   1      -2.862  92.068 120.339  0.00  0.00    -0.368 OA
BRANCH   7   8
ATOM      8  C   LIG d   1      -3.468  91.057 121.182  0.00  0.00     0.119 C 
BRANCH   8   9
ATOM      9  C   LIG d   1      -4.636  91.721 121.936  0.00  0.00     0.028 C 
ATOM     10  C   LIG d   1      -6.001  91.140 121.532  0.00  0.00     0.006 C 
ENDBRANCH   8   9
BRANCH   8  11
ATOM     11  C   LIG d   1      -2.499  90.586 122.271  0.00  0.00     0.028 C 
ATOM     12  C   LIG d   1      -3.056  89.418 123.100  0.00  0.00     0.006 C 
ENDBRANCH   8  11
ENDBRANCH   7   8
ENDBRANCH   1   7
BRANCH   6  13
ATOM     13  N   LIG d   1      -0.510  90.791 118.953  0.00  0.00    -0.311 N 
ATOM     14  C   LIG d   1       0.344  89.995 119.594  0.00  0.00     0.210 C 
ATOM     15  C   LIG d   1       1.769  90.543 119.719  0.00  0.00     0.109 C 
ATOM     16  O   LIG d   1       0.065  88.873 120.042  0.00  0.00    -0.276 OA
ATOM     17  H   LIG d   1      -0.191  91.670 118.594  0.00  0.00     0.149 HD
ENDBRANCH   6  13
BRANCH   5  18
ATOM     18  N   LIG d   1      -1.524  88.521 117.178  0.00  0.00     0.381 N 
ATOM     19  H   LIG d   1      -0.738  88.461 117.795  0.00  0.00    -0.090 HD
ATOM     20  H   LIG d   1      -1.190  88.455 116.233  0.00  0.00    -0.090 HD
ATOM     21  H   LIG d   1      -2.160  87.778 117.366  0.00  0.00    -0.090 HD
ENDBRANCH   5  18
BRANCH   3  22
ATOM     22  C   LIG d   1      -5.674  90.880 116.784  0.00  0.00     0.382 C 
ATOM     23  O   LIG d   1      -6.053  92.023 116.432  0.00  0.00    -0.241 OA
ATOM     24  O   LIG d   1      -6.404  89.896 116.563  0.00  0.00    -0.241 OA
ENDBRANCH   3  22
TORSDOF 7
ENDMDL
MODEL 7
REMARK VINA RESULT:      -4.1      2.888      5.370
REMARK  7 active torsions:
REMARK  status: ('A' for Active; 'I' for Inactive)
REMARK    1  A    between atoms: C_2  and  C_3 
REMARK    2  A    between atoms: C_3  and  O_6 
REMARK    3  A    between atoms: C_3  and  C_4 
REMARK    4  A    between atoms: C_7  and  O_6 
REMARK    5  A    between atoms: C_9  and  C_10 
REMARK    6  A    between atoms: N_15  and  C_14 
REMARK    7  A    between atoms: N_20  and  C_19 
REMARK       I    between atoms: C_22  and  N_20 
ROOT
ATOM      1  C   LIG d   1      -1.886  91.384 118.503  0.00  0.00     0.161 C 
ATOM      2  C   LIG d   1      -3.177  91.850 118.803  0.00  0.00     0.016 C 
ATOM      3  C   LIG d   1      -4.357  91.197 118.380  0.00  0.00     0.038 C 
ATOM      4  C   LIG d   1      -4.327  89.942 117.753  0.00  0.00     0.028 C 
ATOM      5  C   LIG d   1      -3.036  89.680 116.985  0.00  0.00    -0.047 C 
ATOM      6  C   LIG d   1      -1.833  89.958 117.915  0.00  0.00     0.091 C 
ENDROOT
BRANCH   1   7
ATOM      7  O   LIG d   1      -1.049  91.474 119.673  0.00  0.00    -0.368 OA
BRANCH   7   8
ATOM      8  C   LIG d   1      -0.167  92.622 119.739  0.00  0.00     0.119 C 
BRANCH   8   9
ATOM      9  C   LIG d   1       1.277  92.103 119.601  0.00  0.00     0.028 C 
ATOM     10  C   LIG d   1       1.962  92.606 118.319  0.00  0.00     0.006 C 
ENDBRANCH   8   9
BRANCH   8  11
ATOM     11  C   LIG d   1      -0.228  93.293 121.114  0.00  0.00     0.028 C 
ATOM     12  C   LIG d   1      -1.602  93.913 121.414  0.00  0.00     0.006 C 
ENDBRANCH   8  11
ENDBRANCH   7   8
ENDBRANCH   1   7
BRANCH   6  13
ATOM     13  N   LIG d   1      -0.530  89.807 117.217  0.00  0.00    -0.311 N 
ATOM     14  C   LIG d   1       0.496  89.122 117.719  0.00  0.00     0.210 C 
ATOM     15  C   LIG d   1       1.754  89.108 116.846  0.00  0.00     0.109 C 
ATOM     16  O   LIG d   1       0.472  88.498 118.791  0.00  0.00    -0.276 OA
ATOM     17  H   LIG d   1      -0.435  90.255 116.327  0.00  0.00     0.149 HD
ENDBRANCH   6  13
BRANCH   5  18
ATOM     18  N   LIG d   1      -3.082  88.289 116.498  0.00  0.00     0.381 N 
ATOM     19  H   LIG d   1      -2.841  87.662 117.240  0.00  0.00    -0.090 HD
ATOM     20  H   LIG d   1      -2.407  88.179 115.761  0.00  0.00    -0.090 HD
ATOM     21  H   LIG d   1      -3.994  88.076 116.157  0.00  0.00    -0.090 HD
ENDBRANCH   5  18
BRANCH   3  22
ATOM     22  C   LIG d   1      -5.585  91.819 118.549  0.00  0.00     0.382 C 
ATOM     23  O   LIG d   1      -6.164  92.341 117.566  0.00  0.00    -0.241 OA
ATOM     24  O   LIG d   1      -6.100  91.904 119.680  0.00  0.00    -0.241 OA
ENDBRANCH   3  22
TORSDOF 7
ENDMDL
MODEL 8
REMARK VINA RESULT:      -4.0      3.253      4.963
REMARK  7 active torsions:
REMARK  status: ('A' for Active; 'I' for Inactive)
REMARK    1  A    between atoms: C_2  and  C_3 
REMARK    2  A    between atoms: C_3  and  O_6 
REMARK    3  A    between atoms: C_3  and  C_4 
REMARK    4  A    between atoms: C_7  and  O_6 
REMARK    5  A    between atoms: C_9  and  C_10 
REMARK    6  A    between atoms: N_15  and  C_14 
REMARK    7  A    between atoms: N_20  and  C_19 
REMARK       I    between atoms: C_22  and  N_20 
ROOT
ATOM      1  C   LIG d   1      -1.753  92.574 119.171  0.00  0.00     0.161 C 
ATOM      2  C   LIG d   1      -2.095  93.900 119.485  0.00  0.00     0.016 C 
ATOM      3  C   LIG d   1      -1.171  94.970 119.458  0.00  0.00     0.038 C 
ATOM      4  C   LIG d   1       0.133  94.810 118.966  0.00  0.00     0.028 C 
ATOM      5  C   LIG d   1       0.668  93.390 119.116  0.00  0.00    -0.047 C 
ATOM      6  C   LIG d   1      -0.362  92.401 118.525  0.00  0.00     0.091 C 
ENDROOT
BRANCH   1   7
ATOM      7  O   LIG d   1      -2.771  91.993 118.333  0.00  0.00    -0.368 OA
BRANCH   7   8
ATOM      8  C   LIG d   1      -3.553  90.927 118.926  0.00  0.00     0.119 C 
BRANCH   8   9
ATOM      9  C   LIG d   1      -3.778  89.857 117.840  0.00  0.00     0.028 C 
ATOM     10  C   LIG d   1      -2.723  88.739 117.890  0.00  0.00     0.006 C 
ENDBRANCH   8   9
BRANCH   8  11
ATOM     11  C   LIG d   1      -4.953  91.412 119.313  0.00  0.00     0.028 C 
ATOM     12  C   LIG d   1      -5.841  91.703 118.093  0.00  0.00     0.006 C 
ENDBRANCH   8  11
ENDBRANCH   7   8
ENDBRANCH   1   7
BRANCH   6  13
ATOM     13  N   LIG d   1       0.044  90.983 118.706  0.00  0.00    -0.311 N 
ATOM     14  C   LIG d   1       0.716  90.290 117.789  0.00  0.00     0.210 C 
ATOM     15  C   LIG d   1       1.018  88.837 118.169  0.00  0.00     0.109 C 
ATOM     16  O   LIG d   1       1.120  90.750 116.710  0.00  0.00    -0.276 OA
ATOM     17  H   LIG d   1      -0.215  90.541 119.566  0.00  0.00     0.149 HD
ENDBRANCH   6  13
BRANCH   5  18
ATOM     18  N   LIG d   1       1.978  93.333 118.440  0.00  0.00     0.381 N 
ATOM     19  H   LIG d   1       1.872  92.931 117.530  0.00  0.00    -0.090 HD
ATOM     20  H   LIG d   1       2.594  92.747 118.975  0.00  0.00    -0.090 HD
ATOM     21  H   LIG d   1       2.362  94.249 118.364  0.00  0.00    -0.090 HD
ENDBRANCH   5  18
BRANCH   3  22
ATOM     22  C   LIG d   1      -1.537  96.207 119.965  0.00  0.00     0.382 C 
ATOM     23  O   LIG d   1      -1.331  97.246 119.292  0.00  0.00    -0.241 OA
ATOM     24  O   LIG d   1      -2.029  96.302 121.105  0.00  0.00    -0.241 OA
ENDBRANCH   3  22
TORSDOF 7
ENDMDL
MODEL 9
REMARK VINA RESULT:      -4.0      3.595      6.760
REMARK  7 active torsions:
REMARK  status: ('A' for Active; 'I' for Inactive)
REMARK    1  A    between atoms: C_2  and  C_3 
REMARK    2  A    between atoms: C_3  and  O_6 
REMARK    3  A    between atoms: C_3  and  C_4 
REMARK    4  A    between atoms: C_7  and  O_6 
REMARK    5  A    between atoms: C_9  and  C_10 
REMARK    6  A    between atoms: N_15  and  C_14 
REMARK    7  A    between atoms: N_20  and  C_19 
REMARK       I    between atoms: C_22  and  N_20 
ROOT
ATOM      1  C   LIG d   1      -0.788  92.655 118.317  0.00  0.00     0.161 C 
ATOM      2  C   LIG d   1       0.414  92.012 117.977  0.00  0.00     0.016 C 
ATOM      3  C   LIG d   1       1.691  92.525 118.304  0.00  0.00     0.038 C 
ATOM      4  C   LIG d   1       1.849  93.647 119.130  0.00  0.00     0.028 C 
ATOM      5  C   LIG d   1       0.670  94.612 119.075  0.00  0.00    -0.047 C 
ATOM      6  C   LIG d   1      -0.637  93.822 119.315  0.00  0.00     0.091 C 
ENDROOT
BRANCH   1   7
ATOM      7  O   LIG d   1      -1.734  91.689 118.816  0.00  0.00    -0.368 OA
BRANCH   7   8
ATOM      8  C   LIG d   1      -1.397  91.057 120.076  0.00  0.00     0.119 C 
BRANCH   8   9
ATOM      9  C   LIG d   1      -1.446  89.533 119.857  0.00  0.00     0.028 C 
ATOM     10  C   LIG d   1      -2.119  89.152 118.528  0.00  0.00     0.006 C 
ENDBRANCH   8   9
BRANCH   8  11
ATOM     11  C   LIG d   1      -2.455  91.348 121.145  0.00  0.00     0.028 C 
ATOM     12  C   LIG d   1      -3.789  91.824 120.549  0.00  0.00     0.006 C 
ENDBRANCH   8  11
ENDBRANCH   7   8
ENDBRANCH   1   7
BRANCH   6  13
ATOM     13  N   LIG d   1      -1.847  94.677 119.194  0.00  0.00    -0.311 N 
ATOM     14  C   LIG d   1      -2.442  95.256 120.235  0.00  0.00     0.210 C 
ATOM     15  C   LIG d   1      -3.688  96.079 119.892  0.00  0.00     0.109 C 
ATOM     16  O   LIG d   1      -2.039  95.193 121.406  0.00  0.00    -0.276 OA
ATOM     17  H   LIG d   1      -2.223  94.807 118.275  0.00  0.00     0.149 HD
ENDBRANCH   6  13
BRANCH   5  18
ATOM     18  N   LIG d   1       0.905  95.662 120.084  0.00  0.00     0.381 N 
ATOM     19  H   LIG d   1       1.064  95.243 120.978  0.00  0.00    -0.090 HD
ATOM     20  H   LIG d   1       0.086  96.241 120.148  0.00  0.00    -0.090 HD
ATOM     21  H   LIG d   1       1.692  96.215 119.824  0.00  0.00    -0.090 HD
ENDBRANCH   5  18
BRANCH   3  22
ATOM     22  C   LIG d   1       2.826  91.936 117.768  0.00  0.00     0.382 C 
ATOM     23  O   LIG d   1       3.886  91.893 118.437  0.00  0.00    -0.241 OA
ATOM     24  O   LIG d   1       2.816  91.487 116.606  0.00  0.00    -0.241 OA
ENDBRANCH   3  22
TORSDOF 7
ENDMDL
