MODEL 1
REMARK VINA RESULT:      -4.3      0.000      0.000
REMARK  7 active torsions:
REMARK  status: ('A' for Active; 'I' for Inactive)
REMARK    1  A    between atoms: C_2  and  C_3 
REMARK    2  A    between atoms: C_3  and  O_6 
REMARK    3  A    between atoms: C_3  and  C_4 
REMARK    4  A    between atoms: C_7  and  O_6 
REMARK    5  A    between atoms: C_9  and  C_10 
REMARK    6  A    between atoms: N_15  and  C_14 
REMARK    7  A    between atoms: N_20  and  C_19 
REMARK       I    between atoms: C_22  and  N_20 
ROOT
ATOM      1  C   LIG d   1      -4.633  93.477 117.625  0.00  0.00     0.161 C 
ATOM      2  C   LIG d   1      -5.593  94.502 117.609  0.00  0.00     0.016 C 
ATOM      3  C   LIG d   1      -6.977  94.270 117.438  0.00  0.00     0.038 C 
ATOM      4  C   LIG d   1      -7.515  92.975 117.423  0.00  0.00     0.028 C 
ATOM      5  C   LIG d   1      -6.534  91.917 116.930  0.00  0.00    -0.047 C 
ATOM      6  C   LIG d   1      -5.213  92.050 117.722  0.00  0.00     0.091 C 
ENDROOT
BRANCH   1   7
ATOM      7  O   LIG d   1      -3.690  93.707 118.691  0.00  0.00    -0.368 OA
BRANCH   7   8
ATOM      8  C   LIG d   1      -2.379  94.177 118.291  0.00  0.00     0.119 C 
BRANCH   8   9
ATOM      9  C   LIG d   1      -1.380  93.031 118.542  0.00  0.00     0.028 C 
ATOM     10  C   LIG d   1      -1.566  92.383 119.924  0.00  0.00     0.006 C 
ENDBRANCH   8   9
BRANCH   8  11
ATOM     11  C   LIG d   1      -1.905  95.331 119.180  0.00  0.00     0.028 C 
ATOM     12  C   LIG d   1      -2.767  96.594 119.028  0.00  0.00     0.006 C 
ENDBRANCH   8  11
ENDBRANCH   7   8
ENDBRANCH   1   7
BRANCH   6  13
ATOM     13  N   LIG d   1      -4.168  91.107 117.245  0.00  0.00    -0.311 N 
ATOM     14  C   LIG d   1      -3.723  90.079 117.966  0.00  0.00     0.210 C 
ATOM     15  C   LIG d   1      -2.630  89.243 117.295  0.00  0.00     0.109 C 
ATOM     16  O   LIG d   1      -4.154  89.762 119.085  0.00  0.00    -0.276 OA
ATOM     17  H   LIG d   1      -3.786  91.272 116.334  0.00  0.00     0.149 HD
ENDBRANCH   6  13
BRANCH   5  18
ATOM     18  N   LIG d   1      -7.177  90.600 117.096  0.00  0.00     0.381 N 
ATOM     19  H   LIG d   1      -7.870  90.469 116.386  0.00  0.00    -0.090 HD
ATOM     20  H   LIG d   1      -7.634  90.572 117.991  0.00  0.00    -0.090 HD
ATOM     21  H   LIG d   1      -6.494  89.877 117.041  0.00  0.00    -0.090 HD
ENDBRANCH   5  18
BRANCH   3  22
ATOM     22  C   LIG d   1      -7.834  95.342 117.239  0.00  0.00     0.382 C 
ATOM     23  O   LIG d   1      -9.076  95.164 117.259  0.00  0.00    -0.241 OA
ATOM     24  O   LIG d   1      -7.381  96.477 116.997  0.00  0.00    -0.241 OA
ENDBRANCH   3  22
TORSDOF 7
ENDMDL
MODEL 2
REMARK VINA RESULT:      -4.2      1.727      4.975
REMARK  7 active torsions:
REMARK  status: ('A' for Active; 'I' for Inactive)
REMARK    1  A    between atoms: C_2  and  C_3 
REMARK    2  A    between atoms: C_3  and  O_6 
REMARK    3  A    between atoms: C_3  and  C_4 
REMARK    4  A    between atoms: C_7  and  O_6 
REMARK    5  A    between atoms: C_9  and  C_10 
REMARK    6  A    between atoms: N_15  and  C_14 
REMARK    7  A    between atoms: N_20  and  C_19 
REMARK       I    between atoms: C_22  and  N_20 
ROOT
ATOM      1  C   LIG d   1      -4.707  93.074 118.488  0.00  0.00     0.161 C 
ATOM      2  C   LIG d   1      -3.675  92.168 118.190  0.00  0.00     0.016 C 
ATOM      3  C   LIG d   1      -3.884  90.950 117.502  0.00  0.00     0.038 C 
ATOM      4  C   LIG d   1      -5.122  90.625 116.929  0.00  0.00     0.028 C 
ATOM      5  C   LIG d   1      -6.307  91.271 117.640  0.00  0.00    -0.047 C 
ATOM      6  C   LIG d   1      -6.045  92.788 117.773  0.00  0.00     0.091 C 
ENDROOT
BRANCH   1   7
ATOM      7  O   LIG d   1      -4.269  94.419 118.213  0.00  0.00    -0.368 OA
BRANCH   7   8
ATOM      8  C   LIG d   1      -3.846  95.198 119.360  0.00  0.00     0.119 C 
BRANCH   8   9
ATOM      9  C   LIG d   1      -4.930  96.262 119.622  0.00  0.00     0.028 C 
ATOM     10  C   LIG d   1      -5.568  96.782 118.323  0.00  0.00     0.006 C 
ENDBRANCH   8   9
BRANCH   8  11
ATOM     11  C   LIG d   1      -2.569  95.987 119.057  0.00  0.00     0.028 C 
ATOM     12  C   LIG d   1      -1.360  95.079 118.777  0.00  0.00     0.006 C 
ENDBRANCH   8  11
ENDBRANCH   7   8
ENDBRANCH   1   7
BRANCH   6  13
ATOM     13  N   LIG d   1      -7.117  93.484 118.532  0.00  0.00    -0.311 N 
ATOM     14  C   LIG d   1      -8.136  94.113 117.950  0.00  0.00     0.210 C 
ATOM     15  C   LIG d   1      -9.119  94.782 118.916  0.00  0.00     0.109 C 
ATOM     16  O   LIG d   1      -8.338  94.153 116.727  0.00  0.00    -0.276 OA
ATOM     17  H   LIG d   1      -7.049  93.475 119.531  0.00  0.00     0.149 HD
ENDBRANCH   6  13
BRANCH   5  18
ATOM     18  N   LIG d   1      -7.519  90.960 116.858  0.00  0.00     0.381 N 
ATOM     19  H   LIG d   1      -7.982  91.809 116.601  0.00  0.00    -0.090 HD
ATOM     20  H   LIG d   1      -8.144  90.420 117.429  0.00  0.00    -0.090 HD
ATOM     21  H   LIG d   1      -7.275  90.446 116.040  0.00  0.00    -0.090 HD
ENDBRANCH   5  18
BRANCH   3  22
ATOM     22  C   LIG d   1      -2.855  90.024 117.417  0.00  0.00     0.382 C 
ATOM     23  O   LIG d   1      -1.730  90.375 116.988  0.00  0.00    -0.241 OA
ATOM     24  O   LIG d   1      -3.051  88.832 117.722  0.00  0.00    -0.241 OA
ENDBRANCH   3  22
TORSDOF 7
ENDMDL
MODEL 3
REMARK VINA RESULT:      -4.2      2.537      4.731
REMARK  7 active torsions:
REMARK  status: ('A' for Active; 'I' for Inactive)
REMARK    1  A    between atoms: C_2  and  C_3 
REMARK    2  A    between atoms: C_3  and  O_6 
REMARK    3  A    between atoms: C_3  and  C_4 
REMARK    4  A    between atoms: C_7  and  O_6 
REMARK    5  A    between atoms: C_9  and  C_10 
REMARK    6  A    between atoms: N_15  and  C_14 
REMARK    7  A    between atoms: N_20  and  C_19 
REMARK       I    between atoms: C_22  and  N_20 
ROOT
ATOM      1  C   LIG d   1      -6.037  93.796 119.262  0.00  0.00     0.161 C 
ATOM      2  C   LIG d   1      -7.335  93.439 119.661  0.00  0.00     0.016 C 
ATOM      3  C   LIG d   1      -8.503  94.042 119.141  0.00  0.00     0.038 C 
ATOM      4  C   LIG d   1      -8.456  94.945 118.068  0.00  0.00     0.028 C 
ATOM      5  C   LIG d   1      -7.140  95.709 117.977  0.00  0.00    -0.047 C 
ATOM      6  C   LIG d   1      -5.970  94.699 118.013  0.00  0.00     0.091 C 
ENDROOT
BRANCH   1   7
ATOM      7  O   LIG d   1      -5.242  92.609 119.065  0.00  0.00    -0.368 OA
BRANCH   7   8
ATOM      8  C   LIG d   1      -5.096  92.161 117.695  0.00  0.00     0.119 C 
BRANCH   8   9
ATOM      9  C   LIG d   1      -6.025  90.947 117.504  0.00  0.00     0.028 C 
ATOM     10  C   LIG d   1      -7.252  91.278 116.638  0.00  0.00     0.006 C 
ENDBRANCH   8   9
BRANCH   8  11
ATOM     11  C   LIG d   1      -3.682  91.635 117.429  0.00  0.00     0.028 C 
ATOM     12  C   LIG d   1      -3.644  90.116 117.201  0.00  0.00     0.006 C 
ENDBRANCH   8  11
ENDBRANCH   7   8
ENDBRANCH   1   7
BRANCH   6  13
ATOM     13  N   LIG d   1      -4.643  95.369 118.013  0.00  0.00    -0.311 N 
ATOM     14  C   LIG d   1      -4.237  96.192 118.978  0.00  0.00     0.210 C 
ATOM     15  C   LIG d   1      -2.843  96.791 118.773  0.00  0.00     0.109 C 
ATOM     16  O   LIG d   1      -4.887  96.458 120.001  0.00  0.00    -0.276 OA
ATOM     17  H   LIG d   1      -4.039  95.185 117.236  0.00  0.00     0.149 HD
ENDBRANCH   6  13
BRANCH   5  18
ATOM     18  N   LIG d   1      -7.175  96.510 116.738  0.00  0.00     0.381 N 
ATOM     19  H   LIG d   1      -6.253  96.827 116.514  0.00  0.00    -0.090 HD
ATOM     20  H   LIG d   1      -7.758  97.314 116.887  0.00  0.00    -0.090 HD
ATOM     21  H   LIG d   1      -7.536  95.962 115.988  0.00  0.00    -0.090 HD
ENDBRANCH   5  18
BRANCH   3  22
ATOM     22  C   LIG d   1      -9.733  93.773 119.722  0.00  0.00     0.382 C 
ATOM     23  O   LIG d   1      -9.935  92.668 120.280  0.00  0.00    -0.241 OA
ATOM     24  O   LIG d   1     -10.658  94.605 119.657  0.00  0.00    -0.241 OA
ENDBRANCH   3  22
TORSDOF 7
ENDMDL
MODEL 4
REMARK VINA RESULT:      -4.1      2.425      5.855
REMARK  7 active torsions:
REMARK  status: ('A' for Active; 'I' for Inactive)
REMARK    1  A    between atoms: C_2  and  C_3 
REMARK    2  A    between atoms: C_3  and  O_6 
REMARK    3  A    between atoms: C_3  and  C_4 
REMARK    4  A    between atoms: C_7  and  O_6 
REMARK    5  A    between atoms: C_9  and  C_10 
REMARK    6  A    between atoms: N_15  and  C_14 
REMARK    7  A    between atoms: N_20  and  C_19 
REMARK       I    between atoms: C_22  and  N_20 
ROOT
ATOM      1  C   LIG d   1      -6.534  92.691 117.301  0.00  0.00     0.161 C 
ATOM      2  C   LIG d   1      -5.734  91.546 117.450  0.00  0.00     0.016 C 
ATOM      3  C   LIG d   1      -4.345  91.596 117.710  0.00  0.00     0.038 C 
ATOM      4  C   LIG d   1      -3.687  92.802 117.992  0.00  0.00     0.028 C 
ATOM      5  C   LIG d   1      -4.351  94.018 117.356  0.00  0.00    -0.047 C 
ATOM      6  C   LIG d   1      -5.855  94.013 117.716  0.00  0.00     0.091 C 
ENDROOT
BRANCH   1   7
ATOM      7  O   LIG d   1      -7.773  92.518 118.019  0.00  0.00    -0.368 OA
BRANCH   7   8
ATOM      8  C   LIG d   1      -7.850  93.151 119.319  0.00  0.00     0.119 C 
BRANCH   8   9
ATOM      9  C   LIG d   1      -7.446  92.100 120.371  0.00  0.00     0.028 C 
ATOM     10  C   LIG d   1      -6.141  92.467 121.097  0.00  0.00     0.006 C 
ENDBRANCH   8   9
BRANCH   8  11
ATOM     11  C   LIG d   1      -9.290  93.539 119.666  0.00  0.00     0.028 C 
ATOM     12  C   LIG d   1      -9.479  95.057 119.814  0.00  0.00     0.006 C 
ENDBRANCH   8  11
ENDBRANCH   7   8
ENDBRANCH   1   7
BRANCH   6  13
ATOM     13  N   LIG d   1      -6.597  95.124 117.064  0.00  0.00    -0.311 N 
ATOM     14  C   LIG d   1      -6.819  96.300 117.649  0.00  0.00     0.210 C 
ATOM     15  C   LIG d   1      -7.622  97.298 116.809  0.00  0.00     0.109 C 
ATOM     16  O   LIG d   1      -6.398  96.623 118.770  0.00  0.00    -0.276 OA
ATOM     17  H   LIG d   1      -6.947  94.959 116.140  0.00  0.00     0.149 HD
ENDBRANCH   6  13
BRANCH   5  18
ATOM     18  N   LIG d   1      -3.645  95.218 117.843  0.00  0.00     0.381 N 
ATOM     19  H   LIG d   1      -3.624  95.914 117.125  0.00  0.00    -0.090 HD
ATOM     20  H   LIG d   1      -2.698  94.968 118.068  0.00  0.00    -0.090 HD
ATOM     21  H   LIG d   1      -4.102  95.578 118.652  0.00  0.00    -0.090 HD
ENDBRANCH   5  18
BRANCH   3  22
ATOM     22  C   LIG d   1      -3.593  90.433 117.651  0.00  0.00     0.382 C 
ATOM     23  O   LIG d   1      -3.991  89.398 118.239  0.00  0.00    -0.241 OA
ATOM     24  O   LIG d   1      -2.500  90.417 117.054  0.00  0.00    -0.241 OA
ENDBRANCH   3  22
TORSDOF 7
ENDMDL
MODEL 5
REMARK VINA RESULT:      -4.1      2.136      3.105
REMARK  7 active torsions:
REMARK  status: ('A' for Active; 'I' for Inactive)
REMARK    1  A    between atoms: C_2  and  C_3 
REMARK    2  A    between atoms: C_3  and  O_6 
REMARK    3  A    between atoms: C_3  and  C_4 
REMARK    4  A    between atoms: C_7  and  O_6 
REMARK    5  A    between atoms: C_9  and  C_10 
REMARK    6  A    between atoms: N_15  and  C_14 
REMARK    7  A    between atoms: N_20  and  C_19 
REMARK       I    between atoms: C_22  and  N_20 
ROOT
ATOM      1  C   LIG d   1      -2.894  93.403 117.302  0.00  0.00     0.161 C 
ATOM      2  C   LIG d   1      -4.276  93.644 117.242  0.00  0.00     0.016 C 
ATOM      3  C   LIG d   1      -5.244  92.615 117.175  0.00  0.00     0.038 C 
ATOM      4  C   LIG d   1      -4.899  91.263 117.316  0.00  0.00     0.028 C 
ATOM      5  C   LIG d   1      -3.474  90.952 116.871  0.00  0.00    -0.047 C 
ATOM      6  C   LIG d   1      -2.505  91.933 117.569  0.00  0.00     0.091 C 
ENDROOT
BRANCH   1   7
ATOM      7  O   LIG d   1      -2.289  94.267 118.283  0.00  0.00    -0.368 OA
BRANCH   7   8
ATOM      8  C   LIG d   1      -2.276  93.775 119.646  0.00  0.00     0.119 C 
BRANCH   8   9
ATOM      9  C   LIG d   1      -3.146  94.726 120.490  0.00  0.00     0.028 C 
ATOM     10  C   LIG d   1      -3.113  96.172 119.966  0.00  0.00     0.006 C 
ENDBRANCH   8   9
BRANCH   8  11
ATOM     11  C   LIG d   1      -0.874  93.858 120.256  0.00  0.00     0.028 C 
ATOM     12  C   LIG d   1       0.173  94.402 119.271  0.00  0.00     0.006 C 
ENDBRANCH   8  11
ENDBRANCH   7   8
ENDBRANCH   1   7
BRANCH   6  13
ATOM     13  N   LIG d   1      -1.098  91.753 117.125  0.00  0.00    -0.311 N 
ATOM     14  C   LIG d   1      -0.211  91.011 117.785  0.00  0.00     0.210 C 
ATOM     15  C   LIG d   1       1.190  90.975 117.166  0.00  0.00     0.109 C 
ATOM     16  O   LIG d   1      -0.459  90.354 118.807  0.00  0.00    -0.276 OA
ATOM     17  H   LIG d   1      -0.820  92.225 116.287  0.00  0.00     0.149 HD
ENDBRANCH   6  13
BRANCH   5  18
ATOM     18  N   LIG d   1      -3.203  89.540 117.201  0.00  0.00     0.381 N 
ATOM     19  H   LIG d   1      -2.263  89.307 116.948  0.00  0.00    -0.090 HD
ATOM     20  H   LIG d   1      -3.826  88.957 116.670  0.00  0.00    -0.090 HD
ATOM     21  H   LIG d   1      -3.340  89.384 118.175  0.00  0.00    -0.090 HD
ENDBRANCH   5  18
BRANCH   3  22
ATOM     22  C   LIG d   1      -6.570  92.934 116.924  0.00  0.00     0.382 C 
ATOM     23  O   LIG d   1      -6.864  94.050 116.432  0.00  0.00    -0.241 OA
ATOM     24  O   LIG d   1      -7.479  92.138 117.225  0.00  0.00    -0.241 OA
ENDBRANCH   3  22
TORSDOF 7
ENDMDL
MODEL 6
REMARK VINA RESULT:      -4.1      1.000      1.944
REMARK  7 active torsions:
REMARK  status: ('A' for Active; 'I' for Inactive)
REMARK    1  A    between atoms: C_2  and  C_3 
REMARK    2  A    between atoms: C_3  and  O_6 
REMARK    3  A    between atoms: C_3  and  C_4 
REMARK    4  A    between atoms: C_7  and  O_6 
REMARK    5  A    between atoms: C_9  and  C_10 
REMARK    6  A    between atoms: N_15  and  C_14 
REMARK    7  A    between atoms: N_20  and  C_19 
REMARK       I    between atoms: C_22  and  N_20 
ROOT
ATOM      1  C   LIG d   1      -4.631  93.712 117.652  0.00  0.00     0.161 C 
ATOM      2  C   LIG d   1      -5.639  94.690 117.637  0.00  0.00     0.016 C 
ATOM      3  C   LIG d   1      -7.014  94.387 117.509  0.00  0.00     0.038 C 
ATOM      4  C   LIG d   1      -7.489  93.068 117.539  0.00  0.00     0.028 C 
ATOM      5  C   LIG d   1      -6.470  92.046 117.045  0.00  0.00    -0.047 C 
ATOM      6  C   LIG d   1      -5.138  92.262 117.798  0.00  0.00     0.091 C 
ENDROOT
BRANCH   1   7
ATOM      7  O   LIG d   1      -3.673  94.014 118.686  0.00  0.00    -0.368 OA
BRANCH   7   8
ATOM      8  C   LIG d   1      -4.007  93.554 120.019  0.00  0.00     0.119 C 
BRANCH   8   9
ATOM      9  C   LIG d   1      -4.144  94.798 120.918  0.00  0.00     0.028 C 
ATOM     10  C   LIG d   1      -3.342  95.997 120.386  0.00  0.00     0.006 C 
ENDBRANCH   8   9
BRANCH   8  11
ATOM     11  C   LIG d   1      -2.865  92.737 120.629  0.00  0.00     0.028 C 
ATOM     12  C   LIG d   1      -1.619  92.689 119.730  0.00  0.00     0.006 C 
ENDBRANCH   8  11
ENDBRANCH   7   8
ENDBRANCH   1   7
BRANCH   6  13
ATOM     13  N   LIG d   1      -4.061  91.358 117.316  0.00  0.00    -0.311 N 
ATOM     14  C   LIG d   1      -3.734  90.218 117.922  0.00  0.00     0.210 C 
ATOM     15  C   LIG d   1      -2.581  89.447 117.271  0.00  0.00     0.109 C 
ATOM     16  O   LIG d   1      -4.310  89.757 118.919  0.00  0.00    -0.276 OA
ATOM     17  H   LIG d   1      -3.563  91.640 116.494  0.00  0.00     0.149 HD
ENDBRANCH   6  13
BRANCH   5  18
ATOM     18  N   LIG d   1      -7.045  90.704 117.259  0.00  0.00     0.381 N 
ATOM     19  H   LIG d   1      -8.018  90.712 117.028  0.00  0.00    -0.090 HD
ATOM     20  H   LIG d   1      -6.953  90.463 118.231  0.00  0.00    -0.090 HD
ATOM     21  H   LIG d   1      -6.567  90.035 116.697  0.00  0.00    -0.090 HD
ENDBRANCH   5  18
BRANCH   3  22
ATOM     22  C   LIG d   1      -7.927  95.411 117.308  0.00  0.00     0.382 C 
ATOM     23  O   LIG d   1      -7.528  96.597 117.207  0.00  0.00    -0.241 OA
ATOM     24  O   LIG d   1      -9.149  95.170 117.271  0.00  0.00    -0.241 OA
ENDBRANCH   3  22
TORSDOF 7
ENDMDL
MODEL 7
REMARK VINA RESULT:      -4.1      2.374      5.786
REMARK  7 active torsions:
REMARK  status: ('A' for Active; 'I' for Inactive)
REMARK    1  A    between atoms: C_2  and  C_3 
REMARK    2  A    between atoms: C_3  and  O_6 
REMARK    3  A    between atoms: C_3  and  C_4 
REMARK    4  A    between atoms: C_7  and  O_6 
REMARK    5  A    between atoms: C_9  and  C_10 
REMARK    6  A    between atoms: N_15  and  C_14 
REMARK    7  A    between atoms: N_20  and  C_19 
REMARK       I    between atoms: C_22  and  N_20 
ROOT
ATOM      1  C   LIG d   1      -3.852  93.812 117.153  0.00  0.00     0.161 C 
ATOM      2  C   LIG d   1      -2.540  93.433 117.482  0.00  0.00     0.016 C 
ATOM      3  C   LIG d   1      -1.892  93.827 118.675  0.00  0.00     0.038 C 
ATOM      4  C   LIG d   1      -2.570  94.507 119.697  0.00  0.00     0.028 C 
ATOM      5  C   LIG d   1      -3.741  95.346 119.194  0.00  0.00    -0.047 C 
ATOM      6  C   LIG d   1      -4.646  94.462 118.306  0.00  0.00     0.091 C 
ENDROOT
BRANCH   1   7
ATOM      7  O   LIG d   1      -4.571  92.680 116.626  0.00  0.00    -0.368 OA
BRANCH   7   8
ATOM      8  C   LIG d   1      -4.723  91.549 117.519  0.00  0.00     0.119 C 
BRANCH   8   9
ATOM      9  C   LIG d   1      -4.214  90.300 116.775  0.00  0.00     0.028 C 
ATOM     10  C   LIG d   1      -3.097  89.573 117.544  0.00  0.00     0.006 C 
ENDBRANCH   8   9
BRANCH   8  11
ATOM     11  C   LIG d   1      -6.199  91.270 117.818  0.00  0.00     0.028 C 
ATOM     12  C   LIG d   1      -7.143  91.853 116.755  0.00  0.00     0.006 C 
ENDBRANCH   8  11
ENDBRANCH   7   8
ENDBRANCH   1   7
BRANCH   6  13
ATOM     13  N   LIG d   1      -5.770  95.226 117.704  0.00  0.00    -0.311 N 
ATOM     14  C   LIG d   1      -6.989  95.278 118.238  0.00  0.00     0.210 C 
ATOM     15  C   LIG d   1      -8.006  96.107 117.446  0.00  0.00     0.109 C 
ATOM     16  O   LIG d   1      -7.317  94.744 119.308  0.00  0.00    -0.276 OA
ATOM     17  H   LIG d   1      -5.583  95.715 116.851  0.00  0.00     0.149 HD
ENDBRANCH   6  13
BRANCH   5  18
ATOM     18  N   LIG d   1      -4.440  95.888 120.374  0.00  0.00     0.381 N 
ATOM     19  H   LIG d   1      -4.491  95.189 121.089  0.00  0.00    -0.090 HD
ATOM     20  H   LIG d   1      -5.377  96.137 120.110  0.00  0.00    -0.090 HD
ATOM     21  H   LIG d   1      -3.959  96.690 120.717  0.00  0.00    -0.090 HD
ENDBRANCH   5  18
BRANCH   3  22
ATOM     22  C   LIG d   1      -0.538  93.575 118.837  0.00  0.00     0.382 C 
ATOM     23  O   LIG d   1      -0.127  92.392 118.924  0.00  0.00    -0.241 OA
ATOM     24  O   LIG d   1       0.271  94.515 118.942  0.00  0.00    -0.241 OA
ENDBRANCH   3  22
TORSDOF 7
ENDMDL
MODEL 8
REMARK VINA RESULT:      -4.0      3.227      5.668
REMARK  7 active torsions:
REMARK  status: ('A' for Active; 'I' for Inactive)
REMARK    1  A    between atoms: C_2  and  C_3 
REMARK    2  A    between atoms: C_3  and  O_6 
REMARK    3  A    between atoms: C_3  and  C_4 
REMARK    4  A    between atoms: C_7  and  O_6 
REMARK    5  A    between atoms: C_9  and  C_10 
REMARK    6  A    between atoms: N_15  and  C_14 
REMARK    7  A    between atoms: N_20  and  C_19 
REMARK       I    between atoms: C_22  and  N_20 
ROOT
ATOM      1  C   LIG d   1      -2.538  89.966 118.669  0.00  0.00     0.161 C 
ATOM      2  C   LIG d   1      -3.932  89.970 118.499  0.00  0.00     0.016 C 
ATOM      3  C   LIG d   1      -4.637  91.026 117.876  0.00  0.00     0.038 C 
ATOM      4  C   LIG d   1      -3.975  92.087 117.241  0.00  0.00     0.028 C 
ATOM      5  C   LIG d   1      -2.597  92.378 117.827  0.00  0.00    -0.047 C 
ATOM      6  C   LIG d   1      -1.787  91.063 117.884  0.00  0.00     0.091 C 
ENDROOT
BRANCH   1   7
ATOM      7  O   LIG d   1      -2.009  88.666 118.341  0.00  0.00    -0.368 OA
BRANCH   7   8
ATOM      8  C   LIG d   1      -1.339  87.961 119.416  0.00  0.00     0.119 C 
BRANCH   8   9
ATOM      9  C   LIG d   1      -0.136  87.219 118.802  0.00  0.00     0.028 C 
ATOM     10  C   LIG d   1       1.195  87.606 119.470  0.00  0.00     0.006 C 
ENDBRANCH   8   9
BRANCH   8  11
ATOM     11  C   LIG d   1      -2.232  86.867 120.007  0.00  0.00     0.028 C 
ATOM     12  C   LIG d   1      -1.650  85.457 119.819  0.00  0.00     0.006 C 
ENDBRANCH   8  11
ENDBRANCH   7   8
ENDBRANCH   1   7
BRANCH   6  13
ATOM     13  N   LIG d   1      -0.458  91.243 118.522  0.00  0.00    -0.311 N 
ATOM     14  C   LIG d   1       0.689  90.904 117.936  0.00  0.00     0.210 C 
ATOM     15  C   LIG d   1       1.945  91.155 118.777  0.00  0.00     0.109 C 
ATOM     16  O   LIG d   1       0.788  90.448 116.787  0.00  0.00    -0.276 OA
ATOM     17  H   LIG d   1      -0.443  91.635 119.443  0.00  0.00     0.149 HD
ENDBRANCH   6  13
BRANCH   5  18
ATOM     18  N   LIG d   1      -1.964  93.411 116.985  0.00  0.00     0.381 N 
ATOM     19  H   LIG d   1      -1.622  92.997 116.141  0.00  0.00    -0.090 HD
ATOM     20  H   LIG d   1      -1.185  93.803 117.483  0.00  0.00    -0.090 HD
ATOM     21  H   LIG d   1      -2.623  94.126 116.769  0.00  0.00    -0.090 HD
ENDBRANCH   5  18
BRANCH   3  22
ATOM     22  C   LIG d   1      -6.023  91.046 117.919  0.00  0.00     0.382 C 
ATOM     23  O   LIG d   1      -6.614  91.778 118.749  0.00  0.00    -0.241 OA
ATOM     24  O   LIG d   1      -6.689  90.308 117.168  0.00  0.00    -0.241 OA
ENDBRANCH   3  22
TORSDOF 7
ENDMDL
MODEL 9
REMARK VINA RESULT:      -3.7      3.056      6.892
REMARK  7 active torsions:
REMARK  status: ('A' for Active; 'I' for Inactive)
REMARK    1  A    between atoms: C_2  and  C_3 
REMARK    2  A    between atoms: C_3  and  O_6 
REMARK    3  A    between atoms: C_3  and  C_4 
REMARK    4  A    between atoms: C_7  and  O_6 
REMARK    5  A    between atoms: C_9  and  C_10 
REMARK    6  A    between atoms: N_15  and  C_14 
REMARK    7  A    between atoms: N_20  and  C_19 
REMARK       I    between atoms: C_22  and  N_20 
ROOT
ATOM      1  C   LIG d   1      -1.792  92.680 118.154  0.00  0.00     0.161 C 
ATOM      2  C   LIG d   1      -0.506  92.116 118.192  0.00  0.00     0.016 C 
ATOM      3  C   LIG d   1       0.638  92.817 118.640  0.00  0.00     0.038 C 
ATOM      4  C   LIG d   1       0.546  94.088 119.225  0.00  0.00     0.028 C 
ATOM      5  C   LIG d   1      -0.657  94.892 118.744  0.00  0.00    -0.047 C 
ATOM      6  C   LIG d   1      -1.930  94.028 118.893  0.00  0.00     0.091 C 
ENDROOT
BRANCH   1   7
ATOM      7  O   LIG d   1      -2.756  91.733 118.656  0.00  0.00    -0.368 OA
BRANCH   7   8
ATOM      8  C   LIG d   1      -3.783  91.314 117.725  0.00  0.00     0.119 C 
BRANCH   8   9
ATOM      9  C   LIG d   1      -5.100  91.187 118.514  0.00  0.00     0.028 C 
ATOM     10  C   LIG d   1      -6.327  91.071 117.594  0.00  0.00     0.006 C 
ENDBRANCH   8   9
BRANCH   8  11
ATOM     11  C   LIG d   1      -3.502  89.911 117.178  0.00  0.00     0.028 C 
ATOM     12  C   LIG d   1      -2.781  89.010 118.193  0.00  0.00     0.006 C 
ENDBRANCH   8  11
ENDBRANCH   7   8
ENDBRANCH   1   7
BRANCH   6  13
ATOM     13  N   LIG d   1      -3.142  94.707 118.367  0.00  0.00    -0.311 N 
ATOM     14  C   LIG d   1      -4.277  94.819 119.054  0.00  0.00     0.210 C 
ATOM     15  C   LIG d   1      -5.411  95.539 118.318  0.00  0.00     0.109 C 
ATOM     16  O   LIG d   1      -4.443  94.417 120.216  0.00  0.00    -0.276 OA
ATOM     17  H   LIG d   1      -3.085  95.090 117.443  0.00  0.00     0.149 HD
ENDBRANCH   6  13
BRANCH   5  18
ATOM     18  N   LIG d   1      -0.707  96.136 119.534  0.00  0.00     0.381 N 
ATOM     19  H   LIG d   1      -1.296  96.804 119.078  0.00  0.00    -0.090 HD
ATOM     20  H   LIG d   1       0.219  96.521 119.594  0.00  0.00    -0.090 HD
ATOM     21  H   LIG d   1      -1.055  95.946 120.448  0.00  0.00    -0.090 HD
ENDBRANCH   5  18
BRANCH   3  22
ATOM     22  C   LIG d   1       1.896  92.261 118.466  0.00  0.00     0.382 C 
ATOM     23  O   LIG d   1       2.140  91.567 117.449  0.00  0.00    -0.241 OA
ATOM     24  O   LIG d   1       2.777  92.407 119.335  0.00  0.00    -0.241 OA
ENDBRANCH   3  22
TORSDOF 7
ENDMDL
