MODEL 1
REMARK VINA RESULT:      -5.1      0.000      0.000
REMARK  7 active torsions:
REMARK  status: ('A' for Active; 'I' for Inactive)
REMARK    1  A    between atoms: C_2  and  C_3 
REMARK    2  A    between atoms: C_3  and  O_6 
REMARK    3  A    between atoms: C_3  and  C_4 
REMARK    4  A    between atoms: C_7  and  O_6 
REMARK    5  A    between atoms: C_9  and  C_10 
REMARK    6  A    between atoms: N_15  and  C_14 
REMARK    7  A    between atoms: N_20  and  C_19 
REMARK       I    between atoms: C_22  and  N_20 
ROOT
ATOM      1  C   LIG d   1      -2.293  89.864 117.828  0.00  0.00     0.161 C 
ATOM      2  C   LIG d   1      -3.590  89.624 117.345  0.00  0.00     0.016 C 
ATOM      3  C   LIG d   1      -4.528  90.652 117.090  0.00  0.00     0.038 C 
ATOM      4  C   LIG d   1      -4.178  92.008 117.158  0.00  0.00     0.028 C 
ATOM      5  C   LIG d   1      -3.034  92.291 118.126  0.00  0.00    -0.047 C 
ATOM      6  C   LIG d   1      -1.856  91.344 117.802  0.00  0.00     0.091 C 
ENDROOT
BRANCH   1   7
ATOM      7  O   LIG d   1      -1.346  89.050 117.109  0.00  0.00    -0.368 OA
BRANCH   7   8
ATOM      8  C   LIG d   1      -1.359  87.634 117.417  0.00  0.00     0.119 C 
BRANCH   8   9
ATOM      9  C   LIG d   1      -0.907  87.475 118.882  0.00  0.00     0.028 C 
ATOM     10  C   LIG d   1      -1.989  86.830 119.764  0.00  0.00     0.006 C 
ENDBRANCH   8   9
BRANCH   8  11
ATOM     11  C   LIG d   1      -0.321  86.873 116.587  0.00  0.00     0.028 C 
ATOM     12  C   LIG d   1       0.812  86.286 117.444  0.00  0.00     0.006 C 
ENDBRANCH   8  11
ENDBRANCH   7   8
ENDBRANCH   1   7
BRANCH   6  13
ATOM     13  N   LIG d   1      -0.727  91.497 118.756  0.00  0.00    -0.311 N 
ATOM     14  C   LIG d   1       0.350  92.240 118.505  0.00  0.00     0.210 C 
ATOM     15  C   LIG d   1       1.405  92.244 119.615  0.00  0.00     0.109 C 
ATOM     16  O   LIG d   1       0.516  92.921 117.482  0.00  0.00    -0.276 OA
ATOM     17  H   LIG d   1      -0.793  91.003 119.624  0.00  0.00     0.149 HD
ENDBRANCH   6  13
BRANCH   5  18
ATOM     18  N   LIG d   1      -2.681  93.718 117.994  0.00  0.00     0.381 N 
ATOM     19  H   LIG d   1      -1.750  93.805 117.638  0.00  0.00    -0.090 HD
ATOM     20  H   LIG d   1      -2.713  94.145 118.903  0.00  0.00    -0.090 HD
ATOM     21  H   LIG d   1      -3.323  94.173 117.383  0.00  0.00    -0.090 HD
ENDBRANCH   5  18
BRANCH   3  22
ATOM     22  C   LIG d   1      -5.844  90.325 116.801  0.00  0.00     0.382 C 
ATOM     23  O   LIG d   1      -6.182  89.121 116.698  0.00  0.00    -0.241 OA
ATOM     24  O   LIG d   1      -6.687  91.219 116.599  0.00  0.00    -0.241 OA
ENDBRANCH   3  22
TORSDOF 7
ENDMDL
MODEL 2
REMARK VINA RESULT:      -4.6      3.043      4.541
REMARK  7 active torsions:
REMARK  status: ('A' for Active; 'I' for Inactive)
REMARK    1  A    between atoms: C_2  and  C_3 
REMARK    2  A    between atoms: C_3  and  O_6 
REMARK    3  A    between atoms: C_3  and  C_4 
REMARK    4  A    between atoms: C_7  and  O_6 
REMARK    5  A    between atoms: C_9  and  C_10 
REMARK    6  A    between atoms: N_15  and  C_14 
REMARK    7  A    between atoms: N_20  and  C_19 
REMARK       I    between atoms: C_22  and  N_20 
ROOT
ATOM      1  C   LIG d   1      -5.260  91.969 119.582  0.00  0.00     0.161 C 
ATOM      2  C   LIG d   1      -6.597  92.365 119.755  0.00  0.00     0.016 C 
ATOM      3  C   LIG d   1      -7.008  93.718 119.793  0.00  0.00     0.038 C 
ATOM      4  C   LIG d   1      -6.126  94.770 119.506  0.00  0.00     0.028 C 
ATOM      5  C   LIG d   1      -4.671  94.443 119.825  0.00  0.00    -0.047 C 
ATOM      6  C   LIG d   1      -4.300  93.099 119.157  0.00  0.00     0.091 C 
ENDROOT
BRANCH   1   7
ATOM      7  O   LIG d   1      -5.193  90.875 118.645  0.00  0.00    -0.368 OA
BRANCH   7   8
ATOM      8  C   LIG d   1      -4.875  91.227 117.276  0.00  0.00     0.119 C 
BRANCH   8   9
ATOM      9  C   LIG d   1      -6.140  90.983 116.430  0.00  0.00     0.028 C 
ATOM     10  C   LIG d   1      -6.707  89.566 116.619  0.00  0.00     0.006 C 
ENDBRANCH   8   9
BRANCH   8  11
ATOM     11  C   LIG d   1      -3.810  90.294 116.693  0.00  0.00     0.028 C 
ATOM     12  C   LIG d   1      -3.139  89.416 117.761  0.00  0.00     0.006 C 
ENDBRANCH   8  11
ENDBRANCH   7   8
ENDBRANCH   1   7
BRANCH   6  13
ATOM     13  N   LIG d   1      -2.918  92.664 119.488  0.00  0.00    -0.311 N 
ATOM     14  C   LIG d   1      -1.875  92.862 118.684  0.00  0.00     0.210 C 
ATOM     15  C   LIG d   1      -0.542  92.317 119.208  0.00  0.00     0.109 C 
ATOM     16  O   LIG d   1      -1.920  93.467 117.602  0.00  0.00    -0.276 OA
ATOM     17  H   LIG d   1      -2.785  92.193 120.361  0.00  0.00     0.149 HD
ENDBRANCH   6  13
BRANCH   5  18
ATOM     18  N   LIG d   1      -3.847  95.571 119.351  0.00  0.00     0.381 N 
ATOM     19  H   LIG d   1      -4.429  96.255 118.911  0.00  0.00    -0.090 HD
ATOM     20  H   LIG d   1      -3.191  95.231 118.670  0.00  0.00    -0.090 HD
ATOM     21  H   LIG d   1      -3.359  95.982 120.116  0.00  0.00    -0.090 HD
ENDBRANCH   5  18
BRANCH   3  22
ATOM     22  C   LIG d   1      -8.309  94.030 120.159  0.00  0.00     0.382 C 
ATOM     23  O   LIG d   1      -9.255  93.284 119.810  0.00  0.00    -0.241 OA
ATOM     24  O   LIG d   1      -8.552  95.072 120.796  0.00  0.00    -0.241 OA
ENDBRANCH   3  22
TORSDOF 7
ENDMDL
MODEL 3
REMARK VINA RESULT:      -4.6      2.755      4.364
REMARK  7 active torsions:
REMARK  status: ('A' for Active; 'I' for Inactive)
REMARK    1  A    between atoms: C_2  and  C_3 
REMARK    2  A    between atoms: C_3  and  O_6 
REMARK    3  A    between atoms: C_3  and  C_4 
REMARK    4  A    between atoms: C_7  and  O_6 
REMARK    5  A    between atoms: C_9  and  C_10 
REMARK    6  A    between atoms: N_15  and  C_14 
REMARK    7  A    between atoms: N_20  and  C_19 
REMARK       I    between atoms: C_22  and  N_20 
ROOT
ATOM      1  C   LIG d   1      -3.879  91.931 119.197  0.00  0.00     0.161 C 
ATOM      2  C   LIG d   1      -4.313  90.925 118.317  0.00  0.00     0.016 C 
ATOM      3  C   LIG d   1      -5.415  91.077 117.445  0.00  0.00     0.038 C 
ATOM      4  C   LIG d   1      -6.070  92.307 117.285  0.00  0.00     0.028 C 
ATOM      5  C   LIG d   1      -5.989  93.202 118.517  0.00  0.00    -0.047 C 
ATOM      6  C   LIG d   1      -4.511  93.317 118.957  0.00  0.00     0.091 C 
ENDROOT
BRANCH   1   7
ATOM      7  O   LIG d   1      -2.441  92.023 119.163  0.00  0.00    -0.368 OA
BRANCH   7   8
ATOM      8  C   LIG d   1      -1.835  92.051 117.847  0.00  0.00     0.119 C 
BRANCH   8   9
ATOM      9  C   LIG d   1      -0.593  91.140 117.890  0.00  0.00     0.028 C 
ATOM     10  C   LIG d   1      -0.849  89.767 117.245  0.00  0.00     0.006 C 
ENDBRANCH   8   9
BRANCH   8  11
ATOM     11  C   LIG d   1      -1.303  93.446 117.508  0.00  0.00     0.028 C 
ATOM     12  C   LIG d   1      -0.750  94.188 118.735  0.00  0.00     0.006 C 
ENDBRANCH   8  11
ENDBRANCH   7   8
ENDBRANCH   1   7
BRANCH   6  13
ATOM     13  N   LIG d   1      -4.352  94.107 120.206  0.00  0.00    -0.311 N 
ATOM     14  C   LIG d   1      -4.230  95.433 120.224  0.00  0.00     0.210 C 
ATOM     15  C   LIG d   1      -4.056  96.048 121.616  0.00  0.00     0.109 C 
ATOM     16  O   LIG d   1      -4.281  96.162 119.222  0.00  0.00    -0.276 OA
ATOM     17  H   LIG d   1      -4.332  93.598 121.068  0.00  0.00     0.149 HD
ENDBRANCH   6  13
BRANCH   5  18
ATOM     18  N   LIG d   1      -6.591  94.501 118.165  0.00  0.00     0.381 N 
ATOM     19  H   LIG d   1      -7.189  94.393 117.370  0.00  0.00    -0.090 HD
ATOM     20  H   LIG d   1      -5.857  95.144 117.922  0.00  0.00    -0.090 HD
ATOM     21  H   LIG d   1      -7.111  94.857 118.936  0.00  0.00    -0.090 HD
ENDBRANCH   5  18
BRANCH   3  22
ATOM     22  C   LIG d   1      -5.898  89.978 116.751  0.00  0.00     0.382 C 
ATOM     23  O   LIG d   1      -7.120  89.897 116.478  0.00  0.00    -0.241 OA
ATOM     24  O   LIG d   1      -5.135  89.047 116.432  0.00  0.00    -0.241 OA
ENDBRANCH   3  22
TORSDOF 7
ENDMDL
MODEL 4
REMARK VINA RESULT:      -4.5      3.394      4.939
REMARK  7 active torsions:
REMARK  status: ('A' for Active; 'I' for Inactive)
REMARK    1  A    between atoms: C_2  and  C_3 
REMARK    2  A    between atoms: C_3  and  O_6 
REMARK    3  A    between atoms: C_3  and  C_4 
REMARK    4  A    between atoms: C_7  and  O_6 
REMARK    5  A    between atoms: C_9  and  C_10 
REMARK    6  A    between atoms: N_15  and  C_14 
REMARK    7  A    between atoms: N_20  and  C_19 
REMARK       I    between atoms: C_22  and  N_20 
ROOT
ATOM      1  C   LIG d   1      -5.583  92.774 119.029  0.00  0.00     0.161 C 
ATOM      2  C   LIG d   1      -6.039  91.577 118.454  0.00  0.00     0.016 C 
ATOM      3  C   LIG d   1      -5.247  90.770 117.605  0.00  0.00     0.038 C 
ATOM      4  C   LIG d   1      -3.885  91.030 117.394  0.00  0.00     0.028 C 
ATOM      5  C   LIG d   1      -3.519  92.503 117.548  0.00  0.00    -0.047 C 
ATOM      6  C   LIG d   1      -4.065  93.017 118.900  0.00  0.00     0.091 C 
ENDROOT
BRANCH   1   7
ATOM      7  O   LIG d   1      -5.985  92.836 120.412  0.00  0.00    -0.368 OA
BRANCH   7   8
ATOM      8  C   LIG d   1      -6.155  91.563 121.084  0.00  0.00     0.119 C 
BRANCH   8   9
ATOM      9  C   LIG d   1      -7.437  91.655 121.932  0.00  0.00     0.028 C 
ATOM     10  C   LIG d   1      -7.436  90.663 123.108  0.00  0.00     0.006 C 
ENDBRANCH   8   9
BRANCH   8  11
ATOM     11  C   LIG d   1      -5.024  91.305 122.084  0.00  0.00     0.028 C 
ATOM     12  C   LIG d   1      -3.803  90.628 121.442  0.00  0.00     0.006 C 
ENDBRANCH   8  11
ENDBRANCH   7   8
ENDBRANCH   1   7
BRANCH   6  13
ATOM     13  N   LIG d   1      -3.824  94.470 119.093  0.00  0.00    -0.311 N 
ATOM     14  C   LIG d   1      -2.758  94.959 119.725  0.00  0.00     0.210 C 
ATOM     15  C   LIG d   1      -2.713  96.487 119.831  0.00  0.00     0.109 C 
ATOM     16  O   LIG d   1      -1.829  94.274 120.179  0.00  0.00    -0.276 OA
ATOM     17  H   LIG d   1      -4.512  95.099 118.728  0.00  0.00     0.149 HD
ENDBRANCH   6  13
BRANCH   5  18
ATOM     18  N   LIG d   1      -2.052  92.611 117.439  0.00  0.00     0.381 N 
ATOM     19  H   LIG d   1      -1.661  91.714 117.230  0.00  0.00    -0.090 HD
ATOM     20  H   LIG d   1      -1.682  92.919 118.321  0.00  0.00    -0.090 HD
ATOM     21  H   LIG d   1      -1.810  93.262 116.724  0.00  0.00    -0.090 HD
ENDBRANCH   5  18
BRANCH   3  22
ATOM     22  C   LIG d   1      -5.828  89.710 116.925  0.00  0.00     0.382 C 
ATOM     23  O   LIG d   1      -5.106  88.812 116.430  0.00  0.00    -0.241 OA
ATOM     24  O   LIG d   1      -7.062  89.665 116.762  0.00  0.00    -0.241 OA
ENDBRANCH   3  22
TORSDOF 7
ENDMDL
MODEL 5
REMARK VINA RESULT:      -4.5      2.692      5.815
REMARK  7 active torsions:
REMARK  status: ('A' for Active; 'I' for Inactive)
REMARK    1  A    between atoms: C_2  and  C_3 
REMARK    2  A    between atoms: C_3  and  O_6 
REMARK    3  A    between atoms: C_3  and  C_4 
REMARK    4  A    between atoms: C_7  and  O_6 
REMARK    5  A    between atoms: C_9  and  C_10 
REMARK    6  A    between atoms: N_15  and  C_14 
REMARK    7  A    between atoms: N_20  and  C_19 
REMARK       I    between atoms: C_22  and  N_20 
ROOT
ATOM      1  C   LIG d   1      -3.300  92.092 118.930  0.00  0.00     0.161 C 
ATOM      2  C   LIG d   1      -2.420  91.120 118.426  0.00  0.00     0.016 C 
ATOM      3  C   LIG d   1      -2.852  89.937 117.783  0.00  0.00     0.038 C 
ATOM      4  C   LIG d   1      -4.200  89.717 117.463  0.00  0.00     0.028 C 
ATOM      5  C   LIG d   1      -5.169  90.432 118.398  0.00  0.00    -0.047 C 
ATOM      6  C   LIG d   1      -4.770  91.923 118.491  0.00  0.00     0.091 C 
ENDROOT
BRANCH   1   7
ATOM      7  O   LIG d   1      -2.823  93.408 118.586  0.00  0.00    -0.368 OA
BRANCH   7   8
ATOM      8  C   LIG d   1      -1.385  93.563 118.505  0.00  0.00     0.119 C 
BRANCH   8   9
ATOM      9  C   LIG d   1      -0.891  94.027 119.889  0.00  0.00     0.028 C 
ATOM     10  C   LIG d   1       0.497  93.462 120.235  0.00  0.00     0.006 C 
ENDBRANCH   8   9
BRANCH   8  11
ATOM     11  C   LIG d   1      -1.000  94.688 117.539  0.00  0.00     0.028 C 
ATOM     12  C   LIG d   1      -1.392  96.080 118.059  0.00  0.00     0.006 C 
ENDBRANCH   8  11
ENDBRANCH   7   8
ENDBRANCH   1   7
BRANCH   6  13
ATOM     13  N   LIG d   1      -5.616  92.678 119.452  0.00  0.00    -0.311 N 
ATOM     14  C   LIG d   1      -6.701  93.362 119.093  0.00  0.00     0.210 C 
ATOM     15  C   LIG d   1      -7.417  94.085 120.237  0.00  0.00     0.109 C 
ATOM     16  O   LIG d   1      -7.157  93.412 117.940  0.00  0.00    -0.276 OA
ATOM     17  H   LIG d   1      -5.337  92.665 120.413  0.00  0.00     0.149 HD
ENDBRANCH   6  13
BRANCH   5  18
ATOM     18  N   LIG d   1      -6.531  90.230 117.868  0.00  0.00     0.381 N 
ATOM     19  H   LIG d   1      -6.666  90.798 117.056  0.00  0.00    -0.090 HD
ATOM     20  H   LIG d   1      -7.197  90.515 118.565  0.00  0.00    -0.090 HD
ATOM     21  H   LIG d   1      -6.669  89.271 117.639  0.00  0.00    -0.090 HD
ENDBRANCH   5  18
BRANCH   3  22
ATOM     22  C   LIG d   1      -1.934  88.940 117.489  0.00  0.00     0.382 C 
ATOM     23  O   LIG d   1      -2.240  87.736 117.662  0.00  0.00    -0.241 OA
ATOM     24  O   LIG d   1      -0.789  89.232 117.095  0.00  0.00    -0.241 OA
ENDBRANCH   3  22
TORSDOF 7
ENDMDL
MODEL 6
REMARK VINA RESULT:      -4.4      3.404      6.358
REMARK  7 active torsions:
REMARK  status: ('A' for Active; 'I' for Inactive)
REMARK    1  A    between atoms: C_2  and  C_3 
REMARK    2  A    between atoms: C_3  and  O_6 
REMARK    3  A    between atoms: C_3  and  C_4 
REMARK    4  A    between atoms: C_7  and  O_6 
REMARK    5  A    between atoms: C_9  and  C_10 
REMARK    6  A    between atoms: N_15  and  C_14 
REMARK    7  A    between atoms: N_20  and  C_19 
REMARK       I    between atoms: C_22  and  N_20 
ROOT
ATOM      1  C   LIG d   1      -3.964  92.813 119.768  0.00  0.00     0.161 C 
ATOM      2  C   LIG d   1      -3.259  91.783 119.123  0.00  0.00     0.016 C 
ATOM      3  C   LIG d   1      -3.661  91.218 117.890  0.00  0.00     0.038 C 
ATOM      4  C   LIG d   1      -4.719  91.752 117.140  0.00  0.00     0.028 C 
ATOM      5  C   LIG d   1      -5.766  92.463 117.991  0.00  0.00    -0.047 C 
ATOM      6  C   LIG d   1      -5.058  93.483 118.911  0.00  0.00     0.091 C 
ENDROOT
BRANCH   1   7
ATOM      7  O   LIG d   1      -3.040  93.801 120.264  0.00  0.00    -0.368 OA
BRANCH   7   8
ATOM      8  C   LIG d   1      -2.665  94.847 119.334  0.00  0.00     0.119 C 
BRANCH   8   9
ATOM      9  C   LIG d   1      -1.179  94.641 118.981  0.00  0.00     0.028 C 
ATOM     10  C   LIG d   1      -0.970  94.311 117.493  0.00  0.00     0.006 C 
ENDBRANCH   8   9
BRANCH   8  11
ATOM     11  C   LIG d   1      -2.738  96.229 119.990  0.00  0.00     0.028 C 
ATOM     12  C   LIG d   1      -3.413  97.279 119.094  0.00  0.00     0.006 C 
ENDBRANCH   8  11
ENDBRANCH   7   8
ENDBRANCH   1   7
BRANCH   6  13
ATOM     13  N   LIG d   1      -6.001  94.163 119.837  0.00  0.00    -0.311 N 
ATOM     14  C   LIG d   1      -6.625  95.302 119.542  0.00  0.00     0.210 C 
ATOM     15  C   LIG d   1      -7.539  95.843 120.645  0.00  0.00     0.109 C 
ATOM     16  O   LIG d   1      -6.533  95.899 118.459  0.00  0.00    -0.276 OA
ATOM     17  H   LIG d   1      -6.159  93.730 120.726  0.00  0.00     0.149 HD
ENDBRANCH   6  13
BRANCH   5  18
ATOM     18  N   LIG d   1      -6.737  93.089 117.073  0.00  0.00     0.381 N 
ATOM     19  H   LIG d   1      -7.645  92.698 117.223  0.00  0.00    -0.090 HD
ATOM     20  H   LIG d   1      -6.461  92.893 116.126  0.00  0.00    -0.090 HD
ATOM     21  H   LIG d   1      -6.762  94.073 117.222  0.00  0.00    -0.090 HD
ENDBRANCH   5  18
BRANCH   3  22
ATOM     22  C   LIG d   1      -3.025  90.081 117.416  0.00  0.00     0.382 C 
ATOM     23  O   LIG d   1      -3.663  89.006 117.305  0.00  0.00    -0.241 OA
ATOM     24  O   LIG d   1      -1.811  90.105 117.139  0.00  0.00    -0.241 OA
ENDBRANCH   3  22
TORSDOF 7
ENDMDL
MODEL 7
REMARK VINA RESULT:      -4.4      2.417      4.989
REMARK  7 active torsions:
REMARK  status: ('A' for Active; 'I' for Inactive)
REMARK    1  A    between atoms: C_2  and  C_3 
REMARK    2  A    between atoms: C_3  and  O_6 
REMARK    3  A    between atoms: C_3  and  C_4 
REMARK    4  A    between atoms: C_7  and  O_6 
REMARK    5  A    between atoms: C_9  and  C_10 
REMARK    6  A    between atoms: N_15  and  C_14 
REMARK    7  A    between atoms: N_20  and  C_19 
REMARK       I    between atoms: C_22  and  N_20 
ROOT
ATOM      1  C   LIG d   1      -3.358  92.219 118.342  0.00  0.00     0.161 C 
ATOM      2  C   LIG d   1      -4.643  91.797 117.962  0.00  0.00     0.016 C 
ATOM      3  C   LIG d   1      -4.910  90.532 117.390  0.00  0.00     0.038 C 
ATOM      4  C   LIG d   1      -3.925  89.537 117.299  0.00  0.00     0.028 C 
ATOM      5  C   LIG d   1      -2.508  90.095 117.204  0.00  0.00    -0.047 C 
ATOM      6  C   LIG d   1      -2.289  91.106 118.353  0.00  0.00     0.091 C 
ENDROOT
BRANCH   1   7
ATOM      7  O   LIG d   1      -3.417  92.868 119.628  0.00  0.00    -0.368 OA
BRANCH   7   8
ATOM      8  C   LIG d   1      -3.432  94.317 119.609  0.00  0.00     0.119 C 
BRANCH   8   9
ATOM      9  C   LIG d   1      -2.099  94.801 120.213  0.00  0.00     0.028 C 
ATOM     10  C   LIG d   1      -1.157  95.397 119.153  0.00  0.00     0.006 C 
ENDBRANCH   8   9
BRANCH   8  11
ATOM     11  C   LIG d   1      -4.520  94.875 120.531  0.00  0.00     0.028 C 
ATOM     12  C   LIG d   1      -5.904  94.915 119.863  0.00  0.00     0.006 C 
ENDBRANCH   8  11
ENDBRANCH   7   8
ENDBRANCH   1   7
BRANCH   6  13
ATOM     13  N   LIG d   1      -0.957  91.761 118.285  0.00  0.00    -0.311 N 
ATOM     14  C   LIG d   1      -0.047  91.674 119.253  0.00  0.00     0.210 C 
ATOM     15  C   LIG d   1       1.253  92.441 118.990  0.00  0.00     0.109 C 
ATOM     16  O   LIG d   1      -0.180  91.007 120.290  0.00  0.00    -0.276 OA
ATOM     17  H   LIG d   1      -0.754  92.297 117.464  0.00  0.00     0.149 HD
ENDBRANCH   6  13
BRANCH   5  18
ATOM     18  N   LIG d   1      -1.576  88.953 117.254  0.00  0.00     0.381 N 
ATOM     19  H   LIG d   1      -1.886  88.235 116.630  0.00  0.00    -0.090 HD
ATOM     20  H   LIG d   1      -1.569  88.578 118.186  0.00  0.00    -0.090 HD
ATOM     21  H   LIG d   1      -0.659  89.249 117.001  0.00  0.00    -0.090 HD
ENDBRANCH   5  18
BRANCH   3  22
ATOM     22  C   LIG d   1      -6.165  90.266 116.866  0.00  0.00     0.382 C 
ATOM     23  O   LIG d   1      -6.573  89.082 116.786  0.00  0.00    -0.241 OA
ATOM     24  O   LIG d   1      -6.877  91.191 116.431  0.00  0.00    -0.241 OA
ENDBRANCH   3  22
TORSDOF 7
ENDMDL
MODEL 8
REMARK VINA RESULT:      -4.4      2.387      5.081
REMARK  7 active torsions:
REMARK  status: ('A' for Active; 'I' for Inactive)
REMARK    1  A    between atoms: C_2  and  C_3 
REMARK    2  A    between atoms: C_3  and  O_6 
REMARK    3  A    between atoms: C_3  and  C_4 
REMARK    4  A    between atoms: C_7  and  O_6 
REMARK    5  A    between atoms: C_9  and  C_10 
REMARK    6  A    between atoms: N_15  and  C_14 
REMARK    7  A    between atoms: N_20  and  C_19 
REMARK       I    between atoms: C_22  and  N_20 
ROOT
ATOM      1  C   LIG d   1      -3.009  92.006 117.791  0.00  0.00     0.161 C 
ATOM      2  C   LIG d   1      -2.918  90.611 117.657  0.00  0.00     0.016 C 
ATOM      3  C   LIG d   1      -1.695  89.903 117.696  0.00  0.00     0.038 C 
ATOM      4  C   LIG d   1      -0.485  90.532 118.026  0.00  0.00     0.028 C 
ATOM      5  C   LIG d   1      -0.456  92.015 117.671  0.00  0.00    -0.047 C 
ATOM      6  C   LIG d   1      -1.711  92.696 118.262  0.00  0.00     0.091 C 
ENDROOT
BRANCH   1   7
ATOM      7  O   LIG d   1      -4.102  92.343 118.668  0.00  0.00    -0.368 OA
BRANCH   7   8
ATOM      8  C   LIG d   1      -5.415  91.892 118.252  0.00  0.00     0.119 C 
BRANCH   8   9
ATOM      9  C   LIG d   1      -6.252  93.143 117.926  0.00  0.00     0.028 C 
ATOM     10  C   LIG d   1      -6.100  94.244 118.989  0.00  0.00     0.006 C 
ENDBRANCH   8   9
BRANCH   8  11
ATOM     11  C   LIG d   1      -6.154  91.196 119.399  0.00  0.00     0.028 C 
ATOM     12  C   LIG d   1      -5.272  90.997 120.642  0.00  0.00     0.006 C 
ENDBRANCH   8  11
ENDBRANCH   7   8
ENDBRANCH   1   7
BRANCH   6  13
ATOM     13  N   LIG d   1      -1.805  94.132 117.890  0.00  0.00    -0.311 N 
ATOM     14  C   LIG d   1      -1.335  95.119 118.650  0.00  0.00     0.210 C 
ATOM     15  C   LIG d   1      -1.553  96.528 118.090  0.00  0.00     0.109 C 
ATOM     16  O   LIG d   1      -0.729  94.959 119.721  0.00  0.00    -0.276 OA
ATOM     17  H   LIG d   1      -2.254  94.350 117.022  0.00  0.00     0.149 HD
ENDBRANCH   6  13
BRANCH   5  18
ATOM     18  N   LIG d   1       0.805  92.574 118.192  0.00  0.00     0.381 N 
ATOM     19  H   LIG d   1       1.089  92.067 119.007  0.00  0.00    -0.090 HD
ATOM     20  H   LIG d   1       0.652  93.532 118.454  0.00  0.00    -0.090 HD
ATOM     21  H   LIG d   1       1.515  92.521 117.495  0.00  0.00    -0.090 HD
ENDBRANCH   5  18
BRANCH   3  22
ATOM     22  C   LIG d   1      -1.668  88.557 117.365  0.00  0.00     0.382 C 
ATOM     23  O   LIG d   1      -0.720  88.097 116.684  0.00  0.00    -0.241 OA
ATOM     24  O   LIG d   1      -2.603  87.805 117.700  0.00  0.00    -0.241 OA
ENDBRANCH   3  22
TORSDOF 7
ENDMDL
MODEL 9
REMARK VINA RESULT:      -4.3      3.558      6.082
REMARK  7 active torsions:
REMARK  status: ('A' for Active; 'I' for Inactive)
REMARK    1  A    between atoms: C_2  and  C_3 
REMARK    2  A    between atoms: C_3  and  O_6 
REMARK    3  A    between atoms: C_3  and  C_4 
REMARK    4  A    between atoms: C_7  and  O_6 
REMARK    5  A    between atoms: C_9  and  C_10 
REMARK    6  A    between atoms: N_15  and  C_14 
REMARK    7  A    between atoms: N_20  and  C_19 
REMARK       I    between atoms: C_22  and  N_20 
ROOT
ATOM      1  C   LIG d   1      -5.744  92.876 118.976  0.00  0.00     0.161 C 
ATOM      2  C   LIG d   1      -6.198  91.681 118.394  0.00  0.00     0.016 C 
ATOM      3  C   LIG d   1      -5.392  90.859 117.574  0.00  0.00     0.038 C 
ATOM      4  C   LIG d   1      -4.020  91.100 117.403  0.00  0.00     0.028 C 
ATOM      5  C   LIG d   1      -3.639  92.568 117.559  0.00  0.00    -0.047 C 
ATOM      6  C   LIG d   1      -4.219  93.097 118.891  0.00  0.00     0.091 C 
ENDROOT
BRANCH   1   7
ATOM      7  O   LIG d   1      -6.185  92.951 120.346  0.00  0.00    -0.368 OA
BRANCH   7   8
ATOM      8  C   LIG d   1      -7.317  93.819 120.604  0.00  0.00     0.119 C 
BRANCH   8   9
ATOM      9  C   LIG d   1      -7.124  94.426 122.007  0.00  0.00     0.028 C 
ATOM     10  C   LIG d   1      -5.692  94.939 122.232  0.00  0.00     0.006 C 
ENDBRANCH   8   9
BRANCH   8  11
ATOM     11  C   LIG d   1      -8.623  93.022 120.683  0.00  0.00     0.028 C 
ATOM     12  C   LIG d   1      -8.967  92.583 122.115  0.00  0.00     0.006 C 
ENDBRANCH   8  11
ENDBRANCH   7   8
ENDBRANCH   1   7
BRANCH   6  13
ATOM     13  N   LIG d   1      -3.964  94.549 119.083  0.00  0.00    -0.311 N 
ATOM     14  C   LIG d   1      -2.892  95.028 119.713  0.00  0.00     0.210 C 
ATOM     15  C   LIG d   1      -2.833  96.555 119.818  0.00  0.00     0.109 C 
ATOM     16  O   LIG d   1      -1.969  94.334 120.166  0.00  0.00    -0.276 OA
ATOM     17  H   LIG d   1      -4.647  95.184 118.719  0.00  0.00     0.149 HD
ENDBRANCH   6  13
BRANCH   5  18
ATOM     18  N   LIG d   1      -2.168  92.656 117.493  0.00  0.00     0.381 N 
ATOM     19  H   LIG d   1      -1.792  92.741 118.417  0.00  0.00    -0.090 HD
ATOM     20  H   LIG d   1      -1.915  93.477 116.973  0.00  0.00    -0.090 HD
ATOM     21  H   LIG d   1      -1.798  91.844 117.050  0.00  0.00    -0.090 HD
ENDBRANCH   5  18
BRANCH   3  22
ATOM     22  C   LIG d   1      -5.966  89.803 116.882  0.00  0.00     0.382 C 
ATOM     23  O   LIG d   1      -5.244  88.883 116.430  0.00  0.00    -0.241 OA
ATOM     24  O   LIG d   1      -7.193  89.782 116.667  0.00  0.00    -0.241 OA
ENDBRANCH   3  22
TORSDOF 7
ENDMDL
