MODEL 1
REMARK VINA RESULT:      -4.5      0.000      0.000
REMARK  7 active torsions:
REMARK  status: ('A' for Active; 'I' for Inactive)
REMARK    1  A    between atoms: C_2  and  C_3 
REMARK    2  A    between atoms: C_3  and  O_6 
REMARK    3  A    between atoms: C_3  and  C_4 
REMARK    4  A    between atoms: C_7  and  O_6 
REMARK    5  A    between atoms: C_9  and  C_10 
REMARK    6  A    between atoms: N_15  and  C_14 
REMARK    7  A    between atoms: N_20  and  C_19 
REMARK       I    between atoms: C_22  and  N_20 
ROOT
ATOM      1  C   LIG d   1      -2.972  92.431 117.951  0.00  0.00     0.161 C 
ATOM      2  C   LIG d   1      -4.365  92.394 118.127  0.00  0.00     0.016 C 
ATOM      3  C   LIG d   1      -5.123  91.202 118.086  0.00  0.00     0.038 C 
ATOM      4  C   LIG d   1      -4.516  89.939 118.016  0.00  0.00     0.028 C 
ATOM      5  C   LIG d   1      -3.154  89.959 117.330  0.00  0.00    -0.047 C 
ATOM      6  C   LIG d   1      -2.279  91.053 117.984  0.00  0.00     0.091 C 
ENDROOT
BRANCH   1   7
ATOM      7  O   LIG d   1      -2.379  93.314 118.924  0.00  0.00    -0.368 OA
BRANCH   7   8
ATOM      8  C   LIG d   1      -1.703  94.482 118.398  0.00  0.00     0.119 C 
BRANCH   8   9
ATOM      9  C   LIG d   1      -0.202  94.330 118.714  0.00  0.00     0.028 C 
ATOM     10  C   LIG d   1       0.048  93.518 119.995  0.00  0.00     0.006 C 
ENDBRANCH   8   9
BRANCH   8  11
ATOM     11  C   LIG d   1      -2.143  95.756 119.126  0.00  0.00     0.028 C 
ATOM     12  C   LIG d   1      -3.510  95.607 119.813  0.00  0.00     0.006 C 
ENDBRANCH   8  11
ENDBRANCH   7   8
ENDBRANCH   1   7
BRANCH   6  13
ATOM     13  N   LIG d   1      -0.959  91.197 117.316  0.00  0.00    -0.311 N 
ATOM     14  C   LIG d   1       0.145  90.580 117.734  0.00  0.00     0.210 C 
ATOM     15  C   LIG d   1       1.404  90.881 116.915  0.00  0.00     0.109 C 
ATOM     16  O   LIG d   1       0.195  89.786 118.685  0.00  0.00    -0.276 OA
ATOM     17  H   LIG d   1      -0.915  91.798 116.517  0.00  0.00     0.149 HD
ENDBRANCH   6  13
BRANCH   5  18
ATOM     18  N   LIG d   1      -2.575  88.608 117.449  0.00  0.00     0.381 N 
ATOM     19  H   LIG d   1      -3.253  87.924 117.177  0.00  0.00    -0.090 HD
ATOM     20  H   LIG d   1      -2.328  88.443 118.409  0.00  0.00    -0.090 HD
ATOM     21  H   LIG d   1      -1.766  88.532 116.872  0.00  0.00    -0.090 HD
ENDBRANCH   5  18
BRANCH   3  22
ATOM     22  C   LIG d   1      -6.508  91.268 118.076  0.00  0.00     0.382 C 
ATOM     23  O   LIG d   1      -7.087  92.340 118.374  0.00  0.00    -0.241 OA
ATOM     24  O   LIG d   1      -7.187  90.257 117.814  0.00  0.00    -0.241 OA
ENDBRANCH   3  22
TORSDOF 7
ENDMDL
MODEL 2
REMARK VINA RESULT:      -4.4      2.265      4.439
REMARK  7 active torsions:
REMARK  status: ('A' for Active; 'I' for Inactive)
REMARK    1  A    between atoms: C_2  and  C_3 
REMARK    2  A    between atoms: C_3  and  O_6 
REMARK    3  A    between atoms: C_3  and  C_4 
REMARK    4  A    between atoms: C_7  and  O_6 
REMARK    5  A    between atoms: C_9  and  C_10 
REMARK    6  A    between atoms: N_15  and  C_14 
REMARK    7  A    between atoms: N_20  and  C_19 
REMARK       I    between atoms: C_22  and  N_20 
ROOT
ATOM      1  C   LIG d   1      -2.901  89.747 118.816  0.00  0.00     0.161 C 
ATOM      2  C   LIG d   1      -4.288  89.797 118.600  0.00  0.00     0.016 C 
ATOM      3  C   LIG d   1      -4.948  90.911 118.031  0.00  0.00     0.038 C 
ATOM      4  C   LIG d   1      -4.240  91.997 117.495  0.00  0.00     0.028 C 
ATOM      5  C   LIG d   1      -2.878  92.213 118.146  0.00  0.00    -0.047 C 
ATOM      6  C   LIG d   1      -2.100  90.877 118.136  0.00  0.00     0.091 C 
ENDROOT
BRANCH   1   7
ATOM      7  O   LIG d   1      -2.391  88.460 118.415  0.00  0.00    -0.368 OA
BRANCH   7   8
ATOM      8  C   LIG d   1      -1.461  87.830 119.330  0.00  0.00     0.119 C 
BRANCH   8   9
ATOM      9  C   LIG d   1      -0.236  87.381 118.510  0.00  0.00     0.028 C 
ATOM     10  C   LIG d   1      -0.331  87.803 117.034  0.00  0.00     0.006 C 
ENDBRANCH   8   9
BRANCH   8  11
ATOM     11  C   LIG d   1      -2.047  86.544 119.922  0.00  0.00     0.028 C 
ATOM     12  C   LIG d   1      -3.122  86.814 120.986  0.00  0.00     0.006 C 
ENDBRANCH   8  11
ENDBRANCH   7   8
ENDBRANCH   1   7
BRANCH   6  13
ATOM     13  N   LIG d   1      -0.790  90.979 118.830  0.00  0.00    -0.311 N 
ATOM     14  C   LIG d   1       0.359  91.213 118.197  0.00  0.00     0.210 C 
ATOM     15  C   LIG d   1       1.596  91.260 119.099  0.00  0.00     0.109 C 
ATOM     16  O   LIG d   1       0.466  91.417 116.978  0.00  0.00    -0.276 OA
ATOM     17  H   LIG d   1      -0.789  90.857 119.824  0.00  0.00     0.149 HD
ENDBRANCH   6  13
BRANCH   5  18
ATOM     18  N   LIG d   1      -2.193  93.286 117.401  0.00  0.00     0.381 N 
ATOM     19  H   LIG d   1      -1.778  93.932 118.043  0.00  0.00    -0.090 HD
ATOM     20  H   LIG d   1      -2.871  93.782 116.849  0.00  0.00    -0.090 HD
ATOM     21  H   LIG d   1      -1.493  92.897 116.809  0.00  0.00    -0.090 HD
ENDBRANCH   5  18
BRANCH   3  22
ATOM     22  C   LIG d   1      -6.333  90.962 118.029  0.00  0.00     0.382 C 
ATOM     23  O   LIG d   1      -6.995  90.029 117.513  0.00  0.00    -0.241 OA
ATOM     24  O   LIG d   1      -6.930  91.950 118.497  0.00  0.00    -0.241 OA
ENDBRANCH   3  22
TORSDOF 7
ENDMDL
MODEL 3
REMARK VINA RESULT:      -4.4      1.978      2.815
REMARK  7 active torsions:
REMARK  status: ('A' for Active; 'I' for Inactive)
REMARK    1  A    between atoms: C_2  and  C_3 
REMARK    2  A    between atoms: C_3  and  O_6 
REMARK    3  A    between atoms: C_3  and  C_4 
REMARK    4  A    between atoms: C_7  and  O_6 
REMARK    5  A    between atoms: C_9  and  C_10 
REMARK    6  A    between atoms: N_15  and  C_14 
REMARK    7  A    between atoms: N_20  and  C_19 
REMARK       I    between atoms: C_22  and  N_20 
ROOT
ATOM      1  C   LIG d   1      -3.828  92.729 118.610  0.00  0.00     0.161 C 
ATOM      2  C   LIG d   1      -5.199  93.028 118.679  0.00  0.00     0.016 C 
ATOM      3  C   LIG d   1      -6.199  92.245 118.056  0.00  0.00     0.038 C 
ATOM      4  C   LIG d   1      -5.905  91.017 117.445  0.00  0.00     0.028 C 
ATOM      5  C   LIG d   1      -4.478  90.930 116.916  0.00  0.00    -0.047 C 
ATOM      6  C   LIG d   1      -3.499  91.332 118.042  0.00  0.00     0.091 C 
ENDROOT
BRANCH   1   7
ATOM      7  O   LIG d   1      -3.226  92.896 119.909  0.00  0.00    -0.368 OA
BRANCH   7   8
ATOM      8  C   LIG d   1      -3.491  91.848 120.874  0.00  0.00     0.119 C 
BRANCH   8   9
ATOM      9  C   LIG d   1      -3.996  92.524 122.164  0.00  0.00     0.028 C 
ATOM     10  C   LIG d   1      -3.963  94.059 122.074  0.00  0.00     0.006 C 
ENDBRANCH   8   9
BRANCH   8  11
ATOM     11  C   LIG d   1      -2.205  91.121 121.274  0.00  0.00     0.028 C 
ATOM     12  C   LIG d   1      -0.945  91.975 121.060  0.00  0.00     0.006 C 
ENDBRANCH   8  11
ENDBRANCH   7   8
ENDBRANCH   1   7
BRANCH   6  13
ATOM     13  N   LIG d   1      -2.086  91.355 117.584  0.00  0.00    -0.311 N 
ATOM     14  C   LIG d   1      -1.258  90.319 117.707  0.00  0.00     0.210 C 
ATOM     15  C   LIG d   1       0.163  90.561 117.187  0.00  0.00     0.109 C 
ATOM     16  O   LIG d   1      -1.575  89.212 118.168  0.00  0.00    -0.276 OA
ATOM     17  H   LIG d   1      -1.754  92.204 117.169  0.00  0.00     0.149 HD
ENDBRANCH   6  13
BRANCH   5  18
ATOM     18  N   LIG d   1      -4.266  89.553 116.430  0.00  0.00     0.381 N 
ATOM     19  H   LIG d   1      -4.892  88.929 116.898  0.00  0.00    -0.090 HD
ATOM     20  H   LIG d   1      -3.325  89.275 116.643  0.00  0.00    -0.090 HD
ATOM     21  H   LIG d   1      -4.418  89.511 115.446  0.00  0.00    -0.090 HD
ENDBRANCH   5  18
BRANCH   3  22
ATOM     22  C   LIG d   1      -7.504  92.710 118.007  0.00  0.00     0.382 C 
ATOM     23  O   LIG d   1      -8.047  92.938 116.899  0.00  0.00    -0.241 OA
ATOM     24  O   LIG d   1      -8.131  92.948 119.057  0.00  0.00    -0.241 OA
ENDBRANCH   3  22
TORSDOF 7
ENDMDL
MODEL 4
REMARK VINA RESULT:      -4.3      2.475      6.466
REMARK  7 active torsions:
REMARK  status: ('A' for Active; 'I' for Inactive)
REMARK    1  A    between atoms: C_2  and  C_3 
REMARK    2  A    between atoms: C_3  and  O_6 
REMARK    3  A    between atoms: C_3  and  C_4 
REMARK    4  A    between atoms: C_7  and  O_6 
REMARK    5  A    between atoms: C_9  and  C_10 
REMARK    6  A    between atoms: N_15  and  C_14 
REMARK    7  A    between atoms: N_20  and  C_19 
REMARK       I    between atoms: C_22  and  N_20 
ROOT
ATOM      1  C   LIG d   1      -1.045  91.374 117.860  0.00  0.00     0.161 C 
ATOM      2  C   LIG d   1       0.328  91.607 118.041  0.00  0.00     0.016 C 
ATOM      3  C   LIG d   1       0.875  92.888 118.285  0.00  0.00     0.038 C 
ATOM      4  C   LIG d   1       0.063  94.009 118.516  0.00  0.00     0.028 C 
ATOM      5  C   LIG d   1      -1.302  93.917 117.843  0.00  0.00    -0.047 C 
ATOM      6  C   LIG d   1      -1.956  92.567 118.219  0.00  0.00     0.091 C 
ENDROOT
BRANCH   1   7
ATOM      7  O   LIG d   1      -1.443  90.201 118.596  0.00  0.00    -0.368 OA
BRANCH   7   8
ATOM      8  C   LIG d   1      -1.842  89.056 117.804  0.00  0.00     0.119 C 
BRANCH   8   9
ATOM      9  C   LIG d   1      -2.734  88.166 118.691  0.00  0.00     0.028 C 
ATOM     10  C   LIG d   1      -3.347  88.941 119.870  0.00  0.00     0.006 C 
ENDBRANCH   8   9
BRANCH   8  11
ATOM     11  C   LIG d   1      -0.637  88.184 117.438  0.00  0.00     0.028 C 
ATOM     12  C   LIG d   1      -0.319  87.128 118.507  0.00  0.00     0.006 C 
ENDBRANCH   8  11
ENDBRANCH   7   8
ENDBRANCH   1   7
BRANCH   6  13
ATOM     13  N   LIG d   1      -3.259  92.359 117.535  0.00  0.00    -0.311 N 
ATOM     14  C   LIG d   1      -4.405  92.163 118.185  0.00  0.00     0.210 C 
ATOM     15  C   LIG d   1      -5.629  91.950 117.288  0.00  0.00     0.109 C 
ATOM     16  O   LIG d   1      -4.530  92.179 119.419  0.00  0.00    -0.276 OA
ATOM     17  H   LIG d   1      -3.255  92.363 116.534  0.00  0.00     0.149 HD
ENDBRANCH   6  13
BRANCH   5  18
ATOM     18  N   LIG d   1      -2.093  95.083 118.279  0.00  0.00     0.381 N 
ATOM     19  H   LIG d   1      -3.048  94.966 118.004  0.00  0.00    -0.090 HD
ATOM     20  H   LIG d   1      -1.734  95.906 117.828  0.00  0.00    -0.090 HD
ATOM     21  H   LIG d   1      -2.035  95.185 119.268  0.00  0.00    -0.090 HD
ENDBRANCH   5  18
BRANCH   3  22
ATOM     22  C   LIG d   1       2.250  93.065 118.260  0.00  0.00     0.382 C 
ATOM     23  O   LIG d   1       2.897  92.804 117.218  0.00  0.00    -0.241 OA
ATOM     24  O   LIG d   1       2.857  93.439 119.281  0.00  0.00    -0.241 OA
ENDBRANCH   3  22
TORSDOF 7
ENDMDL
MODEL 5
REMARK VINA RESULT:      -4.3      2.419      4.515
REMARK  7 active torsions:
REMARK  status: ('A' for Active; 'I' for Inactive)
REMARK    1  A    between atoms: C_2  and  C_3 
REMARK    2  A    between atoms: C_3  and  O_6 
REMARK    3  A    between atoms: C_3  and  C_4 
REMARK    4  A    between atoms: C_7  and  O_6 
REMARK    5  A    between atoms: C_9  and  C_10 
REMARK    6  A    between atoms: N_15  and  C_14 
REMARK    7  A    between atoms: N_20  and  C_19 
REMARK       I    between atoms: C_22  and  N_20 
ROOT
ATOM      1  C   LIG d   1      -3.409  90.715 120.171  0.00  0.00     0.161 C 
ATOM      2  C   LIG d   1      -4.605  90.418 119.497  0.00  0.00     0.016 C 
ATOM      3  C   LIG d   1      -4.976  91.014 118.270  0.00  0.00     0.038 C 
ATOM      4  C   LIG d   1      -4.099  91.841 117.552  0.00  0.00     0.028 C 
ATOM      5  C   LIG d   1      -3.089  92.564 118.437  0.00  0.00    -0.047 C 
ATOM      6  C   LIG d   1      -2.389  91.531 119.349  0.00  0.00     0.091 C 
ENDROOT
BRANCH   1   7
ATOM      7  O   LIG d   1      -2.804  89.499 120.653  0.00  0.00    -0.368 OA
BRANCH   7   8
ATOM      8  C   LIG d   1      -3.078  88.302 119.884  0.00  0.00     0.119 C 
BRANCH   8   9
ATOM      9  C   LIG d   1      -3.255  87.141 120.881  0.00  0.00     0.028 C 
ATOM     10  C   LIG d   1      -2.310  85.964 120.585  0.00  0.00     0.006 C 
ENDBRANCH   8   9
BRANCH   8  11
ATOM     11  C   LIG d   1      -1.879  87.912 119.015  0.00  0.00     0.028 C 
ATOM     12  C   LIG d   1      -1.966  88.479 117.589  0.00  0.00     0.006 C 
ENDBRANCH   8  11
ENDBRANCH   7   8
ENDBRANCH   1   7
BRANCH   6  13
ATOM     13  N   LIG d   1      -1.445  92.166 120.305  0.00  0.00    -0.311 N 
ATOM     14  C   LIG d   1      -0.142  92.302 120.068  0.00  0.00     0.210 C 
ATOM     15  C   LIG d   1       0.654  92.967 121.195  0.00  0.00     0.109 C 
ATOM     16  O   LIG d   1       0.425  91.963 119.018  0.00  0.00    -0.276 OA
ATOM     17  H   LIG d   1      -1.826  92.497 121.170  0.00  0.00     0.149 HD
ENDBRANCH   6  13
BRANCH   5  18
ATOM     18  N   LIG d   1      -2.153  93.281 117.550  0.00  0.00     0.381 N 
ATOM     19  H   LIG d   1      -2.321  93.021 116.599  0.00  0.00    -0.090 HD
ATOM     20  H   LIG d   1      -1.213  93.016 117.787  0.00  0.00    -0.090 HD
ATOM     21  H   LIG d   1      -2.265  94.265 117.659  0.00  0.00    -0.090 HD
ENDBRANCH   5  18
BRANCH   3  22
ATOM     22  C   LIG d   1      -6.253  90.815 117.767  0.00  0.00     0.382 C 
ATOM     23  O   LIG d   1      -7.194  91.559 118.135  0.00  0.00    -0.241 OA
ATOM     24  O   LIG d   1      -6.485  89.874 116.985  0.00  0.00    -0.241 OA
ENDBRANCH   3  22
TORSDOF 7
ENDMDL
MODEL 6
REMARK VINA RESULT:      -4.3      0.936      1.916
REMARK  7 active torsions:
REMARK  status: ('A' for Active; 'I' for Inactive)
REMARK    1  A    between atoms: C_2  and  C_3 
REMARK    2  A    between atoms: C_3  and  O_6 
REMARK    3  A    between atoms: C_3  and  C_4 
REMARK    4  A    between atoms: C_7  and  O_6 
REMARK    5  A    between atoms: C_9  and  C_10 
REMARK    6  A    between atoms: N_15  and  C_14 
REMARK    7  A    between atoms: N_20  and  C_19 
REMARK       I    between atoms: C_22  and  N_20 
ROOT
ATOM      1  C   LIG d   1      -3.022  92.488 118.030  0.00  0.00     0.161 C 
ATOM      2  C   LIG d   1      -4.414  92.391 118.193  0.00  0.00     0.016 C 
ATOM      3  C   LIG d   1      -5.124  91.170 118.114  0.00  0.00     0.038 C 
ATOM      4  C   LIG d   1      -4.466  89.936 118.016  0.00  0.00     0.028 C 
ATOM      5  C   LIG d   1      -3.100  90.028 117.343  0.00  0.00    -0.047 C 
ATOM      6  C   LIG d   1      -2.275  91.138 118.034  0.00  0.00     0.091 C 
ENDROOT
BRANCH   1   7
ATOM      7  O   LIG d   1      -2.474  93.367 119.032  0.00  0.00    -0.368 OA
BRANCH   7   8
ATOM      8  C   LIG d   1      -2.066  92.742 120.274  0.00  0.00     0.119 C 
BRANCH   8   9
ATOM      9  C   LIG d   1      -2.964  93.305 121.392  0.00  0.00     0.028 C 
ATOM     10  C   LIG d   1      -3.501  94.708 121.064  0.00  0.00     0.006 C 
ENDBRANCH   8   9
BRANCH   8  11
ATOM     11  C   LIG d   1      -0.639  93.146 120.659  0.00  0.00     0.028 C 
ATOM     12  C   LIG d   1       0.008  94.094 119.637  0.00  0.00     0.006 C 
ENDBRANCH   8  11
ENDBRANCH   7   8
ENDBRANCH   1   7
BRANCH   6  13
ATOM     13  N   LIG d   1      -0.957  91.353 117.382  0.00  0.00    -0.311 N 
ATOM     14  C   LIG d   1       0.174  90.797 117.815  0.00  0.00     0.210 C 
ATOM     15  C   LIG d   1       1.425  91.166 117.011  0.00  0.00     0.109 C 
ATOM     16  O   LIG d   1       0.255  90.009 118.769  0.00  0.00    -0.276 OA
ATOM     17  H   LIG d   1      -0.936  91.954 116.582  0.00  0.00     0.149 HD
ENDBRANCH   6  13
BRANCH   5  18
ATOM     18  N   LIG d   1      -2.468  88.698 117.432  0.00  0.00     0.381 N 
ATOM     19  H   LIG d   1      -2.504  88.368 118.376  0.00  0.00    -0.090 HD
ATOM     20  H   LIG d   1      -1.504  88.778 117.162  0.00  0.00    -0.090 HD
ATOM     21  H   LIG d   1      -2.937  88.058 116.830  0.00  0.00    -0.090 HD
ENDBRANCH   5  18
BRANCH   3  22
ATOM     22  C   LIG d   1      -6.510  91.181 118.093  0.00  0.00     0.382 C 
ATOM     23  O   LIG d   1      -7.139  90.180 117.673  0.00  0.00    -0.241 OA
ATOM     24  O   LIG d   1      -7.139  92.197 118.447  0.00  0.00    -0.241 OA
ENDBRANCH   3  22
TORSDOF 7
ENDMDL
MODEL 7
REMARK VINA RESULT:      -4.2      2.304      3.562
REMARK  7 active torsions:
REMARK  status: ('A' for Active; 'I' for Inactive)
REMARK    1  A    between atoms: C_2  and  C_3 
REMARK    2  A    between atoms: C_3  and  O_6 
REMARK    3  A    between atoms: C_3  and  C_4 
REMARK    4  A    between atoms: C_7  and  O_6 
REMARK    5  A    between atoms: C_9  and  C_10 
REMARK    6  A    between atoms: N_15  and  C_14 
REMARK    7  A    between atoms: N_20  and  C_19 
REMARK       I    between atoms: C_22  and  N_20 
ROOT
ATOM      1  C   LIG d   1      -4.430  93.015 118.997  0.00  0.00     0.161 C 
ATOM      2  C   LIG d   1      -5.639  92.472 118.532  0.00  0.00     0.016 C 
ATOM      3  C   LIG d   1      -5.709  91.358 117.664  0.00  0.00     0.038 C 
ATOM      4  C   LIG d   1      -4.572  90.614 117.320  0.00  0.00     0.028 C 
ATOM      5  C   LIG d   1      -3.282  91.426 117.358  0.00  0.00    -0.047 C 
ATOM      6  C   LIG d   1      -3.184  92.148 118.722  0.00  0.00     0.091 C 
ENDROOT
BRANCH   1   7
ATOM      7  O   LIG d   1      -4.535  93.308 120.404  0.00  0.00    -0.368 OA
BRANCH   7   8
ATOM      8  C   LIG d   1      -5.402  92.439 121.174  0.00  0.00     0.119 C 
BRANCH   8   9
ATOM      9  C   LIG d   1      -6.213  93.328 122.136  0.00  0.00     0.028 C 
ATOM     10  C   LIG d   1      -6.815  94.557 121.434  0.00  0.00     0.006 C 
ENDBRANCH   8   9
BRANCH   8  11
ATOM     11  C   LIG d   1      -4.594  91.499 122.073  0.00  0.00     0.028 C 
ATOM     12  C   LIG d   1      -4.434  90.093 121.475  0.00  0.00     0.006 C 
ENDBRANCH   8  11
ENDBRANCH   7   8
ENDBRANCH   1   7
BRANCH   6  13
ATOM     13  N   LIG d   1      -1.992  93.032 118.811  0.00  0.00    -0.311 N 
ATOM     14  C   LIG d   1      -0.825  92.640 119.320  0.00  0.00     0.210 C 
ATOM     15  C   LIG d   1       0.266  93.715 119.336  0.00  0.00     0.109 C 
ATOM     16  O   LIG d   1      -0.581  91.496 119.731  0.00  0.00    -0.276 OA
ATOM     17  H   LIG d   1      -2.093  93.968 118.471  0.00  0.00     0.149 HD
ENDBRANCH   6  13
BRANCH   5  18
ATOM     18  N   LIG d   1      -2.162  90.497 117.114  0.00  0.00     0.381 N 
ATOM     19  H   LIG d   1      -1.341  91.012 116.868  0.00  0.00    -0.090 HD
ATOM     20  H   LIG d   1      -2.400  89.896 116.345  0.00  0.00    -0.090 HD
ATOM     21  H   LIG d   1      -1.988  89.951 117.930  0.00  0.00    -0.090 HD
ENDBRANCH   5  18
BRANCH   3  22
ATOM     22  C   LIG d   1      -6.925  91.004 117.098  0.00  0.00     0.382 C 
ATOM     23  O   LIG d   1      -7.613  91.866 116.500  0.00  0.00    -0.241 OA
ATOM     24  O   LIG d   1      -7.362  89.843 117.216  0.00  0.00    -0.241 OA
ENDBRANCH   3  22
TORSDOF 7
ENDMDL
MODEL 8
REMARK VINA RESULT:      -4.1      2.580      4.550
REMARK  7 active torsions:
REMARK  status: ('A' for Active; 'I' for Inactive)
REMARK    1  A    between atoms: C_2  and  C_3 
REMARK    2  A    between atoms: C_3  and  O_6 
REMARK    3  A    between atoms: C_3  and  C_4 
REMARK    4  A    between atoms: C_7  and  O_6 
REMARK    5  A    between atoms: C_9  and  C_10 
REMARK    6  A    between atoms: N_15  and  C_14 
REMARK    7  A    between atoms: N_20  and  C_19 
REMARK       I    between atoms: C_22  and  N_20 
ROOT
ATOM      1  C   LIG d   1      -3.842  92.500 119.176  0.00  0.00     0.161 C 
ATOM      2  C   LIG d   1      -4.413  91.531 118.334  0.00  0.00     0.016 C 
ATOM      3  C   LIG d   1      -5.767  91.553 117.927  0.00  0.00     0.038 C 
ATOM      4  C   LIG d   1      -6.609  92.638 118.214  0.00  0.00     0.028 C 
ATOM      5  C   LIG d   1      -6.218  93.389 119.482  0.00  0.00    -0.047 C 
ATOM      6  C   LIG d   1      -4.717  93.749 119.409  0.00  0.00     0.091 C 
ENDROOT
BRANCH   1   7
ATOM      7  O   LIG d   1      -2.546  92.881 118.674  0.00  0.00    -0.368 OA
BRANCH   7   8
ATOM      8  C   LIG d   1      -1.424  92.093 119.141  0.00  0.00     0.119 C 
BRANCH   8   9
ATOM      9  C   LIG d   1      -0.536  93.015 119.999  0.00  0.00     0.028 C 
ATOM     10  C   LIG d   1      -0.379  94.416 119.385  0.00  0.00     0.006 C 
ENDBRANCH   8   9
BRANCH   8  11
ATOM     11  C   LIG d   1      -0.536  91.643 117.978  0.00  0.00     0.028 C 
ATOM     12  C   LIG d   1      -0.895  90.241 117.462  0.00  0.00     0.006 C 
ENDBRANCH   8  11
ENDBRANCH   7   8
ENDBRANCH   1   7
BRANCH   6  13
ATOM     13  N   LIG d   1      -4.232  94.413 120.648  0.00  0.00    -0.311 N 
ATOM     14  C   LIG d   1      -3.637  95.604 120.656  0.00  0.00     0.210 C 
ATOM     15  C   LIG d   1      -3.197  96.097 122.038  0.00  0.00     0.109 C 
ATOM     16  O   LIG d   1      -3.462  96.315 119.655  0.00  0.00    -0.276 OA
ATOM     17  H   LIG d   1      -4.362  93.920 121.510  0.00  0.00     0.149 HD
ENDBRANCH   6  13
BRANCH   5  18
ATOM     18  N   LIG d   1      -7.092  94.573 119.586  0.00  0.00     0.381 N 
ATOM     19  H   LIG d   1      -7.587  94.705 118.727  0.00  0.00    -0.090 HD
ATOM     20  H   LIG d   1      -6.523  95.384 119.750  0.00  0.00    -0.090 HD
ATOM     21  H   LIG d   1      -7.738  94.454 120.335  0.00  0.00    -0.090 HD
ENDBRANCH   5  18
BRANCH   3  22
ATOM     22  C   LIG d   1      -6.301  90.463 117.257  0.00  0.00     0.382 C 
ATOM     23  O   LIG d   1      -7.471  90.085 117.508  0.00  0.00    -0.241 OA
ATOM     24  O   LIG d   1      -5.613  89.826 116.437  0.00  0.00    -0.241 OA
ENDBRANCH   3  22
TORSDOF 7
ENDMDL
MODEL 9
REMARK VINA RESULT:      -4.0      2.548      6.096
REMARK  7 active torsions:
REMARK  status: ('A' for Active; 'I' for Inactive)
REMARK    1  A    between atoms: C_2  and  C_3 
REMARK    2  A    between atoms: C_3  and  O_6 
REMARK    3  A    between atoms: C_3  and  C_4 
REMARK    4  A    between atoms: C_7  and  O_6 
REMARK    5  A    between atoms: C_9  and  C_10 
REMARK    6  A    between atoms: N_15  and  C_14 
REMARK    7  A    between atoms: N_20  and  C_19 
REMARK       I    between atoms: C_22  and  N_20 
ROOT
ATOM      1  C   LIG d   1      -2.211  92.128 118.694  0.00  0.00     0.161 C 
ATOM      2  C   LIG d   1      -0.904  91.756 118.339  0.00  0.00     0.016 C 
ATOM      3  C   LIG d   1       0.144  92.686 118.146  0.00  0.00     0.038 C 
ATOM      4  C   LIG d   1      -0.008  94.048 118.446  0.00  0.00     0.028 C 
ATOM      5  C   LIG d   1      -1.447  94.537 118.322  0.00  0.00    -0.047 C 
ATOM      6  C   LIG d   1      -2.368  93.598 119.134  0.00  0.00     0.091 C 
ENDROOT
BRANCH   1   7
ATOM      7  O   LIG d   1      -2.709  91.243 119.718  0.00  0.00    -0.368 OA
BRANCH   7   8
ATOM      8  C   LIG d   1      -3.771  90.342 119.319  0.00  0.00     0.119 C 
BRANCH   8   9
ATOM      9  C   LIG d   1      -3.177  88.921 119.266  0.00  0.00     0.028 C 
ATOM     10  C   LIG d   1      -2.704  88.535 117.854  0.00  0.00     0.006 C 
ENDBRANCH   8   9
BRANCH   8  11
ATOM     11  C   LIG d   1      -4.246  90.636 117.893  0.00  0.00     0.028 C 
ATOM     12  C   LIG d   1      -5.738  91.000 117.826  0.00  0.00     0.006 C 
ENDBRANCH   8  11
ENDBRANCH   7   8
ENDBRANCH   1   7
BRANCH   6  13
ATOM     13  N   LIG d   1      -3.804  93.957 118.998  0.00  0.00    -0.311 N 
ATOM     14  C   LIG d   1      -4.633  94.071 120.035  0.00  0.00     0.210 C 
ATOM     15  C   LIG d   1      -6.077  94.429 119.673  0.00  0.00     0.109 C 
ATOM     16  O   LIG d   1      -4.301  93.941 121.223  0.00  0.00    -0.276 OA
ATOM     17  H   LIG d   1      -4.151  94.110 118.071  0.00  0.00     0.149 HD
ENDBRANCH   6  13
BRANCH   5  18
ATOM     18  N   LIG d   1      -1.485  95.934 118.795  0.00  0.00     0.381 N 
ATOM     19  H   LIG d   1      -2.434  96.222 118.927  0.00  0.00    -0.090 HD
ATOM     20  H   LIG d   1      -1.071  96.525 118.095  0.00  0.00    -0.090 HD
ATOM     21  H   LIG d   1      -0.982  96.018 119.651  0.00  0.00    -0.090 HD
ENDBRANCH   5  18
BRANCH   3  22
ATOM     22  C   LIG d   1       1.350  92.260 117.610  0.00  0.00     0.382 C 
ATOM     23  O   LIG d   1       2.373  92.979 117.718  0.00  0.00    -0.241 OA
ATOM     24  O   LIG d   1       1.419  91.187 116.982  0.00  0.00    -0.241 OA
ENDBRANCH   3  22
TORSDOF 7
ENDMDL
