MODEL 1
REMARK VINA RESULT:      -4.8      0.000      0.000
REMARK  7 active torsions:
REMARK  status: ('A' for Active; 'I' for Inactive)
REMARK    1  A    between atoms: C_2  and  C_3 
REMARK    2  A    between atoms: C_3  and  O_6 
REMARK    3  A    between atoms: C_3  and  C_4 
REMARK    4  A    between atoms: C_7  and  O_6 
REMARK    5  A    between atoms: C_9  and  C_10 
REMARK    6  A    between atoms: N_15  and  C_14 
REMARK    7  A    between atoms: N_20  and  C_19 
REMARK       I    between atoms: C_22  and  N_20 
ROOT
ATOM      1  C   LIG d   1      -6.425  93.304 119.755  0.00  0.00     0.161 C 
ATOM      2  C   LIG d   1      -6.302  92.202 118.892  0.00  0.00     0.016 C 
ATOM      3  C   LIG d   1      -6.635  92.247 117.519  0.00  0.00     0.038 C 
ATOM      4  C   LIG d   1      -6.973  93.448 116.877  0.00  0.00     0.028 C 
ATOM      5  C   LIG d   1      -7.596  94.480 117.811  0.00  0.00    -0.047 C 
ATOM      6  C   LIG d   1      -6.686  94.651 119.049  0.00  0.00     0.091 C 
ENDROOT
BRANCH   1   7
ATOM      7  O   LIG d   1      -5.260  93.397 120.597  0.00  0.00    -0.368 OA
BRANCH   7   8
ATOM      8  C   LIG d   1      -4.044  92.810 120.071  0.00  0.00     0.119 C 
BRANCH   8   9
ATOM      9  C   LIG d   1      -3.257  92.229 121.262  0.00  0.00     0.028 C 
ATOM     10  C   LIG d   1      -3.479  90.717 121.429  0.00  0.00     0.006 C 
ENDBRANCH   8   9
BRANCH   8  11
ATOM     11  C   LIG d   1      -3.129  93.877 119.462  0.00  0.00     0.028 C 
ATOM     12  C   LIG d   1      -2.959  93.720 117.943  0.00  0.00     0.006 C 
ENDBRANCH   8  11
ENDBRANCH   7   8
ENDBRANCH   1   7
BRANCH   6  13
ATOM     13  N   LIG d   1      -7.264  95.581 120.054  0.00  0.00    -0.311 N 
ATOM     14  C   LIG d   1      -6.595  96.609 120.572  0.00  0.00     0.210 C 
ATOM     15  C   LIG d   1      -7.371  97.430 121.607  0.00  0.00     0.109 C 
ATOM     16  O   LIG d   1      -5.444  96.938 120.250  0.00  0.00    -0.276 OA
ATOM     17  H   LIG d   1      -8.205  95.406 120.349  0.00  0.00     0.149 HD
ENDBRANCH   6  13
BRANCH   5  18
ATOM     18  N   LIG d   1      -7.771  95.728 117.045  0.00  0.00     0.381 N 
ATOM     19  H   LIG d   1      -7.991  96.479 117.667  0.00  0.00    -0.090 HD
ATOM     20  H   LIG d   1      -8.538  95.612 116.406  0.00  0.00    -0.090 HD
ATOM     21  H   LIG d   1      -6.938  95.937 116.540  0.00  0.00    -0.090 HD
ENDBRANCH   5  18
BRANCH   3  22
ATOM     22  C   LIG d   1      -6.671  91.074 116.781  0.00  0.00     0.382 C 
ATOM     23  O   LIG d   1      -7.773  90.548 116.492  0.00  0.00    -0.241 OA
ATOM     24  O   LIG d   1      -5.614  90.510 116.439  0.00  0.00    -0.241 OA
ENDBRANCH   3  22
TORSDOF 7
ENDMDL
MODEL 2
REMARK VINA RESULT:      -4.6      3.201      5.125
REMARK  7 active torsions:
REMARK  status: ('A' for Active; 'I' for Inactive)
REMARK    1  A    between atoms: C_2  and  C_3 
REMARK    2  A    between atoms: C_3  and  O_6 
REMARK    3  A    between atoms: C_3  and  C_4 
REMARK    4  A    between atoms: C_7  and  O_6 
REMARK    5  A    between atoms: C_9  and  C_10 
REMARK    6  A    between atoms: N_15  and  C_14 
REMARK    7  A    between atoms: N_20  and  C_19 
REMARK       I    between atoms: C_22  and  N_20 
ROOT
ATOM      1  C   LIG d   1      -3.237  93.617 118.344  0.00  0.00     0.161 C 
ATOM      2  C   LIG d   1      -4.543  94.107 118.512  0.00  0.00     0.016 C 
ATOM      3  C   LIG d   1      -5.695  93.428 118.053  0.00  0.00     0.038 C 
ATOM      4  C   LIG d   1      -5.629  92.130 117.525  0.00  0.00     0.028 C 
ATOM      5  C   LIG d   1      -4.287  91.808 116.876  0.00  0.00    -0.047 C 
ATOM      6  C   LIG d   1      -3.154  92.151 117.870  0.00  0.00     0.091 C 
ENDROOT
BRANCH   1   7
ATOM      7  O   LIG d   1      -2.488  93.792 119.563  0.00  0.00    -0.368 OA
BRANCH   7   8
ATOM      8  C   LIG d   1      -2.504  92.676 120.487  0.00  0.00     0.119 C 
BRANCH   8   9
ATOM      9  C   LIG d   1      -3.306  93.114 121.729  0.00  0.00     0.028 C 
ATOM     10  C   LIG d   1      -4.645  92.369 121.855  0.00  0.00     0.006 C 
ENDBRANCH   8   9
BRANCH   8  11
ATOM     11  C   LIG d   1      -1.098  92.360 121.004  0.00  0.00     0.028 C 
ATOM     12  C   LIG d   1      -0.972  90.930 121.551  0.00  0.00     0.006 C 
ENDBRANCH   8  11
ENDBRANCH   7   8
ENDBRANCH   1   7
BRANCH   6  13
ATOM     13  N   LIG d   1      -1.804  91.944 117.283  0.00  0.00    -0.311 N 
ATOM     14  C   LIG d   1      -1.066  90.858 117.506  0.00  0.00     0.210 C 
ATOM     15  C   LIG d   1       0.304  90.855 116.821  0.00  0.00     0.109 C 
ATOM     16  O   LIG d   1      -1.429  89.882 118.180  0.00  0.00    -0.276 OA
ATOM     17  H   LIG d   1      -1.444  92.673 116.698  0.00  0.00     0.149 HD
ENDBRANCH   6  13
BRANCH   5  18
ATOM     18  N   LIG d   1      -4.308  90.384 116.492  0.00  0.00     0.381 N 
ATOM     19  H   LIG d   1      -5.201  90.151 116.105  0.00  0.00    -0.090 HD
ATOM     20  H   LIG d   1      -4.166  89.823 117.314  0.00  0.00    -0.090 HD
ATOM     21  H   LIG d   1      -3.590  90.199 115.827  0.00  0.00    -0.090 HD
ENDBRANCH   5  18
BRANCH   3  22
ATOM     22  C   LIG d   1      -6.926  94.065 118.084  0.00  0.00     0.382 C 
ATOM     23  O   LIG d   1      -7.708  93.966 117.108  0.00  0.00    -0.241 OA
ATOM     24  O   LIG d   1      -7.246  94.774 119.057  0.00  0.00    -0.241 OA
ENDBRANCH   3  22
TORSDOF 7
ENDMDL
MODEL 3
REMARK VINA RESULT:      -4.6      3.645      5.598
REMARK  7 active torsions:
REMARK  status: ('A' for Active; 'I' for Inactive)
REMARK    1  A    between atoms: C_2  and  C_3 
REMARK    2  A    between atoms: C_3  and  O_6 
REMARK    3  A    between atoms: C_3  and  C_4 
REMARK    4  A    between atoms: C_7  and  O_6 
REMARK    5  A    between atoms: C_9  and  C_10 
REMARK    6  A    between atoms: N_15  and  C_14 
REMARK    7  A    between atoms: N_20  and  C_19 
REMARK       I    between atoms: C_22  and  N_20 
ROOT
ATOM      1  C   LIG d   1      -3.281  92.888 117.469  0.00  0.00     0.161 C 
ATOM      2  C   LIG d   1      -4.675  92.917 117.633  0.00  0.00     0.016 C 
ATOM      3  C   LIG d   1      -5.431  91.806 118.072  0.00  0.00     0.038 C 
ATOM      4  C   LIG d   1      -4.821  90.627 118.525  0.00  0.00     0.028 C 
ATOM      5  C   LIG d   1      -3.452  90.375 117.902  0.00  0.00    -0.047 C 
ATOM      6  C   LIG d   1      -2.586  91.645 118.064  0.00  0.00     0.091 C 
ENDROOT
BRANCH   1   7
ATOM      7  O   LIG d   1      -2.700  94.092 118.007  0.00  0.00    -0.368 OA
BRANCH   7   8
ATOM      8  C   LIG d   1      -3.502  94.807 118.979  0.00  0.00     0.119 C 
BRANCH   8   9
ATOM      9  C   LIG d   1      -3.325  96.313 118.708  0.00  0.00     0.028 C 
ATOM     10  C   LIG d   1      -4.448  97.158 119.332  0.00  0.00     0.006 C 
ENDBRANCH   8   9
BRANCH   8  11
ATOM     11  C   LIG d   1      -2.979  94.587 120.402  0.00  0.00     0.028 C 
ATOM     12  C   LIG d   1      -3.814  93.567 121.193  0.00  0.00     0.006 C 
ENDBRANCH   8  11
ENDBRANCH   7   8
ENDBRANCH   1   7
BRANCH   6  13
ATOM     13  N   LIG d   1      -1.259  91.514 117.408  0.00  0.00    -0.311 N 
ATOM     14  C   LIG d   1      -0.187  91.007 118.015  0.00  0.00     0.210 C 
ATOM     15  C   LIG d   1       1.087  90.981 117.164  0.00  0.00     0.109 C 
ATOM     16  O   LIG d   1      -0.179  90.546 119.166  0.00  0.00    -0.276 OA
ATOM     17  H   LIG d   1      -1.184  91.835 116.462  0.00  0.00     0.149 HD
ENDBRANCH   6  13
BRANCH   5  18
ATOM     18  N   LIG d   1      -2.872  89.191 118.564  0.00  0.00     0.381 N 
ATOM     19  H   LIG d   1      -1.895  89.338 118.726  0.00  0.00    -0.090 HD
ATOM     20  H   LIG d   1      -2.974  88.397 117.957  0.00  0.00    -0.090 HD
ATOM     21  H   LIG d   1      -3.337  89.021 119.428  0.00  0.00    -0.090 HD
ENDBRANCH   5  18
BRANCH   3  22
ATOM     22  C   LIG d   1      -6.816  91.853 118.023  0.00  0.00     0.382 C 
ATOM     23  O   LIG d   1      -7.445  91.055 117.287  0.00  0.00    -0.241 OA
ATOM     24  O   LIG d   1      -7.442  92.713 118.671  0.00  0.00    -0.241 OA
ENDBRANCH   3  22
TORSDOF 7
ENDMDL
MODEL 4
REMARK VINA RESULT:      -4.4      2.364      4.342
REMARK  7 active torsions:
REMARK  status: ('A' for Active; 'I' for Inactive)
REMARK    1  A    between atoms: C_2  and  C_3 
REMARK    2  A    between atoms: C_3  and  O_6 
REMARK    3  A    between atoms: C_3  and  C_4 
REMARK    4  A    between atoms: C_7  and  O_6 
REMARK    5  A    between atoms: C_9  and  C_10 
REMARK    6  A    between atoms: N_15  and  C_14 
REMARK    7  A    between atoms: N_20  and  C_19 
REMARK       I    between atoms: C_22  and  N_20 
ROOT
ATOM      1  C   LIG d   1      -6.089  92.069 119.270  0.00  0.00     0.161 C 
ATOM      2  C   LIG d   1      -6.789  92.878 118.359  0.00  0.00     0.016 C 
ATOM      3  C   LIG d   1      -6.837  94.288 118.449  0.00  0.00     0.038 C 
ATOM      4  C   LIG d   1      -6.059  94.999 119.374  0.00  0.00     0.028 C 
ATOM      5  C   LIG d   1      -5.733  94.201 120.632  0.00  0.00    -0.047 C 
ATOM      6  C   LIG d   1      -5.143  92.833 120.220  0.00  0.00     0.091 C 
ENDROOT
BRANCH   1   7
ATOM      7  O   LIG d   1      -5.364  91.046 118.558  0.00  0.00    -0.368 OA
BRANCH   7   8
ATOM      8  C   LIG d   1      -3.925  91.202 118.508  0.00  0.00     0.119 C 
BRANCH   8   9
ATOM      9  C   LIG d   1      -3.583  91.930 117.194  0.00  0.00     0.028 C 
ATOM     10  C   LIG d   1      -2.782  93.222 117.429  0.00  0.00     0.006 C 
ENDBRANCH   8   9
BRANCH   8  11
ATOM     11  C   LIG d   1      -3.220  89.845 118.415  0.00  0.00     0.028 C 
ATOM     12  C   LIG d   1      -3.192  89.095 119.756  0.00  0.00     0.006 C 
ENDBRANCH   8  11
ENDBRANCH   7   8
ENDBRANCH   1   7
BRANCH   6  13
ATOM     13  N   LIG d   1      -4.875  91.956 121.389  0.00  0.00    -0.311 N 
ATOM     14  C   LIG d   1      -3.703  91.915 122.021  0.00  0.00     0.210 C 
ATOM     15  C   LIG d   1      -3.633  90.927 123.190  0.00  0.00     0.109 C 
ATOM     16  O   LIG d   1      -2.726  92.627 121.746  0.00  0.00    -0.276 OA
ATOM     17  H   LIG d   1      -5.623  91.367 121.699  0.00  0.00     0.149 HD
ENDBRANCH   6  13
BRANCH   5  18
ATOM     18  N   LIG d   1      -4.805  95.009 121.445  0.00  0.00     0.381 N 
ATOM     19  H   LIG d   1      -3.861  94.806 121.185  0.00  0.00    -0.090 HD
ATOM     20  H   LIG d   1      -4.924  94.766 122.413  0.00  0.00    -0.090 HD
ATOM     21  H   LIG d   1      -4.992  95.979 121.313  0.00  0.00    -0.090 HD
ENDBRANCH   5  18
BRANCH   3  22
ATOM     22  C   LIG d   1      -7.702  94.999 117.632  0.00  0.00     0.382 C 
ATOM     23  O   LIG d   1      -7.491  96.214 117.401  0.00  0.00    -0.241 OA
ATOM     24  O   LIG d   1      -8.717  94.453 117.158  0.00  0.00    -0.241 OA
ENDBRANCH   3  22
TORSDOF 7
ENDMDL
MODEL 5
REMARK VINA RESULT:      -4.1      2.837      4.231
REMARK  7 active torsions:
REMARK  status: ('A' for Active; 'I' for Inactive)
REMARK    1  A    between atoms: C_2  and  C_3 
REMARK    2  A    between atoms: C_3  and  O_6 
REMARK    3  A    between atoms: C_3  and  C_4 
REMARK    4  A    between atoms: C_7  and  O_6 
REMARK    5  A    between atoms: C_9  and  C_10 
REMARK    6  A    between atoms: N_15  and  C_14 
REMARK    7  A    between atoms: N_20  and  C_19 
REMARK       I    between atoms: C_22  and  N_20 
ROOT
ATOM      1  C   LIG d   1      -3.931  91.257 119.026  0.00  0.00     0.161 C 
ATOM      2  C   LIG d   1      -4.948  91.214 118.058  0.00  0.00     0.016 C 
ATOM      3  C   LIG d   1      -5.833  92.288 117.810  0.00  0.00     0.038 C 
ATOM      4  C   LIG d   1      -5.664  93.543 118.415  0.00  0.00     0.028 C 
ATOM      5  C   LIG d   1      -4.963  93.474 119.767  0.00  0.00    -0.047 C 
ATOM      6  C   LIG d   1      -3.660  92.657 119.617  0.00  0.00     0.091 C 
ENDROOT
BRANCH   1   7
ATOM      7  O   LIG d   1      -2.717  90.698 118.485  0.00  0.00    -0.368 OA
BRANCH   7   8
ATOM      8  C   LIG d   1      -2.586  89.258 118.570  0.00  0.00     0.119 C 
BRANCH   8   9
ATOM      9  C   LIG d   1      -2.947  88.844 120.010  0.00  0.00     0.028 C 
ATOM     10  C   LIG d   1      -1.721  88.822 120.938  0.00  0.00     0.006 C 
ENDBRANCH   8   9
BRANCH   8  11
ATOM     11  C   LIG d   1      -1.132  88.818 118.373  0.00  0.00     0.028 C 
ATOM     12  C   LIG d   1      -0.282  89.877 117.655  0.00  0.00     0.006 C 
ENDBRANCH   8  11
ENDBRANCH   7   8
ENDBRANCH   1   7
BRANCH   6  13
ATOM     13  N   LIG d   1      -2.955  92.469 120.912  0.00  0.00    -0.311 N 
ATOM     14  C   LIG d   1      -1.634  92.561 121.047  0.00  0.00     0.210 C 
ATOM     15  C   LIG d   1      -1.110  92.313 122.465  0.00  0.00     0.109 C 
ATOM     16  O   LIG d   1      -0.848  92.856 120.134  0.00  0.00    -0.276 OA
ATOM     17  H   LIG d   1      -3.519  92.258 121.712  0.00  0.00     0.149 HD
ENDBRANCH   6  13
BRANCH   5  18
ATOM     18  N   LIG d   1      -4.729  94.859 120.219  0.00  0.00     0.381 N 
ATOM     19  H   LIG d   1      -4.373  95.406 119.461  0.00  0.00    -0.090 HD
ATOM     20  H   LIG d   1      -4.041  94.850 120.951  0.00  0.00    -0.090 HD
ATOM     21  H   LIG d   1      -5.578  95.256 120.556  0.00  0.00    -0.090 HD
ENDBRANCH   5  18
BRANCH   3  22
ATOM     22  C   LIG d   1      -6.927  92.100 116.979  0.00  0.00     0.382 C 
ATOM     23  O   LIG d   1      -7.474  93.086 116.430  0.00  0.00    -0.241 OA
ATOM     24  O   LIG d   1      -7.401  90.961 116.807  0.00  0.00    -0.241 OA
ENDBRANCH   3  22
TORSDOF 7
ENDMDL
MODEL 6
REMARK VINA RESULT:      -4.0      3.924      5.666
REMARK  7 active torsions:
REMARK  status: ('A' for Active; 'I' for Inactive)
REMARK    1  A    between atoms: C_2  and  C_3 
REMARK    2  A    between atoms: C_3  and  O_6 
REMARK    3  A    between atoms: C_3  and  C_4 
REMARK    4  A    between atoms: C_7  and  O_6 
REMARK    5  A    between atoms: C_9  and  C_10 
REMARK    6  A    between atoms: N_15  and  C_14 
REMARK    7  A    between atoms: N_20  and  C_19 
REMARK       I    between atoms: C_22  and  N_20 
ROOT
ATOM      1  C   LIG d   1      -3.275  89.566 118.594  0.00  0.00     0.161 C 
ATOM      2  C   LIG d   1      -1.966  89.126 118.337  0.00  0.00     0.016 C 
ATOM      3  C   LIG d   1      -0.929  89.982 117.900  0.00  0.00     0.038 C 
ATOM      4  C   LIG d   1      -1.094  91.374 117.835  0.00  0.00     0.028 C 
ATOM      5  C   LIG d   1      -2.539  91.802 117.599  0.00  0.00    -0.047 C 
ATOM      6  C   LIG d   1      -3.446  91.099 118.636  0.00  0.00     0.091 C 
ENDROOT
BRANCH   1   7
ATOM      7  O   LIG d   1      -3.758  88.975 119.817  0.00  0.00    -0.368 OA
BRANCH   7   8
ATOM      8  C   LIG d   1      -2.747  88.466 120.722  0.00  0.00     0.119 C 
BRANCH   8   9
ATOM      9  C   LIG d   1      -3.182  87.053 121.154  0.00  0.00     0.028 C 
ATOM     10  C   LIG d   1      -2.291  85.954 120.550  0.00  0.00     0.006 C 
ENDBRANCH   8   9
BRANCH   8  11
ATOM     11  C   LIG d   1      -2.692  89.287 122.014  0.00  0.00     0.028 C 
ATOM     12  C   LIG d   1      -1.738  90.487 121.917  0.00  0.00     0.006 C 
ENDBRANCH   8  11
ENDBRANCH   7   8
ENDBRANCH   1   7
BRANCH   6  13
ATOM     13  N   LIG d   1      -4.886  91.397 118.423  0.00  0.00    -0.311 N 
ATOM     14  C   LIG d   1      -5.533  92.376 119.052  0.00  0.00     0.210 C 
ATOM     15  C   LIG d   1      -7.019  92.499 118.702  0.00  0.00     0.109 C 
ATOM     16  O   LIG d   1      -5.010  93.175 119.844  0.00  0.00    -0.276 OA
ATOM     17  H   LIG d   1      -5.381  90.817 117.773  0.00  0.00     0.149 HD
ENDBRANCH   6  13
BRANCH   5  18
ATOM     18  N   LIG d   1      -2.589  93.273 117.691  0.00  0.00     0.381 N 
ATOM     19  H   LIG d   1      -2.927  93.655 116.830  0.00  0.00    -0.090 HD
ATOM     20  H   LIG d   1      -1.659  93.621 117.846  0.00  0.00    -0.090 HD
ATOM     21  H   LIG d   1      -3.184  93.548 118.441  0.00  0.00    -0.090 HD
ENDBRANCH   5  18
BRANCH   3  22
ATOM     22  C   LIG d   1       0.279  89.443 117.484  0.00  0.00     0.382 C 
ATOM     23  O   LIG d   1       1.353  90.038 117.740  0.00  0.00    -0.241 OA
ATOM     24  O   LIG d   1       0.304  88.390 116.819  0.00  0.00    -0.241 OA
ENDBRANCH   3  22
TORSDOF 7
ENDMDL
MODEL 7
REMARK VINA RESULT:      -3.9      1.774      2.020
REMARK  7 active torsions:
REMARK  status: ('A' for Active; 'I' for Inactive)
REMARK    1  A    between atoms: C_2  and  C_3 
REMARK    2  A    between atoms: C_3  and  O_6 
REMARK    3  A    between atoms: C_3  and  C_4 
REMARK    4  A    between atoms: C_7  and  O_6 
REMARK    5  A    between atoms: C_9  and  C_10 
REMARK    6  A    between atoms: N_15  and  C_14 
REMARK    7  A    between atoms: N_20  and  C_19 
REMARK       I    between atoms: C_22  and  N_20 
ROOT
ATOM      1  C   LIG d   1      -5.964  92.639 120.142  0.00  0.00     0.161 C 
ATOM      2  C   LIG d   1      -5.132  91.970 119.229  0.00  0.00     0.016 C 
ATOM      3  C   LIG d   1      -5.254  92.097 117.826  0.00  0.00     0.038 C 
ATOM      4  C   LIG d   1      -6.126  93.026 117.239  0.00  0.00     0.028 C 
ATOM      5  C   LIG d   1      -7.336  93.354 118.108  0.00  0.00    -0.047 C 
ATOM      6  C   LIG d   1      -6.848  93.742 119.522  0.00  0.00     0.091 C 
ENDROOT
BRANCH   1   7
ATOM      7  O   LIG d   1      -5.173  93.178 121.220  0.00  0.00    -0.368 OA
BRANCH   7   8
ATOM      8  C   LIG d   1      -3.793  93.486 120.906  0.00  0.00     0.119 C 
BRANCH   8   9
ATOM      9  C   LIG d   1      -2.944  93.117 122.138  0.00  0.00     0.028 C 
ATOM     10  C   LIG d   1      -2.341  94.353 122.826  0.00  0.00     0.006 C 
ENDBRANCH   8   9
BRANCH   8  11
ATOM     11  C   LIG d   1      -3.589  94.992 120.709  0.00  0.00     0.028 C 
ATOM     12  C   LIG d   1      -3.581  95.403 119.228  0.00  0.00     0.006 C 
ENDBRANCH   8  11
ENDBRANCH   7   8
ENDBRANCH   1   7
BRANCH   6  13
ATOM     13  N   LIG d   1      -7.972  93.997 120.460  0.00  0.00    -0.311 N 
ATOM     14  C   LIG d   1      -8.462  95.211 120.704  0.00  0.00     0.210 C 
ATOM     15  C   LIG d   1      -9.608  95.254 121.720  0.00  0.00     0.109 C 
ATOM     16  O   LIG d   1      -8.077  96.253 120.153  0.00  0.00    -0.276 OA
ATOM     17  H   LIG d   1      -8.365  93.204 120.928  0.00  0.00     0.149 HD
ENDBRANCH   6  13
BRANCH   5  18
ATOM     18  N   LIG d   1      -8.086  94.433 117.439  0.00  0.00     0.381 N 
ATOM     19  H   LIG d   1      -9.028  94.451 117.775  0.00  0.00    -0.090 HD
ATOM     20  H   LIG d   1      -8.107  94.250 116.451  0.00  0.00    -0.090 HD
ATOM     21  H   LIG d   1      -7.647  95.311 117.612  0.00  0.00    -0.090 HD
ENDBRANCH   5  18
BRANCH   3  22
ATOM     22  C   LIG d   1      -4.527  91.259 116.994  0.00  0.00     0.382 C 
ATOM     23  O   LIG d   1      -5.092  90.291 116.430  0.00  0.00    -0.241 OA
ATOM     24  O   LIG d   1      -3.304  91.433 116.836  0.00  0.00    -0.241 OA
ENDBRANCH   3  22
TORSDOF 7
ENDMDL
MODEL 8
REMARK VINA RESULT:      -3.9      2.707      4.973
REMARK  7 active torsions:
REMARK  status: ('A' for Active; 'I' for Inactive)
REMARK    1  A    between atoms: C_2  and  C_3 
REMARK    2  A    between atoms: C_3  and  O_6 
REMARK    3  A    between atoms: C_3  and  C_4 
REMARK    4  A    between atoms: C_7  and  O_6 
REMARK    5  A    between atoms: C_9  and  C_10 
REMARK    6  A    between atoms: N_15  and  C_14 
REMARK    7  A    between atoms: N_20  and  C_19 
REMARK       I    between atoms: C_22  and  N_20 
ROOT
ATOM      1  C   LIG d   1      -4.292  93.507 119.323  0.00  0.00     0.161 C 
ATOM      2  C   LIG d   1      -5.281  94.505 119.298  0.00  0.00     0.016 C 
ATOM      3  C   LIG d   1      -6.421  94.450 118.463  0.00  0.00     0.038 C 
ATOM      4  C   LIG d   1      -6.728  93.313 117.702  0.00  0.00     0.028 C 
ATOM      5  C   LIG d   1      -5.502  92.495 117.312  0.00  0.00    -0.047 C 
ATOM      6  C   LIG d   1      -4.667  92.207 118.581  0.00  0.00     0.091 C 
ENDROOT
BRANCH   1   7
ATOM      7  O   LIG d   1      -3.925  93.218 120.686  0.00  0.00    -0.368 OA
BRANCH   7   8
ATOM      8  C   LIG d   1      -4.742  92.238 121.373  0.00  0.00     0.119 C 
BRANCH   8   9
ATOM      9  C   LIG d   1      -5.548  92.984 122.454  0.00  0.00     0.028 C 
ATOM     10  C   LIG d   1      -7.057  93.001 122.154  0.00  0.00     0.006 C 
ENDBRANCH   8   9
BRANCH   8  11
ATOM     11  C   LIG d   1      -3.879  91.228 122.135  0.00  0.00     0.028 C 
ATOM     12  C   LIG d   1      -4.110  91.274 123.654  0.00  0.00     0.006 C 
ENDBRANCH   8  11
ENDBRANCH   7   8
ENDBRANCH   1   7
BRANCH   6  13
ATOM     13  N   LIG d   1      -3.405  91.483 118.277  0.00  0.00    -0.311 N 
ATOM     14  C   LIG d   1      -3.194  90.209 118.603  0.00  0.00     0.210 C 
ATOM     15  C   LIG d   1      -1.817  89.662 118.215  0.00  0.00     0.109 C 
ATOM     16  O   LIG d   1      -4.029  89.471 119.147  0.00  0.00    -0.276 OA
ATOM     17  H   LIG d   1      -2.685  91.998 117.809  0.00  0.00     0.149 HD
ENDBRANCH   6  13
BRANCH   5  18
ATOM     18  N   LIG d   1      -5.977  91.270 116.642  0.00  0.00     0.381 N 
ATOM     19  H   LIG d   1      -5.586  90.465 117.090  0.00  0.00    -0.090 HD
ATOM     20  H   LIG d   1      -5.667  91.281 115.687  0.00  0.00    -0.090 HD
ATOM     21  H   LIG d   1      -6.972  91.227 116.676  0.00  0.00    -0.090 HD
ENDBRANCH   5  18
BRANCH   3  22
ATOM     22  C   LIG d   1      -7.247  95.559 118.355  0.00  0.00     0.382 C 
ATOM     23  O   LIG d   1      -7.718  95.883 117.238  0.00  0.00    -0.241 OA
ATOM     24  O   LIG d   1      -7.491  96.264 119.352  0.00  0.00    -0.241 OA
ENDBRANCH   3  22
TORSDOF 7
ENDMDL
MODEL 9
REMARK VINA RESULT:      -3.9      2.447      4.658
REMARK  7 active torsions:
REMARK  status: ('A' for Active; 'I' for Inactive)
REMARK    1  A    between atoms: C_2  and  C_3 
REMARK    2  A    between atoms: C_3  and  O_6 
REMARK    3  A    between atoms: C_3  and  C_4 
REMARK    4  A    between atoms: C_7  and  O_6 
REMARK    5  A    between atoms: C_9  and  C_10 
REMARK    6  A    between atoms: N_15  and  C_14 
REMARK    7  A    between atoms: N_20  and  C_19 
REMARK       I    between atoms: C_22  and  N_20 
ROOT
ATOM      1  C   LIG d   1      -3.696  93.889 118.440  0.00  0.00     0.161 C 
ATOM      2  C   LIG d   1      -2.680  93.181 119.102  0.00  0.00     0.016 C 
ATOM      3  C   LIG d   1      -2.471  93.243 120.499  0.00  0.00     0.038 C 
ATOM      4  C   LIG d   1      -3.365  93.905 121.353  0.00  0.00     0.028 C 
ATOM      5  C   LIG d   1      -4.114  95.049 120.678  0.00  0.00    -0.047 C 
ATOM      6  C   LIG d   1      -4.750  94.528 119.369  0.00  0.00     0.091 C 
ENDROOT
BRANCH   1   7
ATOM      7  O   LIG d   1      -4.336  93.035 117.470  0.00  0.00    -0.368 OA
BRANCH   7   8
ATOM      8  C   LIG d   1      -5.050  91.892 118.001  0.00  0.00     0.119 C 
BRANCH   8   9
ATOM      9  C   LIG d   1      -4.527  90.640 117.270  0.00  0.00     0.028 C 
ATOM     10  C   LIG d   1      -3.420  89.919 118.059  0.00  0.00     0.006 C 
ENDBRANCH   8   9
BRANCH   8  11
ATOM     11  C   LIG d   1      -6.543  91.962 117.667  0.00  0.00     0.028 C 
ATOM     12  C   LIG d   1      -6.836  92.829 116.432  0.00  0.00     0.006 C 
ENDBRANCH   8  11
ENDBRANCH   7   8
ENDBRANCH   1   7
BRANCH   6  13
ATOM     13  N   LIG d   1      -5.431  95.604 118.603  0.00  0.00    -0.311 N 
ATOM     14  C   LIG d   1      -6.742  95.834 118.669  0.00  0.00     0.210 C 
ATOM     15  C   LIG d   1      -7.243  96.979 117.783  0.00  0.00     0.109 C 
ATOM     16  O   LIG d   1      -7.531  95.219 119.401  0.00  0.00    -0.276 OA
ATOM     17  H   LIG d   1      -4.861  96.172 118.007  0.00  0.00     0.149 HD
ENDBRANCH   6  13
BRANCH   5  18
ATOM     18  N   LIG d   1      -5.108  95.560 121.640  0.00  0.00     0.381 N 
ATOM     19  H   LIG d   1      -5.979  95.084 121.512  0.00  0.00    -0.090 HD
ATOM     20  H   LIG d   1      -5.255  96.539 121.467  0.00  0.00    -0.090 HD
ATOM     21  H   LIG d   1      -4.781  95.426 122.572  0.00  0.00    -0.090 HD
ENDBRANCH   5  18
BRANCH   3  22
ATOM     22  C   LIG d   1      -1.334  92.672 121.049  0.00  0.00     0.382 C 
ATOM     23  O   LIG d   1      -0.260  92.663 120.401  0.00  0.00    -0.241 OA
ATOM     24  O   LIG d   1      -1.380  92.125 122.168  0.00  0.00    -0.241 OA
ENDBRANCH   3  22
TORSDOF 7
ENDMDL
