MODEL 1
REMARK VINA RESULT:      -4.6      0.000      0.000
REMARK  7 active torsions:
REMARK  status: ('A' for Active; 'I' for Inactive)
REMARK    1  A    between atoms: C_2  and  C_3 
REMARK    2  A    between atoms: C_3  and  O_6 
REMARK    3  A    between atoms: C_3  and  C_4 
REMARK    4  A    between atoms: C_7  and  O_6 
REMARK    5  A    between atoms: C_9  and  C_10 
REMARK    6  A    between atoms: N_15  and  C_14 
REMARK    7  A    between atoms: N_20  and  C_19 
REMARK       I    between atoms: C_22  and  N_20 
ROOT
ATOM      1  C   LIG d   1      -5.168  93.030 119.524  0.00  0.00     0.161 C 
ATOM      2  C   LIG d   1      -5.240  91.959 118.618  0.00  0.00     0.016 C 
ATOM      3  C   LIG d   1      -6.188  91.887 117.571  0.00  0.00     0.038 C 
ATOM      4  C   LIG d   1      -7.037  92.961 117.265  0.00  0.00     0.028 C 
ATOM      5  C   LIG d   1      -7.343  93.853 118.464  0.00  0.00    -0.047 C 
ATOM      6  C   LIG d   1      -6.013  94.262 119.137  0.00  0.00     0.091 C 
ENDROOT
BRANCH   1   7
ATOM      7  O   LIG d   1      -3.792  93.410 119.724  0.00  0.00    -0.368 OA
BRANCH   7   8
ATOM      8  C   LIG d   1      -3.248  94.359 118.774  0.00  0.00     0.119 C 
BRANCH   8   9
ATOM      9  C   LIG d   1      -2.189  93.618 117.935  0.00  0.00     0.028 C 
ATOM     10  C   LIG d   1      -1.018  94.530 117.530  0.00  0.00     0.006 C 
ENDBRANCH   8   9
BRANCH   8  11
ATOM     11  C   LIG d   1      -2.489  95.484 119.484  0.00  0.00     0.028 C 
ATOM     12  C   LIG d   1      -2.621  95.419 121.013  0.00  0.00     0.006 C 
ENDBRANCH   8  11
ENDBRANCH   7   8
ENDBRANCH   1   7
BRANCH   6  13
ATOM     13  N   LIG d   1      -6.226  95.066 120.369  0.00  0.00    -0.311 N 
ATOM     14  C   LIG d   1      -6.193  96.398 120.390  0.00  0.00     0.210 C 
ATOM     15  C   LIG d   1      -6.417  97.028 121.768  0.00  0.00     0.109 C 
ATOM     16  O   LIG d   1      -6.031  97.117 119.393  0.00  0.00    -0.276 OA
ATOM     17  H   LIG d   1      -6.395  94.564 121.218  0.00  0.00     0.149 HD
ENDBRANCH   6  13
BRANCH   5  18
ATOM     18  N   LIG d   1      -8.123  95.005 117.975  0.00  0.00     0.381 N 
ATOM     19  H   LIG d   1      -9.096  94.772 117.955  0.00  0.00    -0.090 HD
ATOM     20  H   LIG d   1      -7.831  95.221 117.038  0.00  0.00    -0.090 HD
ATOM     21  H   LIG d   1      -7.975  95.793 118.567  0.00  0.00    -0.090 HD
ENDBRANCH   5  18
BRANCH   3  22
ATOM     22  C   LIG d   1      -6.320  90.715 116.843  0.00  0.00     0.382 C 
ATOM     23  O   LIG d   1      -7.459  90.232 116.635  0.00  0.00    -0.241 OA
ATOM     24  O   LIG d   1      -5.313  90.111 116.430  0.00  0.00    -0.241 OA
ENDBRANCH   3  22
TORSDOF 7
ENDMDL
MODEL 2
REMARK VINA RESULT:      -4.5      0.987      1.545
REMARK  7 active torsions:
REMARK  status: ('A' for Active; 'I' for Inactive)
REMARK    1  A    between atoms: C_2  and  C_3 
REMARK    2  A    between atoms: C_3  and  O_6 
REMARK    3  A    between atoms: C_3  and  C_4 
REMARK    4  A    between atoms: C_7  and  O_6 
REMARK    5  A    between atoms: C_9  and  C_10 
REMARK    6  A    between atoms: N_15  and  C_14 
REMARK    7  A    between atoms: N_20  and  C_19 
REMARK       I    between atoms: C_22  and  N_20 
ROOT
ATOM      1  C   LIG d   1      -5.191  93.527 119.096  0.00  0.00     0.161 C 
ATOM      2  C   LIG d   1      -5.193  92.385 118.278  0.00  0.00     0.016 C 
ATOM      3  C   LIG d   1      -6.254  92.055 117.404  0.00  0.00     0.038 C 
ATOM      4  C   LIG d   1      -7.326  92.930 117.176  0.00  0.00     0.028 C 
ATOM      5  C   LIG d   1      -7.614  93.855 118.354  0.00  0.00    -0.047 C 
ATOM      6  C   LIG d   1      -6.301  94.551 118.778  0.00  0.00     0.091 C 
ENDROOT
BRANCH   1   7
ATOM      7  O   LIG d   1      -3.897  94.160 119.048  0.00  0.00    -0.368 OA
BRANCH   7   8
ATOM      8  C   LIG d   1      -2.803  93.339 118.570  0.00  0.00     0.119 C 
BRANCH   8   9
ATOM      9  C   LIG d   1      -1.882  93.049 119.771  0.00  0.00     0.028 C 
ATOM     10  C   LIG d   1      -2.039  91.613 120.297  0.00  0.00     0.006 C 
ENDBRANCH   8   9
BRANCH   8  11
ATOM     11  C   LIG d   1      -1.933  94.100 117.566  0.00  0.00     0.028 C 
ATOM     12  C   LIG d   1      -0.448  94.125 117.962  0.00  0.00     0.006 C 
ENDBRANCH   8  11
ENDBRANCH   7   8
ENDBRANCH   1   7
BRANCH   6  13
ATOM     13  N   LIG d   1      -6.476  95.410 119.978  0.00  0.00    -0.311 N 
ATOM     14  C   LIG d   1      -6.201  96.713 119.994  0.00  0.00     0.210 C 
ATOM     15  C   LIG d   1      -6.434  97.407 121.340  0.00  0.00     0.109 C 
ATOM     16  O   LIG d   1      -5.816  97.366 119.013  0.00  0.00    -0.276 OA
ATOM     17  H   LIG d   1      -6.814  94.968 120.810  0.00  0.00     0.149 HD
ENDBRANCH   6  13
BRANCH   5  18
ATOM     18  N   LIG d   1      -8.661  94.804 117.930  0.00  0.00     0.381 N 
ATOM     19  H   LIG d   1      -8.516  95.689 118.375  0.00  0.00    -0.090 HD
ATOM     20  H   LIG d   1      -9.556  94.450 118.216  0.00  0.00    -0.090 HD
ATOM     21  H   LIG d   1      -8.640  94.915 116.940  0.00  0.00    -0.090 HD
ENDBRANCH   5  18
BRANCH   3  22
ATOM     22  C   LIG d   1      -6.269  90.818 116.778  0.00  0.00     0.382 C 
ATOM     23  O   LIG d   1      -7.361  90.243 116.551  0.00  0.00    -0.241 OA
ATOM     24  O   LIG d   1      -5.203  90.249 116.476  0.00  0.00    -0.241 OA
ENDBRANCH   3  22
TORSDOF 7
ENDMDL
MODEL 3
REMARK VINA RESULT:      -4.4      2.629      4.731
REMARK  7 active torsions:
REMARK  status: ('A' for Active; 'I' for Inactive)
REMARK    1  A    between atoms: C_2  and  C_3 
REMARK    2  A    between atoms: C_3  and  O_6 
REMARK    3  A    between atoms: C_3  and  C_4 
REMARK    4  A    between atoms: C_7  and  O_6 
REMARK    5  A    between atoms: C_9  and  C_10 
REMARK    6  A    between atoms: N_15  and  C_14 
REMARK    7  A    between atoms: N_20  and  C_19 
REMARK       I    between atoms: C_22  and  N_20 
ROOT
ATOM      1  C   LIG d   1      -5.597  94.548 120.274  0.00  0.00     0.161 C 
ATOM      2  C   LIG d   1      -6.951  94.634 120.639  0.00  0.00     0.016 C 
ATOM      3  C   LIG d   1      -8.015  94.316 119.763  0.00  0.00     0.038 C 
ATOM      4  C   LIG d   1      -7.791  93.743 118.502  0.00  0.00     0.028 C 
ATOM      5  C   LIG d   1      -6.439  94.110 117.901  0.00  0.00    -0.047 C 
ATOM      6  C   LIG d   1      -5.332  93.819 118.940  0.00  0.00     0.091 C 
ENDROOT
BRANCH   1   7
ATOM      7  O   LIG d   1      -4.842  93.936 121.339  0.00  0.00    -0.368 OA
BRANCH   7   8
ATOM      8  C   LIG d   1      -4.982  92.501 121.476  0.00  0.00     0.119 C 
BRANCH   8   9
ATOM      9  C   LIG d   1      -5.417  92.215 122.927  0.00  0.00     0.028 C 
ATOM     10  C   LIG d   1      -6.884  91.764 123.022  0.00  0.00     0.006 C 
ENDBRANCH   8   9
BRANCH   8  11
ATOM     11  C   LIG d   1      -3.636  91.791 121.309  0.00  0.00     0.028 C 
ATOM     12  C   LIG d   1      -2.438  92.738 121.481  0.00  0.00     0.006 C 
ENDBRANCH   8  11
ENDBRANCH   7   8
ENDBRANCH   1   7
BRANCH   6  13
ATOM     13  N   LIG d   1      -3.985  94.229 118.464  0.00  0.00    -0.311 N 
ATOM     14  C   LIG d   1      -3.122  93.389 117.895  0.00  0.00     0.210 C 
ATOM     15  C   LIG d   1      -1.781  94.013 117.495  0.00  0.00     0.109 C 
ATOM     16  O   LIG d   1      -3.351  92.194 117.654  0.00  0.00    -0.276 OA
ATOM     17  H   LIG d   1      -3.728  95.188 118.592  0.00  0.00     0.149 HD
ENDBRANCH   6  13
BRANCH   5  18
ATOM     18  N   LIG d   1      -6.280  93.337 116.655  0.00  0.00     0.381 N 
ATOM     19  H   LIG d   1      -6.166  93.961 115.882  0.00  0.00    -0.090 HD
ATOM     20  H   LIG d   1      -7.111  92.793 116.502  0.00  0.00    -0.090 HD
ATOM     21  H   LIG d   1      -5.489  92.736 116.726  0.00  0.00    -0.090 HD
ENDBRANCH   5  18
BRANCH   3  22
ATOM     22  C   LIG d   1      -9.319  94.610 120.131  0.00  0.00     0.382 C 
ATOM     23  O   LIG d   1     -10.261  93.882 119.735  0.00  0.00    -0.241 OA
ATOM     24  O   LIG d   1      -9.570  95.618 120.818  0.00  0.00    -0.241 OA
ENDBRANCH   3  22
TORSDOF 7
ENDMDL
MODEL 4
REMARK VINA RESULT:      -4.4      3.032      4.883
REMARK  7 active torsions:
REMARK  status: ('A' for Active; 'I' for Inactive)
REMARK    1  A    between atoms: C_2  and  C_3 
REMARK    2  A    between atoms: C_3  and  O_6 
REMARK    3  A    between atoms: C_3  and  C_4 
REMARK    4  A    between atoms: C_7  and  O_6 
REMARK    5  A    between atoms: C_9  and  C_10 
REMARK    6  A    between atoms: N_15  and  C_14 
REMARK    7  A    between atoms: N_20  and  C_19 
REMARK       I    between atoms: C_22  and  N_20 
ROOT
ATOM      1  C   LIG d   1      -3.124  93.179 118.315  0.00  0.00     0.161 C 
ATOM      2  C   LIG d   1      -4.367  93.808 118.493  0.00  0.00     0.016 C 
ATOM      3  C   LIG d   1      -5.593  93.244 118.068  0.00  0.00     0.038 C 
ATOM      4  C   LIG d   1      -5.673  91.935 117.570  0.00  0.00     0.028 C 
ATOM      5  C   LIG d   1      -4.385  91.459 116.907  0.00  0.00    -0.047 C 
ATOM      6  C   LIG d   1      -3.203  91.702 117.874  0.00  0.00     0.091 C 
ENDROOT
BRANCH   1   7
ATOM      7  O   LIG d   1      -2.338  93.301 119.517  0.00  0.00    -0.368 OA
BRANCH   7   8
ATOM      8  C   LIG d   1      -1.368  94.377 119.538  0.00  0.00     0.119 C 
BRANCH   8   9
ATOM      9  C   LIG d   1      -0.909  94.614 118.087  0.00  0.00     0.028 C 
ATOM     10  C   LIG d   1      -0.987  96.095 117.681  0.00  0.00     0.006 C 
ENDBRANCH   8   9
BRANCH   8  11
ATOM     11  C   LIG d   1      -0.104  93.972 120.303  0.00  0.00     0.028 C 
ATOM     12  C   LIG d   1       0.996  93.417 119.384  0.00  0.00     0.006 C 
ENDBRANCH   8  11
ENDBRANCH   7   8
ENDBRANCH   1   7
BRANCH   6  13
ATOM     13  N   LIG d   1      -1.894  91.342 117.270  0.00  0.00    -0.311 N 
ATOM     14  C   LIG d   1      -0.959  90.642 117.911  0.00  0.00     0.210 C 
ATOM     15  C   LIG d   1       0.326  90.398 117.114  0.00  0.00     0.109 C 
ATOM     16  O   LIG d   1      -1.085  90.173 119.052  0.00  0.00    -0.276 OA
ATOM     17  H   LIG d   1      -1.720  91.656 116.336  0.00  0.00     0.149 HD
ENDBRANCH   6  13
BRANCH   5  18
ATOM     18  N   LIG d   1      -4.562  90.037 116.557  0.00  0.00     0.381 N 
ATOM     19  H   LIG d   1      -4.791  89.513 117.378  0.00  0.00    -0.090 HD
ATOM     20  H   LIG d   1      -3.698  89.683 116.188  0.00  0.00    -0.090 HD
ATOM     21  H   LIG d   1      -5.286  89.941 115.880  0.00  0.00    -0.090 HD
ENDBRANCH   5  18
BRANCH   3  22
ATOM     22  C   LIG d   1      -6.750  94.007 118.104  0.00  0.00     0.382 C 
ATOM     23  O   LIG d   1      -7.848  93.497 117.776  0.00  0.00    -0.241 OA
ATOM     24  O   LIG d   1      -6.702  95.212 118.418  0.00  0.00    -0.241 OA
ENDBRANCH   3  22
TORSDOF 7
ENDMDL
MODEL 5
REMARK VINA RESULT:      -4.4      3.365      4.869
REMARK  7 active torsions:
REMARK  status: ('A' for Active; 'I' for Inactive)
REMARK    1  A    between atoms: C_2  and  C_3 
REMARK    2  A    between atoms: C_3  and  O_6 
REMARK    3  A    between atoms: C_3  and  C_4 
REMARK    4  A    between atoms: C_7  and  O_6 
REMARK    5  A    between atoms: C_9  and  C_10 
REMARK    6  A    between atoms: N_15  and  C_14 
REMARK    7  A    between atoms: N_20  and  C_19 
REMARK       I    between atoms: C_22  and  N_20 
ROOT
ATOM      1  C   LIG d   1      -2.741  91.271 118.355  0.00  0.00     0.161 C 
ATOM      2  C   LIG d   1      -3.979  90.922 117.789  0.00  0.00     0.016 C 
ATOM      3  C   LIG d   1      -4.999  91.860 117.508  0.00  0.00     0.038 C 
ATOM      4  C   LIG d   1      -4.791  93.242 117.636  0.00  0.00     0.028 C 
ATOM      5  C   LIG d   1      -3.737  93.602 118.679  0.00  0.00    -0.047 C 
ATOM      6  C   LIG d   1      -2.454  92.787 118.398  0.00  0.00     0.091 C 
ENDROOT
BRANCH   1   7
ATOM      7  O   LIG d   1      -1.678  90.579 117.670  0.00  0.00    -0.368 OA
BRANCH   7   8
ATOM      8  C   LIG d   1      -0.920  89.633 118.462  0.00  0.00     0.119 C 
BRANCH   8   9
ATOM      9  C   LIG d   1       0.552  89.728 118.015  0.00  0.00     0.028 C 
ATOM     10  C   LIG d   1       0.748  90.716 116.852  0.00  0.00     0.006 C 
ENDBRANCH   8   9
BRANCH   8  11
ATOM     11  C   LIG d   1      -1.342  88.191 118.162  0.00  0.00     0.028 C 
ATOM     12  C   LIG d   1      -2.154  87.558 119.303  0.00  0.00     0.006 C 
ENDBRANCH   8  11
ENDBRANCH   7   8
ENDBRANCH   1   7
BRANCH   6  13
ATOM     13  N   LIG d   1      -1.402  93.016 119.422  0.00  0.00    -0.311 N 
ATOM     14  C   LIG d   1      -0.222  93.571 119.148  0.00  0.00     0.210 C 
ATOM     15  C   LIG d   1       0.726  93.697 120.345  0.00  0.00     0.109 C 
ATOM     16  O   LIG d   1       0.117  93.999 118.035  0.00  0.00    -0.276 OA
ATOM     17  H   LIG d   1      -1.605  92.727 120.358  0.00  0.00     0.149 HD
ENDBRANCH   6  13
BRANCH   5  18
ATOM     18  N   LIG d   1      -3.523  95.060 118.610  0.00  0.00     0.381 N 
ATOM     19  H   LIG d   1      -2.915  95.348 119.351  0.00  0.00    -0.090 HD
ATOM     20  H   LIG d   1      -4.406  95.524 118.729  0.00  0.00    -0.090 HD
ATOM     21  H   LIG d   1      -3.125  95.305 117.730  0.00  0.00    -0.090 HD
ENDBRANCH   5  18
BRANCH   3  22
ATOM     22  C   LIG d   1      -6.257  91.416 117.132  0.00  0.00     0.382 C 
ATOM     23  O   LIG d   1      -6.429  90.213 116.819  0.00  0.00    -0.241 OA
ATOM     24  O   LIG d   1      -7.213  92.212 117.060  0.00  0.00    -0.241 OA
ENDBRANCH   3  22
TORSDOF 7
ENDMDL
MODEL 6
REMARK VINA RESULT:      -4.2      2.854      4.724
REMARK  7 active torsions:
REMARK  status: ('A' for Active; 'I' for Inactive)
REMARK    1  A    between atoms: C_2  and  C_3 
REMARK    2  A    between atoms: C_3  and  O_6 
REMARK    3  A    between atoms: C_3  and  C_4 
REMARK    4  A    between atoms: C_7  and  O_6 
REMARK    5  A    between atoms: C_9  and  C_10 
REMARK    6  A    between atoms: N_15  and  C_14 
REMARK    7  A    between atoms: N_20  and  C_19 
REMARK       I    between atoms: C_22  and  N_20 
ROOT
ATOM      1  C   LIG d   1      -3.368  93.275 117.772  0.00  0.00     0.161 C 
ATOM      2  C   LIG d   1      -4.725  92.987 117.550  0.00  0.00     0.016 C 
ATOM      3  C   LIG d   1      -5.243  91.672 117.500  0.00  0.00     0.038 C 
ATOM      4  C   LIG d   1      -4.459  90.554 117.821  0.00  0.00     0.028 C 
ATOM      5  C   LIG d   1      -2.971  90.760 117.555  0.00  0.00    -0.047 C 
ATOM      6  C   LIG d   1      -2.518  92.073 118.234  0.00  0.00     0.091 C 
ENDROOT
BRANCH   1   7
ATOM      7  O   LIG d   1      -3.247  94.364 118.708  0.00  0.00    -0.368 OA
BRANCH   7   8
ATOM      8  C   LIG d   1      -3.502  94.041 120.097  0.00  0.00     0.119 C 
BRANCH   8   9
ATOM      9  C   LIG d   1      -4.633  94.967 120.588  0.00  0.00     0.028 C 
ATOM     10  C   LIG d   1      -4.909  96.123 119.613  0.00  0.00     0.006 C 
ENDBRANCH   8   9
BRANCH   8  11
ATOM     11  C   LIG d   1      -2.294  94.375 120.978  0.00  0.00     0.028 C 
ATOM     12  C   LIG d   1      -1.280  95.292 120.276  0.00  0.00     0.006 C 
ENDBRANCH   8  11
ENDBRANCH   7   8
ENDBRANCH   1   7
BRANCH   6  13
ATOM     13  N   LIG d   1      -1.095  92.395 117.953  0.00  0.00    -0.311 N 
ATOM     14  C   LIG d   1      -0.097  92.093 118.782  0.00  0.00     0.210 C 
ATOM     15  C   LIG d   1       1.292  92.531 118.310  0.00  0.00     0.109 C 
ATOM     16  O   LIG d   1      -0.228  91.474 119.849  0.00  0.00    -0.276 OA
ATOM     17  H   LIG d   1      -0.895  92.869 117.094  0.00  0.00     0.149 HD
ENDBRANCH   6  13
BRANCH   5  18
ATOM     18  N   LIG d   1      -2.259  89.572 118.061  0.00  0.00     0.381 N 
ATOM     19  H   LIG d   1      -1.673  89.197 117.342  0.00  0.00    -0.090 HD
ATOM     20  H   LIG d   1      -2.933  88.872 118.316  0.00  0.00    -0.090 HD
ATOM     21  H   LIG d   1      -1.708  89.817 118.854  0.00  0.00    -0.090 HD
ENDBRANCH   5  18
BRANCH   3  22
ATOM     22  C   LIG d   1      -6.550  91.463 117.087  0.00  0.00     0.382 C 
ATOM     23  O   LIG d   1      -6.940  90.305 116.804  0.00  0.00    -0.241 OA
ATOM     24  O   LIG d   1      -7.330  92.424 116.951  0.00  0.00    -0.241 OA
ENDBRANCH   3  22
TORSDOF 7
ENDMDL
MODEL 7
REMARK VINA RESULT:      -4.2      2.169      2.809
REMARK  7 active torsions:
REMARK  status: ('A' for Active; 'I' for Inactive)
REMARK    1  A    between atoms: C_2  and  C_3 
REMARK    2  A    between atoms: C_3  and  O_6 
REMARK    3  A    between atoms: C_3  and  C_4 
REMARK    4  A    between atoms: C_7  and  O_6 
REMARK    5  A    between atoms: C_9  and  C_10 
REMARK    6  A    between atoms: N_15  and  C_14 
REMARK    7  A    between atoms: N_20  and  C_19 
REMARK       I    between atoms: C_22  and  N_20 
ROOT
ATOM      1  C   LIG d   1      -4.558  92.494 119.876  0.00  0.00     0.161 C 
ATOM      2  C   LIG d   1      -3.543  91.597 119.501  0.00  0.00     0.016 C 
ATOM      3  C   LIG d   1      -3.636  90.743 118.377  0.00  0.00     0.038 C 
ATOM      4  C   LIG d   1      -4.692  90.837 117.459  0.00  0.00     0.028 C 
ATOM      5  C   LIG d   1      -5.981  91.375 118.072  0.00  0.00    -0.047 C 
ATOM      6  C   LIG d   1      -5.669  92.689 118.823  0.00  0.00     0.091 C 
ENDROOT
BRANCH   1   7
ATOM      7  O   LIG d   1      -3.979  93.763 120.235  0.00  0.00    -0.368 OA
BRANCH   7   8
ATOM      8  C   LIG d   1      -3.768  94.699 119.149  0.00  0.00     0.119 C 
BRANCH   8   9
ATOM      9  C   LIG d   1      -2.248  94.898 118.997  0.00  0.00     0.028 C 
ATOM     10  C   LIG d   1      -1.704  94.289 117.693  0.00  0.00     0.006 C 
ENDBRANCH   8   9
BRANCH   8  11
ATOM     11  C   LIG d   1      -4.327  96.084 119.490  0.00  0.00     0.028 C 
ATOM     12  C   LIG d   1      -4.966  96.141 120.886  0.00  0.00     0.006 C 
ENDBRANCH   8  11
ENDBRANCH   7   8
ENDBRANCH   1   7
BRANCH   6  13
ATOM     13  N   LIG d   1      -6.860  93.238 119.524  0.00  0.00    -0.311 N 
ATOM     14  C   LIG d   1      -7.608  94.225 119.033  0.00  0.00     0.210 C 
ATOM     15  C   LIG d   1      -8.778  94.654 119.925  0.00  0.00     0.109 C 
ATOM     16  O   LIG d   1      -7.434  94.764 117.930  0.00  0.00    -0.276 OA
ATOM     17  H   LIG d   1      -7.092  92.838 120.411  0.00  0.00     0.149 HD
ENDBRANCH   6  13
BRANCH   5  18
ATOM     18  N   LIG d   1      -6.955  91.551 116.979  0.00  0.00     0.381 N 
ATOM     19  H   LIG d   1      -7.874  91.325 117.303  0.00  0.00    -0.090 HD
ATOM     20  H   LIG d   1      -6.721  90.922 116.231  0.00  0.00    -0.090 HD
ATOM     21  H   LIG d   1      -6.933  92.492 116.651  0.00  0.00    -0.090 HD
ENDBRANCH   5  18
BRANCH   3  22
ATOM     22  C   LIG d   1      -2.683  89.754 118.185  0.00  0.00     0.382 C 
ATOM     23  O   LIG d   1      -2.997  88.547 118.314  0.00  0.00    -0.241 OA
ATOM     24  O   LIG d   1      -1.502  90.057 117.930  0.00  0.00    -0.241 OA
ENDBRANCH   3  22
TORSDOF 7
ENDMDL
MODEL 8
REMARK VINA RESULT:      -4.2      3.584      5.088
REMARK  7 active torsions:
REMARK  status: ('A' for Active; 'I' for Inactive)
REMARK    1  A    between atoms: C_2  and  C_3 
REMARK    2  A    between atoms: C_3  and  O_6 
REMARK    3  A    between atoms: C_3  and  C_4 
REMARK    4  A    between atoms: C_7  and  O_6 
REMARK    5  A    between atoms: C_9  and  C_10 
REMARK    6  A    between atoms: N_15  and  C_14 
REMARK    7  A    between atoms: N_20  and  C_19 
REMARK       I    between atoms: C_22  and  N_20 
ROOT
ATOM      1  C   LIG d   1      -3.130  91.394 119.632  0.00  0.00     0.161 C 
ATOM      2  C   LIG d   1      -4.350  91.093 119.004  0.00  0.00     0.016 C 
ATOM      3  C   LIG d   1      -4.823  91.773 117.858  0.00  0.00     0.038 C 
ATOM      4  C   LIG d   1      -4.032  92.703 117.169  0.00  0.00     0.028 C 
ATOM      5  C   LIG d   1      -3.004  93.400 118.055  0.00  0.00    -0.047 C 
ATOM      6  C   LIG d   1      -2.202  92.329 118.829  0.00  0.00     0.091 C 
ENDROOT
BRANCH   1   7
ATOM      7  O   LIG d   1      -2.440  90.173 119.969  0.00  0.00    -0.368 OA
BRANCH   7   8
ATOM      8  C   LIG d   1      -1.630  89.589 118.920  0.00  0.00     0.119 C 
BRANCH   8   9
ATOM      9  C   LIG d   1      -2.228  88.209 118.587  0.00  0.00     0.028 C 
ATOM     10  C   LIG d   1      -2.577  87.400 119.848  0.00  0.00     0.006 C 
ENDBRANCH   8   9
BRANCH   8  11
ATOM     11  C   LIG d   1      -0.206  89.306 119.409  0.00  0.00     0.028 C 
ATOM     12  C   LIG d   1       0.025  89.750 120.862  0.00  0.00     0.006 C 
ENDBRANCH   8  11
ENDBRANCH   7   8
ENDBRANCH   1   7
BRANCH   6  13
ATOM     13  N   LIG d   1      -1.232  92.928 119.783  0.00  0.00    -0.311 N 
ATOM     14  C   LIG d   1       0.039  93.180 119.475  0.00  0.00     0.210 C 
ATOM     15  C   LIG d   1       0.873  93.780 120.610  0.00  0.00     0.109 C 
ATOM     16  O   LIG d   1       0.546  92.993 118.358  0.00  0.00    -0.276 OA
ATOM     17  H   LIG d   1      -1.568  93.140 120.702  0.00  0.00     0.149 HD
ENDBRANCH   6  13
BRANCH   5  18
ATOM     18  N   LIG d   1      -2.159  94.238 117.183  0.00  0.00     0.381 N 
ATOM     19  H   LIG d   1      -2.569  94.300 116.273  0.00  0.00    -0.090 HD
ATOM     20  H   LIG d   1      -1.256  93.806 117.094  0.00  0.00    -0.090 HD
ATOM     21  H   LIG d   1      -2.063  95.148 117.575  0.00  0.00    -0.090 HD
ENDBRANCH   5  18
BRANCH   3  22
ATOM     22  C   LIG d   1      -6.118  91.552 117.414  0.00  0.00     0.382 C 
ATOM     23  O   LIG d   1      -6.957  92.484 117.441  0.00  0.00    -0.241 OA
ATOM     24  O   LIG d   1      -6.469  90.421 117.029  0.00  0.00    -0.241 OA
ENDBRANCH   3  22
TORSDOF 7
ENDMDL
MODEL 9
REMARK VINA RESULT:      -4.2      5.620      8.026
REMARK  7 active torsions:
REMARK  status: ('A' for Active; 'I' for Inactive)
REMARK    1  A    between atoms: C_2  and  C_3 
REMARK    2  A    between atoms: C_3  and  O_6 
REMARK    3  A    between atoms: C_3  and  C_4 
REMARK    4  A    between atoms: C_7  and  O_6 
REMARK    5  A    between atoms: C_9  and  C_10 
REMARK    6  A    between atoms: N_15  and  C_14 
REMARK    7  A    between atoms: N_20  and  C_19 
REMARK       I    between atoms: C_22  and  N_20 
ROOT
ATOM      1  C   LIG d   1       0.116  89.746 117.812  0.00  0.00     0.161 C 
ATOM      2  C   LIG d   1       1.515  89.869 117.833  0.00  0.00     0.016 C 
ATOM      3  C   LIG d   1       2.191  91.099 117.660  0.00  0.00     0.038 C 
ATOM      4  C   LIG d   1       1.504  92.321 117.605  0.00  0.00     0.028 C 
ATOM      5  C   LIG d   1       0.080  92.193 117.074  0.00  0.00    -0.047 C 
ATOM      6  C   LIG d   1      -0.652  91.084 117.865  0.00  0.00     0.091 C 
ENDROOT
BRANCH   1   7
ATOM      7  O   LIG d   1      -0.314  88.879 118.880  0.00  0.00    -0.368 OA
BRANCH   7   8
ATOM      8  C   LIG d   1      -1.124  87.742 118.491  0.00  0.00     0.119 C 
BRANCH   8   9
ATOM      9  C   LIG d   1      -2.439  87.815 119.291  0.00  0.00     0.028 C 
ATOM     10  C   LIG d   1      -2.485  86.791 120.438  0.00  0.00     0.006 C 
ENDBRANCH   8   9
BRANCH   8  11
ATOM     11  C   LIG d   1      -0.468  86.423 118.909  0.00  0.00     0.028 C 
ATOM     12  C   LIG d   1       0.716  86.035 118.009  0.00  0.00     0.006 C 
ENDBRANCH   8  11
ENDBRANCH   7   8
ENDBRANCH   1   7
BRANCH   6  13
ATOM     13  N   LIG d   1      -2.025  90.835 117.353  0.00  0.00    -0.311 N 
ATOM     14  C   LIG d   1      -3.113  91.409 117.864  0.00  0.00     0.210 C 
ATOM     15  C   LIG d   1      -4.431  90.999 117.201  0.00  0.00     0.109 C 
ATOM     16  O   LIG d   1      -3.108  92.242 118.782  0.00  0.00    -0.276 OA
ATOM     17  H   LIG d   1      -2.117  90.196 116.588  0.00  0.00     0.149 HD
ENDBRANCH   6  13
BRANCH   5  18
ATOM     18  N   LIG d   1      -0.563  93.514 117.201  0.00  0.00     0.381 N 
ATOM     19  H   LIG d   1       0.135  94.230 117.216  0.00  0.00    -0.090 HD
ATOM     20  H   LIG d   1      -1.069  93.547 118.069  0.00  0.00    -0.090 HD
ATOM     21  H   LIG d   1      -1.187  93.664 116.439  0.00  0.00    -0.090 HD
ENDBRANCH   5  18
BRANCH   3  22
ATOM     22  C   LIG d   1       3.568  91.110 117.500  0.00  0.00     0.382 C 
ATOM     23  O   LIG d   1       4.113  92.010 116.817  0.00  0.00    -0.241 OA
ATOM     24  O   LIG d   1       4.268  90.205 117.993  0.00  0.00    -0.241 OA
ENDBRANCH   3  22
TORSDOF 7
ENDMDL
