MODEL 1
REMARK VINA RESULT:      -4.6      0.000      0.000
REMARK  7 active torsions:
REMARK  status: ('A' for Active; 'I' for Inactive)
REMARK    1  A    between atoms: C_2  and  C_3 
REMARK    2  A    between atoms: C_3  and  O_6 
REMARK    3  A    between atoms: C_3  and  C_4 
REMARK    4  A    between atoms: C_7  and  O_6 
REMARK    5  A    between atoms: C_9  and  C_10 
REMARK    6  A    between atoms: N_15  and  C_14 
REMARK    7  A    between atoms: N_20  and  C_19 
REMARK       I    between atoms: C_22  and  N_20 
ROOT
ATOM      1  C   LIG d   1       0.262  90.475 116.817  0.00  0.00     0.161 C 
ATOM      2  C   LIG d   1       1.537  91.028 117.026  0.00  0.00     0.016 C 
ATOM      3  C   LIG d   1       1.758  92.216 117.759  0.00  0.00     0.038 C 
ATOM      4  C   LIG d   1       0.728  92.855 118.466  0.00  0.00     0.028 C 
ATOM      5  C   LIG d   1      -0.654  92.616 117.868  0.00  0.00    -0.047 C 
ATOM      6  C   LIG d   1      -0.861  91.096 117.674  0.00  0.00     0.091 C 
ENDROOT
BRANCH   1   7
ATOM      7  O   LIG d   1       0.311  89.048 117.014  0.00  0.00    -0.368 OA
BRANCH   7   8
ATOM      8  C   LIG d   1       0.243  88.591 118.387  0.00  0.00     0.119 C 
BRANCH   8   9
ATOM      9  C   LIG d   1       1.512  87.762 118.663  0.00  0.00     0.028 C 
ATOM     10  C   LIG d   1       2.196  87.288 117.370  0.00  0.00     0.006 C 
ENDBRANCH   8   9
BRANCH   8  11
ATOM     11  C   LIG d   1      -0.926  87.623 118.595  0.00  0.00     0.028 C 
ATOM     12  C   LIG d   1      -1.587  87.194 117.275  0.00  0.00     0.006 C 
ENDBRANCH   8  11
ENDBRANCH   7   8
ENDBRANCH   1   7
BRANCH   6  13
ATOM     13  N   LIG d   1      -2.155  90.780 117.015  0.00  0.00    -0.311 N 
ATOM     14  C   LIG d   1      -3.274  90.513 117.688  0.00  0.00     0.210 C 
ATOM     15  C   LIG d   1      -4.492  90.193 116.816  0.00  0.00     0.109 C 
ATOM     16  O   LIG d   1      -3.380  90.543 118.923  0.00  0.00    -0.276 OA
ATOM     17  H   LIG d   1      -2.166  90.765 116.014  0.00  0.00     0.149 HD
ENDBRANCH   6  13
BRANCH   5  18
ATOM     18  N   LIG d   1      -1.644  93.222 118.779  0.00  0.00     0.381 N 
ATOM     19  H   LIG d   1      -1.352  93.098 119.728  0.00  0.00    -0.090 HD
ATOM     20  H   LIG d   1      -2.526  92.756 118.657  0.00  0.00    -0.090 HD
ATOM     21  H   LIG d   1      -1.743  94.193 118.578  0.00  0.00    -0.090 HD
ENDBRANCH   5  18
BRANCH   3  22
ATOM     22  C   LIG d   1       3.016  92.800 117.758  0.00  0.00     0.382 C 
ATOM     23  O   LIG d   1       3.836  92.520 116.851  0.00  0.00    -0.241 OA
ATOM     24  O   LIG d   1       3.357  93.570 118.676  0.00  0.00    -0.241 OA
ENDBRANCH   3  22
TORSDOF 7
ENDMDL
MODEL 2
REMARK VINA RESULT:      -4.2      1.953      2.570
REMARK  7 active torsions:
REMARK  status: ('A' for Active; 'I' for Inactive)
REMARK    1  A    between atoms: C_2  and  C_3 
REMARK    2  A    between atoms: C_3  and  O_6 
REMARK    3  A    between atoms: C_3  and  C_4 
REMARK    4  A    between atoms: C_7  and  O_6 
REMARK    5  A    between atoms: C_9  and  C_10 
REMARK    6  A    between atoms: N_15  and  C_14 
REMARK    7  A    between atoms: N_20  and  C_19 
REMARK       I    between atoms: C_22  and  N_20 
ROOT
ATOM      1  C   LIG d   1      -1.167  91.589 117.627  0.00  0.00     0.161 C 
ATOM      2  C   LIG d   1       0.176  91.838 117.956  0.00  0.00     0.016 C 
ATOM      3  C   LIG d   1       0.635  93.072 118.470  0.00  0.00     0.038 C 
ATOM      4  C   LIG d   1      -0.249  94.098 118.835  0.00  0.00     0.028 C 
ATOM      5  C   LIG d   1      -1.557  94.078 118.051  0.00  0.00    -0.047 C 
ATOM      6  C   LIG d   1      -2.163  92.658 118.123  0.00  0.00     0.091 C 
ENDROOT
BRANCH   1   7
ATOM      7  O   LIG d   1      -1.554  90.285 118.105  0.00  0.00    -0.368 OA
BRANCH   7   8
ATOM      8  C   LIG d   1      -0.742  89.730 119.169  0.00  0.00     0.119 C 
BRANCH   8   9
ATOM      9  C   LIG d   1      -0.400  88.278 118.781  0.00  0.00     0.028 C 
ATOM     10  C   LIG d   1      -1.570  87.566 118.082  0.00  0.00     0.006 C 
ENDBRANCH   8   9
BRANCH   8  11
ATOM     11  C   LIG d   1      -1.534  89.624 120.476  0.00  0.00     0.028 C 
ATOM     12  C   LIG d   1      -1.473  90.910 121.315  0.00  0.00     0.006 C 
ENDBRANCH   8  11
ENDBRANCH   7   8
ENDBRANCH   1   7
BRANCH   6  13
ATOM     13  N   LIG d   1      -3.402  92.529 117.311  0.00  0.00    -0.311 N 
ATOM     14  C   LIG d   1      -4.624  92.729 117.803  0.00  0.00     0.210 C 
ATOM     15  C   LIG d   1      -5.764  92.525 116.801  0.00  0.00     0.109 C 
ATOM     16  O   LIG d   1      -4.869  93.087 118.964  0.00  0.00    -0.276 OA
ATOM     17  H   LIG d   1      -3.293  92.272 116.350  0.00  0.00     0.149 HD
ENDBRANCH   6  13
BRANCH   5  18
ATOM     18  N   LIG d   1      -2.437  95.113 118.626  0.00  0.00     0.381 N 
ATOM     19  H   LIG d   1      -3.248  95.225 118.051  0.00  0.00    -0.090 HD
ATOM     20  H   LIG d   1      -1.941  95.987 118.647  0.00  0.00    -0.090 HD
ATOM     21  H   LIG d   1      -2.708  94.855 119.549  0.00  0.00    -0.090 HD
ENDBRANCH   5  18
BRANCH   3  22
ATOM     22  C   LIG d   1       1.997  93.303 118.587  0.00  0.00     0.382 C 
ATOM     23  O   LIG d   1       2.450  93.881 119.604  0.00  0.00    -0.241 OA
ATOM     24  O   LIG d   1       2.774  92.982 117.667  0.00  0.00    -0.241 OA
ENDBRANCH   3  22
TORSDOF 7
ENDMDL
MODEL 3
REMARK VINA RESULT:      -4.2      1.755      2.882
REMARK  7 active torsions:
REMARK  status: ('A' for Active; 'I' for Inactive)
REMARK    1  A    between atoms: C_2  and  C_3 
REMARK    2  A    between atoms: C_3  and  O_6 
REMARK    3  A    between atoms: C_3  and  C_4 
REMARK    4  A    between atoms: C_7  and  O_6 
REMARK    5  A    between atoms: C_9  and  C_10 
REMARK    6  A    between atoms: N_15  and  C_14 
REMARK    7  A    between atoms: N_20  and  C_19 
REMARK       I    between atoms: C_22  and  N_20 
ROOT
ATOM      1  C   LIG d   1      -0.222  91.772 118.060  0.00  0.00     0.161 C 
ATOM      2  C   LIG d   1       1.103  91.730 117.593  0.00  0.00     0.016 C 
ATOM      3  C   LIG d   1       2.072  92.708 117.913  0.00  0.00     0.038 C 
ATOM      4  C   LIG d   1       1.822  93.720 118.852  0.00  0.00     0.028 C 
ATOM      5  C   LIG d   1       0.348  94.094 118.961  0.00  0.00    -0.047 C 
ATOM      6  C   LIG d   1      -0.482  92.807 119.174  0.00  0.00     0.091 C 
ENDROOT
BRANCH   1   7
ATOM      7  O   LIG d   1      -0.629  90.458 118.492  0.00  0.00    -0.368 OA
BRANCH   7   8
ATOM      8  C   LIG d   1      -1.401  89.685 117.540  0.00  0.00     0.119 C 
BRANCH   8   9
ATOM      9  C   LIG d   1      -2.864  89.684 118.023  0.00  0.00     0.028 C 
ATOM     10  C   LIG d   1      -3.769  90.575 117.156  0.00  0.00     0.006 C 
ENDBRANCH   8   9
BRANCH   8  11
ATOM     11  C   LIG d   1      -0.972  88.215 117.539  0.00  0.00     0.028 C 
ATOM     12  C   LIG d   1      -1.670  87.390 118.633  0.00  0.00     0.006 C 
ENDBRANCH   8  11
ENDBRANCH   7   8
ENDBRANCH   1   7
BRANCH   6  13
ATOM     13  N   LIG d   1      -1.944  93.074 119.207  0.00  0.00    -0.311 N 
ATOM     14  C   LIG d   1      -2.738  92.683 120.202  0.00  0.00     0.210 C 
ATOM     15  C   LIG d   1      -4.217  93.043 120.029  0.00  0.00     0.109 C 
ATOM     16  O   LIG d   1      -2.353  92.101 121.227  0.00  0.00    -0.276 OA
ATOM     17  H   LIG d   1      -2.335  93.569 118.429  0.00  0.00     0.149 HD
ENDBRANCH   6  13
BRANCH   5  18
ATOM     18  N   LIG d   1       0.213  95.059 120.069  0.00  0.00     0.381 N 
ATOM     19  H   LIG d   1       0.347  94.591 120.943  0.00  0.00    -0.090 HD
ATOM     20  H   LIG d   1      -0.715  95.443 120.055  0.00  0.00    -0.090 HD
ATOM     21  H   LIG d   1       0.884  95.789 119.969  0.00  0.00    -0.090 HD
ENDBRANCH   5  18
BRANCH   3  22
ATOM     22  C   LIG d   1       3.296  92.702 117.261  0.00  0.00     0.382 C 
ATOM     23  O   LIG d   1       3.971  93.757 117.185  0.00  0.00    -0.241 OA
ATOM     24  O   LIG d   1       3.712  91.666 116.709  0.00  0.00    -0.241 OA
ENDBRANCH   3  22
TORSDOF 7
ENDMDL
MODEL 4
REMARK VINA RESULT:      -4.1      1.799      4.796
REMARK  7 active torsions:
REMARK  status: ('A' for Active; 'I' for Inactive)
REMARK    1  A    between atoms: C_2  and  C_3 
REMARK    2  A    between atoms: C_3  and  O_6 
REMARK    3  A    between atoms: C_3  and  C_4 
REMARK    4  A    between atoms: C_7  and  O_6 
REMARK    5  A    between atoms: C_9  and  C_10 
REMARK    6  A    between atoms: N_15  and  C_14 
REMARK    7  A    between atoms: N_20  and  C_19 
REMARK       I    between atoms: C_22  and  N_20 
ROOT
ATOM      1  C   LIG d   1      -0.677  90.921 118.040  0.00  0.00     0.161 C 
ATOM      2  C   LIG d   1      -2.052  91.106 117.818  0.00  0.00     0.016 C 
ATOM      3  C   LIG d   1      -2.677  92.374 117.823  0.00  0.00     0.038 C 
ATOM      4  C   LIG d   1      -1.939  93.564 117.902  0.00  0.00     0.028 C 
ATOM      5  C   LIG d   1      -0.610  93.405 118.632  0.00  0.00    -0.047 C 
ATOM      6  C   LIG d   1       0.162  92.215 118.017  0.00  0.00     0.091 C 
ENDROOT
BRANCH   1   7
ATOM      7  O   LIG d   1      -0.154  89.967 117.095  0.00  0.00    -0.368 OA
BRANCH   7   8
ATOM      8  C   LIG d   1       0.409  88.756 117.656  0.00  0.00     0.119 C 
BRANCH   8   9
ATOM      9  C   LIG d   1      -0.397  87.568 117.094  0.00  0.00     0.028 C 
ATOM     10  C   LIG d   1      -1.686  87.304 117.891  0.00  0.00     0.006 C 
ENDBRANCH   8   9
BRANCH   8  11
ATOM     11  C   LIG d   1       0.209  88.699 119.174  0.00  0.00     0.028 C 
ATOM     12  C   LIG d   1       1.522  88.477 119.940  0.00  0.00     0.006 C 
ENDBRANCH   8  11
ENDBRANCH   7   8
ENDBRANCH   1   7
BRANCH   6  13
ATOM     13  N   LIG d   1       1.437  91.938 118.728  0.00  0.00    -0.311 N 
ATOM     14  C   LIG d   1       2.624  91.915 118.124  0.00  0.00     0.210 C 
ATOM     15  C   LIG d   1       3.809  91.589 119.039  0.00  0.00     0.109 C 
ATOM     16  O   LIG d   1       2.811  92.166 116.924  0.00  0.00    -0.276 OA
ATOM     17  H   LIG d   1       1.380  91.755 119.711  0.00  0.00     0.149 HD
ENDBRANCH   6  13
BRANCH   5  18
ATOM     18  N   LIG d   1       0.116  94.685 118.520  0.00  0.00     0.381 N 
ATOM     19  H   LIG d   1      -0.355  95.389 119.052  0.00  0.00    -0.090 HD
ATOM     20  H   LIG d   1       0.124  94.970 117.556  0.00  0.00    -0.090 HD
ATOM     21  H   LIG d   1       1.050  94.577 118.850  0.00  0.00    -0.090 HD
ENDBRANCH   5  18
BRANCH   3  22
ATOM     22  C   LIG d   1      -4.061  92.458 117.789  0.00  0.00     0.382 C 
ATOM     23  O   LIG d   1      -4.679  92.195 116.730  0.00  0.00    -0.241 OA
ATOM     24  O   LIG d   1      -4.695  92.837 118.792  0.00  0.00    -0.241 OA
ENDBRANCH   3  22
TORSDOF 7
ENDMDL
MODEL 5
REMARK VINA RESULT:      -4.0      3.965      6.844
REMARK  7 active torsions:
REMARK  status: ('A' for Active; 'I' for Inactive)
REMARK    1  A    between atoms: C_2  and  C_3 
REMARK    2  A    between atoms: C_3  and  O_6 
REMARK    3  A    between atoms: C_3  and  C_4 
REMARK    4  A    between atoms: C_7  and  O_6 
REMARK    5  A    between atoms: C_9  and  C_10 
REMARK    6  A    between atoms: N_15  and  C_14 
REMARK    7  A    between atoms: N_20  and  C_19 
REMARK       I    between atoms: C_22  and  N_20 
ROOT
ATOM      1  C   LIG d   1      -3.874  93.408 119.355  0.00  0.00     0.161 C 
ATOM      2  C   LIG d   1      -5.229  93.533 119.005  0.00  0.00     0.016 C 
ATOM      3  C   LIG d   1      -5.943  94.751 119.081  0.00  0.00     0.038 C 
ATOM      4  C   LIG d   1      -5.306  95.967 119.371  0.00  0.00     0.028 C 
ATOM      5  C   LIG d   1      -4.051  95.805 120.221  0.00  0.00    -0.047 C 
ATOM      6  C   LIG d   1      -3.135  94.746 119.567  0.00  0.00     0.091 C 
ENDROOT
BRANCH   1   7
ATOM      7  O   LIG d   1      -3.188  92.607 118.373  0.00  0.00    -0.368 OA
BRANCH   7   8
ATOM      8  C   LIG d   1      -3.099  91.189 118.657  0.00  0.00     0.119 C 
BRANCH   8   9
ATOM      9  C   LIG d   1      -1.652  90.894 119.096  0.00  0.00     0.028 C 
ATOM     10  C   LIG d   1      -1.523  90.728 120.619  0.00  0.00     0.006 C 
ENDBRANCH   8   9
BRANCH   8  11
ATOM     11  C   LIG d   1      -3.318  90.353 117.392  0.00  0.00     0.028 C 
ATOM     12  C   LIG d   1      -4.751  90.460 116.847  0.00  0.00     0.006 C 
ENDBRANCH   8  11
ENDBRANCH   7   8
ENDBRANCH   1   7
BRANCH   6  13
ATOM     13  N   LIG d   1      -1.922  94.466 120.379  0.00  0.00    -0.311 N 
ATOM     14  C   LIG d   1      -0.692  94.429 119.871  0.00  0.00     0.210 C 
ATOM     15  C   LIG d   1       0.415  94.103 120.879  0.00  0.00     0.109 C 
ATOM     16  O   LIG d   1      -0.408  94.668 118.687  0.00  0.00    -0.276 OA
ATOM     17  H   LIG d   1      -2.057  94.291 121.356  0.00  0.00     0.149 HD
ENDBRANCH   6  13
BRANCH   5  18
ATOM     18  N   LIG d   1      -3.414  97.131 120.331  0.00  0.00     0.381 N 
ATOM     19  H   LIG d   1      -4.039  97.771 120.779  0.00  0.00    -0.090 HD
ATOM     20  H   LIG d   1      -3.218  97.476 119.408  0.00  0.00    -0.090 HD
ATOM     21  H   LIG d   1      -2.568  97.061 120.854  0.00  0.00    -0.090 HD
ENDBRANCH   5  18
BRANCH   3  22
ATOM     22  C   LIG d   1      -7.318  94.753 118.905  0.00  0.00     0.382 C 
ATOM     23  O   LIG d   1      -7.970  95.813 119.069  0.00  0.00    -0.241 OA
ATOM     24  O   LIG d   1      -7.921  93.699 118.627  0.00  0.00    -0.241 OA
ENDBRANCH   3  22
TORSDOF 7
ENDMDL
MODEL 6
REMARK VINA RESULT:      -3.9      2.825      5.663
REMARK  7 active torsions:
REMARK  status: ('A' for Active; 'I' for Inactive)
REMARK    1  A    between atoms: C_2  and  C_3 
REMARK    2  A    between atoms: C_3  and  O_6 
REMARK    3  A    between atoms: C_3  and  C_4 
REMARK    4  A    between atoms: C_7  and  O_6 
REMARK    5  A    between atoms: C_9  and  C_10 
REMARK    6  A    between atoms: N_15  and  C_14 
REMARK    7  A    between atoms: N_20  and  C_19 
REMARK       I    between atoms: C_22  and  N_20 
ROOT
ATOM      1  C   LIG d   1      -1.771  92.428 118.837  0.00  0.00     0.161 C 
ATOM      2  C   LIG d   1      -2.325  91.363 118.108  0.00  0.00     0.016 C 
ATOM      3  C   LIG d   1      -3.667  91.338 117.666  0.00  0.00     0.038 C 
ATOM      4  C   LIG d   1      -4.511  92.451 117.793  0.00  0.00     0.028 C 
ATOM      5  C   LIG d   1      -4.149  93.354 118.968  0.00  0.00    -0.047 C 
ATOM      6  C   LIG d   1      -2.644  93.699 118.890  0.00  0.00     0.091 C 
ENDROOT
BRANCH   1   7
ATOM      7  O   LIG d   1      -0.460  92.741 118.326  0.00  0.00    -0.368 OA
BRANCH   7   8
ATOM      8  C   LIG d   1       0.573  91.757 118.575  0.00  0.00     0.119 C 
BRANCH   8   9
ATOM      9  C   LIG d   1       1.620  92.409 119.500  0.00  0.00     0.028 C 
ATOM     10  C   LIG d   1       1.443  93.933 119.604  0.00  0.00     0.006 C 
ENDBRANCH   8   9
BRANCH   8  11
ATOM     11  C   LIG d   1       1.330  91.406 117.291  0.00  0.00     0.028 C 
ATOM     12  C   LIG d   1       0.881  90.069 116.681  0.00  0.00     0.006 C 
ENDBRANCH   8  11
ENDBRANCH   7   8
ENDBRANCH   1   7
BRANCH   6  13
ATOM     13  N   LIG d   1      -2.188  94.510 120.049  0.00  0.00    -0.311 N 
ATOM     14  C   LIG d   1      -2.088  95.838 120.020  0.00  0.00     0.210 C 
ATOM     15  C   LIG d   1      -1.579  96.477 121.316  0.00  0.00     0.109 C 
ATOM     16  O   LIG d   1      -2.404  96.550 119.055  0.00  0.00    -0.276 OA
ATOM     17  H   LIG d   1      -1.941  94.015 120.883  0.00  0.00     0.149 HD
ENDBRANCH   6  13
BRANCH   5  18
ATOM     18  N   LIG d   1      -5.019  94.543 118.901  0.00  0.00     0.381 N 
ATOM     19  H   LIG d   1      -5.319  94.795 119.821  0.00  0.00    -0.090 HD
ATOM     20  H   LIG d   1      -5.832  94.320 118.354  0.00  0.00    -0.090 HD
ATOM     21  H   LIG d   1      -4.527  95.303 118.485  0.00  0.00    -0.090 HD
ENDBRANCH   5  18
BRANCH   3  22
ATOM     22  C   LIG d   1      -4.190  90.174 117.123  0.00  0.00     0.382 C 
ATOM     23  O   LIG d   1      -5.338  90.179 116.616  0.00  0.00    -0.241 OA
ATOM     24  O   LIG d   1      -3.547  89.108 117.173  0.00  0.00    -0.241 OA
ENDBRANCH   3  22
TORSDOF 7
ENDMDL
MODEL 7
REMARK VINA RESULT:      -3.8      2.229      5.215
REMARK  7 active torsions:
REMARK  status: ('A' for Active; 'I' for Inactive)
REMARK    1  A    between atoms: C_2  and  C_3 
REMARK    2  A    between atoms: C_3  and  O_6 
REMARK    3  A    between atoms: C_3  and  C_4 
REMARK    4  A    between atoms: C_7  and  O_6 
REMARK    5  A    between atoms: C_9  and  C_10 
REMARK    6  A    between atoms: N_15  and  C_14 
REMARK    7  A    between atoms: N_20  and  C_19 
REMARK       I    between atoms: C_22  and  N_20 
ROOT
ATOM      1  C   LIG d   1      -1.596  90.921 118.249  0.00  0.00     0.161 C 
ATOM      2  C   LIG d   1      -2.695  90.406 117.542  0.00  0.00     0.016 C 
ATOM      3  C   LIG d   1      -3.885  91.134 117.314  0.00  0.00     0.038 C 
ATOM      4  C   LIG d   1      -4.000  92.491 117.652  0.00  0.00     0.028 C 
ATOM      5  C   LIG d   1      -3.106  92.903 118.816  0.00  0.00    -0.047 C 
ATOM      6  C   LIG d   1      -1.660  92.437 118.528  0.00  0.00     0.091 C 
ENDROOT
BRANCH   1   7
ATOM      7  O   LIG d   1      -0.374  90.589 117.562  0.00  0.00    -0.368 OA
BRANCH   7   8
ATOM      8  C   LIG d   1       0.429  89.541 118.160  0.00  0.00     0.119 C 
BRANCH   8   9
ATOM      9  C   LIG d   1      -0.310  89.055 119.422  0.00  0.00     0.028 C 
ATOM     10  C   LIG d   1      -0.693  87.568 119.343  0.00  0.00     0.006 C 
ENDBRANCH   8   9
BRANCH   8  11
ATOM     11  C   LIG d   1       1.772  90.083 118.659  0.00  0.00     0.028 C 
ATOM     12  C   LIG d   1       1.881  90.083 120.192  0.00  0.00     0.006 C 
ENDBRANCH   8  11
ENDBRANCH   7   8
ENDBRANCH   1   7
BRANCH   6  13
ATOM     13  N   LIG d   1      -0.736  92.726 119.656  0.00  0.00    -0.311 N 
ATOM     14  C   LIG d   1       0.277  93.586 119.571  0.00  0.00     0.210 C 
ATOM     15  C   LIG d   1       1.119  93.721 120.844  0.00  0.00     0.109 C 
ATOM     16  O   LIG d   1       0.540  94.274 118.573  0.00  0.00    -0.276 OA
ATOM     17  H   LIG d   1      -0.896  92.235 120.514  0.00  0.00     0.149 HD
ENDBRANCH   6  13
BRANCH   5  18
ATOM     18  N   LIG d   1      -3.221  94.366 118.971  0.00  0.00     0.381 N 
ATOM     19  H   LIG d   1      -3.873  94.727 118.303  0.00  0.00    -0.090 HD
ATOM     20  H   LIG d   1      -2.325  94.783 118.794  0.00  0.00    -0.090 HD
ATOM     21  H   LIG d   1      -3.523  94.588 119.894  0.00  0.00    -0.090 HD
ENDBRANCH   5  18
BRANCH   3  22
ATOM     22  C   LIG d   1      -4.992  90.493 116.779  0.00  0.00     0.382 C 
ATOM     23  O   LIG d   1      -4.972  89.251 116.601  0.00  0.00    -0.241 OA
ATOM     24  O   LIG d   1      -5.993  91.146 116.430  0.00  0.00    -0.241 OA
ENDBRANCH   3  22
TORSDOF 7
ENDMDL
MODEL 8
REMARK VINA RESULT:      -3.7      2.803      3.771
REMARK  7 active torsions:
REMARK  status: ('A' for Active; 'I' for Inactive)
REMARK    1  A    between atoms: C_2  and  C_3 
REMARK    2  A    between atoms: C_3  and  O_6 
REMARK    3  A    between atoms: C_3  and  C_4 
REMARK    4  A    between atoms: C_7  and  O_6 
REMARK    5  A    between atoms: C_9  and  C_10 
REMARK    6  A    between atoms: N_15  and  C_14 
REMARK    7  A    between atoms: N_20  and  C_19 
REMARK       I    between atoms: C_22  and  N_20 
ROOT
ATOM      1  C   LIG d   1      -2.469  92.873 118.059  0.00  0.00     0.161 C 
ATOM      2  C   LIG d   1      -1.071  92.877 118.197  0.00  0.00     0.016 C 
ATOM      3  C   LIG d   1      -0.377  93.740 119.076  0.00  0.00     0.038 C 
ATOM      4  C   LIG d   1      -1.050  94.560 119.994  0.00  0.00     0.028 C 
ATOM      5  C   LIG d   1      -2.451  94.956 119.539  0.00  0.00    -0.047 C 
ATOM      6  C   LIG d   1      -3.226  93.682 119.133  0.00  0.00     0.091 C 
ENDROOT
BRANCH   1   7
ATOM      7  O   LIG d   1      -2.952  91.516 118.020  0.00  0.00    -0.368 OA
BRANCH   7   8
ATOM      8  C   LIG d   1      -2.140  90.530 118.704  0.00  0.00     0.119 C 
BRANCH   8   9
ATOM      9  C   LIG d   1      -2.447  89.159 118.071  0.00  0.00     0.028 C 
ATOM     10  C   LIG d   1      -1.544  88.043 118.623  0.00  0.00     0.006 C 
ENDBRANCH   8   9
BRANCH   8  11
ATOM     11  C   LIG d   1      -2.544  90.398 120.175  0.00  0.00     0.028 C 
ATOM     12  C   LIG d   1      -1.398  90.738 121.141  0.00  0.00     0.006 C 
ENDBRANCH   8  11
ENDBRANCH   7   8
ENDBRANCH   1   7
BRANCH   6  13
ATOM     13  N   LIG d   1      -4.578  93.988 118.596  0.00  0.00    -0.311 N 
ATOM     14  C   LIG d   1      -5.686  93.946 119.332  0.00  0.00     0.210 C 
ATOM     15  C   LIG d   1      -6.977  94.277 118.577  0.00  0.00     0.109 C 
ATOM     16  O   LIG d   1      -5.719  93.697 120.547  0.00  0.00    -0.276 OA
ATOM     17  H   LIG d   1      -4.639  94.230 117.626  0.00  0.00     0.149 HD
ENDBRANCH   6  13
BRANCH   5  18
ATOM     18  N   LIG d   1      -3.088  95.692 120.648  0.00  0.00     0.381 N 
ATOM     19  H   LIG d   1      -2.394  96.198 121.161  0.00  0.00    -0.090 HD
ATOM     20  H   LIG d   1      -3.522  95.032 121.269  0.00  0.00    -0.090 HD
ATOM     21  H   LIG d   1      -3.772  96.322 120.290  0.00  0.00    -0.090 HD
ENDBRANCH   5  18
BRANCH   3  22
ATOM     22  C   LIG d   1       1.006  93.818 119.014  0.00  0.00     0.382 C 
ATOM     23  O   LIG d   1       1.624  93.258 118.077  0.00  0.00    -0.241 OA
ATOM     24  O   LIG d   1       1.646  94.405 119.907  0.00  0.00    -0.241 OA
ENDBRANCH   3  22
TORSDOF 7
ENDMDL
MODEL 9
REMARK VINA RESULT:      -3.6      2.803      5.374
REMARK  7 active torsions:
REMARK  status: ('A' for Active; 'I' for Inactive)
REMARK    1  A    between atoms: C_2  and  C_3 
REMARK    2  A    between atoms: C_3  and  O_6 
REMARK    3  A    between atoms: C_3  and  C_4 
REMARK    4  A    between atoms: C_7  and  O_6 
REMARK    5  A    between atoms: C_9  and  C_10 
REMARK    6  A    between atoms: N_15  and  C_14 
REMARK    7  A    between atoms: N_20  and  C_19 
REMARK       I    between atoms: C_22  and  N_20 
ROOT
ATOM      1  C   LIG d   1      -2.250  91.941 119.806  0.00  0.00     0.161 C 
ATOM      2  C   LIG d   1      -1.293  91.167 119.128  0.00  0.00     0.016 C 
ATOM      3  C   LIG d   1      -1.588  90.395 117.980  0.00  0.00     0.038 C 
ATOM      4  C   LIG d   1      -2.834  90.466 117.339  0.00  0.00     0.028 C 
ATOM      5  C   LIG d   1      -3.977  90.842 118.276  0.00  0.00    -0.047 C 
ATOM      6  C   LIG d   1      -3.587  92.118 119.057  0.00  0.00     0.091 C 
ENDROOT
BRANCH   1   7
ATOM      7  O   LIG d   1      -1.689  93.226 120.141  0.00  0.00    -0.368 OA
BRANCH   7   8
ATOM      8  C   LIG d   1      -0.987  93.912 119.076  0.00  0.00     0.119 C 
BRANCH   8   9
ATOM      9  C   LIG d   1       0.421  94.259 119.599  0.00  0.00     0.028 C 
ATOM     10  C   LIG d   1       1.534  93.589 118.775  0.00  0.00     0.006 C 
ENDBRANCH   8   9
BRANCH   8  11
ATOM     11  C   LIG d   1      -1.642  95.258 118.753  0.00  0.00     0.028 C 
ATOM     12  C   LIG d   1      -2.365  95.874 119.962  0.00  0.00     0.006 C 
ENDBRANCH   8  11
ENDBRANCH   7   8
ENDBRANCH   1   7
BRANCH   6  13
ATOM     13  N   LIG d   1      -4.615  92.507 120.057  0.00  0.00    -0.311 N 
ATOM     14  C   LIG d   1      -5.393  93.580 119.929  0.00  0.00     0.210 C 
ATOM     15  C   LIG d   1      -6.373  93.810 121.085  0.00  0.00     0.109 C 
ATOM     16  O   LIG d   1      -5.388  94.345 118.953  0.00  0.00    -0.276 OA
ATOM     17  H   LIG d   1      -4.708  91.924 120.865  0.00  0.00     0.149 HD
ENDBRANCH   6  13
BRANCH   5  18
ATOM     18  N   LIG d   1      -5.189  91.014 117.454  0.00  0.00     0.381 N 
ATOM     19  H   LIG d   1      -5.239  91.955 117.117  0.00  0.00    -0.090 HD
ATOM     20  H   LIG d   1      -5.997  90.842 118.026  0.00  0.00    -0.090 HD
ATOM     21  H   LIG d   1      -5.174  90.379 116.687  0.00  0.00    -0.090 HD
ENDBRANCH   5  18
BRANCH   3  22
ATOM     22  C   LIG d   1      -0.642  89.511 117.485  0.00  0.00     0.382 C 
ATOM     23  O   LIG d   1      -0.864  88.276 117.512  0.00  0.00    -0.241 OA
ATOM     24  O   LIG d   1       0.449  89.929 117.053  0.00  0.00    -0.241 OA
ENDBRANCH   3  22
TORSDOF 7
ENDMDL
