MODEL 1
REMARK VINA RESULT:      -4.7      0.000      0.000
REMARK  7 active torsions:
REMARK  status: ('A' for Active; 'I' for Inactive)
REMARK    1  A    between atoms: C_2  and  C_3 
REMARK    2  A    between atoms: C_3  and  O_6 
REMARK    3  A    between atoms: C_3  and  C_4 
REMARK    4  A    between atoms: C_7  and  O_6 
REMARK    5  A    between atoms: C_9  and  C_10 
REMARK    6  A    between atoms: N_15  and  C_14 
REMARK    7  A    between atoms: N_20  and  C_19 
REMARK       I    between atoms: C_22  and  N_20 
ROOT
ATOM      1  C   LIG d   1      -4.645  93.134 119.475  0.00  0.00     0.161 C 
ATOM      2  C   LIG d   1      -3.760  92.160 118.981  0.00  0.00     0.016 C 
ATOM      3  C   LIG d   1      -3.937  91.505 117.741  0.00  0.00     0.038 C 
ATOM      4  C   LIG d   1      -4.936  91.890 116.835  0.00  0.00     0.028 C 
ATOM      5  C   LIG d   1      -6.153  92.518 117.507  0.00  0.00    -0.047 C 
ATOM      6  C   LIG d   1      -5.679  93.646 118.451  0.00  0.00     0.091 C 
ENDROOT
BRANCH   1   7
ATOM      7  O   LIG d   1      -3.899  94.236 120.029  0.00  0.00    -0.368 OA
BRANCH   7   8
ATOM      8  C   LIG d   1      -3.444  95.236 119.084  0.00  0.00     0.119 C 
BRANCH   8   9
ATOM      9  C   LIG d   1      -1.905  95.169 119.044  0.00  0.00     0.028 C 
ATOM     10  C   LIG d   1      -1.364  94.950 117.621  0.00  0.00     0.006 C 
ENDBRANCH   8   9
BRANCH   8  11
ATOM     11  C   LIG d   1      -3.776  96.651 119.568  0.00  0.00     0.028 C 
ATOM     12  C   LIG d   1      -4.551  96.660 120.895  0.00  0.00     0.006 C 
ENDBRANCH   8  11
ENDBRANCH   7   8
ENDBRANCH   1   7
BRANCH   6  13
ATOM     13  N   LIG d   1      -6.800  94.258 119.211  0.00  0.00    -0.311 N 
ATOM     14  C   LIG d   1      -7.380  95.406 118.865  0.00  0.00     0.210 C 
ATOM     15  C   LIG d   1      -8.504  95.869 119.798  0.00  0.00     0.109 C 
ATOM     16  O   LIG d   1      -7.092  96.068 117.857  0.00  0.00    -0.276 OA
ATOM     17  H   LIG d   1      -7.117  93.771 120.026  0.00  0.00     0.149 HD
ENDBRANCH   6  13
BRANCH   5  18
ATOM     18  N   LIG d   1      -7.053  92.997 116.440  0.00  0.00     0.381 N 
ATOM     19  H   LIG d   1      -7.346  92.227 115.873  0.00  0.00    -0.090 HD
ATOM     20  H   LIG d   1      -6.551  93.645 115.858  0.00  0.00    -0.090 HD
ATOM     21  H   LIG d   1      -7.848  93.445 116.840  0.00  0.00    -0.090 HD
ENDBRANCH   5  18
BRANCH   3  22
ATOM     22  C   LIG d   1      -3.133  90.424 117.414  0.00  0.00     0.382 C 
ATOM     23  O   LIG d   1      -1.991  90.315 117.924  0.00  0.00    -0.241 OA
ATOM     24  O   LIG d   1      -3.516  89.580 116.582  0.00  0.00    -0.241 OA
ENDBRANCH   3  22
TORSDOF 7
ENDMDL
MODEL 2
REMARK VINA RESULT:      -4.2      3.254      5.742
REMARK  7 active torsions:
REMARK  status: ('A' for Active; 'I' for Inactive)
REMARK    1  A    between atoms: C_2  and  C_3 
REMARK    2  A    between atoms: C_3  and  O_6 
REMARK    3  A    between atoms: C_3  and  C_4 
REMARK    4  A    between atoms: C_7  and  O_6 
REMARK    5  A    between atoms: C_9  and  C_10 
REMARK    6  A    between atoms: N_15  and  C_14 
REMARK    7  A    between atoms: N_20  and  C_19 
REMARK       I    between atoms: C_22  and  N_20 
ROOT
ATOM      1  C   LIG d   1      -1.446  91.616 117.998  0.00  0.00     0.161 C 
ATOM      2  C   LIG d   1      -0.082  91.765 118.302  0.00  0.00     0.016 C 
ATOM      3  C   LIG d   1       0.560  93.021 118.400  0.00  0.00     0.038 C 
ATOM      4  C   LIG d   1      -0.155  94.226 118.351  0.00  0.00     0.028 C 
ATOM      5  C   LIG d   1      -1.446  94.131 117.545  0.00  0.00    -0.047 C 
ATOM      6  C   LIG d   1      -2.266  92.922 118.051  0.00  0.00     0.091 C 
ENDROOT
BRANCH   1   7
ATOM      7  O   LIG d   1      -2.033  90.621 118.861  0.00  0.00    -0.368 OA
BRANCH   7   8
ATOM      8  C   LIG d   1      -1.252  89.418 119.068  0.00  0.00     0.119 C 
BRANCH   8   9
ATOM      9  C   LIG d   1      -1.616  88.431 117.943  0.00  0.00     0.028 C 
ATOM     10  C   LIG d   1      -0.424  88.130 117.019  0.00  0.00     0.006 C 
ENDBRANCH   8   9
BRANCH   8  11
ATOM     11  C   LIG d   1      -1.649  88.715 120.370  0.00  0.00     0.028 C 
ATOM     12  C   LIG d   1      -2.259  87.324 120.133  0.00  0.00     0.006 C 
ENDBRANCH   8  11
ENDBRANCH   7   8
ENDBRANCH   1   7
BRANCH   6  13
ATOM     13  N   LIG d   1      -3.506  92.707 117.260  0.00  0.00    -0.311 N 
ATOM     14  C   LIG d   1      -4.706  92.532 117.810  0.00  0.00     0.210 C 
ATOM     15  C   LIG d   1      -5.848  92.306 116.814  0.00  0.00     0.109 C 
ATOM     16  O   LIG d   1      -4.938  92.574 119.028  0.00  0.00    -0.276 OA
ATOM     17  H   LIG d   1      -3.414  92.689 116.263  0.00  0.00     0.149 HD
ENDBRANCH   6  13
BRANCH   5  18
ATOM     18  N   LIG d   1      -2.158  95.415 117.691  0.00  0.00     0.381 N 
ATOM     19  H   LIG d   1      -2.276  95.628 118.661  0.00  0.00    -0.090 HD
ATOM     20  H   LIG d   1      -3.069  95.331 117.273  0.00  0.00    -0.090 HD
ATOM     21  H   LIG d   1      -1.646  96.142 117.243  0.00  0.00    -0.090 HD
ENDBRANCH   5  18
BRANCH   3  22
ATOM     22  C   LIG d   1       1.941  93.079 118.511  0.00  0.00     0.382 C 
ATOM     23  O   LIG d   1       2.468  93.504 119.567  0.00  0.00    -0.241 OA
ATOM     24  O   LIG d   1       2.666  92.753 117.552  0.00  0.00    -0.241 OA
ENDBRANCH   3  22
TORSDOF 7
ENDMDL
MODEL 3
REMARK VINA RESULT:      -4.1      4.636      7.251
REMARK  7 active torsions:
REMARK  status: ('A' for Active; 'I' for Inactive)
REMARK    1  A    between atoms: C_2  and  C_3 
REMARK    2  A    between atoms: C_3  and  O_6 
REMARK    3  A    between atoms: C_3  and  C_4 
REMARK    4  A    between atoms: C_7  and  O_6 
REMARK    5  A    between atoms: C_9  and  C_10 
REMARK    6  A    between atoms: N_15  and  C_14 
REMARK    7  A    between atoms: N_20  and  C_19 
REMARK       I    between atoms: C_22  and  N_20 
ROOT
ATOM      1  C   LIG d   1       0.608  91.094 116.784  0.00  0.00     0.161 C 
ATOM      2  C   LIG d   1       2.011  91.030 116.738  0.00  0.00     0.016 C 
ATOM      3  C   LIG d   1       2.853  91.840 117.533  0.00  0.00     0.038 C 
ATOM      4  C   LIG d   1       2.346  92.670 118.544  0.00  0.00     0.028 C 
ATOM      5  C   LIG d   1       0.919  93.141 118.281  0.00  0.00    -0.047 C 
ATOM      6  C   LIG d   1       0.037  91.914 117.960  0.00  0.00     0.091 C 
ENDROOT
BRANCH   1   7
ATOM      7  O   LIG d   1       0.058  89.762 116.787  0.00  0.00    -0.368 OA
BRANCH   7   8
ATOM      8  C   LIG d   1       0.103  89.057 118.052  0.00  0.00     0.119 C 
BRANCH   8   9
ATOM      9  C   LIG d   1       0.982  87.807 117.854  0.00  0.00     0.028 C 
ATOM     10  C   LIG d   1       0.870  87.229 116.434  0.00  0.00     0.006 C 
ENDBRANCH   8   9
BRANCH   8  11
ATOM     11  C   LIG d   1      -1.279  88.523 118.441  0.00  0.00     0.028 C 
ATOM     12  C   LIG d   1      -2.348  88.801 117.373  0.00  0.00     0.006 C 
ENDBRANCH   8  11
ENDBRANCH   7   8
ENDBRANCH   1   7
BRANCH   6  13
ATOM     13  N   LIG d   1      -1.356  92.294 117.607  0.00  0.00    -0.311 N 
ATOM     14  C   LIG d   1      -2.366  92.268 118.476  0.00  0.00     0.210 C 
ATOM     15  C   LIG d   1      -3.725  92.679 117.901  0.00  0.00     0.109 C 
ATOM     16  O   LIG d   1      -2.258  91.973 119.676  0.00  0.00    -0.276 OA
ATOM     17  H   LIG d   1      -1.527  92.576 116.662  0.00  0.00     0.149 HD
ENDBRANCH   6  13
BRANCH   5  18
ATOM     18  N   LIG d   1       0.468  93.882 119.475  0.00  0.00     0.381 N 
ATOM     19  H   LIG d   1      -0.292  93.395 119.908  0.00  0.00    -0.090 HD
ATOM     20  H   LIG d   1       0.140  94.788 119.190  0.00  0.00    -0.090 HD
ATOM     21  H   LIG d   1       1.220  93.980 120.120  0.00  0.00    -0.090 HD
ENDBRANCH   5  18
BRANCH   3  22
ATOM     22  C   LIG d   1       4.219  91.855 117.293  0.00  0.00     0.382 C 
ATOM     23  O   LIG d   1       4.863  90.779 117.266  0.00  0.00    -0.241 OA
ATOM     24  O   LIG d   1       4.823  92.935 117.147  0.00  0.00    -0.241 OA
ENDBRANCH   3  22
TORSDOF 7
ENDMDL
MODEL 4
REMARK VINA RESULT:      -4.1      2.961      5.952
REMARK  7 active torsions:
REMARK  status: ('A' for Active; 'I' for Inactive)
REMARK    1  A    between atoms: C_2  and  C_3 
REMARK    2  A    between atoms: C_3  and  O_6 
REMARK    3  A    between atoms: C_3  and  C_4 
REMARK    4  A    between atoms: C_7  and  O_6 
REMARK    5  A    between atoms: C_9  and  C_10 
REMARK    6  A    between atoms: N_15  and  C_14 
REMARK    7  A    between atoms: N_20  and  C_19 
REMARK       I    between atoms: C_22  and  N_20 
ROOT
ATOM      1  C   LIG d   1      -2.727  92.571 118.950  0.00  0.00     0.161 C 
ATOM      2  C   LIG d   1      -2.617  93.957 118.749  0.00  0.00     0.016 C 
ATOM      3  C   LIG d   1      -1.597  94.552 117.972  0.00  0.00     0.038 C 
ATOM      4  C   LIG d   1      -0.698  93.784 117.215  0.00  0.00     0.028 C 
ATOM      5  C   LIG d   1      -0.458  92.392 117.789  0.00  0.00    -0.047 C 
ATOM      6  C   LIG d   1      -1.822  91.711 118.042  0.00  0.00     0.091 C 
ENDROOT
BRANCH   1   7
ATOM      7  O   LIG d   1      -4.103  92.165 118.815  0.00  0.00    -0.368 OA
BRANCH   7   8
ATOM      8  C   LIG d   1      -4.853  92.798 117.749  0.00  0.00     0.119 C 
BRANCH   8   9
ATOM      9  C   LIG d   1      -6.203  93.251 118.338  0.00  0.00     0.028 C 
ATOM     10  C   LIG d   1      -6.283  94.776 118.517  0.00  0.00     0.006 C 
ENDBRANCH   8   9
BRANCH   8  11
ATOM     11  C   LIG d   1      -5.207  91.796 116.645  0.00  0.00     0.028 C 
ATOM     12  C   LIG d   1      -6.715  91.512 116.560  0.00  0.00     0.006 C 
ENDBRANCH   8  11
ENDBRANCH   7   8
ENDBRANCH   1   7
BRANCH   6  13
ATOM     13  N   LIG d   1      -1.680  90.377 118.682  0.00  0.00    -0.311 N 
ATOM     14  C   LIG d   1      -2.266  89.275 118.217  0.00  0.00     0.210 C 
ATOM     15  C   LIG d   1      -2.005  88.009 119.038  0.00  0.00     0.109 C 
ATOM     16  O   LIG d   1      -2.950  89.220 117.184  0.00  0.00    -0.276 OA
ATOM     17  H   LIG d   1      -1.117  90.325 119.508  0.00  0.00     0.149 HD
ENDBRANCH   6  13
BRANCH   5  18
ATOM     18  N   LIG d   1       0.387  91.655 116.830  0.00  0.00     0.381 N 
ATOM     19  H   LIG d   1       0.704  90.801 117.245  0.00  0.00    -0.090 HD
ATOM     20  H   LIG d   1       1.191  92.215 116.608  0.00  0.00    -0.090 HD
ATOM     21  H   LIG d   1      -0.130  91.459 116.001  0.00  0.00    -0.090 HD
ENDBRANCH   5  18
BRANCH   3  22
ATOM     22  C   LIG d   1      -1.443  95.930 117.979  0.00  0.00     0.382 C 
ATOM     23  O   LIG d   1      -2.410  96.667 118.287  0.00  0.00    -0.241 OA
ATOM     24  O   LIG d   1      -0.361  96.446 117.639  0.00  0.00    -0.241 OA
ENDBRANCH   3  22
TORSDOF 7
ENDMDL
MODEL 5
REMARK VINA RESULT:      -4.0      2.960      5.217
REMARK  7 active torsions:
REMARK  status: ('A' for Active; 'I' for Inactive)
REMARK    1  A    between atoms: C_2  and  C_3 
REMARK    2  A    between atoms: C_3  and  O_6 
REMARK    3  A    between atoms: C_3  and  C_4 
REMARK    4  A    between atoms: C_7  and  O_6 
REMARK    5  A    between atoms: C_9  and  C_10 
REMARK    6  A    between atoms: N_15  and  C_14 
REMARK    7  A    between atoms: N_20  and  C_19 
REMARK       I    between atoms: C_22  and  N_20 
ROOT
ATOM      1  C   LIG d   1      -1.775  93.521 117.851  0.00  0.00     0.161 C 
ATOM      2  C   LIG d   1      -0.612  92.764 117.632  0.00  0.00     0.016 C 
ATOM      3  C   LIG d   1       0.683  93.209 117.985  0.00  0.00     0.038 C 
ATOM      4  C   LIG d   1       0.888  94.383 118.723  0.00  0.00     0.028 C 
ATOM      5  C   LIG d   1      -0.208  95.424 118.523  0.00  0.00    -0.047 C 
ATOM      6  C   LIG d   1      -1.582  94.756 118.756  0.00  0.00     0.091 C 
ENDROOT
BRANCH   1   7
ATOM      7  O   LIG d   1      -2.817  92.674 118.374  0.00  0.00    -0.368 OA
BRANCH   7   8
ATOM      8  C   LIG d   1      -3.982  92.500 117.530  0.00  0.00     0.119 C 
BRANCH   8   9
ATOM      9  C   LIG d   1      -5.217  92.906 118.356  0.00  0.00     0.028 C 
ATOM     10  C   LIG d   1      -4.902  93.041 119.855  0.00  0.00     0.006 C 
ENDBRANCH   8   9
BRANCH   8  11
ATOM     11  C   LIG d   1      -4.198  91.026 117.175  0.00  0.00     0.028 C 
ATOM     12  C   LIG d   1      -3.035  90.128 117.626  0.00  0.00     0.006 C 
ENDBRANCH   8  11
ENDBRANCH   7   8
ENDBRANCH   1   7
BRANCH   6  13
ATOM     13  N   LIG d   1      -2.715  95.683 118.498  0.00  0.00    -0.311 N 
ATOM     14  C   LIG d   1      -3.321  96.384 119.454  0.00  0.00     0.210 C 
ATOM     15  C   LIG d   1      -4.479  97.265 118.975  0.00  0.00     0.109 C 
ATOM     16  O   LIG d   1      -2.990  96.383 120.649  0.00  0.00    -0.276 OA
ATOM     17  H   LIG d   1      -3.028  95.768 117.551  0.00  0.00     0.149 HD
ENDBRANCH   6  13
BRANCH   5  18
ATOM     18  N   LIG d   1       0.058  96.537 119.454  0.00  0.00     0.381 N 
ATOM     19  H   LIG d   1       1.040  96.729 119.480  0.00  0.00    -0.090 HD
ATOM     20  H   LIG d   1      -0.236  96.267 120.376  0.00  0.00    -0.090 HD
ATOM     21  H   LIG d   1      -0.438  97.351 119.163  0.00  0.00    -0.090 HD
ENDBRANCH   5  18
BRANCH   3  22
ATOM     22  C   LIG d   1       1.794  92.494 117.563  0.00  0.00     0.382 C 
ATOM     23  O   LIG d   1       2.944  92.862 117.904  0.00  0.00    -0.241 OA
ATOM     24  O   LIG d   1       1.663  91.511 116.808  0.00  0.00    -0.241 OA
ENDBRANCH   3  22
TORSDOF 7
ENDMDL
MODEL 6
REMARK VINA RESULT:      -3.9      3.476      6.599
REMARK  7 active torsions:
REMARK  status: ('A' for Active; 'I' for Inactive)
REMARK    1  A    between atoms: C_2  and  C_3 
REMARK    2  A    between atoms: C_3  and  O_6 
REMARK    3  A    between atoms: C_3  and  C_4 
REMARK    4  A    between atoms: C_7  and  O_6 
REMARK    5  A    between atoms: C_9  and  C_10 
REMARK    6  A    between atoms: N_15  and  C_14 
REMARK    7  A    between atoms: N_20  and  C_19 
REMARK       I    between atoms: C_22  and  N_20 
ROOT
ATOM      1  C   LIG d   1      -1.984  90.676 117.958  0.00  0.00     0.161 C 
ATOM      2  C   LIG d   1      -3.318  90.625 117.521  0.00  0.00     0.016 C 
ATOM      3  C   LIG d   1      -4.152  91.763 117.434  0.00  0.00     0.038 C 
ATOM      4  C   LIG d   1      -3.660  93.061 117.636  0.00  0.00     0.028 C 
ATOM      5  C   LIG d   1      -2.454  93.113 118.569  0.00  0.00    -0.047 C 
ATOM      6  C   LIG d   1      -1.396  92.098 118.077  0.00  0.00     0.091 C 
ENDROOT
BRANCH   1   7
ATOM      7  O   LIG d   1      -1.158  89.862 117.103  0.00  0.00    -0.368 OA
BRANCH   7   8
ATOM      8  C   LIG d   1      -1.130  88.445 117.403  0.00  0.00     0.119 C 
BRANCH   8   9
ATOM      9  C   LIG d   1      -0.867  88.297 118.914  0.00  0.00     0.028 C 
ATOM     10  C   LIG d   1      -1.854  87.330 119.589  0.00  0.00     0.006 C 
ENDBRANCH   8   9
BRANCH   8  11
ATOM     11  C   LIG d   1       0.050  87.753 116.716  0.00  0.00     0.028 C 
ATOM     12  C   LIG d   1       1.412  88.267 117.209  0.00  0.00     0.006 C 
ENDBRANCH   8  11
ENDBRANCH   7   8
ENDBRANCH   1   7
BRANCH   6  13
ATOM     13  N   LIG d   1      -0.219  92.024 118.982  0.00  0.00    -0.311 N 
ATOM     14  C   LIG d   1       0.904  92.711 118.782  0.00  0.00     0.210 C 
ATOM     15  C   LIG d   1       2.002  92.474 119.823  0.00  0.00     0.109 C 
ATOM     16  O   LIG d   1       1.083  93.520 117.858  0.00  0.00    -0.276 OA
ATOM     17  H   LIG d   1      -0.290  91.415 119.774  0.00  0.00     0.149 HD
ENDBRANCH   6  13
BRANCH   5  18
ATOM     18  N   LIG d   1      -1.960  94.502 118.582  0.00  0.00     0.381 N 
ATOM     19  H   LIG d   1      -1.388  94.651 119.389  0.00  0.00    -0.090 HD
ATOM     20  H   LIG d   1      -2.746  95.126 118.632  0.00  0.00    -0.090 HD
ATOM     21  H   LIG d   1      -1.434  94.685 117.755  0.00  0.00    -0.090 HD
ENDBRANCH   5  18
BRANCH   3  22
ATOM     22  C   LIG d   1      -5.506  91.605 117.179  0.00  0.00     0.382 C 
ATOM     23  O   LIG d   1      -6.341  92.356 117.739  0.00  0.00    -0.241 OA
ATOM     24  O   LIG d   1      -5.906  90.692 116.432  0.00  0.00    -0.241 OA
ENDBRANCH   3  22
TORSDOF 7
ENDMDL
MODEL 7
REMARK VINA RESULT:      -3.8      2.480      5.231
REMARK  7 active torsions:
REMARK  status: ('A' for Active; 'I' for Inactive)
REMARK    1  A    between atoms: C_2  and  C_3 
REMARK    2  A    between atoms: C_3  and  O_6 
REMARK    3  A    between atoms: C_3  and  C_4 
REMARK    4  A    between atoms: C_7  and  O_6 
REMARK    5  A    between atoms: C_9  and  C_10 
REMARK    6  A    between atoms: N_15  and  C_14 
REMARK    7  A    between atoms: N_20  and  C_19 
REMARK       I    between atoms: C_22  and  N_20 
ROOT
ATOM      1  C   LIG d   1      -2.672  93.936 118.770  0.00  0.00     0.161 C 
ATOM      2  C   LIG d   1      -3.961  94.416 119.055  0.00  0.00     0.016 C 
ATOM      3  C   LIG d   1      -5.145  93.743 118.673  0.00  0.00     0.038 C 
ATOM      4  C   LIG d   1      -5.118  92.459 118.109  0.00  0.00     0.028 C 
ATOM      5  C   LIG d   1      -3.832  92.159 117.346  0.00  0.00    -0.047 C 
ATOM      6  C   LIG d   1      -2.623  92.483 118.254  0.00  0.00     0.091 C 
ENDROOT
BRANCH   1   7
ATOM      7  O   LIG d   1      -1.828  94.085 119.929  0.00  0.00    -0.368 OA
BRANCH   7   8
ATOM      8  C   LIG d   1      -0.915  95.209 119.912  0.00  0.00     0.119 C 
BRANCH   8   9
ATOM      9  C   LIG d   1      -0.717  95.623 118.441  0.00  0.00     0.028 C 
ATOM     10  C   LIG d   1      -0.561  97.144 118.275  0.00  0.00     0.006 C 
ENDBRANCH   8   9
BRANCH   8  11
ATOM     11  C   LIG d   1       0.476  94.805 120.411  0.00  0.00     0.028 C 
ATOM     12  C   LIG d   1       1.294  94.054 119.348  0.00  0.00     0.006 C 
ENDBRANCH   8  11
ENDBRANCH   7   8
ENDBRANCH   1   7
BRANCH   6  13
ATOM     13  N   LIG d   1      -1.324  92.298 117.556  0.00  0.00    -0.311 N 
ATOM     14  C   LIG d   1      -0.593  91.188 117.649  0.00  0.00     0.210 C 
ATOM     15  C   LIG d   1       0.722  91.212 116.865  0.00  0.00     0.109 C 
ATOM     16  O   LIG d   1      -0.925  90.173 118.281  0.00  0.00    -0.276 OA
ATOM     17  H   LIG d   1      -0.994  93.059 116.996  0.00  0.00     0.149 HD
ENDBRANCH   6  13
BRANCH   5  18
ATOM     18  N   LIG d   1      -3.880  90.745 116.930  0.00  0.00     0.381 N 
ATOM     19  H   LIG d   1      -3.078  90.261 117.282  0.00  0.00    -0.090 HD
ATOM     20  H   LIG d   1      -3.859  90.701 115.926  0.00  0.00    -0.090 HD
ATOM     21  H   LIG d   1      -4.712  90.317 117.271  0.00  0.00    -0.090 HD
ENDBRANCH   5  18
BRANCH   3  22
ATOM     22  C   LIG d   1      -6.371  94.372 118.819  0.00  0.00     0.382 C 
ATOM     23  O   LIG d   1      -7.107  94.552 117.819  0.00  0.00    -0.241 OA
ATOM     24  O   LIG d   1      -6.732  94.803 119.931  0.00  0.00    -0.241 OA
ENDBRANCH   3  22
TORSDOF 7
ENDMDL
MODEL 8
REMARK VINA RESULT:      -3.7      2.526      5.548
REMARK  7 active torsions:
REMARK  status: ('A' for Active; 'I' for Inactive)
REMARK    1  A    between atoms: C_2  and  C_3 
REMARK    2  A    between atoms: C_3  and  O_6 
REMARK    3  A    between atoms: C_3  and  C_4 
REMARK    4  A    between atoms: C_7  and  O_6 
REMARK    5  A    between atoms: C_9  and  C_10 
REMARK    6  A    between atoms: N_15  and  C_14 
REMARK    7  A    between atoms: N_20  and  C_19 
REMARK       I    between atoms: C_22  and  N_20 
ROOT
ATOM      1  C   LIG d   1      -3.081  93.489 119.034  0.00  0.00     0.161 C 
ATOM      2  C   LIG d   1      -4.331  94.105 119.205  0.00  0.00     0.016 C 
ATOM      3  C   LIG d   1      -5.503  93.686 118.534  0.00  0.00     0.038 C 
ATOM      4  C   LIG d   1      -5.536  92.519 117.757  0.00  0.00     0.028 C 
ATOM      5  C   LIG d   1      -4.183  92.155 117.154  0.00  0.00    -0.047 C 
ATOM      6  C   LIG d   1      -3.120  92.146 118.276  0.00  0.00     0.091 C 
ENDROOT
BRANCH   1   7
ATOM      7  O   LIG d   1      -2.438  93.324 120.314  0.00  0.00    -0.368 OA
BRANCH   7   8
ATOM      8  C   LIG d   1      -2.828  92.155 121.076  0.00  0.00     0.119 C 
BRANCH   8   9
ATOM      9  C   LIG d   1      -3.483  92.651 122.380  0.00  0.00     0.028 C 
ATOM     10  C   LIG d   1      -5.002  92.409 122.403  0.00  0.00     0.006 C 
ENDBRANCH   8   9
BRANCH   8  11
ATOM     11  C   LIG d   1      -1.606  91.345 121.518  0.00  0.00     0.028 C 
ATOM     12  C   LIG d   1      -1.890  89.837 121.605  0.00  0.00     0.006 C 
ENDBRANCH   8  11
ENDBRANCH   7   8
ENDBRANCH   1   7
BRANCH   6  13
ATOM     13  N   LIG d   1      -1.752  91.881 117.758  0.00  0.00    -0.311 N 
ATOM     14  C   LIG d   1      -1.200  90.669 117.730  0.00  0.00     0.210 C 
ATOM     15  C   LIG d   1       0.227  90.621 117.175  0.00  0.00     0.109 C 
ATOM     16  O   LIG d   1      -1.769  89.625 118.082  0.00  0.00    -0.276 OA
ATOM     17  H   LIG d   1      -1.231  92.668 117.423  0.00  0.00     0.149 HD
ENDBRANCH   6  13
BRANCH   5  18
ATOM     18  N   LIG d   1      -4.330  90.848 116.486  0.00  0.00     0.381 N 
ATOM     19  H   LIG d   1      -4.693  90.978 115.563  0.00  0.00    -0.090 HD
ATOM     20  H   LIG d   1      -4.984  90.289 117.006  0.00  0.00    -0.090 HD
ATOM     21  H   LIG d   1      -3.449  90.386 116.442  0.00  0.00    -0.090 HD
ENDBRANCH   5  18
BRANCH   3  22
ATOM     22  C   LIG d   1      -6.651  94.461 118.607  0.00  0.00     0.382 C 
ATOM     23  O   LIG d   1      -7.275  94.756 117.559  0.00  0.00    -0.241 OA
ATOM     24  O   LIG d   1      -7.045  94.907 119.701  0.00  0.00    -0.241 OA
ENDBRANCH   3  22
TORSDOF 7
ENDMDL
MODEL 9
REMARK VINA RESULT:      -3.6      3.936      6.262
REMARK  7 active torsions:
REMARK  status: ('A' for Active; 'I' for Inactive)
REMARK    1  A    between atoms: C_2  and  C_3 
REMARK    2  A    between atoms: C_3  and  O_6 
REMARK    3  A    between atoms: C_3  and  C_4 
REMARK    4  A    between atoms: C_7  and  O_6 
REMARK    5  A    between atoms: C_9  and  C_10 
REMARK    6  A    between atoms: N_15  and  C_14 
REMARK    7  A    between atoms: N_20  and  C_19 
REMARK       I    between atoms: C_22  and  N_20 
ROOT
ATOM      1  C   LIG d   1      -0.677  92.193 117.745  0.00  0.00     0.161 C 
ATOM      2  C   LIG d   1       0.583  91.670 117.407  0.00  0.00     0.016 C 
ATOM      3  C   LIG d   1       1.803  92.267 117.800  0.00  0.00     0.038 C 
ATOM      4  C   LIG d   1       1.847  93.350 118.690  0.00  0.00     0.028 C 
ATOM      5  C   LIG d   1       0.593  94.217 118.650  0.00  0.00    -0.047 C 
ATOM      6  C   LIG d   1      -0.649  93.311 118.808  0.00  0.00     0.091 C 
ENDROOT
BRANCH   1   7
ATOM      7  O   LIG d   1      -1.553  91.127 118.162  0.00  0.00    -0.368 OA
BRANCH   7   8
ATOM      8  C   LIG d   1      -0.908  89.941 118.686  0.00  0.00     0.119 C 
BRANCH   8   9
ATOM      9  C   LIG d   1      -1.692  88.720 118.168  0.00  0.00     0.028 C 
ATOM     10  C   LIG d   1      -2.050  87.732 119.291  0.00  0.00     0.006 C 
ENDBRANCH   8   9
BRANCH   8  11
ATOM     11  C   LIG d   1      -1.018  89.876 120.213  0.00  0.00     0.028 C 
ATOM     12  C   LIG d   1       0.278  90.299 120.922  0.00  0.00     0.006 C 
ENDBRANCH   8  11
ENDBRANCH   7   8
ENDBRANCH   1   7
BRANCH   6  13
ATOM     13  N   LIG d   1      -1.922  94.070 118.696  0.00  0.00    -0.311 N 
ATOM     14  C   LIG d   1      -2.578  94.561 119.747  0.00  0.00     0.210 C 
ATOM     15  C   LIG d   1      -3.881  95.293 119.411  0.00  0.00     0.109 C 
ATOM     16  O   LIG d   1      -2.188  94.486 120.922  0.00  0.00    -0.276 OA
ATOM     17  H   LIG d   1      -2.294  94.204 117.776  0.00  0.00     0.149 HD
ENDBRANCH   6  13
BRANCH   5  18
ATOM     18  N   LIG d   1       0.714  95.225 119.721  0.00  0.00     0.381 N 
ATOM     19  H   LIG d   1       1.325  95.960 119.427  0.00  0.00    -0.090 HD
ATOM     20  H   LIG d   1       1.114  94.789 120.533  0.00  0.00    -0.090 HD
ATOM     21  H   LIG d   1      -0.183  95.596 119.943  0.00  0.00    -0.090 HD
ENDBRANCH   5  18
BRANCH   3  22
ATOM     22  C   LIG d   1       2.997  91.803 117.268  0.00  0.00     0.382 C 
ATOM     23  O   LIG d   1       3.170  90.572 117.095  0.00  0.00    -0.241 OA
ATOM     24  O   LIG d   1       3.919  92.596 116.999  0.00  0.00    -0.241 OA
ENDBRANCH   3  22
TORSDOF 7
ENDMDL
