MODEL 1
REMARK VINA RESULT:      -4.5      0.000      0.000
REMARK  7 active torsions:
REMARK  status: ('A' for Active; 'I' for Inactive)
REMARK    1  A    between atoms: C_2  and  C_3 
REMARK    2  A    between atoms: C_3  and  O_6 
REMARK    3  A    between atoms: C_3  and  C_4 
REMARK    4  A    between atoms: C_7  and  O_6 
REMARK    5  A    between atoms: C_9  and  C_10 
REMARK    6  A    between atoms: N_15  and  C_14 
REMARK    7  A    between atoms: N_20  and  C_19 
REMARK       I    between atoms: C_22  and  N_20 
ROOT
ATOM      1  C   LIG d   1      -4.460  93.429 119.241  0.00  0.00     0.161 C 
ATOM      2  C   LIG d   1      -5.700  94.074 119.388  0.00  0.00     0.016 C 
ATOM      3  C   LIG d   1      -6.843  93.747 118.623  0.00  0.00     0.038 C 
ATOM      4  C   LIG d   1      -6.865  92.643 117.757  0.00  0.00     0.028 C 
ATOM      5  C   LIG d   1      -5.491  92.280 117.205  0.00  0.00    -0.047 C 
ATOM      6  C   LIG d   1      -4.496  92.149 118.380  0.00  0.00     0.091 C 
ENDROOT
BRANCH   1   7
ATOM      7  O   LIG d   1      -3.900  93.146 120.538  0.00  0.00    -0.368 OA
BRANCH   7   8
ATOM      8  C   LIG d   1      -2.685  93.860 120.877  0.00  0.00     0.119 C 
BRANCH   8   9
ATOM      9  C   LIG d   1      -2.345  94.783 119.692  0.00  0.00     0.028 C 
ATOM     10  C   LIG d   1      -0.920  94.555 119.161  0.00  0.00     0.006 C 
ENDBRANCH   8   9
BRANCH   8  11
ATOM     11  C   LIG d   1      -1.494  92.905 121.003  0.00  0.00     0.028 C 
ATOM     12  C   LIG d   1      -1.914  91.475 121.379  0.00  0.00     0.006 C 
ENDBRANCH   8  11
ENDBRANCH   7   8
ENDBRANCH   1   7
BRANCH   6  13
ATOM     13  N   LIG d   1      -3.108  91.877 117.921  0.00  0.00    -0.311 N 
ATOM     14  C   LIG d   1      -2.591  90.653 117.836  0.00  0.00     0.210 C 
ATOM     15  C   LIG d   1      -1.136  90.598 117.359  0.00  0.00     0.109 C 
ATOM     16  O   LIG d   1      -3.208  89.606 118.080  0.00  0.00    -0.276 OA
ATOM     17  H   LIG d   1      -2.547  92.668 117.673  0.00  0.00     0.149 HD
ENDBRANCH   6  13
BRANCH   5  18
ATOM     18  N   LIG d   1      -5.638  91.033 116.430  0.00  0.00     0.381 N 
ATOM     19  H   LIG d   1      -4.902  90.397 116.668  0.00  0.00    -0.090 HD
ATOM     20  H   LIG d   1      -5.564  91.248 115.451  0.00  0.00    -0.090 HD
ATOM     21  H   LIG d   1      -6.522  90.615 116.620  0.00  0.00    -0.090 HD
ENDBRANCH   5  18
BRANCH   3  22
ATOM     22  C   LIG d   1      -7.969  94.554 118.690  0.00  0.00     0.382 C 
ATOM     23  O   LIG d   1      -8.925  94.363 117.900  0.00  0.00    -0.241 OA
ATOM     24  O   LIG d   1      -8.022  95.497 119.501  0.00  0.00    -0.241 OA
ENDBRANCH   3  22
TORSDOF 7
ENDMDL
MODEL 2
REMARK VINA RESULT:      -4.5      2.649      4.661
REMARK  7 active torsions:
REMARK  status: ('A' for Active; 'I' for Inactive)
REMARK    1  A    between atoms: C_2  and  C_3 
REMARK    2  A    between atoms: C_3  and  O_6 
REMARK    3  A    between atoms: C_3  and  C_4 
REMARK    4  A    between atoms: C_7  and  O_6 
REMARK    5  A    between atoms: C_9  and  C_10 
REMARK    6  A    between atoms: N_15  and  C_14 
REMARK    7  A    between atoms: N_20  and  C_19 
REMARK       I    between atoms: C_22  and  N_20 
ROOT
ATOM      1  C   LIG d   1      -4.867  93.570 119.453  0.00  0.00     0.161 C 
ATOM      2  C   LIG d   1      -4.952  92.562 118.479  0.00  0.00     0.016 C 
ATOM      3  C   LIG d   1      -6.050  92.421 117.599  0.00  0.00     0.038 C 
ATOM      4  C   LIG d   1      -7.075  93.377 117.533  0.00  0.00     0.028 C 
ATOM      5  C   LIG d   1      -7.283  94.132 118.841  0.00  0.00    -0.047 C 
ATOM      6  C   LIG d   1      -5.923  94.687 119.322  0.00  0.00     0.091 C 
ENDROOT
BRANCH   1   7
ATOM      7  O   LIG d   1      -3.540  94.133 119.460  0.00  0.00    -0.368 OA
BRANCH   7   8
ATOM      8  C   LIG d   1      -2.571  93.491 118.595  0.00  0.00     0.119 C 
BRANCH   8   9
ATOM      9  C   LIG d   1      -1.492  92.860 119.496  0.00  0.00     0.028 C 
ATOM     10  C   LIG d   1      -1.715  91.354 119.712  0.00  0.00     0.006 C 
ENDBRANCH   8   9
BRANCH   8  11
ATOM     11  C   LIG d   1      -1.830  94.516 117.731  0.00  0.00     0.028 C 
ATOM     12  C   LIG d   1      -0.430  94.040 117.312  0.00  0.00     0.006 C 
ENDBRANCH   8  11
ENDBRANCH   7   8
ENDBRANCH   1   7
BRANCH   6  13
ATOM     13  N   LIG d   1      -6.023  95.368 120.639  0.00  0.00    -0.311 N 
ATOM     14  C   LIG d   1      -5.713  96.650 120.827  0.00  0.00     0.210 C 
ATOM     15  C   LIG d   1      -5.868  97.148 122.268  0.00  0.00     0.109 C 
ATOM     16  O   LIG d   1      -5.355  97.430 119.932  0.00  0.00    -0.276 OA
ATOM     17  H   LIG d   1      -6.335  94.818 121.415  0.00  0.00     0.149 HD
ENDBRANCH   6  13
BRANCH   5  18
ATOM     18  N   LIG d   1      -8.283  95.188 118.591  0.00  0.00     0.381 N 
ATOM     19  H   LIG d   1      -8.206  95.511 117.648  0.00  0.00    -0.090 HD
ATOM     20  H   LIG d   1      -8.099  95.962 119.206  0.00  0.00    -0.090 HD
ATOM     21  H   LIG d   1      -9.200  94.835 118.756  0.00  0.00    -0.090 HD
ENDBRANCH   5  18
BRANCH   3  22
ATOM     22  C   LIG d   1      -6.149  91.293 116.799  0.00  0.00     0.382 C 
ATOM     23  O   LIG d   1      -7.278  90.850 116.478  0.00  0.00    -0.241 OA
ATOM     24  O   LIG d   1      -5.125  90.686 116.432  0.00  0.00    -0.241 OA
ENDBRANCH   3  22
TORSDOF 7
ENDMDL
MODEL 3
REMARK VINA RESULT:      -4.4      0.735      1.693
REMARK  7 active torsions:
REMARK  status: ('A' for Active; 'I' for Inactive)
REMARK    1  A    between atoms: C_2  and  C_3 
REMARK    2  A    between atoms: C_3  and  O_6 
REMARK    3  A    between atoms: C_3  and  C_4 
REMARK    4  A    between atoms: C_7  and  O_6 
REMARK    5  A    between atoms: C_9  and  C_10 
REMARK    6  A    between atoms: N_15  and  C_14 
REMARK    7  A    between atoms: N_20  and  C_19 
REMARK       I    between atoms: C_22  and  N_20 
ROOT
ATOM      1  C   LIG d   1      -4.474  93.386 119.336  0.00  0.00     0.161 C 
ATOM      2  C   LIG d   1      -5.712  94.035 119.470  0.00  0.00     0.016 C 
ATOM      3  C   LIG d   1      -6.838  93.735 118.670  0.00  0.00     0.038 C 
ATOM      4  C   LIG d   1      -6.847  92.653 117.778  0.00  0.00     0.028 C 
ATOM      5  C   LIG d   1      -5.463  92.292 117.249  0.00  0.00    -0.047 C 
ATOM      6  C   LIG d   1      -4.497  92.126 118.444  0.00  0.00     0.091 C 
ENDROOT
BRANCH   1   7
ATOM      7  O   LIG d   1      -3.946  93.067 120.639  0.00  0.00    -0.368 OA
BRANCH   7   8
ATOM      8  C   LIG d   1      -2.731  93.759 121.021  0.00  0.00     0.119 C 
BRANCH   8   9
ATOM      9  C   LIG d   1      -1.653  92.690 121.283  0.00  0.00     0.028 C 
ATOM     10  C   LIG d   1      -2.256  91.298 121.539  0.00  0.00     0.006 C 
ENDBRANCH   8   9
BRANCH   8  11
ATOM     11  C   LIG d   1      -2.905  94.495 122.353  0.00  0.00     0.028 C 
ATOM     12  C   LIG d   1      -4.294  94.280 122.976  0.00  0.00     0.006 C 
ENDBRANCH   8  11
ENDBRANCH   7   8
ENDBRANCH   1   7
BRANCH   6  13
ATOM     13  N   LIG d   1      -3.101  91.856 118.012  0.00  0.00    -0.311 N 
ATOM     14  C   LIG d   1      -2.593  90.630 117.901  0.00  0.00     0.210 C 
ATOM     15  C   LIG d   1      -1.127  90.575 117.459  0.00  0.00     0.109 C 
ATOM     16  O   LIG d   1      -3.226  89.581 118.096  0.00  0.00    -0.276 OA
ATOM     17  H   LIG d   1      -2.526  92.649 117.803  0.00  0.00     0.149 HD
ENDBRANCH   6  13
BRANCH   5  18
ATOM     18  N   LIG d   1      -5.600  91.066 116.442  0.00  0.00     0.381 N 
ATOM     19  H   LIG d   1      -4.702  90.779 116.106  0.00  0.00    -0.090 HD
ATOM     20  H   LIG d   1      -6.185  91.262 115.649  0.00  0.00    -0.090 HD
ATOM     21  H   LIG d   1      -6.004  90.339 116.991  0.00  0.00    -0.090 HD
ENDBRANCH   5  18
BRANCH   3  22
ATOM     22  C   LIG d   1      -7.960  94.548 118.730  0.00  0.00     0.382 C 
ATOM     23  O   LIG d   1      -8.012  95.484 119.564  0.00  0.00    -0.241 OA
ATOM     24  O   LIG d   1      -8.939  94.330 117.991  0.00  0.00    -0.241 OA
ENDBRANCH   3  22
TORSDOF 7
ENDMDL
MODEL 4
REMARK VINA RESULT:      -4.2      2.919      6.281
REMARK  7 active torsions:
REMARK  status: ('A' for Active; 'I' for Inactive)
REMARK    1  A    between atoms: C_2  and  C_3 
REMARK    2  A    between atoms: C_3  and  O_6 
REMARK    3  A    between atoms: C_3  and  C_4 
REMARK    4  A    between atoms: C_7  and  O_6 
REMARK    5  A    between atoms: C_9  and  C_10 
REMARK    6  A    between atoms: N_15  and  C_14 
REMARK    7  A    between atoms: N_20  and  C_19 
REMARK       I    between atoms: C_22  and  N_20 
ROOT
ATOM      1  C   LIG d   1      -1.412  91.804 118.303  0.00  0.00     0.161 C 
ATOM      2  C   LIG d   1      -0.023  91.905 118.486  0.00  0.00     0.016 C 
ATOM      3  C   LIG d   1       0.690  93.121 118.376  0.00  0.00     0.038 C 
ATOM      4  C   LIG d   1       0.036  94.353 118.224  0.00  0.00     0.028 C 
ATOM      5  C   LIG d   1      -1.318  94.238 117.531  0.00  0.00    -0.047 C 
ATOM      6  C   LIG d   1      -2.157  93.155 118.246  0.00  0.00     0.091 C 
ENDROOT
BRANCH   1   7
ATOM      7  O   LIG d   1      -1.980  90.962 119.326  0.00  0.00    -0.368 OA
BRANCH   7   8
ATOM      8  C   LIG d   1      -2.642  89.758 118.866  0.00  0.00     0.119 C 
BRANCH   8   9
ATOM      9  C   LIG d   1      -2.192  88.604 119.781  0.00  0.00     0.028 C 
ATOM     10  C   LIG d   1      -1.619  89.104 121.118  0.00  0.00     0.006 C 
ENDBRANCH   8   9
BRANCH   8  11
ATOM     11  C   LIG d   1      -2.174  89.368 117.461  0.00  0.00     0.028 C 
ATOM     12  C   LIG d   1      -1.086  88.283 117.475  0.00  0.00     0.006 C 
ENDBRANCH   8  11
ENDBRANCH   7   8
ENDBRANCH   1   7
BRANCH   6  13
ATOM     13  N   LIG d   1      -3.465  92.919 117.580  0.00  0.00    -0.311 N 
ATOM     14  C   LIG d   1      -4.615  92.810 118.242  0.00  0.00     0.210 C 
ATOM     15  C   LIG d   1      -5.843  92.549 117.365  0.00  0.00     0.109 C 
ATOM     16  O   LIG d   1      -4.740  92.937 119.470  0.00  0.00    -0.276 OA
ATOM     17  H   LIG d   1      -3.460  92.835 116.583  0.00  0.00     0.149 HD
ENDBRANCH   6  13
BRANCH   5  18
ATOM     18  N   LIG d   1      -1.948  95.571 117.562  0.00  0.00     0.381 N 
ATOM     19  H   LIG d   1      -2.575  95.668 116.788  0.00  0.00    -0.090 HD
ATOM     20  H   LIG d   1      -1.232  96.271 117.476  0.00  0.00    -0.090 HD
ATOM     21  H   LIG d   1      -2.443  95.695 118.417  0.00  0.00    -0.090 HD
ENDBRANCH   5  18
BRANCH   3  22
ATOM     22  C   LIG d   1       2.077  93.107 118.379  0.00  0.00     0.382 C 
ATOM     23  O   LIG d   1       2.703  92.811 117.333  0.00  0.00    -0.241 OA
ATOM     24  O   LIG d   1       2.709  93.343 119.426  0.00  0.00    -0.241 OA
ENDBRANCH   3  22
TORSDOF 7
ENDMDL
MODEL 5
REMARK VINA RESULT:      -4.1      3.669      7.477
REMARK  7 active torsions:
REMARK  status: ('A' for Active; 'I' for Inactive)
REMARK    1  A    between atoms: C_2  and  C_3 
REMARK    2  A    between atoms: C_3  and  O_6 
REMARK    3  A    between atoms: C_3  and  C_4 
REMARK    4  A    between atoms: C_7  and  O_6 
REMARK    5  A    between atoms: C_9  and  C_10 
REMARK    6  A    between atoms: N_15  and  C_14 
REMARK    7  A    between atoms: N_20  and  C_19 
REMARK       I    between atoms: C_22  and  N_20 
ROOT
ATOM      1  C   LIG d   1       0.047  91.002 117.543  0.00  0.00     0.161 C 
ATOM      2  C   LIG d   1       1.443  90.940 117.397  0.00  0.00     0.016 C 
ATOM      3  C   LIG d   1       2.288  92.068 117.507  0.00  0.00     0.038 C 
ATOM      4  C   LIG d   1       1.806  93.318 117.922  0.00  0.00     0.028 C 
ATOM      5  C   LIG d   1       0.334  93.541 117.588  0.00  0.00    -0.047 C 
ATOM      6  C   LIG d   1      -0.485  92.336 118.106  0.00  0.00     0.091 C 
ENDROOT
BRANCH   1   7
ATOM      7  O   LIG d   1      -0.409  89.899 118.351  0.00  0.00    -0.368 OA
BRANCH   7   8
ATOM      8  C   LIG d   1      -1.112  88.843 117.651  0.00  0.00     0.119 C 
BRANCH   8   9
ATOM      9  C   LIG d   1      -2.416  88.564 118.422  0.00  0.00     0.028 C 
ATOM     10  C   LIG d   1      -2.161  88.204 119.895  0.00  0.00     0.006 C 
ENDBRANCH   8   9
BRANCH   8  11
ATOM     11  C   LIG d   1      -0.326  87.529 117.693  0.00  0.00     0.028 C 
ATOM     12  C   LIG d   1       0.527  87.305 116.435  0.00  0.00     0.006 C 
ENDBRANCH   8  11
ENDBRANCH   7   8
ENDBRANCH   1   7
BRANCH   6  13
ATOM     13  N   LIG d   1      -1.924  92.434 117.746  0.00  0.00    -0.311 N 
ATOM     14  C   LIG d   1      -2.912  92.196 118.607  0.00  0.00     0.210 C 
ATOM     15  C   LIG d   1      -4.323  92.333 118.026  0.00  0.00     0.109 C 
ATOM     16  O   LIG d   1      -2.755  91.915 119.805  0.00  0.00    -0.276 OA
ATOM     17  H   LIG d   1      -2.142  92.686 116.802  0.00  0.00     0.149 HD
ENDBRANCH   6  13
BRANCH   5  18
ATOM     18  N   LIG d   1      -0.072  94.821 118.198  0.00  0.00     0.381 N 
ATOM     19  H   LIG d   1      -1.065  94.839 118.318  0.00  0.00    -0.090 HD
ATOM     20  H   LIG d   1       0.185  95.571 117.580  0.00  0.00    -0.090 HD
ATOM     21  H   LIG d   1       0.379  94.938 119.079  0.00  0.00    -0.090 HD
ENDBRANCH   5  18
BRANCH   3  22
ATOM     22  C   LIG d   1       3.627  91.960 117.160  0.00  0.00     0.382 C 
ATOM     23  O   LIG d   1       4.240  92.958 116.710  0.00  0.00    -0.241 OA
ATOM     24  O   LIG d   1       4.217  90.867 117.251  0.00  0.00    -0.241 OA
ENDBRANCH   3  22
TORSDOF 7
ENDMDL
MODEL 6
REMARK VINA RESULT:      -4.0      2.647      4.747
REMARK  7 active torsions:
REMARK  status: ('A' for Active; 'I' for Inactive)
REMARK    1  A    between atoms: C_2  and  C_3 
REMARK    2  A    between atoms: C_3  and  O_6 
REMARK    3  A    between atoms: C_3  and  C_4 
REMARK    4  A    between atoms: C_7  and  O_6 
REMARK    5  A    between atoms: C_9  and  C_10 
REMARK    6  A    between atoms: N_15  and  C_14 
REMARK    7  A    between atoms: N_20  and  C_19 
REMARK       I    between atoms: C_22  and  N_20 
ROOT
ATOM      1  C   LIG d   1      -5.171  94.280 119.436  0.00  0.00     0.161 C 
ATOM      2  C   LIG d   1      -4.813  93.143 118.694  0.00  0.00     0.016 C 
ATOM      3  C   LIG d   1      -5.665  92.533 117.744  0.00  0.00     0.038 C 
ATOM      4  C   LIG d   1      -6.883  93.114 117.361  0.00  0.00     0.028 C 
ATOM      5  C   LIG d   1      -7.508  93.984 118.446  0.00  0.00    -0.047 C 
ATOM      6  C   LIG d   1      -6.451  94.992 118.952  0.00  0.00     0.091 C 
ENDROOT
BRANCH   1   7
ATOM      7  O   LIG d   1      -4.067  95.206 119.475  0.00  0.00    -0.368 OA
BRANCH   7   8
ATOM      8  C   LIG d   1      -2.746  94.628 119.334  0.00  0.00     0.119 C 
BRANCH   8   9
ATOM      9  C   LIG d   1      -2.050  94.722 120.706  0.00  0.00     0.028 C 
ATOM     10  C   LIG d   1      -2.873  95.526 121.727  0.00  0.00     0.006 C 
ENDBRANCH   8   9
BRANCH   8  11
ATOM     11  C   LIG d   1      -1.875  95.454 118.381  0.00  0.00     0.028 C 
ATOM     12  C   LIG d   1      -2.234  96.948 118.390  0.00  0.00     0.006 C 
ENDBRANCH   8  11
ENDBRANCH   7   8
ENDBRANCH   1   7
BRANCH   6  13
ATOM     13  N   LIG d   1      -6.954  95.826 120.074  0.00  0.00    -0.311 N 
ATOM     14  C   LIG d   1      -7.279  95.331 121.267  0.00  0.00     0.210 C 
ATOM     15  C   LIG d   1      -7.796  96.361 122.276  0.00  0.00     0.109 C 
ATOM     16  O   LIG d   1      -7.157  94.141 121.596  0.00  0.00    -0.276 OA
ATOM     17  H   LIG d   1      -7.054  96.808 119.904  0.00  0.00     0.149 HD
ENDBRANCH   6  13
BRANCH   5  18
ATOM     18  N   LIG d   1      -8.698  94.634 117.866  0.00  0.00     0.381 N 
ATOM     19  H   LIG d   1      -9.485  94.020 117.930  0.00  0.00    -0.090 HD
ATOM     20  H   LIG d   1      -8.524  94.824 116.895  0.00  0.00    -0.090 HD
ATOM     21  H   LIG d   1      -8.890  95.485 118.348  0.00  0.00    -0.090 HD
ENDBRANCH   5  18
BRANCH   3  22
ATOM     22  C   LIG d   1      -5.318  91.308 117.196  0.00  0.00     0.382 C 
ATOM     23  O   LIG d   1      -6.116  90.715 116.430  0.00  0.00    -0.241 OA
ATOM     24  O   LIG d   1      -4.236  90.767 117.493  0.00  0.00    -0.241 OA
ENDBRANCH   3  22
TORSDOF 7
ENDMDL
MODEL 7
REMARK VINA RESULT:      -3.9      2.338      4.699
REMARK  7 active torsions:
REMARK  status: ('A' for Active; 'I' for Inactive)
REMARK    1  A    between atoms: C_2  and  C_3 
REMARK    2  A    between atoms: C_3  and  O_6 
REMARK    3  A    between atoms: C_3  and  C_4 
REMARK    4  A    between atoms: C_7  and  O_6 
REMARK    5  A    between atoms: C_9  and  C_10 
REMARK    6  A    between atoms: N_15  and  C_14 
REMARK    7  A    between atoms: N_20  and  C_19 
REMARK       I    between atoms: C_22  and  N_20 
ROOT
ATOM      1  C   LIG d   1      -2.937  92.951 119.229  0.00  0.00     0.161 C 
ATOM      2  C   LIG d   1      -2.768  94.318 118.955  0.00  0.00     0.016 C 
ATOM      3  C   LIG d   1      -1.776  94.820 118.082  0.00  0.00     0.038 C 
ATOM      4  C   LIG d   1      -0.978  93.971 117.300  0.00  0.00     0.028 C 
ATOM      5  C   LIG d   1      -0.772  92.594 117.920  0.00  0.00    -0.047 C 
ATOM      6  C   LIG d   1      -2.149  92.003 118.301  0.00  0.00     0.091 C 
ENDROOT
BRANCH   1   7
ATOM      7  O   LIG d   1      -4.339  92.619 119.210  0.00  0.00    -0.368 OA
BRANCH   7   8
ATOM      8  C   LIG d   1      -5.260  93.735 119.281  0.00  0.00     0.119 C 
BRANCH   8   9
ATOM      9  C   LIG d   1      -5.865  93.747 120.698  0.00  0.00     0.028 C 
ATOM     10  C   LIG d   1      -5.332  94.907 121.555  0.00  0.00     0.006 C 
ENDBRANCH   8   9
BRANCH   8  11
ATOM     11  C   LIG d   1      -6.448  93.539 118.334  0.00  0.00     0.028 C 
ATOM     12  C   LIG d   1      -7.521  94.628 118.490  0.00  0.00     0.006 C 
ENDBRANCH   8  11
ENDBRANCH   7   8
ENDBRANCH   1   7
BRANCH   6  13
ATOM     13  N   LIG d   1      -2.032  90.692 118.991  0.00  0.00    -0.311 N 
ATOM     14  C   LIG d   1      -2.580  89.569 118.528  0.00  0.00     0.210 C 
ATOM     15  C   LIG d   1      -2.356  88.333 119.404  0.00  0.00     0.109 C 
ATOM     16  O   LIG d   1      -3.202  89.474 117.460  0.00  0.00    -0.276 OA
ATOM     17  H   LIG d   1      -1.517  90.672 119.849  0.00  0.00     0.149 HD
ENDBRANCH   6  13
BRANCH   5  18
ATOM     18  N   LIG d   1      -0.040  91.769 116.940  0.00  0.00     0.381 N 
ATOM     19  H   LIG d   1      -0.429  91.902 116.028  0.00  0.00    -0.090 HD
ATOM     20  H   LIG d   1      -0.143  90.801 117.189  0.00  0.00    -0.090 HD
ATOM     21  H   LIG d   1       0.924  92.018 116.937  0.00  0.00    -0.090 HD
ENDBRANCH   5  18
BRANCH   3  22
ATOM     22  C   LIG d   1      -1.548  96.186 118.013  0.00  0.00     0.382 C 
ATOM     23  O   LIG d   1      -2.300  96.979 118.629  0.00  0.00    -0.241 OA
ATOM     24  O   LIG d   1      -0.626  96.638 117.307  0.00  0.00    -0.241 OA
ENDBRANCH   3  22
TORSDOF 7
ENDMDL
MODEL 8
REMARK VINA RESULT:      -3.8      2.328      4.037
REMARK  7 active torsions:
REMARK  status: ('A' for Active; 'I' for Inactive)
REMARK    1  A    between atoms: C_2  and  C_3 
REMARK    2  A    between atoms: C_3  and  O_6 
REMARK    3  A    between atoms: C_3  and  C_4 
REMARK    4  A    between atoms: C_7  and  O_6 
REMARK    5  A    between atoms: C_9  and  C_10 
REMARK    6  A    between atoms: N_15  and  C_14 
REMARK    7  A    between atoms: N_20  and  C_19 
REMARK       I    between atoms: C_22  and  N_20 
ROOT
ATOM      1  C   LIG d   1      -3.472  92.058 118.607  0.00  0.00     0.161 C 
ATOM      2  C   LIG d   1      -4.466  91.756 117.662  0.00  0.00     0.016 C 
ATOM      3  C   LIG d   1      -5.758  92.329 117.680  0.00  0.00     0.038 C 
ATOM      4  C   LIG d   1      -6.097  93.365 118.564  0.00  0.00     0.028 C 
ATOM      5  C   LIG d   1      -5.291  93.345 119.858  0.00  0.00    -0.047 C 
ATOM      6  C   LIG d   1      -3.787  93.268 119.512  0.00  0.00     0.091 C 
ENDROOT
BRANCH   1   7
ATOM      7  O   LIG d   1      -2.206  92.245 117.944  0.00  0.00    -0.368 OA
BRANCH   7   8
ATOM      8  C   LIG d   1      -1.268  91.145 118.040  0.00  0.00     0.119 C 
BRANCH   8   9
ATOM      9  C   LIG d   1      -1.887  90.089 118.977  0.00  0.00     0.028 C 
ATOM     10  C   LIG d   1      -2.101  88.737 118.277  0.00  0.00     0.006 C 
ENDBRANCH   8   9
BRANCH   8  11
ATOM     11  C   LIG d   1       0.032  91.580 118.723  0.00  0.00     0.028 C 
ATOM     12  C   LIG d   1       1.251  90.769 118.255  0.00  0.00     0.006 C 
ENDBRANCH   8  11
ENDBRANCH   7   8
ENDBRANCH   1   7
BRANCH   6  13
ATOM     13  N   LIG d   1      -2.931  93.160 120.722  0.00  0.00    -0.311 N 
ATOM     14  C   LIG d   1      -1.862  93.924 120.935  0.00  0.00     0.210 C 
ATOM     15  C   LIG d   1      -1.109  93.634 122.237  0.00  0.00     0.109 C 
ATOM     16  O   LIG d   1      -1.484  94.836 120.185  0.00  0.00    -0.276 OA
ATOM     17  H   LIG d   1      -3.184  92.466 121.399  0.00  0.00     0.149 HD
ENDBRANCH   6  13
BRANCH   5  18
ATOM     18  N   LIG d   1      -5.648  94.554 120.624  0.00  0.00     0.381 N 
ATOM     19  H   LIG d   1      -6.204  94.302 121.416  0.00  0.00    -0.090 HD
ATOM     20  H   LIG d   1      -6.192  95.162 120.037  0.00  0.00    -0.090 HD
ATOM     21  H   LIG d   1      -4.822  95.024 120.924  0.00  0.00    -0.090 HD
ENDBRANCH   5  18
BRANCH   3  22
ATOM     22  C   LIG d   1      -6.740  91.838 116.833  0.00  0.00     0.382 C 
ATOM     23  O   LIG d   1      -6.684  90.652 116.430  0.00  0.00    -0.241 OA
ATOM     24  O   LIG d   1      -7.657  92.580 116.432  0.00  0.00    -0.241 OA
ENDBRANCH   3  22
TORSDOF 7
ENDMDL
MODEL 9
REMARK VINA RESULT:      -3.8      1.864      4.880
REMARK  7 active torsions:
REMARK  status: ('A' for Active; 'I' for Inactive)
REMARK    1  A    between atoms: C_2  and  C_3 
REMARK    2  A    between atoms: C_3  and  O_6 
REMARK    3  A    between atoms: C_3  and  C_4 
REMARK    4  A    between atoms: C_7  and  O_6 
REMARK    5  A    between atoms: C_9  and  C_10 
REMARK    6  A    between atoms: N_15  and  C_14 
REMARK    7  A    between atoms: N_20  and  C_19 
REMARK       I    between atoms: C_22  and  N_20 
ROOT
ATOM      1  C   LIG d   1      -4.407  93.029 119.992  0.00  0.00     0.161 C 
ATOM      2  C   LIG d   1      -3.477  92.210 119.331  0.00  0.00     0.016 C 
ATOM      3  C   LIG d   1      -3.734  91.585 118.090  0.00  0.00     0.038 C 
ATOM      4  C   LIG d   1      -4.892  91.860 117.347  0.00  0.00     0.028 C 
ATOM      5  C   LIG d   1      -6.077  92.283 118.207  0.00  0.00    -0.047 C 
ATOM      6  C   LIG d   1      -5.633  93.430 119.144  0.00  0.00     0.091 C 
ENDROOT
BRANCH   1   7
ATOM      7  O   LIG d   1      -3.748  94.204 120.505  0.00  0.00    -0.368 OA
BRANCH   7   8
ATOM      8  C   LIG d   1      -3.533  95.279 119.558  0.00  0.00     0.119 C 
BRANCH   8   9
ATOM      9  C   LIG d   1      -2.014  95.524 119.472  0.00  0.00     0.028 C 
ATOM     10  C   LIG d   1      -1.264  95.002 120.709  0.00  0.00     0.006 C 
ENDBRANCH   8   9
BRANCH   8  11
ATOM     11  C   LIG d   1      -4.128  96.596 120.066  0.00  0.00     0.028 C 
ATOM     12  C   LIG d   1      -4.675  96.489 121.498  0.00  0.00     0.006 C 
ENDBRANCH   8  11
ENDBRANCH   7   8
ENDBRANCH   1   7
BRANCH   6  13
ATOM     13  N   LIG d   1      -6.710  93.847 120.079  0.00  0.00    -0.311 N 
ATOM     14  C   LIG d   1      -7.639  94.750 119.771  0.00  0.00     0.210 C 
ATOM     15  C   LIG d   1      -8.645  95.050 120.887  0.00  0.00     0.109 C 
ATOM     16  O   LIG d   1      -7.746  95.307 118.668  0.00  0.00    -0.276 OA
ATOM     17  H   LIG d   1      -6.717  93.422 120.986  0.00  0.00     0.149 HD
ENDBRANCH   6  13
BRANCH   5  18
ATOM     18  N   LIG d   1      -7.172  92.671 117.298  0.00  0.00     0.381 N 
ATOM     19  H   LIG d   1      -8.044  92.647 117.788  0.00  0.00    -0.090 HD
ATOM     20  H   LIG d   1      -7.216  92.010 116.543  0.00  0.00    -0.090 HD
ATOM     21  H   LIG d   1      -7.010  93.586 116.939  0.00  0.00    -0.090 HD
ENDBRANCH   5  18
BRANCH   3  22
ATOM     22  C   LIG d   1      -2.844  90.642 117.598  0.00  0.00     0.382 C 
ATOM     23  O   LIG d   1      -3.275  89.585 117.078  0.00  0.00    -0.241 OA
ATOM     24  O   LIG d   1      -1.616  90.815 117.708  0.00  0.00    -0.241 OA
ENDBRANCH   3  22
TORSDOF 7
ENDMDL
