MODEL 1
REMARK VINA RESULT:      -4.3      0.000      0.000
REMARK  7 active torsions:
REMARK  status: ('A' for Active; 'I' for Inactive)
REMARK    1  A    between atoms: C_2  and  C_3 
REMARK    2  A    between atoms: C_3  and  O_6 
REMARK    3  A    between atoms: C_3  and  C_4 
REMARK    4  A    between atoms: C_7  and  O_6 
REMARK    5  A    between atoms: C_9  and  C_10 
REMARK    6  A    between atoms: N_15  and  C_14 
REMARK    7  A    between atoms: N_20  and  C_19 
REMARK       I    between atoms: C_22  and  N_20 
ROOT
ATOM      1  C   LIG d   1      -1.091  91.914 118.100  0.00  0.00     0.161 C 
ATOM      2  C   LIG d   1       0.304  92.062 118.188  0.00  0.00     0.016 C 
ATOM      3  C   LIG d   1       0.964  93.305 118.049  0.00  0.00     0.038 C 
ATOM      4  C   LIG d   1       0.259  94.514 117.963  0.00  0.00     0.028 C 
ATOM      5  C   LIG d   1      -1.136  94.361 117.365  0.00  0.00    -0.047 C 
ATOM      6  C   LIG d   1      -1.884  93.237 118.118  0.00  0.00     0.091 C 
ENDROOT
BRANCH   1   7
ATOM      7  O   LIG d   1      -1.555  91.037 119.146  0.00  0.00    -0.368 OA
BRANCH   7   8
ATOM      8  C   LIG d   1      -0.799  89.816 119.336  0.00  0.00     0.119 C 
BRANCH   8   9
ATOM      9  C   LIG d   1      -1.439  88.732 118.448  0.00  0.00     0.028 C 
ATOM     10  C   LIG d   1      -0.405  88.006 117.571  0.00  0.00     0.006 C 
ENDBRANCH   8   9
BRANCH   8  11
ATOM     11  C   LIG d   1      -0.933  89.296 120.770  0.00  0.00     0.028 C 
ATOM     12  C   LIG d   1      -2.396  89.180 121.228  0.00  0.00     0.006 C 
ENDBRANCH   8  11
ENDBRANCH   7   8
ENDBRANCH   1   7
BRANCH   6  13
ATOM     13  N   LIG d   1      -3.226  92.965 117.541  0.00  0.00    -0.311 N 
ATOM     14  C   LIG d   1      -4.332  92.856 118.275  0.00  0.00     0.210 C 
ATOM     15  C   LIG d   1      -5.607  92.553 117.483  0.00  0.00     0.109 C 
ATOM     16  O   LIG d   1      -4.383  93.013 119.505  0.00  0.00    -0.276 OA
ATOM     17  H   LIG d   1      -3.282  92.854 116.547  0.00  0.00     0.149 HD
ENDBRANCH   6  13
BRANCH   5  18
ATOM     18  N   LIG d   1      -1.809  95.670 117.462  0.00  0.00     0.381 N 
ATOM     19  H   LIG d   1      -2.701  95.560 117.902  0.00  0.00    -0.090 HD
ATOM     20  H   LIG d   1      -1.956  96.029 116.535  0.00  0.00    -0.090 HD
ATOM     21  H   LIG d   1      -1.247  96.304 117.987  0.00  0.00    -0.090 HD
ENDBRANCH   5  18
BRANCH   3  22
ATOM     22  C   LIG d   1       2.347  93.341 117.955  0.00  0.00     0.382 C 
ATOM     23  O   LIG d   1       2.904  93.195 116.840  0.00  0.00    -0.241 OA
ATOM     24  O   LIG d   1       3.047  93.473 118.977  0.00  0.00    -0.241 OA
ENDBRANCH   3  22
TORSDOF 7
ENDMDL
MODEL 2
REMARK VINA RESULT:      -3.9      2.296      4.515
REMARK  7 active torsions:
REMARK  status: ('A' for Active; 'I' for Inactive)
REMARK    1  A    between atoms: C_2  and  C_3 
REMARK    2  A    between atoms: C_3  and  O_6 
REMARK    3  A    between atoms: C_3  and  C_4 
REMARK    4  A    between atoms: C_7  and  O_6 
REMARK    5  A    between atoms: C_9  and  C_10 
REMARK    6  A    between atoms: N_15  and  C_14 
REMARK    7  A    between atoms: N_20  and  C_19 
REMARK       I    between atoms: C_22  and  N_20 
ROOT
ATOM      1  C   LIG d   1      -0.163  94.161 118.317  0.00  0.00     0.161 C 
ATOM      2  C   LIG d   1       1.140  93.868 117.881  0.00  0.00     0.016 C 
ATOM      3  C   LIG d   1       1.525  92.605 117.374  0.00  0.00     0.038 C 
ATOM      4  C   LIG d   1       0.590  91.590 117.125  0.00  0.00     0.028 C 
ATOM      5  C   LIG d   1      -0.643  91.669 118.019  0.00  0.00    -0.047 C 
ATOM      6  C   LIG d   1      -1.222  93.100 117.950  0.00  0.00     0.091 C 
ENDROOT
BRANCH   1   7
ATOM      7  O   LIG d   1      -0.562  95.457 117.828  0.00  0.00    -0.368 OA
BRANCH   7   8
ATOM      8  C   LIG d   1      -0.736  96.490 118.829  0.00  0.00     0.119 C 
BRANCH   8   9
ATOM      9  C   LIG d   1      -0.455  95.854 120.205  0.00  0.00     0.028 C 
ATOM     10  C   LIG d   1       0.652  96.590 120.977  0.00  0.00     0.006 C 
ENDBRANCH   8   9
BRANCH   8  11
ATOM     11  C   LIG d   1      -2.190  96.966 118.892  0.00  0.00     0.028 C 
ATOM     12  C   LIG d   1      -2.876  96.613 120.221  0.00  0.00     0.006 C 
ENDBRANCH   8  11
ENDBRANCH   7   8
ENDBRANCH   1   7
BRANCH   6  13
ATOM     13  N   LIG d   1      -2.381  93.288 118.861  0.00  0.00    -0.311 N 
ATOM     14  C   LIG d   1      -3.642  93.055 118.501  0.00  0.00     0.210 C 
ATOM     15  C   LIG d   1      -4.686  93.331 119.587  0.00  0.00     0.109 C 
ATOM     16  O   LIG d   1      -3.992  92.616 117.395  0.00  0.00    -0.276 OA
ATOM     17  H   LIG d   1      -2.185  93.612 119.788  0.00  0.00     0.149 HD
ENDBRANCH   6  13
BRANCH   5  18
ATOM     18  N   LIG d   1      -1.593  90.638 117.561  0.00  0.00     0.381 N 
ATOM     19  H   LIG d   1      -2.431  90.683 118.107  0.00  0.00    -0.090 HD
ATOM     20  H   LIG d   1      -1.179  89.732 117.694  0.00  0.00    -0.090 HD
ATOM     21  H   LIG d   1      -1.807  90.776 116.598  0.00  0.00    -0.090 HD
ENDBRANCH   5  18
BRANCH   3  22
ATOM     22  C   LIG d   1       2.866  92.336 117.147  0.00  0.00     0.382 C 
ATOM     23  O   LIG d   1       3.641  93.260 116.799  0.00  0.00    -0.241 OA
ATOM     24  O   LIG d   1       3.302  91.173 117.242  0.00  0.00    -0.241 OA
ENDBRANCH   3  22
TORSDOF 7
ENDMDL
MODEL 3
REMARK VINA RESULT:      -3.9      1.850      4.914
REMARK  7 active torsions:
REMARK  status: ('A' for Active; 'I' for Inactive)
REMARK    1  A    between atoms: C_2  and  C_3 
REMARK    2  A    between atoms: C_3  and  O_6 
REMARK    3  A    between atoms: C_3  and  C_4 
REMARK    4  A    between atoms: C_7  and  O_6 
REMARK    5  A    between atoms: C_9  and  C_10 
REMARK    6  A    between atoms: N_15  and  C_14 
REMARK    7  A    between atoms: N_20  and  C_19 
REMARK       I    between atoms: C_22  and  N_20 
ROOT
ATOM      1  C   LIG d   1      -0.640  91.326 118.309  0.00  0.00     0.161 C 
ATOM      2  C   LIG d   1      -2.032  91.475 118.189  0.00  0.00     0.016 C 
ATOM      3  C   LIG d   1      -2.670  92.728 118.043  0.00  0.00     0.038 C 
ATOM      4  C   LIG d   1      -1.944  93.913 117.854  0.00  0.00     0.028 C 
ATOM      5  C   LIG d   1      -0.551  93.874 118.473  0.00  0.00    -0.047 C 
ATOM      6  C   LIG d   1       0.176  92.597 117.994  0.00  0.00     0.091 C 
ENDROOT
BRANCH   1   7
ATOM      7  O   LIG d   1      -0.194  90.228 117.489  0.00  0.00    -0.368 OA
BRANCH   7   8
ATOM      8  C   LIG d   1       0.265  89.049 118.196  0.00  0.00     0.119 C 
BRANCH   8   9
ATOM      9  C   LIG d   1       1.773  88.899 117.915  0.00  0.00     0.028 C 
ATOM     10  C   LIG d   1       2.159  89.383 116.508  0.00  0.00     0.006 C 
ENDBRANCH   8   9
BRANCH   8  11
ATOM     11  C   LIG d   1      -0.380  87.778 117.637  0.00  0.00     0.028 C 
ATOM     12  C   LIG d   1       0.259  86.493 118.188  0.00  0.00     0.006 C 
ENDBRANCH   8  11
ENDBRANCH   7   8
ENDBRANCH   1   7
BRANCH   6  13
ATOM     13  N   LIG d   1       1.515  92.438 118.619  0.00  0.00    -0.311 N 
ATOM     14  C   LIG d   1       2.652  92.778 118.013  0.00  0.00     0.210 C 
ATOM     15  C   LIG d   1       3.922  92.513 118.827  0.00  0.00     0.109 C 
ATOM     16  O   LIG d   1       2.726  93.303 116.892  0.00  0.00    -0.276 OA
ATOM     17  H   LIG d   1       1.545  92.048 119.540  0.00  0.00     0.149 HD
ENDBRANCH   6  13
BRANCH   5  18
ATOM     18  N   LIG d   1       0.145  95.116 118.084  0.00  0.00     0.381 N 
ATOM     19  H   LIG d   1      -0.382  95.909 118.390  0.00  0.00    -0.090 HD
ATOM     20  H   LIG d   1       0.212  95.150 117.082  0.00  0.00    -0.090 HD
ATOM     21  H   LIG d   1       1.056  95.137 118.486  0.00  0.00    -0.090 HD
ENDBRANCH   5  18
BRANCH   3  22
ATOM     22  C   LIG d   1      -4.052  92.809 118.125  0.00  0.00     0.382 C 
ATOM     23  O   LIG d   1      -4.765  92.285 117.235  0.00  0.00    -0.241 OA
ATOM     24  O   LIG d   1      -4.594  93.436 119.055  0.00  0.00    -0.241 OA
ENDBRANCH   3  22
TORSDOF 7
ENDMDL
MODEL 4
REMARK VINA RESULT:      -3.9      1.780      2.416
REMARK  7 active torsions:
REMARK  status: ('A' for Active; 'I' for Inactive)
REMARK    1  A    between atoms: C_2  and  C_3 
REMARK    2  A    between atoms: C_3  and  O_6 
REMARK    3  A    between atoms: C_3  and  C_4 
REMARK    4  A    between atoms: C_7  and  O_6 
REMARK    5  A    between atoms: C_9  and  C_10 
REMARK    6  A    between atoms: N_15  and  C_14 
REMARK    7  A    between atoms: N_20  and  C_19 
REMARK       I    between atoms: C_22  and  N_20 
ROOT
ATOM      1  C   LIG d   1      -1.187  92.660 118.468  0.00  0.00     0.161 C 
ATOM      2  C   LIG d   1      -0.086  93.312 119.050  0.00  0.00     0.016 C 
ATOM      3  C   LIG d   1      -0.151  94.617 119.589  0.00  0.00     0.038 C 
ATOM      4  C   LIG d   1      -1.366  95.306 119.719  0.00  0.00     0.028 C 
ATOM      5  C   LIG d   1      -2.411  94.892 118.688  0.00  0.00    -0.047 C 
ATOM      6  C   LIG d   1      -2.546  93.353 118.701  0.00  0.00     0.091 C 
ENDROOT
BRANCH   1   7
ATOM      7  O   LIG d   1      -1.238  91.292 118.917  0.00  0.00    -0.368 OA
BRANCH   7   8
ATOM      8  C   LIG d   1      -1.133  90.278 117.887  0.00  0.00     0.119 C 
BRANCH   8   9
ATOM      9  C   LIG d   1      -2.098  89.137 118.261  0.00  0.00     0.028 C 
ATOM     10  C   LIG d   1      -1.357  87.856 118.680  0.00  0.00     0.006 C 
ENDBRANCH   8   9
BRANCH   8  11
ATOM     11  C   LIG d   1       0.261  89.643 117.871  0.00  0.00     0.028 C 
ATOM     12  C   LIG d   1       1.206  90.306 116.857  0.00  0.00     0.006 C 
ENDBRANCH   8  11
ENDBRANCH   7   8
ENDBRANCH   1   7
BRANCH   6  13
ATOM     13  N   LIG d   1      -3.487  92.858 117.663  0.00  0.00    -0.311 N 
ATOM     14  C   LIG d   1      -4.789  92.679 117.879  0.00  0.00     0.210 C 
ATOM     15  C   LIG d   1      -5.576  92.142 116.679  0.00  0.00     0.109 C 
ATOM     16  O   LIG d   1      -5.373  92.946 118.940  0.00  0.00    -0.276 OA
ATOM     17  H   LIG d   1      -3.103  92.646 116.763  0.00  0.00     0.149 HD
ENDBRANCH   6  13
BRANCH   5  18
ATOM     18  N   LIG d   1      -3.668  95.586 119.025  0.00  0.00     0.381 N 
ATOM     19  H   LIG d   1      -4.271  94.968 119.530  0.00  0.00    -0.090 HD
ATOM     20  H   LIG d   1      -4.131  95.853 118.174  0.00  0.00    -0.090 HD
ATOM     21  H   LIG d   1      -3.475  96.395 119.574  0.00  0.00    -0.090 HD
ENDBRANCH   5  18
BRANCH   3  22
ATOM     22  C   LIG d   1       1.016  95.263 119.968  0.00  0.00     0.382 C 
ATOM     23  O   LIG d   1       0.958  96.376 120.543  0.00  0.00    -0.241 OA
ATOM     24  O   LIG d   1       2.127  94.766 119.703  0.00  0.00    -0.241 OA
ENDBRANCH   3  22
TORSDOF 7
ENDMDL
MODEL 5
REMARK VINA RESULT:      -3.9      3.354      5.943
REMARK  7 active torsions:
REMARK  status: ('A' for Active; 'I' for Inactive)
REMARK    1  A    between atoms: C_2  and  C_3 
REMARK    2  A    between atoms: C_3  and  O_6 
REMARK    3  A    between atoms: C_3  and  C_4 
REMARK    4  A    between atoms: C_7  and  O_6 
REMARK    5  A    between atoms: C_9  and  C_10 
REMARK    6  A    between atoms: N_15  and  C_14 
REMARK    7  A    between atoms: N_20  and  C_19 
REMARK       I    between atoms: C_22  and  N_20 
ROOT
ATOM      1  C   LIG d   1      -3.088  93.378 119.115  0.00  0.00     0.161 C 
ATOM      2  C   LIG d   1      -3.758  92.808 118.020  0.00  0.00     0.016 C 
ATOM      3  C   LIG d   1      -5.165  92.819 117.877  0.00  0.00     0.038 C 
ATOM      4  C   LIG d   1      -5.993  93.539 118.751  0.00  0.00     0.028 C 
ATOM      5  C   LIG d   1      -5.403  93.705 120.147  0.00  0.00    -0.047 C 
ATOM      6  C   LIG d   1      -3.968  94.265 120.022  0.00  0.00     0.091 C 
ENDROOT
BRANCH   1   7
ATOM      7  O   LIG d   1      -1.940  94.117 118.654  0.00  0.00    -0.368 OA
BRANCH   7   8
ATOM      8  C   LIG d   1      -0.757  93.335 118.356  0.00  0.00     0.119 C 
BRANCH   8   9
ATOM      9  C   LIG d   1       0.123  93.326 119.621  0.00  0.00     0.028 C 
ATOM     10  C   LIG d   1       1.625  93.319 119.290  0.00  0.00     0.006 C 
ENDBRANCH   8   9
BRANCH   8  11
ATOM     11  C   LIG d   1       0.095  94.005 117.274  0.00  0.00     0.028 C 
ATOM     12  C   LIG d   1      -0.580  95.244 116.666  0.00  0.00     0.006 C 
ENDBRANCH   8  11
ENDBRANCH   7   8
ENDBRANCH   1   7
BRANCH   6  13
ATOM     13  N   LIG d   1      -3.287  94.378 121.338  0.00  0.00    -0.311 N 
ATOM     14  C   LIG d   1      -2.804  95.523 121.818  0.00  0.00     0.210 C 
ATOM     15  C   LIG d   1      -2.121  95.415 123.185  0.00  0.00     0.109 C 
ATOM     16  O   LIG d   1      -2.906  96.624 121.255  0.00  0.00    -0.276 OA
ATOM     17  H   LIG d   1      -3.189  93.538 121.874  0.00  0.00     0.149 HD
ENDBRANCH   6  13
BRANCH   5  18
ATOM     18  N   LIG d   1      -6.304  94.589 120.910  0.00  0.00     0.381 N 
ATOM     19  H   LIG d   1      -6.943  94.038 121.448  0.00  0.00    -0.090 HD
ATOM     20  H   LIG d   1      -6.835  95.147 120.265  0.00  0.00    -0.090 HD
ATOM     21  H   LIG d   1      -5.773  95.179 121.512  0.00  0.00    -0.090 HD
ENDBRANCH   5  18
BRANCH   3  22
ATOM     22  C   LIG d   1      -5.759  92.071 116.872  0.00  0.00     0.382 C 
ATOM     23  O   LIG d   1      -6.887  92.399 116.430  0.00  0.00    -0.241 OA
ATOM     24  O   LIG d   1      -5.203  91.046 116.434  0.00  0.00    -0.241 OA
ENDBRANCH   3  22
TORSDOF 7
ENDMDL
MODEL 6
REMARK VINA RESULT:      -3.6      2.120      4.848
REMARK  7 active torsions:
REMARK  status: ('A' for Active; 'I' for Inactive)
REMARK    1  A    between atoms: C_2  and  C_3 
REMARK    2  A    between atoms: C_3  and  O_6 
REMARK    3  A    between atoms: C_3  and  C_4 
REMARK    4  A    between atoms: C_7  and  O_6 
REMARK    5  A    between atoms: C_9  and  C_10 
REMARK    6  A    between atoms: N_15  and  C_14 
REMARK    7  A    between atoms: N_20  and  C_19 
REMARK       I    between atoms: C_22  and  N_20 
ROOT
ATOM      1  C   LIG d   1      -0.417  92.479 118.137  0.00  0.00     0.161 C 
ATOM      2  C   LIG d   1      -0.556  91.082 118.114  0.00  0.00     0.016 C 
ATOM      3  C   LIG d   1      -1.808  90.425 118.118  0.00  0.00     0.038 C 
ATOM      4  C   LIG d   1      -3.015  91.128 117.991  0.00  0.00     0.028 C 
ATOM      5  C   LIG d   1      -2.942  92.557 118.519  0.00  0.00    -0.047 C 
ATOM      6  C   LIG d   1      -1.722  93.264 117.886  0.00  0.00     0.091 C 
ENDROOT
BRANCH   1   7
ATOM      7  O   LIG d   1       0.599  92.884 117.197  0.00  0.00    -0.368 OA
BRANCH   7   8
ATOM      8  C   LIG d   1       1.801  93.459 117.767  0.00  0.00     0.119 C 
BRANCH   8   9
ATOM      9  C   LIG d   1       2.993  92.606 117.292  0.00  0.00     0.028 C 
ATOM     10  C   LIG d   1       3.434  91.576 118.345  0.00  0.00     0.006 C 
ENDBRANCH   8   9
BRANCH   8  11
ATOM     11  C   LIG d   1       1.804  93.345 119.294  0.00  0.00     0.028 C 
ATOM     12  C   LIG d   1       1.805  94.714 119.994  0.00  0.00     0.006 C 
ENDBRANCH   8  11
ENDBRANCH   7   8
ENDBRANCH   1   7
BRANCH   6  13
ATOM     13  N   LIG d   1      -1.527  94.640 118.413  0.00  0.00    -0.311 N 
ATOM     14  C   LIG d   1      -1.128  95.663 117.660  0.00  0.00     0.210 C 
ATOM     15  C   LIG d   1      -0.972  96.992 118.405  0.00  0.00     0.109 C 
ATOM     16  O   LIG d   1      -0.920  95.604 116.438  0.00  0.00    -0.276 OA
ATOM     17  H   LIG d   1      -1.704  94.785 119.387  0.00  0.00     0.149 HD
ENDBRANCH   6  13
BRANCH   5  18
ATOM     18  N   LIG d   1      -4.222  93.217 118.199  0.00  0.00     0.381 N 
ATOM     19  H   LIG d   1      -4.278  94.096 118.674  0.00  0.00    -0.090 HD
ATOM     20  H   LIG d   1      -4.976  92.636 118.522  0.00  0.00    -0.090 HD
ATOM     21  H   LIG d   1      -4.297  93.356 117.216  0.00  0.00    -0.090 HD
ENDBRANCH   5  18
BRANCH   3  22
ATOM     22  C   LIG d   1      -1.863  89.050 118.291  0.00  0.00     0.382 C 
ATOM     23  O   LIG d   1      -2.652  88.554 119.130  0.00  0.00    -0.241 OA
ATOM     24  O   LIG d   1      -1.100  88.302 117.649  0.00  0.00    -0.241 OA
ENDBRANCH   3  22
TORSDOF 7
ENDMDL
MODEL 7
REMARK VINA RESULT:      -3.6      2.686      6.108
REMARK  7 active torsions:
REMARK  status: ('A' for Active; 'I' for Inactive)
REMARK    1  A    between atoms: C_2  and  C_3 
REMARK    2  A    between atoms: C_3  and  O_6 
REMARK    3  A    between atoms: C_3  and  C_4 
REMARK    4  A    between atoms: C_7  and  O_6 
REMARK    5  A    between atoms: C_9  and  C_10 
REMARK    6  A    between atoms: N_15  and  C_14 
REMARK    7  A    between atoms: N_20  and  C_19 
REMARK       I    between atoms: C_22  and  N_20 
ROOT
ATOM      1  C   LIG d   1      -1.173  92.872 118.173  0.00  0.00     0.161 C 
ATOM      2  C   LIG d   1      -2.553  93.080 118.019  0.00  0.00     0.016 C 
ATOM      3  C   LIG d   1      -3.481  92.031 117.826  0.00  0.00     0.038 C 
ATOM      4  C   LIG d   1      -3.107  90.682 117.925  0.00  0.00     0.028 C 
ATOM      5  C   LIG d   1      -1.644  90.432 117.577  0.00  0.00    -0.047 C 
ATOM      6  C   LIG d   1      -0.761  91.402 118.396  0.00  0.00     0.091 C 
ENDROOT
BRANCH   1   7
ATOM      7  O   LIG d   1      -0.670  93.700 119.241  0.00  0.00    -0.368 OA
BRANCH   7   8
ATOM      8  C   LIG d   1       0.193  94.795 118.846  0.00  0.00     0.119 C 
BRANCH   8   9
ATOM      9  C   LIG d   1       1.365  94.844 119.845  0.00  0.00     0.028 C 
ATOM     10  C   LIG d   1       1.384  93.629 120.788  0.00  0.00     0.006 C 
ENDBRANCH   8   9
BRANCH   8  11
ATOM     11  C   LIG d   1      -0.518  96.144 118.989  0.00  0.00     0.028 C 
ATOM     12  C   LIG d   1      -0.822  96.804 117.634  0.00  0.00     0.006 C 
ENDBRANCH   8  11
ENDBRANCH   7   8
ENDBRANCH   1   7
BRANCH   6  13
ATOM     13  N   LIG d   1       0.681  91.281 118.054  0.00  0.00    -0.311 N 
ATOM     14  C   LIG d   1       1.530  90.502 118.721  0.00  0.00     0.210 C 
ATOM     15  C   LIG d   1       2.976  90.541 118.216  0.00  0.00     0.109 C 
ATOM     16  O   LIG d   1       1.217  89.759 119.663  0.00  0.00    -0.276 OA
ATOM     17  H   LIG d   1       1.013  91.827 117.283  0.00  0.00     0.149 HD
ENDBRANCH   6  13
BRANCH   5  18
ATOM     18  N   LIG d   1      -1.356  89.013 117.856  0.00  0.00     0.381 N 
ATOM     19  H   LIG d   1      -0.602  88.942 118.511  0.00  0.00    -0.090 HD
ATOM     20  H   LIG d   1      -1.074  88.564 117.002  0.00  0.00    -0.090 HD
ATOM     21  H   LIG d   1      -2.167  88.565 118.223  0.00  0.00    -0.090 HD
ENDBRANCH   5  18
BRANCH   3  22
ATOM     22  C   LIG d   1      -4.793  92.327 117.489  0.00  0.00     0.382 C 
ATOM     23  O   LIG d   1      -5.289  91.866 116.433  0.00  0.00    -0.241 OA
ATOM     24  O   LIG d   1      -5.473  93.086 118.206  0.00  0.00    -0.241 OA
ENDBRANCH   3  22
TORSDOF 7
ENDMDL
MODEL 8
REMARK VINA RESULT:      -3.6      3.256      5.842
REMARK  7 active torsions:
REMARK  status: ('A' for Active; 'I' for Inactive)
REMARK    1  A    between atoms: C_2  and  C_3 
REMARK    2  A    between atoms: C_3  and  O_6 
REMARK    3  A    between atoms: C_3  and  C_4 
REMARK    4  A    between atoms: C_7  and  O_6 
REMARK    5  A    between atoms: C_9  and  C_10 
REMARK    6  A    between atoms: N_15  and  C_14 
REMARK    7  A    between atoms: N_20  and  C_19 
REMARK       I    between atoms: C_22  and  N_20 
ROOT
ATOM      1  C   LIG d   1       2.366  91.994 117.261  0.00  0.00     0.161 C 
ATOM      2  C   LIG d   1       1.864  93.291 117.459  0.00  0.00     0.016 C 
ATOM      3  C   LIG d   1       0.489  93.578 117.620  0.00  0.00     0.038 C 
ATOM      4  C   LIG d   1      -0.470  92.562 117.746  0.00  0.00     0.028 C 
ATOM      5  C   LIG d   1      -0.074  91.265 117.048  0.00  0.00    -0.047 C 
ATOM      6  C   LIG d   1       1.346  90.862 117.507  0.00  0.00     0.091 C 
ENDROOT
BRANCH   1   7
ATOM      7  O   LIG d   1       3.540  91.795 118.073  0.00  0.00    -0.368 OA
BRANCH   7   8
ATOM      8  C   LIG d   1       4.814  91.977 117.407  0.00  0.00     0.119 C 
BRANCH   8   9
ATOM      9  C   LIG d   1       5.356  90.578 117.056  0.00  0.00     0.028 C 
ATOM     10  C   LIG d   1       6.772  90.342 117.609  0.00  0.00     0.006 C 
ENDBRANCH   8   9
BRANCH   8  11
ATOM     11  C   LIG d   1       5.853  92.591 118.349  0.00  0.00     0.028 C 
ATOM     12  C   LIG d   1       5.224  93.215 119.605  0.00  0.00     0.006 C 
ENDBRANCH   8  11
ENDBRANCH   7   8
ENDBRANCH   1   7
BRANCH   6  13
ATOM     13  N   LIG d   1       1.844  89.649 116.808  0.00  0.00    -0.311 N 
ATOM     14  C   LIG d   1       1.725  88.418 117.302  0.00  0.00     0.210 C 
ATOM     15  C   LIG d   1       2.325  87.310 116.430  0.00  0.00     0.109 C 
ATOM     16  O   LIG d   1       1.151  88.134 118.365  0.00  0.00    -0.276 OA
ATOM     17  H   LIG d   1       2.295  89.784 115.925  0.00  0.00     0.149 HD
ENDBRANCH   6  13
BRANCH   5  18
ATOM     18  N   LIG d   1      -1.096  90.253 117.375  0.00  0.00     0.381 N 
ATOM     19  H   LIG d   1      -1.983  90.697 117.505  0.00  0.00    -0.090 HD
ATOM     20  H   LIG d   1      -0.842  89.800 118.235  0.00  0.00    -0.090 HD
ATOM     21  H   LIG d   1      -1.157  89.581 116.642  0.00  0.00    -0.090 HD
ENDBRANCH   5  18
BRANCH   3  22
ATOM     22  C   LIG d   1       0.057  94.896 117.616  0.00  0.00     0.382 C 
ATOM     23  O   LIG d   1       0.241  95.618 118.625  0.00  0.00    -0.241 OA
ATOM     24  O   LIG d   1      -0.554  95.357 116.634  0.00  0.00    -0.241 OA
ENDBRANCH   3  22
TORSDOF 7
ENDMDL
MODEL 9
REMARK VINA RESULT:      -3.6      2.095      5.093
REMARK  7 active torsions:
REMARK  status: ('A' for Active; 'I' for Inactive)
REMARK    1  A    between atoms: C_2  and  C_3 
REMARK    2  A    between atoms: C_3  and  O_6 
REMARK    3  A    between atoms: C_3  and  C_4 
REMARK    4  A    between atoms: C_7  and  O_6 
REMARK    5  A    between atoms: C_9  and  C_10 
REMARK    6  A    between atoms: N_15  and  C_14 
REMARK    7  A    between atoms: N_20  and  C_19 
REMARK       I    between atoms: C_22  and  N_20 
ROOT
ATOM      1  C   LIG d   1      -0.722  92.103 118.933  0.00  0.00     0.161 C 
ATOM      2  C   LIG d   1      -0.824  90.716 119.135  0.00  0.00     0.016 C 
ATOM      3  C   LIG d   1      -1.950  89.954 118.747  0.00  0.00     0.038 C 
ATOM      4  C   LIG d   1      -2.993  90.505 117.988  0.00  0.00     0.028 C 
ATOM      5  C   LIG d   1      -3.168  92.005 118.199  0.00  0.00    -0.047 C 
ATOM      6  C   LIG d   1      -1.802  92.702 118.007  0.00  0.00     0.091 C 
ENDROOT
BRANCH   1   7
ATOM      7  O   LIG d   1       0.594  92.430 118.445  0.00  0.00    -0.368 OA
BRANCH   7   8
ATOM      8  C   LIG d   1       1.627  92.579 119.450  0.00  0.00     0.119 C 
BRANCH   8   9
ATOM      9  C   LIG d   1       1.106  93.574 120.505  0.00  0.00     0.028 C 
ATOM     10  C   LIG d   1       1.392  95.036 120.124  0.00  0.00     0.006 C 
ENDBRANCH   8   9
BRANCH   8  11
ATOM     11  C   LIG d   1       2.884  93.230 118.864  0.00  0.00     0.028 C 
ATOM     12  C   LIG d   1       3.100  92.882 117.383  0.00  0.00     0.006 C 
ENDBRANCH   8  11
ENDBRANCH   7   8
ENDBRANCH   1   7
BRANCH   6  13
ATOM     13  N   LIG d   1      -1.867  94.162 118.279  0.00  0.00    -0.311 N 
ATOM     14  C   LIG d   1      -1.308  95.080 117.492  0.00  0.00     0.210 C 
ATOM     15  C   LIG d   1      -1.476  96.527 117.966  0.00  0.00     0.109 C 
ATOM     16  O   LIG d   1      -0.716  94.835 116.430  0.00  0.00    -0.276 OA
ATOM     17  H   LIG d   1      -2.355  94.451 119.104  0.00  0.00     0.149 HD
ENDBRANCH   6  13
BRANCH   5  18
ATOM     18  N   LIG d   1      -4.194  92.472 117.248  0.00  0.00     0.381 N 
ATOM     19  H   LIG d   1      -4.321  93.460 117.345  0.00  0.00    -0.090 HD
ATOM     20  H   LIG d   1      -5.066  92.020 117.462  0.00  0.00    -0.090 HD
ATOM     21  H   LIG d   1      -3.919  92.255 116.316  0.00  0.00    -0.090 HD
ENDBRANCH   5  18
BRANCH   3  22
ATOM     22  C   LIG d   1      -2.058  88.632 119.153  0.00  0.00     0.382 C 
ATOM     23  O   LIG d   1      -1.499  87.725 118.491  0.00  0.00    -0.241 OA
ATOM     24  O   LIG d   1      -2.744  88.331 120.148  0.00  0.00    -0.241 OA
ENDBRANCH   3  22
TORSDOF 7
ENDMDL
