MODEL 1
REMARK VINA RESULT:      -5.0      0.000      0.000
REMARK  7 active torsions:
REMARK  status: ('A' for Active; 'I' for Inactive)
REMARK    1  A    between atoms: C_2  and  C_3 
REMARK    2  A    between atoms: C_3  and  O_6 
REMARK    3  A    between atoms: C_3  and  C_4 
REMARK    4  A    between atoms: C_7  and  O_6 
REMARK    5  A    between atoms: C_9  and  C_10 
REMARK    6  A    between atoms: N_15  and  C_14 
REMARK    7  A    between atoms: N_20  and  C_19 
REMARK       I    between atoms: C_22  and  N_20 
ROOT
ATOM      1  C   LIG d   1      -5.393  91.913 120.234  0.00  0.00     0.161 C 
ATOM      2  C   LIG d   1      -6.792  91.951 120.107  0.00  0.00     0.016 C 
ATOM      3  C   LIG d   1      -7.521  93.144 119.900  0.00  0.00     0.038 C 
ATOM      4  C   LIG d   1      -6.885  94.370 119.653  0.00  0.00     0.028 C 
ATOM      5  C   LIG d   1      -5.495  94.466 120.273  0.00  0.00    -0.047 C 
ATOM      6  C   LIG d   1      -4.673  93.224 119.857  0.00  0.00     0.091 C 
ENDROOT
BRANCH   1   7
ATOM      7  O   LIG d   1      -4.863  90.812 119.469  0.00  0.00    -0.368 OA
BRANCH   7   8
ATOM      8  C   LIG d   1      -4.513  91.102 118.094  0.00  0.00     0.119 C 
BRANCH   8   9
ATOM      9  C   LIG d   1      -5.563  90.423 117.195  0.00  0.00     0.028 C 
ATOM     10  C   LIG d   1      -6.428  91.439 116.430  0.00  0.00     0.006 C 
ENDBRANCH   8   9
BRANCH   8  11
ATOM     11  C   LIG d   1      -3.176  90.460 117.712  0.00  0.00     0.028 C 
ATOM     12  C   LIG d   1      -2.392  89.946 118.930  0.00  0.00     0.006 C 
ENDBRANCH   8  11
ENDBRANCH   7   8
ENDBRANCH   1   7
BRANCH   6  13
ATOM     13  N   LIG d   1      -3.328  93.197 120.489  0.00  0.00    -0.311 N 
ATOM     14  C   LIG d   1      -2.218  93.588 119.866  0.00  0.00     0.210 C 
ATOM     15  C   LIG d   1      -0.934  93.460 120.692  0.00  0.00     0.109 C 
ATOM     16  O   LIG d   1      -2.178  94.060 118.720  0.00  0.00    -0.276 OA
ATOM     17  H   LIG d   1      -3.273  92.858 121.429  0.00  0.00     0.149 HD
ENDBRANCH   6  13
BRANCH   5  18
ATOM     18  N   LIG d   1      -4.893  95.735 119.823  0.00  0.00     0.381 N 
ATOM     19  H   LIG d   1      -5.612  96.408 119.650  0.00  0.00    -0.090 HD
ATOM     20  H   LIG d   1      -4.398  95.573 118.963  0.00  0.00    -0.090 HD
ATOM     21  H   LIG d   1      -4.265  96.079 120.516  0.00  0.00    -0.090 HD
ENDBRANCH   5  18
BRANCH   3  22
ATOM     22  C   LIG d   1      -8.906  93.125 119.978  0.00  0.00     0.382 C 
ATOM     23  O   LIG d   1      -9.592  93.689 119.091  0.00  0.00    -0.241 OA
ATOM     24  O   LIG d   1      -9.476  92.590 120.947  0.00  0.00    -0.241 OA
ENDBRANCH   3  22
TORSDOF 7
ENDMDL
MODEL 2
REMARK VINA RESULT:      -4.9      0.818      1.898
REMARK  7 active torsions:
REMARK  status: ('A' for Active; 'I' for Inactive)
REMARK    1  A    between atoms: C_2  and  C_3 
REMARK    2  A    between atoms: C_3  and  O_6 
REMARK    3  A    between atoms: C_3  and  C_4 
REMARK    4  A    between atoms: C_7  and  O_6 
REMARK    5  A    between atoms: C_9  and  C_10 
REMARK    6  A    between atoms: N_15  and  C_14 
REMARK    7  A    between atoms: N_20  and  C_19 
REMARK       I    between atoms: C_22  and  N_20 
ROOT
ATOM      1  C   LIG d   1      -5.323  92.203 119.458  0.00  0.00     0.161 C 
ATOM      2  C   LIG d   1      -6.724  92.252 119.375  0.00  0.00     0.016 C 
ATOM      3  C   LIG d   1      -7.504  93.265 119.979  0.00  0.00     0.038 C 
ATOM      4  C   LIG d   1      -6.921  94.389 120.584  0.00  0.00     0.028 C 
ATOM      5  C   LIG d   1      -5.522  94.125 121.130  0.00  0.00    -0.047 C 
ATOM      6  C   LIG d   1      -4.663  93.480 120.018  0.00  0.00     0.091 C 
ENDROOT
BRANCH   1   7
ATOM      7  O   LIG d   1      -4.769  91.878 118.168  0.00  0.00    -0.368 OA
BRANCH   7   8
ATOM      8  C   LIG d   1      -4.460  90.480 117.941  0.00  0.00     0.119 C 
BRANCH   8   9
ATOM      9  C   LIG d   1      -2.925  90.344 117.917  0.00  0.00     0.028 C 
ATOM     10  C   LIG d   1      -2.366  89.777 119.233  0.00  0.00     0.006 C 
ENDBRANCH   8   9
BRANCH   8  11
ATOM     11  C   LIG d   1      -4.929  90.023 116.557  0.00  0.00     0.028 C 
ATOM     12  C   LIG d   1      -6.460  89.982 116.431  0.00  0.00     0.006 C 
ENDBRANCH   8  11
ENDBRANCH   7   8
ENDBRANCH   1   7
BRANCH   6  13
ATOM     13  N   LIG d   1      -3.304  93.112 120.494  0.00  0.00    -0.311 N 
ATOM     14  C   LIG d   1      -2.184  93.493 119.880  0.00  0.00     0.210 C 
ATOM     15  C   LIG d   1      -0.890  92.988 120.525  0.00  0.00     0.109 C 
ATOM     16  O   LIG d   1      -2.140  94.227 118.882  0.00  0.00    -0.276 OA
ATOM     17  H   LIG d   1      -3.246  92.544 121.316  0.00  0.00     0.149 HD
ENDBRANCH   6  13
BRANCH   5  18
ATOM     18  N   LIG d   1      -4.980  95.412 121.607  0.00  0.00     0.381 N 
ATOM     19  H   LIG d   1      -5.695  95.925 122.083  0.00  0.00    -0.090 HD
ATOM     20  H   LIG d   1      -4.679  95.951 120.814  0.00  0.00    -0.090 HD
ATOM     21  H   LIG d   1      -4.211  95.251 122.220  0.00  0.00    -0.090 HD
ENDBRANCH   5  18
BRANCH   3  22
ATOM     22  C   LIG d   1      -8.885  93.139 120.017  0.00  0.00     0.382 C 
ATOM     23  O   LIG d   1      -9.588  93.685 119.133  0.00  0.00    -0.241 OA
ATOM     24  O   LIG d   1      -9.438  92.524 120.948  0.00  0.00    -0.241 OA
ENDBRANCH   3  22
TORSDOF 7
ENDMDL
MODEL 3
REMARK VINA RESULT:      -4.6      1.306      2.180
REMARK  7 active torsions:
REMARK  status: ('A' for Active; 'I' for Inactive)
REMARK    1  A    between atoms: C_2  and  C_3 
REMARK    2  A    between atoms: C_3  and  O_6 
REMARK    3  A    between atoms: C_3  and  C_4 
REMARK    4  A    between atoms: C_7  and  O_6 
REMARK    5  A    between atoms: C_9  and  C_10 
REMARK    6  A    between atoms: N_15  and  C_14 
REMARK    7  A    between atoms: N_20  and  C_19 
REMARK       I    between atoms: C_22  and  N_20 
ROOT
ATOM      1  C   LIG d   1      -5.178  93.009 120.053  0.00  0.00     0.161 C 
ATOM      2  C   LIG d   1      -6.518  92.767 119.711  0.00  0.00     0.016 C 
ATOM      3  C   LIG d   1      -7.527  93.756 119.766  0.00  0.00     0.038 C 
ATOM      4  C   LIG d   1      -7.232  95.102 120.026  0.00  0.00     0.028 C 
ATOM      5  C   LIG d   1      -5.976  95.295 120.870  0.00  0.00    -0.047 C 
ATOM      6  C   LIG d   1      -4.815  94.499 120.232  0.00  0.00     0.091 C 
ENDROOT
BRANCH   1   7
ATOM      7  O   LIG d   1      -4.307  92.394 119.084  0.00  0.00    -0.368 OA
BRANCH   7   8
ATOM      8  C   LIG d   1      -4.772  91.148 118.509  0.00  0.00     0.119 C 
BRANCH   8   9
ATOM      9  C   LIG d   1      -3.721  90.068 118.832  0.00  0.00     0.028 C 
ATOM     10  C   LIG d   1      -4.003  89.357 120.166  0.00  0.00     0.006 C 
ENDBRANCH   8   9
BRANCH   8  11
ATOM     11  C   LIG d   1      -4.818  91.224 116.980  0.00  0.00     0.028 C 
ATOM     12  C   LIG d   1      -6.252  91.289 116.430  0.00  0.00     0.006 C 
ENDBRANCH   8  11
ENDBRANCH   7   8
ENDBRANCH   1   7
BRANCH   6  13
ATOM     13  N   LIG d   1      -3.571  94.565 121.041  0.00  0.00    -0.311 N 
ATOM     14  C   LIG d   1      -2.521  95.315 120.711  0.00  0.00     0.210 C 
ATOM     15  C   LIG d   1      -1.332  95.222 121.672  0.00  0.00     0.109 C 
ATOM     16  O   LIG d   1      -2.473  96.072 119.730  0.00  0.00    -0.276 OA
ATOM     17  H   LIG d   1      -3.535  94.005 121.870  0.00  0.00     0.149 HD
ENDBRANCH   6  13
BRANCH   5  18
ATOM     18  N   LIG d   1      -5.710  96.744 120.947  0.00  0.00     0.381 N 
ATOM     19  H   LIG d   1      -5.667  97.130 120.025  0.00  0.00    -0.090 HD
ATOM     20  H   LIG d   1      -4.819  96.887 121.390  0.00  0.00    -0.090 HD
ATOM     21  H   LIG d   1      -6.427  97.195 121.471  0.00  0.00    -0.090 HD
ENDBRANCH   5  18
BRANCH   3  22
ATOM     22  C   LIG d   1      -8.855  93.393 119.600  0.00  0.00     0.382 C 
ATOM     23  O   LIG d   1      -9.336  92.449 120.272  0.00  0.00    -0.241 OA
ATOM     24  O   LIG d   1      -9.566  93.968 118.754  0.00  0.00    -0.241 OA
ENDBRANCH   3  22
TORSDOF 7
ENDMDL
MODEL 4
REMARK VINA RESULT:      -4.5      2.728      4.132
REMARK  7 active torsions:
REMARK  status: ('A' for Active; 'I' for Inactive)
REMARK    1  A    between atoms: C_2  and  C_3 
REMARK    2  A    between atoms: C_3  and  O_6 
REMARK    3  A    between atoms: C_3  and  C_4 
REMARK    4  A    between atoms: C_7  and  O_6 
REMARK    5  A    between atoms: C_9  and  C_10 
REMARK    6  A    between atoms: N_15  and  C_14 
REMARK    7  A    between atoms: N_20  and  C_19 
REMARK       I    between atoms: C_22  and  N_20 
ROOT
ATOM      1  C   LIG d   1      -4.164  91.925 119.616  0.00  0.00     0.161 C 
ATOM      2  C   LIG d   1      -5.335  91.498 118.966  0.00  0.00     0.016 C 
ATOM      3  C   LIG d   1      -5.331  90.795 117.740  0.00  0.00     0.038 C 
ATOM      4  C   LIG d   1      -4.143  90.336 117.151  0.00  0.00     0.028 C 
ATOM      5  C   LIG d   1      -2.925  91.180 117.510  0.00  0.00    -0.047 C 
ATOM      6  C   LIG d   1      -2.857  91.337 119.046  0.00  0.00     0.091 C 
ENDROOT
BRANCH   1   7
ATOM      7  O   LIG d   1      -4.263  91.653 121.028  0.00  0.00    -0.368 OA
BRANCH   7   8
ATOM      8  C   LIG d   1      -4.992  90.457 121.397  0.00  0.00     0.119 C 
BRANCH   8   9
ATOM      9  C   LIG d   1      -5.859  90.803 122.623  0.00  0.00     0.028 C 
ATOM     10  C   LIG d   1      -7.327  91.066 122.248  0.00  0.00     0.006 C 
ENDBRANCH   8   9
BRANCH   8  11
ATOM     11  C   LIG d   1      -4.044  89.351 121.871  0.00  0.00     0.028 C 
ATOM     12  C   LIG d   1      -3.716  88.334 120.766  0.00  0.00     0.006 C 
ENDBRANCH   8  11
ENDBRANCH   7   8
ENDBRANCH   1   7
BRANCH   6  13
ATOM     13  N   LIG d   1      -1.741  92.219 119.477  0.00  0.00    -0.311 N 
ATOM     14  C   LIG d   1      -0.699  91.789 120.186  0.00  0.00     0.210 C 
ATOM     15  C   LIG d   1       0.329  92.868 120.543  0.00  0.00     0.109 C 
ATOM     16  O   LIG d   1      -0.512  90.611 120.526  0.00  0.00    -0.276 OA
ATOM     17  H   LIG d   1      -1.796  93.184 119.217  0.00  0.00     0.149 HD
ENDBRANCH   6  13
BRANCH   5  18
ATOM     18  N   LIG d   1      -1.738  90.512 116.944  0.00  0.00     0.381 N 
ATOM     19  H   LIG d   1      -0.952  91.130 116.978  0.00  0.00    -0.090 HD
ATOM     20  H   LIG d   1      -1.919  90.286 115.982  0.00  0.00    -0.090 HD
ATOM     21  H   LIG d   1      -1.538  89.680 117.455  0.00  0.00    -0.090 HD
ENDBRANCH   5  18
BRANCH   3  22
ATOM     22  C   LIG d   1      -6.525  90.579 117.068  0.00  0.00     0.382 C 
ATOM     23  O   LIG d   1      -6.956  89.411 116.915  0.00  0.00    -0.241 OA
ATOM     24  O   LIG d   1      -7.154  91.535 116.574  0.00  0.00    -0.241 OA
ENDBRANCH   3  22
TORSDOF 7
ENDMDL
MODEL 5
REMARK VINA RESULT:      -4.5      2.780      6.479
REMARK  7 active torsions:
REMARK  status: ('A' for Active; 'I' for Inactive)
REMARK    1  A    between atoms: C_2  and  C_3 
REMARK    2  A    between atoms: C_3  and  O_6 
REMARK    3  A    between atoms: C_3  and  C_4 
REMARK    4  A    between atoms: C_7  and  O_6 
REMARK    5  A    between atoms: C_9  and  C_10 
REMARK    6  A    between atoms: N_15  and  C_14 
REMARK    7  A    between atoms: N_20  and  C_19 
REMARK       I    between atoms: C_22  and  N_20 
ROOT
ATOM      1  C   LIG d   1      -1.365  91.003 117.661  0.00  0.00     0.161 C 
ATOM      2  C   LIG d   1      -0.011  91.358 117.782  0.00  0.00     0.016 C 
ATOM      3  C   LIG d   1       0.424  92.644 118.177  0.00  0.00     0.038 C 
ATOM      4  C   LIG d   1      -0.473  93.625 118.625  0.00  0.00     0.028 C 
ATOM      5  C   LIG d   1      -1.874  93.478 118.039  0.00  0.00    -0.047 C 
ATOM      6  C   LIG d   1      -2.357  92.026 118.252  0.00  0.00     0.091 C 
ENDROOT
BRANCH   1   7
ATOM      7  O   LIG d   1      -1.582  89.701 118.240  0.00  0.00    -0.368 OA
BRANCH   7   8
ATOM      8  C   LIG d   1      -2.016  89.682 119.622  0.00  0.00     0.119 C 
BRANCH   8   9
ATOM      9  C   LIG d   1      -0.928  88.957 120.438  0.00  0.00     0.028 C 
ATOM     10  C   LIG d   1      -0.246  87.834 119.640  0.00  0.00     0.006 C 
ENDBRANCH   8   9
BRANCH   8  11
ATOM     11  C   LIG d   1      -3.283  88.840 119.797  0.00  0.00     0.028 C 
ATOM     12  C   LIG d   1      -4.073  89.210 121.062  0.00  0.00     0.006 C 
ENDBRANCH   8  11
ENDBRANCH   7   8
ENDBRANCH   1   7
BRANCH   6  13
ATOM     13  N   LIG d   1      -3.685  91.773 117.634  0.00  0.00    -0.311 N 
ATOM     14  C   LIG d   1      -4.835  91.880 118.298  0.00  0.00     0.210 C 
ATOM     15  C   LIG d   1      -6.087  91.557 117.477  0.00  0.00     0.109 C 
ATOM     16  O   LIG d   1      -4.938  92.243 119.479  0.00  0.00    -0.276 OA
ATOM     17  H   LIG d   1      -3.695  91.504 116.670  0.00  0.00     0.149 HD
ENDBRANCH   6  13
BRANCH   5  18
ATOM     18  N   LIG d   1      -2.738  94.478 118.695  0.00  0.00     0.381 N 
ATOM     19  H   LIG d   1      -3.198  95.034 118.002  0.00  0.00    -0.090 HD
ATOM     20  H   LIG d   1      -2.166  95.083 119.257  0.00  0.00    -0.090 HD
ATOM     21  H   LIG d   1      -3.414  94.021 119.267  0.00  0.00    -0.090 HD
ENDBRANCH   5  18
BRANCH   3  22
ATOM     22  C   LIG d   1       1.768  92.973 118.087  0.00  0.00     0.382 C 
ATOM     23  O   LIG d   1       2.295  93.153 116.963  0.00  0.00    -0.241 OA
ATOM     24  O   LIG d   1       2.470  93.048 119.113  0.00  0.00    -0.241 OA
ENDBRANCH   3  22
TORSDOF 7
ENDMDL
MODEL 6
REMARK VINA RESULT:      -4.2      2.398      4.293
REMARK  7 active torsions:
REMARK  status: ('A' for Active; 'I' for Inactive)
REMARK    1  A    between atoms: C_2  and  C_3 
REMARK    2  A    between atoms: C_3  and  O_6 
REMARK    3  A    between atoms: C_3  and  C_4 
REMARK    4  A    between atoms: C_7  and  O_6 
REMARK    5  A    between atoms: C_9  and  C_10 
REMARK    6  A    between atoms: N_15  and  C_14 
REMARK    7  A    between atoms: N_20  and  C_19 
REMARK       I    between atoms: C_22  and  N_20 
ROOT
ATOM      1  C   LIG d   1      -4.282  92.287 119.393  0.00  0.00     0.161 C 
ATOM      2  C   LIG d   1      -5.432  91.788 118.760  0.00  0.00     0.016 C 
ATOM      3  C   LIG d   1      -5.393  90.898 117.662  0.00  0.00     0.038 C 
ATOM      4  C   LIG d   1      -4.193  90.325 117.215  0.00  0.00     0.028 C 
ATOM      5  C   LIG d   1      -2.967  91.188 117.497  0.00  0.00    -0.047 C 
ATOM      6  C   LIG d   1      -2.967  91.587 118.990  0.00  0.00     0.091 C 
ENDROOT
BRANCH   1   7
ATOM      7  O   LIG d   1      -4.454  92.247 120.823  0.00  0.00    -0.368 OA
BRANCH   7   8
ATOM      8  C   LIG d   1      -4.558  93.529 121.490  0.00  0.00     0.119 C 
BRANCH   8   9
ATOM      9  C   LIG d   1      -6.015  93.686 121.966  0.00  0.00     0.028 C 
ATOM     10  C   LIG d   1      -6.877  94.479 120.968  0.00  0.00     0.006 C 
ENDBRANCH   8   9
BRANCH   8  11
ATOM     11  C   LIG d   1      -4.324  94.685 120.513  0.00  0.00     0.028 C 
ATOM     12  C   LIG d   1      -3.111  95.549 120.892  0.00  0.00     0.006 C 
ENDBRANCH   8  11
ENDBRANCH   7   8
ENDBRANCH   1   7
BRANCH   6  13
ATOM     13  N   LIG d   1      -1.847  92.502 119.333  0.00  0.00    -0.311 N 
ATOM     14  C   LIG d   1      -0.957  92.245 120.289  0.00  0.00     0.210 C 
ATOM     15  C   LIG d   1       0.105  93.330 120.493  0.00  0.00     0.109 C 
ATOM     16  O   LIG d   1      -0.926  91.207 120.967  0.00  0.00    -0.276 OA
ATOM     17  H   LIG d   1      -1.778  93.353 118.811  0.00  0.00     0.149 HD
ENDBRANCH   6  13
BRANCH   5  18
ATOM     18  N   LIG d   1      -1.776  90.412 117.105  0.00  0.00     0.381 N 
ATOM     19  H   LIG d   1      -1.283  90.891 116.378  0.00  0.00    -0.090 HD
ATOM     20  H   LIG d   1      -2.071  89.520 116.751  0.00  0.00    -0.090 HD
ATOM     21  H   LIG d   1      -1.179  90.284 117.892  0.00  0.00    -0.090 HD
ENDBRANCH   5  18
BRANCH   3  22
ATOM     22  C   LIG d   1      -6.559  90.604 116.973  0.00  0.00     0.382 C 
ATOM     23  O   LIG d   1      -7.218  91.526 116.434  0.00  0.00    -0.241 OA
ATOM     24  O   LIG d   1      -6.985  89.435 116.922  0.00  0.00    -0.241 OA
ENDBRANCH   3  22
TORSDOF 7
ENDMDL
MODEL 7
REMARK VINA RESULT:      -4.2      3.295      5.967
REMARK  7 active torsions:
REMARK  status: ('A' for Active; 'I' for Inactive)
REMARK    1  A    between atoms: C_2  and  C_3 
REMARK    2  A    between atoms: C_3  and  O_6 
REMARK    3  A    between atoms: C_3  and  C_4 
REMARK    4  A    between atoms: C_7  and  O_6 
REMARK    5  A    between atoms: C_9  and  C_10 
REMARK    6  A    between atoms: N_15  and  C_14 
REMARK    7  A    between atoms: N_20  and  C_19 
REMARK       I    between atoms: C_22  and  N_20 
ROOT
ATOM      1  C   LIG d   1      -1.431  93.108 117.860  0.00  0.00     0.161 C 
ATOM      2  C   LIG d   1      -0.865  94.141 118.627  0.00  0.00     0.016 C 
ATOM      3  C   LIG d   1      -1.440  94.625 119.824  0.00  0.00     0.038 C 
ATOM      4  C   LIG d   1      -2.547  94.002 120.420  0.00  0.00     0.028 C 
ATOM      5  C   LIG d   1      -3.446  93.281 119.421  0.00  0.00    -0.047 C 
ATOM      6  C   LIG d   1      -2.578  92.343 118.552  0.00  0.00     0.091 C 
ENDROOT
BRANCH   1   7
ATOM      7  O   LIG d   1      -0.400  92.193 117.438  0.00  0.00    -0.368 OA
BRANCH   7   8
ATOM      8  C   LIG d   1       0.565  91.810 118.448  0.00  0.00     0.119 C 
BRANCH   8   9
ATOM      9  C   LIG d   1       1.940  92.342 117.998  0.00  0.00     0.028 C 
ATOM     10  C   LIG d   1       2.591  91.452 116.926  0.00  0.00     0.006 C 
ENDBRANCH   8   9
BRANCH   8  11
ATOM     11  C   LIG d   1       0.723  90.289 118.520  0.00  0.00     0.028 C 
ATOM     12  C   LIG d   1      -0.427  89.606 119.278  0.00  0.00     0.006 C 
ENDBRANCH   8  11
ENDBRANCH   7   8
ENDBRANCH   1   7
BRANCH   6  13
ATOM     13  N   LIG d   1      -3.366  91.661 117.492  0.00  0.00    -0.311 N 
ATOM     14  C   LIG d   1      -3.936  90.468 117.655  0.00  0.00     0.210 C 
ATOM     15  C   LIG d   1      -4.686  89.937 116.430  0.00  0.00     0.109 C 
ATOM     16  O   LIG d   1      -3.919  89.814 118.709  0.00  0.00    -0.276 OA
ATOM     17  H   LIG d   1      -3.458  92.135 116.615  0.00  0.00     0.149 HD
ENDBRANCH   6  13
BRANCH   5  18
ATOM     18  N   LIG d   1      -4.481  92.563 120.190  0.00  0.00     0.381 N 
ATOM     19  H   LIG d   1      -4.387  92.775 121.163  0.00  0.00    -0.090 HD
ATOM     20  H   LIG d   1      -4.349  91.574 120.069  0.00  0.00    -0.090 HD
ATOM     21  H   LIG d   1      -5.387  92.826 119.870  0.00  0.00    -0.090 HD
ENDBRANCH   5  18
BRANCH   3  22
ATOM     22  C   LIG d   1      -0.930  95.769 120.418  0.00  0.00     0.382 C 
ATOM     23  O   LIG d   1      -0.062  95.674 121.320  0.00  0.00    -0.241 OA
ATOM     24  O   LIG d   1      -1.358  96.893 120.095  0.00  0.00    -0.241 OA
ENDBRANCH   3  22
TORSDOF 7
ENDMDL
MODEL 8
REMARK VINA RESULT:      -4.2      2.572      5.862
REMARK  7 active torsions:
REMARK  status: ('A' for Active; 'I' for Inactive)
REMARK    1  A    between atoms: C_2  and  C_3 
REMARK    2  A    between atoms: C_3  and  O_6 
REMARK    3  A    between atoms: C_3  and  C_4 
REMARK    4  A    between atoms: C_7  and  O_6 
REMARK    5  A    between atoms: C_9  and  C_10 
REMARK    6  A    between atoms: N_15  and  C_14 
REMARK    7  A    between atoms: N_20  and  C_19 
REMARK       I    between atoms: C_22  and  N_20 
ROOT
ATOM      1  C   LIG d   1      -3.491  90.465 118.227  0.00  0.00     0.161 C 
ATOM      2  C   LIG d   1      -2.154  90.133 117.953  0.00  0.00     0.016 C 
ATOM      3  C   LIG d   1      -1.094  91.067 118.007  0.00  0.00     0.038 C 
ATOM      4  C   LIG d   1      -1.278  92.371 118.489  0.00  0.00     0.028 C 
ATOM      5  C   LIG d   1      -2.698  92.893 118.295  0.00  0.00    -0.047 C 
ATOM      6  C   LIG d   1      -3.695  91.857 118.861  0.00  0.00     0.091 C 
ENDROOT
BRANCH   1   7
ATOM      7  O   LIG d   1      -4.089  89.445 119.052  0.00  0.00    -0.368 OA
BRANCH   7   8
ATOM      8  C   LIG d   1      -3.538  89.299 120.383  0.00  0.00     0.119 C 
BRANCH   8   9
ATOM      9  C   LIG d   1      -3.261  87.799 120.607  0.00  0.00     0.028 C 
ATOM     10  C   LIG d   1      -1.760  87.467 120.570  0.00  0.00     0.006 C 
ENDBRANCH   8   9
BRANCH   8  11
ATOM     11  C   LIG d   1      -4.560  89.687 121.456  0.00  0.00     0.028 C 
ATOM     12  C   LIG d   1      -3.981  90.642 122.512  0.00  0.00     0.006 C 
ENDBRANCH   8  11
ENDBRANCH   7   8
ENDBRANCH   1   7
BRANCH   6  13
ATOM     13  N   LIG d   1      -5.111  92.250 118.636  0.00  0.00    -0.311 N 
ATOM     14  C   LIG d   1      -5.849  92.883 119.546  0.00  0.00     0.210 C 
ATOM     15  C   LIG d   1      -7.290  93.178 119.119  0.00  0.00     0.109 C 
ATOM     16  O   LIG d   1      -5.438  93.257 120.655  0.00  0.00    -0.276 OA
ATOM     17  H   LIG d   1      -5.515  92.013 117.752  0.00  0.00     0.149 HD
ENDBRANCH   6  13
BRANCH   5  18
ATOM     18  N   LIG d   1      -2.786  94.205 118.963  0.00  0.00     0.381 N 
ATOM     19  H   LIG d   1      -3.227  94.102 119.856  0.00  0.00    -0.090 HD
ATOM     20  H   LIG d   1      -3.350  94.819 118.402  0.00  0.00    -0.090 HD
ATOM     21  H   LIG d   1      -1.874  94.591 119.078  0.00  0.00    -0.090 HD
ENDBRANCH   5  18
BRANCH   3  22
ATOM     22  C   LIG d   1       0.161  90.709 117.539  0.00  0.00     0.382 C 
ATOM     23  O   LIG d   1       0.945  91.590 117.110  0.00  0.00    -0.241 OA
ATOM     24  O   LIG d   1       0.503  89.512 117.497  0.00  0.00    -0.241 OA
ENDBRANCH   3  22
TORSDOF 7
ENDMDL
MODEL 9
REMARK VINA RESULT:      -4.2      2.514      4.412
REMARK  7 active torsions:
REMARK  status: ('A' for Active; 'I' for Inactive)
REMARK    1  A    between atoms: C_2  and  C_3 
REMARK    2  A    between atoms: C_3  and  O_6 
REMARK    3  A    between atoms: C_3  and  C_4 
REMARK    4  A    between atoms: C_7  and  O_6 
REMARK    5  A    between atoms: C_9  and  C_10 
REMARK    6  A    between atoms: N_15  and  C_14 
REMARK    7  A    between atoms: N_20  and  C_19 
REMARK       I    between atoms: C_22  and  N_20 
ROOT
ATOM      1  C   LIG d   1      -3.082  92.190 119.008  0.00  0.00     0.161 C 
ATOM      2  C   LIG d   1      -4.314  92.644 119.507  0.00  0.00     0.016 C 
ATOM      3  C   LIG d   1      -5.563  92.181 119.034  0.00  0.00     0.038 C 
ATOM      4  C   LIG d   1      -5.664  91.113 118.129  0.00  0.00     0.028 C 
ATOM      5  C   LIG d   1      -4.444  90.969 117.225  0.00  0.00    -0.047 C 
ATOM      6  C   LIG d   1      -3.171  90.946 118.100  0.00  0.00     0.091 C 
ENDROOT
BRANCH   1   7
ATOM      7  O   LIG d   1      -2.172  91.949 120.100  0.00  0.00    -0.368 OA
BRANCH   7   8
ATOM      8  C   LIG d   1      -1.100  92.911 120.260  0.00  0.00     0.119 C 
BRANCH   8   9
ATOM      9  C   LIG d   1      -1.476  93.832 121.437  0.00  0.00     0.028 C 
ATOM     10  C   LIG d   1      -1.926  95.226 120.970  0.00  0.00     0.006 C 
ENDBRANCH   8   9
BRANCH   8  11
ATOM     11  C   LIG d   1      -0.992  93.833 119.042  0.00  0.00     0.028 C 
ATOM     12  C   LIG d   1       0.339  93.672 118.290  0.00  0.00     0.006 C 
ENDBRANCH   8  11
ENDBRANCH   7   8
ENDBRANCH   1   7
BRANCH   6  13
ATOM     13  N   LIG d   1      -1.926  90.891 117.289  0.00  0.00    -0.311 N 
ATOM     14  C   LIG d   1      -0.862  90.165 117.627  0.00  0.00     0.210 C 
ATOM     15  C   LIG d   1       0.323  90.266 116.662  0.00  0.00     0.109 C 
ATOM     16  O   LIG d   1      -0.799  89.421 118.618  0.00  0.00    -0.276 OA
ATOM     17  H   LIG d   1      -1.903  91.440 116.452  0.00  0.00     0.149 HD
ENDBRANCH   6  13
BRANCH   5  18
ATOM     18  N   LIG d   1      -4.622  89.739 116.430  0.00  0.00     0.381 N 
ATOM     19  H   LIG d   1      -4.750  89.974 115.466  0.00  0.00    -0.090 HD
ATOM     20  H   LIG d   1      -5.446  89.261 116.750  0.00  0.00    -0.090 HD
ATOM     21  H   LIG d   1      -3.826  89.148 116.533  0.00  0.00    -0.090 HD
ENDBRANCH   5  18
BRANCH   3  22
ATOM     22  C   LIG d   1      -6.729  92.814 119.437  0.00  0.00     0.382 C 
ATOM     23  O   LIG d   1      -7.711  92.876 118.658  0.00  0.00    -0.241 OA
ATOM     24  O   LIG d   1      -6.796  93.364 120.553  0.00  0.00    -0.241 OA
ENDBRANCH   3  22
TORSDOF 7
ENDMDL
