MODEL 1
REMARK VINA RESULT:      -4.4      0.000      0.000
REMARK  7 active torsions:
REMARK  status: ('A' for Active; 'I' for Inactive)
REMARK    1  A    between atoms: C_2  and  C_3 
REMARK    2  A    between atoms: C_3  and  O_6 
REMARK    3  A    between atoms: C_3  and  C_4 
REMARK    4  A    between atoms: C_7  and  O_6 
REMARK    5  A    between atoms: C_9  and  C_10 
REMARK    6  A    between atoms: N_15  and  C_14 
REMARK    7  A    between atoms: N_20  and  C_19 
REMARK       I    between atoms: C_22  and  N_20 
ROOT
ATOM      1  C   LIG d   1      -3.294  93.113 119.725  0.00  0.00     0.161 C 
ATOM      2  C   LIG d   1      -3.233  94.502 119.523  0.00  0.00     0.016 C 
ATOM      3  C   LIG d   1      -2.417  95.110 118.542  0.00  0.00     0.038 C 
ATOM      4  C   LIG d   1      -1.718  94.356 117.587  0.00  0.00     0.028 C 
ATOM      5  C   LIG d   1      -1.353  92.956 118.070  0.00  0.00    -0.047 C 
ATOM      6  C   LIG d   1      -2.624  92.269 118.620  0.00  0.00     0.091 C 
ENDROOT
BRANCH   1   7
ATOM      7  O   LIG d   1      -4.665  92.705 119.903  0.00  0.00    -0.368 OA
BRANCH   7   8
ATOM      8  C   LIG d   1      -5.574  93.037 118.825  0.00  0.00     0.119 C 
BRANCH   8   9
ATOM      9  C   LIG d   1      -6.691  93.920 119.415  0.00  0.00     0.028 C 
ATOM     10  C   LIG d   1      -6.907  95.210 118.607  0.00  0.00     0.006 C 
ENDBRANCH   8   9
BRANCH   8  11
ATOM     11  C   LIG d   1      -6.284  91.789 118.292  0.00  0.00     0.028 C 
ATOM     12  C   LIG d   1      -6.651  91.902 116.803  0.00  0.00     0.006 C 
ENDBRANCH   8  11
ENDBRANCH   7   8
ENDBRANCH   1   7
BRANCH   6  13
ATOM     13  N   LIG d   1      -2.340  90.926 119.191  0.00  0.00    -0.311 N 
ATOM     14  C   LIG d   1      -2.848  89.798 118.698  0.00  0.00     0.210 C 
ATOM     15  C   LIG d   1      -2.444  88.525 119.448  0.00  0.00     0.109 C 
ATOM     16  O   LIG d   1      -3.570  89.727 117.692  0.00  0.00    -0.276 OA
ATOM     17  H   LIG d   1      -1.738  90.888 119.990  0.00  0.00     0.149 HD
ENDBRANCH   6  13
BRANCH   5  18
ATOM     18  N   LIG d   1      -0.753  92.235 116.932  0.00  0.00     0.381 N 
ATOM     19  H   LIG d   1       0.221  92.082 117.104  0.00  0.00    -0.090 HD
ATOM     20  H   LIG d   1      -0.842  92.800 116.106  0.00  0.00    -0.090 HD
ATOM     21  H   LIG d   1      -1.215  91.363 116.799  0.00  0.00    -0.090 HD
ENDBRANCH   5  18
BRANCH   3  22
ATOM     22  C   LIG d   1      -2.264  96.488 118.533  0.00  0.00     0.382 C 
ATOM     23  O   LIG d   1      -1.376  97.025 119.238  0.00  0.00    -0.241 OA
ATOM     24  O   LIG d   1      -3.032  97.205 117.864  0.00  0.00    -0.241 OA
ENDBRANCH   3  22
TORSDOF 7
ENDMDL
MODEL 2
REMARK VINA RESULT:      -4.3      2.274      4.859
REMARK  7 active torsions:
REMARK  status: ('A' for Active; 'I' for Inactive)
REMARK    1  A    between atoms: C_2  and  C_3 
REMARK    2  A    between atoms: C_3  and  O_6 
REMARK    3  A    between atoms: C_3  and  C_4 
REMARK    4  A    between atoms: C_7  and  O_6 
REMARK    5  A    between atoms: C_9  and  C_10 
REMARK    6  A    between atoms: N_15  and  C_14 
REMARK    7  A    between atoms: N_20  and  C_19 
REMARK       I    between atoms: C_22  and  N_20 
ROOT
ATOM      1  C   LIG d   1      -2.694  92.825 118.605  0.00  0.00     0.161 C 
ATOM      2  C   LIG d   1      -4.061  92.988 118.885  0.00  0.00     0.016 C 
ATOM      3  C   LIG d   1      -5.054  92.068 118.475  0.00  0.00     0.038 C 
ATOM      4  C   LIG d   1      -4.727  90.838 117.885  0.00  0.00     0.028 C 
ATOM      5  C   LIG d   1      -3.402  90.861 117.132  0.00  0.00    -0.047 C 
ATOM      6  C   LIG d   1      -2.307  91.435 118.060  0.00  0.00     0.091 C 
ENDROOT
BRANCH   1   7
ATOM      7  O   LIG d   1      -1.916  93.138 119.777  0.00  0.00    -0.368 OA
BRANCH   7   8
ATOM      8  C   LIG d   1      -1.292  94.446 119.797  0.00  0.00     0.119 C 
BRANCH   8   9
ATOM      9  C   LIG d   1      -1.090  94.885 118.334  0.00  0.00     0.028 C 
ATOM     10  C   LIG d   1      -0.991  96.413 118.188  0.00  0.00     0.006 C 
ENDBRANCH   8   9
BRANCH   8  11
ATOM     11  C   LIG d   1       0.115  94.384 120.399  0.00  0.00     0.028 C 
ATOM     12  C   LIG d   1       1.105  93.602 119.521  0.00  0.00     0.006 C 
ENDBRANCH   8  11
ENDBRANCH   7   8
ENDBRANCH   1   7
BRANCH   6  13
ATOM     13  N   LIG d   1      -0.996  91.570 117.374  0.00  0.00    -0.311 N 
ATOM     14  C   LIG d   1      -0.031  90.655 117.449  0.00  0.00     0.210 C 
ATOM     15  C   LIG d   1       1.250  91.001 116.682  0.00  0.00     0.109 C 
ATOM     16  O   LIG d   1      -0.125  89.575 118.051  0.00  0.00    -0.276 OA
ATOM     17  H   LIG d   1      -0.846  92.402 116.837  0.00  0.00     0.149 HD
ENDBRANCH   6  13
BRANCH   5  18
ATOM     18  N   LIG d   1      -3.119  89.484 116.686  0.00  0.00     0.381 N 
ATOM     19  H   LIG d   1      -3.967  89.042 116.392  0.00  0.00    -0.090 HD
ATOM     20  H   LIG d   1      -2.743  88.963 117.458  0.00  0.00    -0.090 HD
ATOM     21  H   LIG d   1      -2.465  89.496 115.934  0.00  0.00    -0.090 HD
ENDBRANCH   5  18
BRANCH   3  22
ATOM     22  C   LIG d   1      -6.394  92.394 118.619  0.00  0.00     0.382 C 
ATOM     23  O   LIG d   1      -6.993  93.005 117.701  0.00  0.00    -0.241 OA
ATOM     24  O   LIG d   1      -7.000  92.125 119.674  0.00  0.00    -0.241 OA
ENDBRANCH   3  22
TORSDOF 7
ENDMDL
MODEL 3
REMARK VINA RESULT:      -4.1      2.476      4.729
REMARK  7 active torsions:
REMARK  status: ('A' for Active; 'I' for Inactive)
REMARK    1  A    between atoms: C_2  and  C_3 
REMARK    2  A    between atoms: C_3  and  O_6 
REMARK    3  A    between atoms: C_3  and  C_4 
REMARK    4  A    between atoms: C_7  and  O_6 
REMARK    5  A    between atoms: C_9  and  C_10 
REMARK    6  A    between atoms: N_15  and  C_14 
REMARK    7  A    between atoms: N_20  and  C_19 
REMARK       I    between atoms: C_22  and  N_20 
ROOT
ATOM      1  C   LIG d   1      -2.746  92.830 118.694  0.00  0.00     0.161 C 
ATOM      2  C   LIG d   1      -4.113  93.012 118.966  0.00  0.00     0.016 C 
ATOM      3  C   LIG d   1      -5.122  92.139 118.499  0.00  0.00     0.038 C 
ATOM      4  C   LIG d   1      -4.817  90.933 117.851  0.00  0.00     0.028 C 
ATOM      5  C   LIG d   1      -3.482  90.961 117.115  0.00  0.00    -0.047 C 
ATOM      6  C   LIG d   1      -2.385  91.460 118.083  0.00  0.00     0.091 C 
ENDROOT
BRANCH   1   7
ATOM      7  O   LIG d   1      -1.975  93.065 119.889  0.00  0.00    -0.368 OA
BRANCH   7   8
ATOM      8  C   LIG d   1      -1.695  91.901 120.705  0.00  0.00     0.119 C 
BRANCH   8   9
ATOM      9  C   LIG d   1      -2.484  92.057 122.019  0.00  0.00     0.028 C 
ATOM     10  C   LIG d   1      -3.721  91.144 122.072  0.00  0.00     0.006 C 
ENDBRANCH   8   9
BRANCH   8  11
ATOM     11  C   LIG d   1      -0.221  91.854 121.121  0.00  0.00     0.028 C 
ATOM     12  C   LIG d   1       0.645  92.871 120.361  0.00  0.00     0.006 C 
ENDBRANCH   8  11
ENDBRANCH   7   8
ENDBRANCH   1   7
BRANCH   6  13
ATOM     13  N   LIG d   1      -1.063  91.598 117.419  0.00  0.00    -0.311 N 
ATOM     14  C   LIG d   1      -0.117  90.662 117.468  0.00  0.00     0.210 C 
ATOM     15  C   LIG d   1       1.180  91.014 116.732  0.00  0.00     0.109 C 
ATOM     16  O   LIG d   1      -0.240  89.560 118.025  0.00  0.00    -0.276 OA
ATOM     17  H   LIG d   1      -0.890  92.448 116.919  0.00  0.00     0.149 HD
ENDBRANCH   6  13
BRANCH   5  18
ATOM     18  N   LIG d   1      -3.226  89.601 116.603  0.00  0.00     0.381 N 
ATOM     19  H   LIG d   1      -4.094  89.147 116.402  0.00  0.00    -0.090 HD
ATOM     20  H   LIG d   1      -2.750  89.072 117.311  0.00  0.00    -0.090 HD
ATOM     21  H   LIG d   1      -2.668  89.647 115.779  0.00  0.00    -0.090 HD
ENDBRANCH   5  18
BRANCH   3  22
ATOM     22  C   LIG d   1      -6.455  92.490 118.645  0.00  0.00     0.382 C 
ATOM     23  O   LIG d   1      -7.075  92.179 119.690  0.00  0.00    -0.241 OA
ATOM     24  O   LIG d   1      -7.059  93.074 117.725  0.00  0.00    -0.241 OA
ENDBRANCH   3  22
TORSDOF 7
ENDMDL
MODEL 4
REMARK VINA RESULT:      -4.1      2.837      5.339
REMARK  7 active torsions:
REMARK  status: ('A' for Active; 'I' for Inactive)
REMARK    1  A    between atoms: C_2  and  C_3 
REMARK    2  A    between atoms: C_3  and  O_6 
REMARK    3  A    between atoms: C_3  and  C_4 
REMARK    4  A    between atoms: C_7  and  O_6 
REMARK    5  A    between atoms: C_9  and  C_10 
REMARK    6  A    between atoms: N_15  and  C_14 
REMARK    7  A    between atoms: N_20  and  C_19 
REMARK       I    between atoms: C_22  and  N_20 
ROOT
ATOM      1  C   LIG d   1      -1.312  91.061 117.737  0.00  0.00     0.161 C 
ATOM      2  C   LIG d   1      -0.007  91.383 118.147  0.00  0.00     0.016 C 
ATOM      3  C   LIG d   1       0.396  92.689 118.507  0.00  0.00     0.038 C 
ATOM      4  C   LIG d   1      -0.524  93.741 118.628  0.00  0.00     0.028 C 
ATOM      5  C   LIG d   1      -1.752  93.578 117.739  0.00  0.00    -0.047 C 
ATOM      6  C   LIG d   1      -2.355  92.173 117.970  0.00  0.00     0.091 C 
ENDROOT
BRANCH   1   7
ATOM      7  O   LIG d   1      -1.734  89.837 118.370  0.00  0.00    -0.368 OA
BRANCH   7   8
ATOM      8  C   LIG d   1      -0.686  88.890 118.690  0.00  0.00     0.119 C 
BRANCH   8   9
ATOM      9  C   LIG d   1      -0.853  87.679 117.751  0.00  0.00     0.028 C 
ATOM     10  C   LIG d   1       0.348  87.499 116.807  0.00  0.00     0.006 C 
ENDBRANCH   8   9
BRANCH   8  11
ATOM     11  C   LIG d   1      -0.853  88.330 120.106  0.00  0.00     0.028 C 
ATOM     12  C   LIG d   1      -1.773  87.100 120.156  0.00  0.00     0.006 C 
ENDBRANCH   8  11
ENDBRANCH   7   8
ENDBRANCH   1   7
BRANCH   6  13
ATOM     13  N   LIG d   1      -3.511  91.899 117.078  0.00  0.00    -0.311 N 
ATOM     14  C   LIG d   1      -4.701  91.499 117.522  0.00  0.00     0.210 C 
ATOM     15  C   LIG d   1      -5.749  91.254 116.431  0.00  0.00     0.109 C 
ATOM     16  O   LIG d   1      -4.998  91.354 118.717  0.00  0.00    -0.276 OA
ATOM     17  H   LIG d   1      -3.368  92.022 116.094  0.00  0.00     0.149 HD
ENDBRANCH   6  13
BRANCH   5  18
ATOM     18  N   LIG d   1      -2.688  94.670 118.067  0.00  0.00     0.381 N 
ATOM     19  H   LIG d   1      -3.625  94.321 118.078  0.00  0.00    -0.090 HD
ATOM     20  H   LIG d   1      -2.623  95.378 117.357  0.00  0.00    -0.090 HD
ATOM     21  H   LIG d   1      -2.460  95.059 118.956  0.00  0.00    -0.090 HD
ENDBRANCH   5  18
BRANCH   3  22
ATOM     22  C   LIG d   1       1.740  92.962 118.712  0.00  0.00     0.382 C 
ATOM     23  O   LIG d   1       2.105  93.574 119.744  0.00  0.00    -0.241 OA
ATOM     24  O   LIG d   1       2.587  92.643 117.856  0.00  0.00    -0.241 OA
ENDBRANCH   3  22
TORSDOF 7
ENDMDL
MODEL 5
REMARK VINA RESULT:      -4.0      2.560      5.650
REMARK  7 active torsions:
REMARK  status: ('A' for Active; 'I' for Inactive)
REMARK    1  A    between atoms: C_2  and  C_3 
REMARK    2  A    between atoms: C_3  and  O_6 
REMARK    3  A    between atoms: C_3  and  C_4 
REMARK    4  A    between atoms: C_7  and  O_6 
REMARK    5  A    between atoms: C_9  and  C_10 
REMARK    6  A    between atoms: N_15  and  C_14 
REMARK    7  A    between atoms: N_20  and  C_19 
REMARK       I    between atoms: C_22  and  N_20 
ROOT
ATOM      1  C   LIG d   1      -4.677  92.437 120.098  0.00  0.00     0.161 C 
ATOM      2  C   LIG d   1      -3.860  91.398 119.623  0.00  0.00     0.016 C 
ATOM      3  C   LIG d   1      -4.038  90.780 118.364  0.00  0.00     0.038 C 
ATOM      4  C   LIG d   1      -4.960  91.265 117.424  0.00  0.00     0.028 C 
ATOM      5  C   LIG d   1      -6.146  91.986 118.056  0.00  0.00    -0.047 C 
ATOM      6  C   LIG d   1      -5.617  93.054 119.041  0.00  0.00     0.091 C 
ENDROOT
BRANCH   1   7
ATOM      7  O   LIG d   1      -3.864  93.461 120.704  0.00  0.00    -0.368 OA
BRANCH   7   8
ATOM      8  C   LIG d   1      -3.480  94.562 119.844  0.00  0.00     0.119 C 
BRANCH   8   9
ATOM      9  C   LIG d   1      -1.991  94.377 119.492  0.00  0.00     0.028 C 
ATOM     10  C   LIG d   1      -1.761  94.218 117.980  0.00  0.00     0.006 C 
ENDBRANCH   8   9
BRANCH   8  11
ATOM     11  C   LIG d   1      -3.559  95.900 120.584  0.00  0.00     0.028 C 
ATOM     12  C   LIG d   1      -4.078  97.042 119.696  0.00  0.00     0.006 C 
ENDBRANCH   8  11
ENDBRANCH   7   8
ENDBRANCH   1   7
BRANCH   6  13
ATOM     13  N   LIG d   1      -6.713  93.749 119.765  0.00  0.00    -0.311 N 
ATOM     14  C   LIG d   1      -7.250  94.897 119.355  0.00  0.00     0.210 C 
ATOM     15  C   LIG d   1      -8.354  95.454 120.259  0.00  0.00     0.109 C 
ATOM     16  O   LIG d   1      -6.938  95.491 118.312  0.00  0.00    -0.276 OA
ATOM     17  H   LIG d   1      -7.048  93.320 120.606  0.00  0.00     0.149 HD
ENDBRANCH   6  13
BRANCH   5  18
ATOM     18  N   LIG d   1      -6.953  92.559 116.962  0.00  0.00     0.381 N 
ATOM     19  H   LIG d   1      -6.702  93.516 116.820  0.00  0.00    -0.090 HD
ATOM     20  H   LIG d   1      -7.924  92.522 117.221  0.00  0.00    -0.090 HD
ATOM     21  H   LIG d   1      -6.806  92.042 116.123  0.00  0.00    -0.090 HD
ENDBRANCH   5  18
BRANCH   3  22
ATOM     22  C   LIG d   1      -3.317  89.638 118.050  0.00  0.00     0.382 C 
ATOM     23  O   LIG d   1      -2.988  88.835 118.957  0.00  0.00    -0.241 OA
ATOM     24  O   LIG d   1      -2.952  89.423 116.879  0.00  0.00    -0.241 OA
ENDBRANCH   3  22
TORSDOF 7
ENDMDL
MODEL 6
REMARK VINA RESULT:      -3.9      2.256      4.427
REMARK  7 active torsions:
REMARK  status: ('A' for Active; 'I' for Inactive)
REMARK    1  A    between atoms: C_2  and  C_3 
REMARK    2  A    between atoms: C_3  and  O_6 
REMARK    3  A    between atoms: C_3  and  C_4 
REMARK    4  A    between atoms: C_7  and  O_6 
REMARK    5  A    between atoms: C_9  and  C_10 
REMARK    6  A    between atoms: N_15  and  C_14 
REMARK    7  A    between atoms: N_20  and  C_19 
REMARK       I    between atoms: C_22  and  N_20 
ROOT
ATOM      1  C   LIG d   1      -3.844  92.329 118.778  0.00  0.00     0.161 C 
ATOM      2  C   LIG d   1      -4.801  93.321 119.047  0.00  0.00     0.016 C 
ATOM      3  C   LIG d   1      -6.105  93.314 118.500  0.00  0.00     0.038 C 
ATOM      4  C   LIG d   1      -6.592  92.226 117.762  0.00  0.00     0.028 C 
ATOM      5  C   LIG d   1      -5.499  91.440 117.046  0.00  0.00    -0.047 C 
ATOM      6  C   LIG d   1      -4.394  91.077 118.064  0.00  0.00     0.091 C 
ENDROOT
BRANCH   1   7
ATOM      7  O   LIG d   1      -3.171  91.956 119.997  0.00  0.00    -0.368 OA
BRANCH   7   8
ATOM      8  C   LIG d   1      -1.819  92.453 120.157  0.00  0.00     0.119 C 
BRANCH   8   9
ATOM      9  C   LIG d   1      -1.344  92.954 118.779  0.00  0.00     0.028 C 
ATOM     10  C   LIG d   1      -0.576  94.283 118.870  0.00  0.00     0.006 C 
ENDBRANCH   8   9
BRANCH   8  11
ATOM     11  C   LIG d   1      -0.852  91.327 120.535  0.00  0.00     0.028 C 
ATOM     12  C   LIG d   1      -1.300  90.552 121.784  0.00  0.00     0.006 C 
ENDBRANCH   8  11
ENDBRANCH   7   8
ENDBRANCH   1   7
BRANCH   6  13
ATOM     13  N   LIG d   1      -3.245  90.380 117.429  0.00  0.00    -0.311 N 
ATOM     14  C   LIG d   1      -2.632  89.330 117.973  0.00  0.00     0.210 C 
ATOM     15  C   LIG d   1      -1.457  88.775 117.162  0.00  0.00     0.109 C 
ATOM     16  O   LIG d   1      -2.971  88.786 119.035  0.00  0.00    -0.276 OA
ATOM     17  H   LIG d   1      -2.924  90.737 116.550  0.00  0.00     0.149 HD
ENDBRANCH   6  13
BRANCH   5  18
ATOM     18  N   LIG d   1      -6.129  90.258 116.430  0.00  0.00     0.381 N 
ATOM     19  H   LIG d   1      -6.519  89.672 117.142  0.00  0.00    -0.090 HD
ATOM     20  H   LIG d   1      -5.427  89.733 115.939  0.00  0.00    -0.090 HD
ATOM     21  H   LIG d   1      -6.844  90.543 115.797  0.00  0.00    -0.090 HD
ENDBRANCH   5  18
BRANCH   3  22
ATOM     22  C   LIG d   1      -6.922  94.423 118.658  0.00  0.00     0.382 C 
ATOM     23  O   LIG d   1      -6.688  95.250 119.572  0.00  0.00    -0.241 OA
ATOM     24  O   LIG d   1      -7.917  94.583 117.925  0.00  0.00    -0.241 OA
ENDBRANCH   3  22
TORSDOF 7
ENDMDL
MODEL 7
REMARK VINA RESULT:      -3.9      2.846      6.042
REMARK  7 active torsions:
REMARK  status: ('A' for Active; 'I' for Inactive)
REMARK    1  A    between atoms: C_2  and  C_3 
REMARK    2  A    between atoms: C_3  and  O_6 
REMARK    3  A    between atoms: C_3  and  C_4 
REMARK    4  A    between atoms: C_7  and  O_6 
REMARK    5  A    between atoms: C_9  and  C_10 
REMARK    6  A    between atoms: N_15  and  C_14 
REMARK    7  A    between atoms: N_20  and  C_19 
REMARK       I    between atoms: C_22  and  N_20 
ROOT
ATOM      1  C   LIG d   1      -5.093  92.674 119.769  0.00  0.00     0.161 C 
ATOM      2  C   LIG d   1      -4.939  91.648 118.822  0.00  0.00     0.016 C 
ATOM      3  C   LIG d   1      -5.696  91.569 117.630  0.00  0.00     0.038 C 
ATOM      4  C   LIG d   1      -6.558  92.600 117.229  0.00  0.00     0.028 C 
ATOM      5  C   LIG d   1      -7.119  93.408 118.395  0.00  0.00    -0.047 C 
ATOM      6  C   LIG d   1      -5.950  93.867 119.296  0.00  0.00     0.091 C 
ENDROOT
BRANCH   1   7
ATOM      7  O   LIG d   1      -3.799  93.130 120.210  0.00  0.00    -0.368 OA
BRANCH   7   8
ATOM      8  C   LIG d   1      -3.091  94.012 119.304  0.00  0.00     0.119 C 
BRANCH   8   9
ATOM      9  C   LIG d   1      -1.748  93.340 118.958  0.00  0.00     0.028 C 
ATOM     10  C   LIG d   1      -1.656  92.941 117.476  0.00  0.00     0.006 C 
ENDBRANCH   8   9
BRANCH   8  11
ATOM     11  C   LIG d   1      -2.720  95.332 119.987  0.00  0.00     0.028 C 
ATOM     12  C   LIG d   1      -2.996  96.559 119.103  0.00  0.00     0.006 C 
ENDBRANCH   8  11
ENDBRANCH   7   8
ENDBRANCH   1   7
BRANCH   6  13
ATOM     13  N   LIG d   1      -6.417  94.593 120.505  0.00  0.00    -0.311 N 
ATOM     14  C   LIG d   1      -6.606  95.911 120.543  0.00  0.00     0.210 C 
ATOM     15  C   LIG d   1      -7.072  96.459 121.895  0.00  0.00     0.109 C 
ATOM     16  O   LIG d   1      -6.463  96.673 119.575  0.00  0.00    -0.276 OA
ATOM     17  H   LIG d   1      -6.588  94.047 121.327  0.00  0.00     0.149 HD
ENDBRANCH   6  13
BRANCH   5  18
ATOM     18  N   LIG d   1      -7.889  94.531 117.829  0.00  0.00     0.381 N 
ATOM     19  H   LIG d   1      -8.780  94.593 118.280  0.00  0.00    -0.090 HD
ATOM     20  H   LIG d   1      -8.042  94.360 116.851  0.00  0.00    -0.090 HD
ATOM     21  H   LIG d   1      -7.387  95.384 117.950  0.00  0.00    -0.090 HD
ENDBRANCH   5  18
BRANCH   3  22
ATOM     22  C   LIG d   1      -5.623  90.428 116.845  0.00  0.00     0.382 C 
ATOM     23  O   LIG d   1      -4.505  89.969 116.508  0.00  0.00    -0.241 OA
ATOM     24  O   LIG d   1      -6.661  89.878 116.432  0.00  0.00    -0.241 OA
ENDBRANCH   3  22
TORSDOF 7
ENDMDL
MODEL 8
REMARK VINA RESULT:      -3.9      3.351      5.339
REMARK  7 active torsions:
REMARK  status: ('A' for Active; 'I' for Inactive)
REMARK    1  A    between atoms: C_2  and  C_3 
REMARK    2  A    between atoms: C_3  and  O_6 
REMARK    3  A    between atoms: C_3  and  C_4 
REMARK    4  A    between atoms: C_7  and  O_6 
REMARK    5  A    between atoms: C_9  and  C_10 
REMARK    6  A    between atoms: N_15  and  C_14 
REMARK    7  A    between atoms: N_20  and  C_19 
REMARK       I    between atoms: C_22  and  N_20 
ROOT
ATOM      1  C   LIG d   1      -0.468  91.613 117.943  0.00  0.00     0.161 C 
ATOM      2  C   LIG d   1       0.791  91.291 117.410  0.00  0.00     0.016 C 
ATOM      3  C   LIG d   1       1.963  92.034 117.679  0.00  0.00     0.038 C 
ATOM      4  C   LIG d   1       1.985  93.068 118.627  0.00  0.00     0.028 C 
ATOM      5  C   LIG d   1       0.633  93.750 118.810  0.00  0.00    -0.047 C 
ATOM      6  C   LIG d   1      -0.443  92.671 119.067  0.00  0.00     0.091 C 
ENDROOT
BRANCH   1   7
ATOM      7  O   LIG d   1      -1.128  90.415 118.398  0.00  0.00    -0.368 OA
BRANCH   7   8
ATOM      8  C   LIG d   1      -2.198  89.918 117.557  0.00  0.00     0.119 C 
BRANCH   8   9
ATOM      9  C   LIG d   1      -3.522  90.146 118.310  0.00  0.00     0.028 C 
ATOM     10  C   LIG d   1      -4.437  91.156 117.598  0.00  0.00     0.006 C 
ENDBRANCH   8   9
BRANCH   8  11
ATOM     11  C   LIG d   1      -2.096  88.402 117.363  0.00  0.00     0.028 C 
ATOM     12  C   LIG d   1      -1.299  87.711 118.480  0.00  0.00     0.006 C 
ENDBRANCH   8  11
ENDBRANCH   7   8
ENDBRANCH   1   7
BRANCH   6  13
ATOM     13  N   LIG d   1      -1.809  93.246 119.173  0.00  0.00    -0.311 N 
ATOM     14  C   LIG d   1      -2.389  93.548 120.333  0.00  0.00     0.210 C 
ATOM     15  C   LIG d   1      -3.809  94.113 120.219  0.00  0.00     0.109 C 
ATOM     16  O   LIG d   1      -1.851  93.431 121.445  0.00  0.00    -0.276 OA
ATOM     17  H   LIG d   1      -2.306  93.403 118.318  0.00  0.00     0.149 HD
ENDBRANCH   6  13
BRANCH   5  18
ATOM     18  N   LIG d   1       0.766  94.711 119.921  0.00  0.00     0.381 N 
ATOM     19  H   LIG d   1       1.108  94.241 120.735  0.00  0.00    -0.090 HD
ATOM     20  H   LIG d   1      -0.140  95.090 120.133  0.00  0.00    -0.090 HD
ATOM     21  H   LIG d   1       1.389  95.445 119.665  0.00  0.00    -0.090 HD
ENDBRANCH   5  18
BRANCH   3  22
ATOM     22  C   LIG d   1       3.123  91.770 116.966  0.00  0.00     0.382 C 
ATOM     23  O   LIG d   1       3.427  90.587 116.679  0.00  0.00    -0.241 OA
ATOM     24  O   LIG d   1       3.891  92.696 116.644  0.00  0.00    -0.241 OA
ENDBRANCH   3  22
TORSDOF 7
ENDMDL
MODEL 9
REMARK VINA RESULT:      -3.9      3.062      5.994
REMARK  7 active torsions:
REMARK  status: ('A' for Active; 'I' for Inactive)
REMARK    1  A    between atoms: C_2  and  C_3 
REMARK    2  A    between atoms: C_3  and  O_6 
REMARK    3  A    between atoms: C_3  and  C_4 
REMARK    4  A    between atoms: C_7  and  O_6 
REMARK    5  A    between atoms: C_9  and  C_10 
REMARK    6  A    between atoms: N_15  and  C_14 
REMARK    7  A    between atoms: N_20  and  C_19 
REMARK       I    between atoms: C_22  and  N_20 
ROOT
ATOM      1  C   LIG d   1      -2.263  89.975 118.228  0.00  0.00     0.161 C 
ATOM      2  C   LIG d   1      -3.556  90.019 117.681  0.00  0.00     0.016 C 
ATOM      3  C   LIG d   1      -4.423  91.127 117.819  0.00  0.00     0.038 C 
ATOM      4  C   LIG d   1      -3.996  92.335 118.390  0.00  0.00     0.028 C 
ATOM      5  C   LIG d   1      -2.869  92.163 119.402  0.00  0.00    -0.047 C 
ATOM      6  C   LIG d   1      -1.739  91.327 118.758  0.00  0.00     0.091 C 
ENDROOT
BRANCH   1   7
ATOM      7  O   LIG d   1      -1.343  89.424 117.265  0.00  0.00    -0.368 OA
BRANCH   7   8
ATOM      8  C   LIG d   1      -1.121  87.995 117.341  0.00  0.00     0.119 C 
BRANCH   8   9
ATOM      9  C   LIG d   1      -1.046  87.616 118.833  0.00  0.00     0.028 C 
ATOM     10  C   LIG d   1      -0.709  86.131 119.046  0.00  0.00     0.006 C 
ENDBRANCH   8   9
BRANCH   8  11
ATOM     11  C   LIG d   1       0.242  87.611 116.757  0.00  0.00     0.028 C 
ATOM     12  C   LIG d   1       1.180  88.816 116.592  0.00  0.00     0.006 C 
ENDBRANCH   8  11
ENDBRANCH   7   8
ENDBRANCH   1   7
BRANCH   6  13
ATOM     13  N   LIG d   1      -0.634  91.039 119.709  0.00  0.00    -0.311 N 
ATOM     14  C   LIG d   1       0.642  91.330 119.460  0.00  0.00     0.210 C 
ATOM     15  C   LIG d   1       1.624  90.931 120.566  0.00  0.00     0.109 C 
ATOM     16  O   LIG d   1       1.049  91.909 118.442  0.00  0.00    -0.276 OA
ATOM     17  H   LIG d   1      -0.879  90.598 120.574  0.00  0.00     0.149 HD
ENDBRANCH   6  13
BRANCH   5  18
ATOM     18  N   LIG d   1      -2.429  93.509 119.814  0.00  0.00     0.381 N 
ATOM     19  H   LIG d   1      -3.212  94.132 119.825  0.00  0.00    -0.090 HD
ATOM     20  H   LIG d   1      -1.763  93.852 119.145  0.00  0.00    -0.090 HD
ATOM     21  H   LIG d   1      -2.013  93.470 120.718  0.00  0.00    -0.090 HD
ENDBRANCH   5  18
BRANCH   3  22
ATOM     22  C   LIG d   1      -5.746  91.018 117.420  0.00  0.00     0.382 C 
ATOM     23  O   LIG d   1      -6.126  90.010 116.778  0.00  0.00    -0.241 OA
ATOM     24  O   LIG d   1      -6.554  91.937 117.654  0.00  0.00    -0.241 OA
ENDBRANCH   3  22
TORSDOF 7
ENDMDL
