MODEL 1
REMARK VINA RESULT:      -4.8      0.000      0.000
REMARK  7 active torsions:
REMARK  status: ('A' for Active; 'I' for Inactive)
REMARK    1  A    between atoms: C_2  and  C_3 
REMARK    2  A    between atoms: C_3  and  O_6 
REMARK    3  A    between atoms: C_3  and  C_4 
REMARK    4  A    between atoms: C_7  and  O_6 
REMARK    5  A    between atoms: C_9  and  C_10 
REMARK    6  A    between atoms: N_15  and  C_14 
REMARK    7  A    between atoms: N_20  and  C_19 
REMARK       I    between atoms: C_22  and  N_20 
ROOT
ATOM      1  C   LIG d   1      -4.431  93.391 118.765  0.00  0.00     0.161 C 
ATOM      2  C   LIG d   1      -3.440  92.411 118.589  0.00  0.00     0.016 C 
ATOM      3  C   LIG d   1      -3.662  91.194 117.905  0.00  0.00     0.038 C 
ATOM      4  C   LIG d   1      -4.857  90.939 117.215  0.00  0.00     0.028 C 
ATOM      5  C   LIG d   1      -6.059  91.680 117.790  0.00  0.00    -0.047 C 
ATOM      6  C   LIG d   1      -5.707  93.179 117.924  0.00  0.00     0.091 C 
ENDROOT
BRANCH   1   7
ATOM      7  O   LIG d   1      -3.876  94.698 118.514  0.00  0.00    -0.368 OA
BRANCH   7   8
ATOM      8  C   LIG d   1      -3.810  95.592 119.652  0.00  0.00     0.119 C 
BRANCH   8   9
ATOM      9  C   LIG d   1      -3.971  97.029 119.122  0.00  0.00     0.028 C 
ATOM     10  C   LIG d   1      -5.446  97.429 118.946  0.00  0.00     0.006 C 
ENDBRANCH   8   9
BRANCH   8  11
ATOM     11  C   LIG d   1      -2.427  95.555 120.310  0.00  0.00     0.028 C 
ATOM     12  C   LIG d   1      -1.941  96.944 120.754  0.00  0.00     0.006 C 
ENDBRANCH   8  11
ENDBRANCH   7   8
ENDBRANCH   1   7
BRANCH   6  13
ATOM     13  N   LIG d   1      -6.799  93.963 118.558  0.00  0.00    -0.311 N 
ATOM     14  C   LIG d   1      -7.772  94.556 117.869  0.00  0.00     0.210 C 
ATOM     15  C   LIG d   1      -8.786  95.330 118.716  0.00  0.00     0.109 C 
ATOM     16  O   LIG d   1      -7.910  94.486 116.638  0.00  0.00    -0.276 OA
ATOM     17  H   LIG d   1      -6.782  94.044 119.556  0.00  0.00     0.149 HD
ENDBRANCH   6  13
BRANCH   5  18
ATOM     18  N   LIG d   1      -7.205  91.433 116.896  0.00  0.00     0.381 N 
ATOM     19  H   LIG d   1      -7.032  90.618 116.341  0.00  0.00    -0.090 HD
ATOM     20  H   LIG d   1      -7.310  92.218 116.277  0.00  0.00    -0.090 HD
ATOM     21  H   LIG d   1      -8.036  91.309 117.432  0.00  0.00    -0.090 HD
ENDBRANCH   5  18
BRANCH   3  22
ATOM     22  C   LIG d   1      -2.696  90.200 117.940  0.00  0.00     0.382 C 
ATOM     23  O   LIG d   1      -3.035  88.994 117.860  0.00  0.00    -0.241 OA
ATOM     24  O   LIG d   1      -1.495  90.491 118.094  0.00  0.00    -0.241 OA
ENDBRANCH   3  22
TORSDOF 7
ENDMDL
MODEL 2
REMARK VINA RESULT:      -4.4      2.369      6.355
REMARK  7 active torsions:
REMARK  status: ('A' for Active; 'I' for Inactive)
REMARK    1  A    between atoms: C_2  and  C_3 
REMARK    2  A    between atoms: C_3  and  O_6 
REMARK    3  A    between atoms: C_3  and  C_4 
REMARK    4  A    between atoms: C_7  and  O_6 
REMARK    5  A    between atoms: C_9  and  C_10 
REMARK    6  A    between atoms: N_15  and  C_14 
REMARK    7  A    between atoms: N_20  and  C_19 
REMARK       I    between atoms: C_22  and  N_20 
ROOT
ATOM      1  C   LIG d   1      -5.430  93.866 118.765  0.00  0.00     0.161 C 
ATOM      2  C   LIG d   1      -6.574  94.299 118.076  0.00  0.00     0.016 C 
ATOM      3  C   LIG d   1      -7.112  95.601 118.200  0.00  0.00     0.038 C 
ATOM      4  C   LIG d   1      -6.449  96.612 118.912  0.00  0.00     0.028 C 
ATOM      5  C   LIG d   1      -5.561  96.081 120.032  0.00  0.00    -0.047 C 
ATOM      6  C   LIG d   1      -4.630  94.988 119.460  0.00  0.00     0.091 C 
ENDROOT
BRANCH   1   7
ATOM      7  O   LIG d   1      -4.576  93.119 117.876  0.00  0.00    -0.368 OA
BRANCH   7   8
ATOM      8  C   LIG d   1      -4.632  91.677 118.000  0.00  0.00     0.119 C 
BRANCH   8   9
ATOM      9  C   LIG d   1      -3.192  91.177 118.230  0.00  0.00     0.028 C 
ATOM     10  C   LIG d   1      -2.971  89.755 117.686  0.00  0.00     0.006 C 
ENDBRANCH   8   9
BRANCH   8  11
ATOM     11  C   LIG d   1      -5.085  91.021 116.693  0.00  0.00     0.028 C 
ATOM     12  C   LIG d   1      -6.615  90.965 116.553  0.00  0.00     0.006 C 
ENDBRANCH   8  11
ENDBRANCH   7   8
ENDBRANCH   1   7
BRANCH   6  13
ATOM     13  N   LIG d   1      -3.786  94.357 120.507  0.00  0.00    -0.311 N 
ATOM     14  C   LIG d   1      -2.483  94.599 120.644  0.00  0.00     0.210 C 
ATOM     15  C   LIG d   1      -1.797  93.828 121.777  0.00  0.00     0.109 C 
ATOM     16  O   LIG d   1      -1.838  95.404 119.956  0.00  0.00    -0.276 OA
ATOM     17  H   LIG d   1      -4.235  93.713 121.129  0.00  0.00     0.149 HD
ENDBRANCH   6  13
BRANCH   5  18
ATOM     18  N   LIG d   1      -4.826  97.228 120.599  0.00  0.00     0.381 N 
ATOM     19  H   LIG d   1      -5.221  98.083 120.263  0.00  0.00    -0.090 HD
ATOM     20  H   LIG d   1      -3.869  97.182 120.297  0.00  0.00    -0.090 HD
ATOM     21  H   LIG d   1      -4.869  97.202 121.594  0.00  0.00    -0.090 HD
ENDBRANCH   5  18
BRANCH   3  22
ATOM     22  C   LIG d   1      -8.347  95.891 117.641  0.00  0.00     0.382 C 
ATOM     23  O   LIG d   1      -8.677  97.083 117.433  0.00  0.00    -0.241 OA
ATOM     24  O   LIG d   1      -9.153  94.977 117.382  0.00  0.00    -0.241 OA
ENDBRANCH   3  22
TORSDOF 7
ENDMDL
MODEL 3
REMARK VINA RESULT:      -4.4      3.002      4.687
REMARK  7 active torsions:
REMARK  status: ('A' for Active; 'I' for Inactive)
REMARK    1  A    between atoms: C_2  and  C_3 
REMARK    2  A    between atoms: C_3  and  O_6 
REMARK    3  A    between atoms: C_3  and  C_4 
REMARK    4  A    between atoms: C_7  and  O_6 
REMARK    5  A    between atoms: C_9  and  C_10 
REMARK    6  A    between atoms: N_15  and  C_14 
REMARK    7  A    between atoms: N_20  and  C_19 
REMARK       I    between atoms: C_22  and  N_20 
ROOT
ATOM      1  C   LIG d   1      -5.967  94.301 120.023  0.00  0.00     0.161 C 
ATOM      2  C   LIG d   1      -5.718  93.314 120.991  0.00  0.00     0.016 C 
ATOM      3  C   LIG d   1      -6.741  92.583 121.638  0.00  0.00     0.038 C 
ATOM      4  C   LIG d   1      -8.085  92.686 121.250  0.00  0.00     0.028 C 
ATOM      5  C   LIG d   1      -8.435  94.034 120.629  0.00  0.00    -0.047 C 
ATOM      6  C   LIG d   1      -7.420  94.348 119.506  0.00  0.00     0.091 C 
ENDROOT
BRANCH   1   7
ATOM      7  O   LIG d   1      -5.048  94.150 118.923  0.00  0.00    -0.368 OA
BRANCH   7   8
ATOM      8  C   LIG d   1      -4.838  92.796 118.450  0.00  0.00     0.119 C 
BRANCH   8   9
ATOM      9  C   LIG d   1      -3.320  92.600 118.269  0.00  0.00     0.028 C 
ATOM     10  C   LIG d   1      -2.888  91.139 118.474  0.00  0.00     0.006 C 
ENDBRANCH   8   9
BRANCH   8  11
ATOM     11  C   LIG d   1      -5.443  92.592 117.058  0.00  0.00     0.028 C 
ATOM     12  C   LIG d   1      -6.630  91.616 117.062  0.00  0.00     0.006 C 
ENDBRANCH   8  11
ENDBRANCH   7   8
ENDBRANCH   1   7
BRANCH   6  13
ATOM     13  N   LIG d   1      -7.640  95.688 118.902  0.00  0.00    -0.311 N 
ATOM     14  C   LIG d   1      -8.396  95.892 117.825  0.00  0.00     0.210 C 
ATOM     15  C   LIG d   1      -8.472  97.348 117.355  0.00  0.00     0.109 C 
ATOM     16  O   LIG d   1      -9.036  95.011 117.234  0.00  0.00    -0.276 OA
ATOM     17  H   LIG d   1      -7.182  96.465 119.338  0.00  0.00     0.149 HD
ENDBRANCH   6  13
BRANCH   5  18
ATOM     18  N   LIG d   1      -9.826  93.954 120.145  0.00  0.00     0.381 N 
ATOM     19  H   LIG d   1     -10.223  94.871 120.103  0.00  0.00    -0.090 HD
ATOM     20  H   LIG d   1     -10.365  93.406 120.793  0.00  0.00    -0.090 HD
ATOM     21  H   LIG d   1      -9.850  93.533 119.243  0.00  0.00    -0.090 HD
ENDBRANCH   5  18
BRANCH   3  22
ATOM     22  C   LIG d   1      -6.427  91.768 122.715  0.00  0.00     0.382 C 
ATOM     23  O   LIG d   1      -7.221  90.863 123.069  0.00  0.00    -0.241 OA
ATOM     24  O   LIG d   1      -5.381  91.954 123.365  0.00  0.00    -0.241 OA
ENDBRANCH   3  22
TORSDOF 7
ENDMDL
MODEL 4
REMARK VINA RESULT:      -4.3      2.675      6.153
REMARK  7 active torsions:
REMARK  status: ('A' for Active; 'I' for Inactive)
REMARK    1  A    between atoms: C_2  and  C_3 
REMARK    2  A    between atoms: C_3  and  O_6 
REMARK    3  A    between atoms: C_3  and  C_4 
REMARK    4  A    between atoms: C_7  and  O_6 
REMARK    5  A    between atoms: C_9  and  C_10 
REMARK    6  A    between atoms: N_15  and  C_14 
REMARK    7  A    between atoms: N_20  and  C_19 
REMARK       I    between atoms: C_22  and  N_20 
ROOT
ATOM      1  C   LIG d   1      -6.127  93.778 119.675  0.00  0.00     0.161 C 
ATOM      2  C   LIG d   1      -7.518  93.579 119.655  0.00  0.00     0.016 C 
ATOM      3  C   LIG d   1      -8.446  94.516 120.164  0.00  0.00     0.038 C 
ATOM      4  C   LIG d   1      -8.051  95.792 120.594  0.00  0.00     0.028 C 
ATOM      5  C   LIG d   1      -6.614  95.842 121.101  0.00  0.00    -0.047 C 
ATOM      6  C   LIG d   1      -5.685  95.211 120.039  0.00  0.00     0.091 C 
ENDROOT
BRANCH   1   7
ATOM      7  O   LIG d   1      -5.558  93.384 118.411  0.00  0.00    -0.368 OA
BRANCH   7   8
ATOM      8  C   LIG d   1      -4.866  92.111 118.393  0.00  0.00     0.119 C 
BRANCH   8   9
ATOM      9  C   LIG d   1      -3.355  92.407 118.329  0.00  0.00     0.028 C 
ATOM     10  C   LIG d   1      -2.618  91.975 119.608  0.00  0.00     0.006 C 
ENDBRANCH   8   9
BRANCH   8  11
ATOM     11  C   LIG d   1      -5.179  91.325 117.117  0.00  0.00     0.028 C 
ATOM     12  C   LIG d   1      -6.680  91.299 116.786  0.00  0.00     0.006 C 
ENDBRANCH   8  11
ENDBRANCH   7   8
ENDBRANCH   1   7
BRANCH   6  13
ATOM     13  N   LIG d   1      -4.270  95.144 120.491  0.00  0.00    -0.311 N 
ATOM     14  C   LIG d   1      -3.284  95.831 119.917  0.00  0.00     0.210 C 
ATOM     15  C   LIG d   1      -1.897  95.601 120.526  0.00  0.00     0.109 C 
ATOM     16  O   LIG d   1      -3.431  96.633 118.983  0.00  0.00    -0.276 OA
ATOM     17  H   LIG d   1      -4.067  94.541 121.264  0.00  0.00     0.149 HD
ENDBRANCH   6  13
BRANCH   5  18
ATOM     18  N   LIG d   1      -6.291  97.253 121.386  0.00  0.00     0.381 N 
ATOM     19  H   LIG d   1      -5.312  97.410 121.255  0.00  0.00    -0.090 HD
ATOM     20  H   LIG d   1      -6.517  97.451 122.345  0.00  0.00    -0.090 HD
ATOM     21  H   LIG d   1      -6.814  97.851 120.784  0.00  0.00    -0.090 HD
ENDBRANCH   5  18
BRANCH   3  22
ATOM     22  C   LIG d   1      -9.782  94.165 120.283  0.00  0.00     0.382 C 
ATOM     23  O   LIG d   1     -10.115  93.208 121.024  0.00  0.00    -0.241 OA
ATOM     24  O   LIG d   1     -10.654  94.764 119.626  0.00  0.00    -0.241 OA
ENDBRANCH   3  22
TORSDOF 7
ENDMDL
MODEL 5
REMARK VINA RESULT:      -4.2      2.570      5.443
REMARK  7 active torsions:
REMARK  status: ('A' for Active; 'I' for Inactive)
REMARK    1  A    between atoms: C_2  and  C_3 
REMARK    2  A    between atoms: C_3  and  O_6 
REMARK    3  A    between atoms: C_3  and  C_4 
REMARK    4  A    between atoms: C_7  and  O_6 
REMARK    5  A    between atoms: C_9  and  C_10 
REMARK    6  A    between atoms: N_15  and  C_14 
REMARK    7  A    between atoms: N_20  and  C_19 
REMARK       I    between atoms: C_22  and  N_20 
ROOT
ATOM      1  C   LIG d   1      -3.167  92.126 119.104  0.00  0.00     0.161 C 
ATOM      2  C   LIG d   1      -4.084  91.500 118.242  0.00  0.00     0.016 C 
ATOM      3  C   LIG d   1      -5.105  92.196 117.555  0.00  0.00     0.038 C 
ATOM      4  C   LIG d   1      -5.185  93.596 117.566  0.00  0.00     0.028 C 
ATOM      5  C   LIG d   1      -4.593  94.227 118.822  0.00  0.00    -0.047 C 
ATOM      6  C   LIG d   1      -3.169  93.667 119.041  0.00  0.00     0.091 C 
ENDROOT
BRANCH   1   7
ATOM      7  O   LIG d   1      -1.841  91.616 118.860  0.00  0.00    -0.368 OA
BRANCH   7   8
ATOM      8  C   LIG d   1      -1.512  90.360 119.504  0.00  0.00     0.119 C 
BRANCH   8   9
ATOM      9  C   LIG d   1      -1.816  90.518 121.006  0.00  0.00     0.028 C 
ATOM     10  C   LIG d   1      -0.620  91.081 121.792  0.00  0.00     0.006 C 
ENDBRANCH   8   9
BRANCH   8  11
ATOM     11  C   LIG d   1      -0.011  90.069 119.422  0.00  0.00     0.028 C 
ATOM     12  C   LIG d   1       0.617  90.540 118.101  0.00  0.00     0.006 C 
ENDBRANCH   8  11
ENDBRANCH   7   8
ENDBRANCH   1   7
BRANCH   6  13
ATOM     13  N   LIG d   1      -2.549  94.169 120.296  0.00  0.00    -0.311 N 
ATOM     14  C   LIG d   1      -1.245  94.408 120.425  0.00  0.00     0.210 C 
ATOM     15  C   LIG d   1      -0.813  94.902 121.809  0.00  0.00     0.109 C 
ATOM     16  O   LIG d   1      -0.411  94.288 119.515  0.00  0.00    -0.276 OA
ATOM     17  H   LIG d   1      -3.159  94.324 121.075  0.00  0.00     0.149 HD
ENDBRANCH   6  13
BRANCH   5  18
ATOM     18  N   LIG d   1      -4.617  95.691 118.639  0.00  0.00     0.381 N 
ATOM     19  H   LIG d   1      -5.083  95.918 117.784  0.00  0.00    -0.090 HD
ATOM     20  H   LIG d   1      -3.672  96.027 118.582  0.00  0.00    -0.090 HD
ATOM     21  H   LIG d   1      -5.084  96.122 119.406  0.00  0.00    -0.090 HD
ENDBRANCH   5  18
BRANCH   3  22
ATOM     22  C   LIG d   1      -6.085  91.486 116.879  0.00  0.00     0.382 C 
ATOM     23  O   LIG d   1      -7.235  91.970 116.751  0.00  0.00    -0.241 OA
ATOM     24  O   LIG d   1      -5.846  90.347 116.434  0.00  0.00    -0.241 OA
ENDBRANCH   3  22
TORSDOF 7
ENDMDL
MODEL 6
REMARK VINA RESULT:      -4.1      2.388      4.317
REMARK  7 active torsions:
REMARK  status: ('A' for Active; 'I' for Inactive)
REMARK    1  A    between atoms: C_2  and  C_3 
REMARK    2  A    between atoms: C_3  and  O_6 
REMARK    3  A    between atoms: C_3  and  C_4 
REMARK    4  A    between atoms: C_7  and  O_6 
REMARK    5  A    between atoms: C_9  and  C_10 
REMARK    6  A    between atoms: N_15  and  C_14 
REMARK    7  A    between atoms: N_20  and  C_19 
REMARK       I    between atoms: C_22  and  N_20 
ROOT
ATOM      1  C   LIG d   1      -4.211  93.649 118.360  0.00  0.00     0.161 C 
ATOM      2  C   LIG d   1      -4.366  92.356 117.832  0.00  0.00     0.016 C 
ATOM      3  C   LIG d   1      -3.530  91.269 118.177  0.00  0.00     0.038 C 
ATOM      4  C   LIG d   1      -2.570  91.366 119.195  0.00  0.00     0.028 C 
ATOM      5  C   LIG d   1      -2.042  92.783 119.397  0.00  0.00    -0.047 C 
ATOM      6  C   LIG d   1      -3.240  93.747 119.555  0.00  0.00     0.091 C 
ENDROOT
BRANCH   1   7
ATOM      7  O   LIG d   1      -5.499  94.189 118.716  0.00  0.00    -0.368 OA
BRANCH   7   8
ATOM      8  C   LIG d   1      -6.535  93.221 119.015  0.00  0.00     0.119 C 
BRANCH   8   9
ATOM      9  C   LIG d   1      -7.850  93.748 118.409  0.00  0.00     0.028 C 
ATOM     10  C   LIG d   1      -7.610  94.805 117.317  0.00  0.00     0.006 C 
ENDBRANCH   8   9
BRANCH   8  11
ATOM     11  C   LIG d   1      -6.792  93.129 120.522  0.00  0.00     0.028 C 
ATOM     12  C   LIG d   1      -6.481  94.440 121.261  0.00  0.00     0.006 C 
ENDBRANCH   8  11
ENDBRANCH   7   8
ENDBRANCH   1   7
BRANCH   6  13
ATOM     13  N   LIG d   1      -2.813  95.166 119.673  0.00  0.00    -0.311 N 
ATOM     14  C   LIG d   1      -2.640  95.785 120.839  0.00  0.00     0.210 C 
ATOM     15  C   LIG d   1      -2.218  97.254 120.735  0.00  0.00     0.109 C 
ATOM     16  O   LIG d   1      -2.765  95.248 121.950  0.00  0.00    -0.276 OA
ATOM     17  H   LIG d   1      -2.660  95.668 118.821  0.00  0.00     0.149 HD
ENDBRANCH   6  13
BRANCH   5  18
ATOM     18  N   LIG d   1      -1.155  92.764 120.576  0.00  0.00     0.381 N 
ATOM     19  H   LIG d   1      -0.300  92.296 120.349  0.00  0.00    -0.090 HD
ATOM     20  H   LIG d   1      -1.607  92.255 121.315  0.00  0.00    -0.090 HD
ATOM     21  H   LIG d   1      -0.963  93.696 120.873  0.00  0.00    -0.090 HD
ENDBRANCH   5  18
BRANCH   3  22
ATOM     22  C   LIG d   1      -3.624  90.079 117.472  0.00  0.00     0.382 C 
ATOM     23  O   LIG d   1      -4.373  90.002 116.468  0.00  0.00    -0.241 OA
ATOM     24  O   LIG d   1      -3.003  89.068 117.853  0.00  0.00    -0.241 OA
ENDBRANCH   3  22
TORSDOF 7
ENDMDL
MODEL 7
REMARK VINA RESULT:      -4.1      2.366      5.449
REMARK  7 active torsions:
REMARK  status: ('A' for Active; 'I' for Inactive)
REMARK    1  A    between atoms: C_2  and  C_3 
REMARK    2  A    between atoms: C_3  and  O_6 
REMARK    3  A    between atoms: C_3  and  C_4 
REMARK    4  A    between atoms: C_7  and  O_6 
REMARK    5  A    between atoms: C_9  and  C_10 
REMARK    6  A    between atoms: N_15  and  C_14 
REMARK    7  A    between atoms: N_20  and  C_19 
REMARK       I    between atoms: C_22  and  N_20 
ROOT
ATOM      1  C   LIG d   1      -2.381  92.609 119.023  0.00  0.00     0.161 C 
ATOM      2  C   LIG d   1      -1.542  93.467 119.754  0.00  0.00     0.016 C 
ATOM      3  C   LIG d   1      -1.914  94.775 120.142  0.00  0.00     0.038 C 
ATOM      4  C   LIG d   1      -3.216  95.262 119.953  0.00  0.00     0.028 C 
ATOM      5  C   LIG d   1      -3.938  94.620 118.774  0.00  0.00    -0.047 C 
ATOM      6  C   LIG d   1      -3.845  93.082 118.905  0.00  0.00     0.091 C 
ENDROOT
BRANCH   1   7
ATOM      7  O   LIG d   1      -2.327  91.281 119.581  0.00  0.00    -0.368 OA
BRANCH   7   8
ATOM      8  C   LIG d   1      -1.161  90.492 119.236  0.00  0.00     0.119 C 
BRANCH   8   9
ATOM      9  C   LIG d   1      -1.393  89.916 117.826  0.00  0.00     0.028 C 
ATOM     10  C   LIG d   1      -2.512  88.861 117.799  0.00  0.00     0.006 C 
ENDBRANCH   8   9
BRANCH   8  11
ATOM     11  C   LIG d   1      -1.022  89.274 120.154  0.00  0.00     0.028 C 
ATOM     12  C   LIG d   1      -1.705  89.473 121.516  0.00  0.00     0.006 C 
ENDBRANCH   8  11
ENDBRANCH   7   8
ENDBRANCH   1   7
BRANCH   6  13
ATOM     13  N   LIG d   1      -4.454  92.376 117.748  0.00  0.00    -0.311 N 
ATOM     14  C   LIG d   1      -5.728  91.991 117.712  0.00  0.00     0.210 C 
ATOM     15  C   LIG d   1      -6.147  91.261 116.432  0.00  0.00     0.109 C 
ATOM     16  O   LIG d   1      -6.560  92.214 118.605  0.00  0.00    -0.276 OA
ATOM     17  H   LIG d   1      -3.858  92.183 116.967  0.00  0.00     0.149 HD
ENDBRANCH   6  13
BRANCH   5  18
ATOM     18  N   LIG d   1      -5.327  95.117 118.778  0.00  0.00     0.381 N 
ATOM     19  H   LIG d   1      -5.902  94.513 119.331  0.00  0.00    -0.090 HD
ATOM     20  H   LIG d   1      -5.677  95.110 117.836  0.00  0.00    -0.090 HD
ATOM     21  H   LIG d   1      -5.357  96.043 119.144  0.00  0.00    -0.090 HD
ENDBRANCH   5  18
BRANCH   3  22
ATOM     22  C   LIG d   1      -0.965  95.625 120.689  0.00  0.00     0.382 C 
ATOM     23  O   LIG d   1      -1.299  96.452 121.572  0.00  0.00    -0.241 OA
ATOM     24  O   LIG d   1       0.211  95.606 120.281  0.00  0.00    -0.241 OA
ENDBRANCH   3  22
TORSDOF 7
ENDMDL
MODEL 8
REMARK VINA RESULT:      -4.1      3.108      4.140
REMARK  7 active torsions:
REMARK  status: ('A' for Active; 'I' for Inactive)
REMARK    1  A    between atoms: C_2  and  C_3 
REMARK    2  A    between atoms: C_3  and  O_6 
REMARK    3  A    between atoms: C_3  and  C_4 
REMARK    4  A    between atoms: C_7  and  O_6 
REMARK    5  A    between atoms: C_9  and  C_10 
REMARK    6  A    between atoms: N_15  and  C_14 
REMARK    7  A    between atoms: N_20  and  C_19 
REMARK       I    between atoms: C_22  and  N_20 
ROOT
ATOM      1  C   LIG d   1      -7.296  93.257 119.998  0.00  0.00     0.161 C 
ATOM      2  C   LIG d   1      -6.566  92.280 119.300  0.00  0.00     0.016 C 
ATOM      3  C   LIG d   1      -6.222  92.394 117.934  0.00  0.00     0.038 C 
ATOM      4  C   LIG d   1      -6.455  93.570 117.206  0.00  0.00     0.028 C 
ATOM      5  C   LIG d   1      -7.635  94.382 117.729  0.00  0.00    -0.047 C 
ATOM      6  C   LIG d   1      -7.462  94.596 119.250  0.00  0.00     0.091 C 
ENDROOT
BRANCH   1   7
ATOM      7  O   LIG d   1      -6.703  93.476 121.293  0.00  0.00    -0.368 OA
BRANCH   7   8
ATOM      8  C   LIG d   1      -6.299  92.289 122.019  0.00  0.00     0.119 C 
BRANCH   8   9
ATOM      9  C   LIG d   1      -7.391  91.992 123.065  0.00  0.00     0.028 C 
ATOM     10  C   LIG d   1      -8.294  93.208 123.332  0.00  0.00     0.006 C 
ENDBRANCH   8   9
BRANCH   8  11
ATOM     11  C   LIG d   1      -5.021  92.537 122.825  0.00  0.00     0.028 C 
ATOM     12  C   LIG d   1      -3.747  92.159 122.053  0.00  0.00     0.006 C 
ENDBRANCH   8  11
ENDBRANCH   7   8
ENDBRANCH   1   7
BRANCH   6  13
ATOM     13  N   LIG d   1      -8.616  95.310 119.857  0.00  0.00    -0.311 N 
ATOM     14  C   LIG d   1      -9.807  94.746 120.049  0.00  0.00     0.210 C 
ATOM     15  C   LIG d   1     -10.864  95.665 120.671  0.00  0.00     0.109 C 
ATOM     16  O   LIG d   1     -10.080  93.564 119.793  0.00  0.00    -0.276 OA
ATOM     17  H   LIG d   1      -8.473  96.264 120.123  0.00  0.00     0.149 HD
ENDBRANCH   6  13
BRANCH   5  18
ATOM     18  N   LIG d   1      -7.679  95.646 116.969  0.00  0.00     0.381 N 
ATOM     19  H   LIG d   1      -8.513  96.149 117.196  0.00  0.00    -0.090 HD
ATOM     20  H   LIG d   1      -7.696  95.433 115.987  0.00  0.00    -0.090 HD
ATOM     21  H   LIG d   1      -6.879  96.200 117.182  0.00  0.00    -0.090 HD
ENDBRANCH   5  18
BRANCH   3  22
ATOM     22  C   LIG d   1      -5.673  91.307 117.270  0.00  0.00     0.382 C 
ATOM     23  O   LIG d   1      -4.441  91.082 117.348  0.00  0.00    -0.241 OA
ATOM     24  O   LIG d   1      -6.386  90.574 116.559  0.00  0.00    -0.241 OA
ENDBRANCH   3  22
TORSDOF 7
ENDMDL
MODEL 9
REMARK VINA RESULT:      -4.0      2.614      5.873
REMARK  7 active torsions:
REMARK  status: ('A' for Active; 'I' for Inactive)
REMARK    1  A    between atoms: C_2  and  C_3 
REMARK    2  A    between atoms: C_3  and  O_6 
REMARK    3  A    between atoms: C_3  and  C_4 
REMARK    4  A    between atoms: C_7  and  O_6 
REMARK    5  A    between atoms: C_9  and  C_10 
REMARK    6  A    between atoms: N_15  and  C_14 
REMARK    7  A    between atoms: N_20  and  C_19 
REMARK       I    between atoms: C_22  and  N_20 
ROOT
ATOM      1  C   LIG d   1      -5.864  93.223 120.133  0.00  0.00     0.161 C 
ATOM      2  C   LIG d   1      -7.063  93.395 119.420  0.00  0.00     0.016 C 
ATOM      3  C   LIG d   1      -7.624  94.660 119.134  0.00  0.00     0.038 C 
ATOM      4  C   LIG d   1      -6.941  95.854 119.411  0.00  0.00     0.028 C 
ATOM      5  C   LIG d   1      -5.967  95.737 120.579  0.00  0.00    -0.047 C 
ATOM      6  C   LIG d   1      -5.049  94.516 120.346  0.00  0.00     0.091 C 
ENDROOT
BRANCH   1   7
ATOM      7  O   LIG d   1      -5.053  92.220 119.490  0.00  0.00    -0.368 OA
BRANCH   7   8
ATOM      8  C   LIG d   1      -4.669  92.492 118.120  0.00  0.00     0.119 C 
BRANCH   8   9
ATOM      9  C   LIG d   1      -4.849  91.187 117.321  0.00  0.00     0.028 C 
ATOM     10  C   LIG d   1      -6.213  91.115 116.614  0.00  0.00     0.006 C 
ENDBRANCH   8   9
BRANCH   8  11
ATOM     11  C   LIG d   1      -3.179  92.829 118.016  0.00  0.00     0.028 C 
ATOM     12  C   LIG d   1      -2.312  92.006 118.983  0.00  0.00     0.006 C 
ENDBRANCH   8  11
ENDBRANCH   7   8
ENDBRANCH   1   7
BRANCH   6  13
ATOM     13  N   LIG d   1      -4.121  94.279 121.483  0.00  0.00    -0.311 N 
ATOM     14  C   LIG d   1      -2.863  94.716 121.506  0.00  0.00     0.210 C 
ATOM     15  C   LIG d   1      -2.072  94.346 122.765  0.00  0.00     0.109 C 
ATOM     16  O   LIG d   1      -2.336  95.402 120.617  0.00  0.00    -0.276 OA
ATOM     17  H   LIG d   1      -4.476  93.758 122.261  0.00  0.00     0.149 HD
ENDBRANCH   6  13
BRANCH   5  18
ATOM     18  N   LIG d   1      -5.226  97.009 120.670  0.00  0.00     0.381 N 
ATOM     19  H   LIG d   1      -5.310  97.512 119.809  0.00  0.00    -0.090 HD
ATOM     20  H   LIG d   1      -4.253  96.808 120.824  0.00  0.00    -0.090 HD
ATOM     21  H   LIG d   1      -5.582  97.559 121.421  0.00  0.00    -0.090 HD
ENDBRANCH   5  18
BRANCH   3  22
ATOM     22  C   LIG d   1      -8.900  94.741 118.599  0.00  0.00     0.382 C 
ATOM     23  O   LIG d   1      -9.901  94.579 119.338  0.00  0.00    -0.241 OA
ATOM     24  O   LIG d   1      -9.063  94.930 117.378  0.00  0.00    -0.241 OA
ENDBRANCH   3  22
TORSDOF 7
ENDMDL
