MODEL 1
REMARK VINA RESULT:      -4.5      0.000      0.000
REMARK  7 active torsions:
REMARK  status: ('A' for Active; 'I' for Inactive)
REMARK    1  A    between atoms: C_2  and  C_3 
REMARK    2  A    between atoms: C_3  and  O_6 
REMARK    3  A    between atoms: C_3  and  C_4 
REMARK    4  A    between atoms: C_7  and  O_6 
REMARK    5  A    between atoms: C_9  and  C_10 
REMARK    6  A    between atoms: N_15  and  C_14 
REMARK    7  A    between atoms: N_20  and  C_19 
REMARK       I    between atoms: C_22  and  N_20 
ROOT
ATOM      1  C   LIG d   1      -3.973  91.042 119.378  0.00  0.00     0.161 C 
ATOM      2  C   LIG d   1      -4.686  90.612 118.246  0.00  0.00     0.016 C 
ATOM      3  C   LIG d   1      -5.965  91.104 117.898  0.00  0.00     0.038 C 
ATOM      4  C   LIG d   1      -6.557  92.177 118.580  0.00  0.00     0.028 C 
ATOM      5  C   LIG d   1      -6.100  92.299 120.030  0.00  0.00    -0.047 C 
ATOM      6  C   LIG d   1      -4.555  92.292 120.071  0.00  0.00     0.091 C 
ENDROOT
BRANCH   1   7
ATOM      7  O   LIG d   1      -2.591  91.259 119.032  0.00  0.00    -0.368 OA
BRANCH   7   8
ATOM      8  C   LIG d   1      -1.661  90.229 119.448  0.00  0.00     0.119 C 
BRANCH   8   9
ATOM      9  C   LIG d   1      -0.759  90.835 120.541  0.00  0.00     0.028 C 
ATOM     10  C   LIG d   1      -0.851  90.066 121.870  0.00  0.00     0.006 C 
ENDBRANCH   8   9
BRANCH   8  11
ATOM     11  C   LIG d   1      -0.713  89.841 118.309  0.00  0.00     0.028 C 
ATOM     12  C   LIG d   1      -1.397  88.987 117.230  0.00  0.00     0.006 C 
ENDBRANCH   8  11
ENDBRANCH   7   8
ENDBRANCH   1   7
BRANCH   6  13
ATOM     13  N   LIG d   1      -4.025  92.323 121.460  0.00  0.00    -0.311 N 
ATOM     14  C   LIG d   1      -3.187  93.257 121.903  0.00  0.00     0.210 C 
ATOM     15  C   LIG d   1      -2.747  93.092 123.361  0.00  0.00     0.109 C 
ATOM     16  O   LIG d   1      -2.790  94.226 121.237  0.00  0.00    -0.276 OA
ATOM     17  H   LIG d   1      -4.320  91.592 122.077  0.00  0.00     0.149 HD
ENDBRANCH   6  13
BRANCH   5  18
ATOM     18  N   LIG d   1      -6.688  93.535 120.580  0.00  0.00     0.381 N 
ATOM     19  H   LIG d   1      -7.685  93.494 120.516  0.00  0.00    -0.090 HD
ATOM     20  H   LIG d   1      -6.369  94.317 120.034  0.00  0.00    -0.090 HD
ATOM     21  H   LIG d   1      -6.413  93.650 121.530  0.00  0.00    -0.090 HD
ENDBRANCH   5  18
BRANCH   3  22
ATOM     22  C   LIG d   1      -6.682  90.493 116.880  0.00  0.00     0.382 C 
ATOM     23  O   LIG d   1      -7.719  91.038 116.430  0.00  0.00    -0.241 OA
ATOM     24  O   LIG d   1      -6.331  89.384 116.437  0.00  0.00    -0.241 OA
ENDBRANCH   3  22
TORSDOF 7
ENDMDL
MODEL 2
REMARK VINA RESULT:      -4.4      1.209      1.927
REMARK  7 active torsions:
REMARK  status: ('A' for Active; 'I' for Inactive)
REMARK    1  A    between atoms: C_2  and  C_3 
REMARK    2  A    between atoms: C_3  and  O_6 
REMARK    3  A    between atoms: C_3  and  C_4 
REMARK    4  A    between atoms: C_7  and  O_6 
REMARK    5  A    between atoms: C_9  and  C_10 
REMARK    6  A    between atoms: N_15  and  C_14 
REMARK    7  A    between atoms: N_20  and  C_19 
REMARK       I    between atoms: C_22  and  N_20 
ROOT
ATOM      1  C   LIG d   1      -3.608  90.569 119.593  0.00  0.00     0.161 C 
ATOM      2  C   LIG d   1      -4.416  90.351 118.465  0.00  0.00     0.016 C 
ATOM      3  C   LIG d   1      -5.615  91.058 118.218  0.00  0.00     0.038 C 
ATOM      4  C   LIG d   1      -6.011  92.145 119.011  0.00  0.00     0.028 C 
ATOM      5  C   LIG d   1      -5.491  92.072 120.443  0.00  0.00    -0.047 C 
ATOM      6  C   LIG d   1      -3.965  91.828 120.411  0.00  0.00     0.091 C 
ENDROOT
BRANCH   1   7
ATOM      7  O   LIG d   1      -2.221  90.604 119.201  0.00  0.00    -0.368 OA
BRANCH   7   8
ATOM      8  C   LIG d   1      -1.942  91.169 117.896  0.00  0.00     0.119 C 
BRANCH   8   9
ATOM      9  C   LIG d   1      -0.885  90.273 117.220  0.00  0.00     0.028 C 
ATOM     10  C   LIG d   1      -1.310  88.795 117.177  0.00  0.00     0.006 C 
ENDBRANCH   8   9
BRANCH   8  11
ATOM     11  C   LIG d   1      -1.288  92.548 118.014  0.00  0.00     0.028 C 
ATOM     12  C   LIG d   1      -0.535  92.740 119.340  0.00  0.00     0.006 C 
ENDBRANCH   8  11
ENDBRANCH   7   8
ENDBRANCH   1   7
BRANCH   6  13
ATOM     13  N   LIG d   1      -3.389  91.659 121.771  0.00  0.00    -0.311 N 
ATOM     14  C   LIG d   1      -2.843  92.656 122.464  0.00  0.00     0.210 C 
ATOM     15  C   LIG d   1      -2.291  92.261 123.838  0.00  0.00     0.109 C 
ATOM     16  O   LIG d   1      -2.792  93.836 122.086  0.00  0.00    -0.276 OA
ATOM     17  H   LIG d   1      -3.417  90.740 122.167  0.00  0.00     0.149 HD
ENDBRANCH   6  13
BRANCH   5  18
ATOM     18  N   LIG d   1      -5.861  93.331 121.117  0.00  0.00     0.381 N 
ATOM     19  H   LIG d   1      -6.639  93.173 121.726  0.00  0.00    -0.090 HD
ATOM     20  H   LIG d   1      -6.136  94.003 120.422  0.00  0.00    -0.090 HD
ATOM     21  H   LIG d   1      -5.087  93.679 121.638  0.00  0.00    -0.090 HD
ENDBRANCH   5  18
BRANCH   3  22
ATOM     22  C   LIG d   1      -6.453  90.653 117.190  0.00  0.00     0.382 C 
ATOM     23  O   LIG d   1      -7.557  91.225 117.019  0.00  0.00    -0.241 OA
ATOM     24  O   LIG d   1      -6.139  89.695 116.460  0.00  0.00    -0.241 OA
ENDBRANCH   3  22
TORSDOF 7
ENDMDL
MODEL 3
REMARK VINA RESULT:      -4.3      2.119      4.577
REMARK  7 active torsions:
REMARK  status: ('A' for Active; 'I' for Inactive)
REMARK    1  A    between atoms: C_2  and  C_3 
REMARK    2  A    between atoms: C_3  and  O_6 
REMARK    3  A    between atoms: C_3  and  C_4 
REMARK    4  A    between atoms: C_7  and  O_6 
REMARK    5  A    between atoms: C_9  and  C_10 
REMARK    6  A    between atoms: N_15  and  C_14 
REMARK    7  A    between atoms: N_20  and  C_19 
REMARK       I    between atoms: C_22  and  N_20 
ROOT
ATOM      1  C   LIG d   1      -5.353  92.503 119.854  0.00  0.00     0.161 C 
ATOM      2  C   LIG d   1      -6.194  91.922 118.890  0.00  0.00     0.016 C 
ATOM      3  C   LIG d   1      -5.787  90.874 118.033  0.00  0.00     0.038 C 
ATOM      4  C   LIG d   1      -4.551  90.230 118.184  0.00  0.00     0.028 C 
ATOM      5  C   LIG d   1      -3.478  91.116 118.809  0.00  0.00    -0.047 C 
ATOM      6  C   LIG d   1      -4.037  91.739 120.109  0.00  0.00     0.091 C 
ENDROOT
BRANCH   1   7
ATOM      7  O   LIG d   1      -6.075  92.683 121.088  0.00  0.00    -0.368 OA
BRANCH   7   8
ATOM      8  C   LIG d   1      -6.372  94.052 121.459  0.00  0.00     0.119 C 
BRANCH   8   9
ATOM      9  C   LIG d   1      -7.894  94.251 121.314  0.00  0.00     0.028 C 
ATOM     10  C   LIG d   1      -8.259  95.103 120.087  0.00  0.00     0.006 C 
ENDBRANCH   8   9
BRANCH   8  11
ATOM     11  C   LIG d   1      -5.738  95.045 120.480  0.00  0.00     0.028 C 
ATOM     12  C   LIG d   1      -4.693  95.954 121.146  0.00  0.00     0.006 C 
ENDBRANCH   8  11
ENDBRANCH   7   8
ENDBRANCH   1   7
BRANCH   6  13
ATOM     13  N   LIG d   1      -3.082  92.686 120.740  0.00  0.00    -0.311 N 
ATOM     14  C   LIG d   1      -2.792  92.678 122.040  0.00  0.00     0.210 C 
ATOM     15  C   LIG d   1      -1.796  93.753 122.487  0.00  0.00     0.109 C 
ATOM     16  O   LIG d   1      -3.240  91.862 122.860  0.00  0.00    -0.276 OA
ATOM     17  H   LIG d   1      -2.648  93.362 120.143  0.00  0.00     0.149 HD
ENDBRANCH   6  13
BRANCH   5  18
ATOM     18  N   LIG d   1      -2.285  90.279 119.036  0.00  0.00     0.381 N 
ATOM     19  H   LIG d   1      -2.496  89.324 118.825  0.00  0.00    -0.090 HD
ATOM     20  H   LIG d   1      -2.025  90.339 120.005  0.00  0.00    -0.090 HD
ATOM     21  H   LIG d   1      -1.533  90.595 118.463  0.00  0.00    -0.090 HD
ENDBRANCH   5  18
BRANCH   3  22
ATOM     22  C   LIG d   1      -6.607  90.488 116.983  0.00  0.00     0.382 C 
ATOM     23  O   LIG d   1      -6.435  89.375 116.431  0.00  0.00    -0.241 OA
ATOM     24  O   LIG d   1      -7.488  91.257 116.553  0.00  0.00    -0.241 OA
ENDBRANCH   3  22
TORSDOF 7
ENDMDL
MODEL 4
REMARK VINA RESULT:      -4.2      2.309      4.082
REMARK  7 active torsions:
REMARK  status: ('A' for Active; 'I' for Inactive)
REMARK    1  A    between atoms: C_2  and  C_3 
REMARK    2  A    between atoms: C_3  and  O_6 
REMARK    3  A    between atoms: C_3  and  C_4 
REMARK    4  A    between atoms: C_7  and  O_6 
REMARK    5  A    between atoms: C_9  and  C_10 
REMARK    6  A    between atoms: N_15  and  C_14 
REMARK    7  A    between atoms: N_20  and  C_19 
REMARK       I    between atoms: C_22  and  N_20 
ROOT
ATOM      1  C   LIG d   1      -4.395  91.861 120.703  0.00  0.00     0.161 C 
ATOM      2  C   LIG d   1      -3.603  91.005 119.921  0.00  0.00     0.016 C 
ATOM      3  C   LIG d   1      -3.982  90.552 118.636  0.00  0.00     0.038 C 
ATOM      4  C   LIG d   1      -5.118  91.050 117.980  0.00  0.00     0.028 C 
ATOM      5  C   LIG d   1      -6.207  91.528 118.933  0.00  0.00    -0.047 C 
ATOM      6  C   LIG d   1      -5.584  92.503 119.959  0.00  0.00     0.091 C 
ENDROOT
BRANCH   1   7
ATOM      7  O   LIG d   1      -3.569  92.881 121.300  0.00  0.00    -0.368 OA
BRANCH   7   8
ATOM      8  C   LIG d   1      -3.098  93.922 120.409  0.00  0.00     0.119 C 
BRANCH   8   9
ATOM      9  C   LIG d   1      -1.558  93.917 120.465  0.00  0.00     0.028 C 
ATOM     10  C   LIG d   1      -0.922  93.710 119.080  0.00  0.00     0.006 C 
ENDBRANCH   8   9
BRANCH   8  11
ATOM     11  C   LIG d   1      -3.517  95.309 120.903  0.00  0.00     0.028 C 
ATOM     12  C   LIG d   1      -4.042  96.210 119.774  0.00  0.00     0.006 C 
ENDBRANCH   8  11
ENDBRANCH   7   8
ENDBRANCH   1   7
BRANCH   6  13
ATOM     13  N   LIG d   1      -6.565  92.953 120.981  0.00  0.00    -0.311 N 
ATOM     14  C   LIG d   1      -7.264  94.082 120.879  0.00  0.00     0.210 C 
ATOM     15  C   LIG d   1      -8.205  94.368 122.053  0.00  0.00     0.109 C 
ATOM     16  O   LIG d   1      -7.218  94.857 119.912  0.00  0.00    -0.276 OA
ATOM     17  H   LIG d   1      -6.688  92.368 121.784  0.00  0.00     0.149 HD
ENDBRANCH   6  13
BRANCH   5  18
ATOM     18  N   LIG d   1      -7.271  92.146 118.120  0.00  0.00     0.381 N 
ATOM     19  H   LIG d   1      -8.137  92.123 118.621  0.00  0.00    -0.090 HD
ATOM     20  H   LIG d   1      -7.382  91.617 117.273  0.00  0.00    -0.090 HD
ATOM     21  H   LIG d   1      -7.030  93.088 117.903  0.00  0.00    -0.090 HD
ENDBRANCH   5  18
BRANCH   3  22
ATOM     22  C   LIG d   1      -3.242  89.560 118.011  0.00  0.00     0.382 C 
ATOM     23  O   LIG d   1      -2.013  89.455 118.242  0.00  0.00    -0.241 OA
ATOM     24  O   LIG d   1      -3.778  88.798 117.184  0.00  0.00    -0.241 OA
ENDBRANCH   3  22
TORSDOF 7
ENDMDL
MODEL 5
REMARK VINA RESULT:      -4.2      3.477      5.454
REMARK  7 active torsions:
REMARK  status: ('A' for Active; 'I' for Inactive)
REMARK    1  A    between atoms: C_2  and  C_3 
REMARK    2  A    between atoms: C_3  and  O_6 
REMARK    3  A    between atoms: C_3  and  C_4 
REMARK    4  A    between atoms: C_7  and  O_6 
REMARK    5  A    between atoms: C_9  and  C_10 
REMARK    6  A    between atoms: N_15  and  C_14 
REMARK    7  A    between atoms: N_20  and  C_19 
REMARK       I    between atoms: C_22  and  N_20 
ROOT
ATOM      1  C   LIG d   1      -1.218  91.532 118.162  0.00  0.00     0.161 C 
ATOM      2  C   LIG d   1      -2.593  91.583 118.447  0.00  0.00     0.016 C 
ATOM      3  C   LIG d   1      -3.478  90.507 118.207  0.00  0.00     0.038 C 
ATOM      4  C   LIG d   1      -3.019  89.245 117.802  0.00  0.00     0.028 C 
ATOM      5  C   LIG d   1      -1.710  89.299 117.021  0.00  0.00    -0.047 C 
ATOM      6  C   LIG d   1      -0.680  90.125 117.824  0.00  0.00     0.091 C 
ENDROOT
BRANCH   1   7
ATOM      7  O   LIG d   1      -0.471  92.105 119.253  0.00  0.00    -0.368 OA
BRANCH   7   8
ATOM      8  C   LIG d   1       0.213  93.351 118.972  0.00  0.00     0.119 C 
BRANCH   8   9
ATOM      9  C   LIG d   1       1.682  93.180 119.403  0.00  0.00     0.028 C 
ATOM     10  C   LIG d   1       2.644  93.132 118.204  0.00  0.00     0.006 C 
ENDBRANCH   8   9
BRANCH   8  11
ATOM     11  C   LIG d   1      -0.333  94.493 119.834  0.00  0.00     0.028 C 
ATOM     12  C   LIG d   1      -1.579  95.156 119.226  0.00  0.00     0.006 C 
ENDBRANCH   8  11
ENDBRANCH   7   8
ENDBRANCH   1   7
BRANCH   6  13
ATOM     13  N   LIG d   1       0.602  90.298 117.093  0.00  0.00    -0.311 N 
ATOM     14  C   LIG d   1       1.659  89.507 117.269  0.00  0.00     0.210 C 
ATOM     15  C   LIG d   1       2.887  89.873 116.430  0.00  0.00     0.109 C 
ATOM     16  O   LIG d   1       1.686  88.519 118.018  0.00  0.00    -0.276 OA
ATOM     17  H   LIG d   1       0.657  91.058 116.443  0.00  0.00     0.149 HD
ENDBRANCH   6  13
BRANCH   5  18
ATOM     18  N   LIG d   1      -1.277  87.909 116.782  0.00  0.00     0.381 N 
ATOM     19  H   LIG d   1      -2.042  87.284 116.937  0.00  0.00    -0.090 HD
ATOM     20  H   LIG d   1      -0.546  87.680 117.433  0.00  0.00    -0.090 HD
ATOM     21  H   LIG d   1      -0.943  87.812 115.849  0.00  0.00    -0.090 HD
ENDBRANCH   5  18
BRANCH   3  22
ATOM     22  C   LIG d   1      -4.846  90.701 118.333  0.00  0.00     0.382 C 
ATOM     23  O   LIG d   1      -5.635  90.133 117.541  0.00  0.00    -0.241 OA
ATOM     24  O   LIG d   1      -5.297  91.473 119.201  0.00  0.00    -0.241 OA
ENDBRANCH   3  22
TORSDOF 7
ENDMDL
MODEL 6
REMARK VINA RESULT:      -4.1      3.062      5.793
REMARK  7 active torsions:
REMARK  status: ('A' for Active; 'I' for Inactive)
REMARK    1  A    between atoms: C_2  and  C_3 
REMARK    2  A    between atoms: C_3  and  O_6 
REMARK    3  A    between atoms: C_3  and  C_4 
REMARK    4  A    between atoms: C_7  and  O_6 
REMARK    5  A    between atoms: C_9  and  C_10 
REMARK    6  A    between atoms: N_15  and  C_14 
REMARK    7  A    between atoms: N_20  and  C_19 
REMARK       I    between atoms: C_22  and  N_20 
ROOT
ATOM      1  C   LIG d   1      -0.829  90.741 117.769  0.00  0.00     0.161 C 
ATOM      2  C   LIG d   1       0.468  91.260 117.914  0.00  0.00     0.016 C 
ATOM      3  C   LIG d   1       0.738  92.542 118.445  0.00  0.00     0.038 C 
ATOM      4  C   LIG d   1      -0.269  93.337 119.012  0.00  0.00     0.028 C 
ATOM      5  C   LIG d   1      -1.653  93.068 118.430  0.00  0.00    -0.047 C 
ATOM      6  C   LIG d   1      -1.933  91.549 118.484  0.00  0.00     0.091 C 
ENDROOT
BRANCH   1   7
ATOM      7  O   LIG d   1      -0.856  89.366 118.200  0.00  0.00    -0.368 OA
BRANCH   7   8
ATOM      8  C   LIG d   1       0.433  88.737 118.405  0.00  0.00     0.119 C 
BRANCH   8   9
ATOM      9  C   LIG d   1       0.411  87.385 117.665  0.00  0.00     0.028 C 
ATOM     10  C   LIG d   1      -0.795  87.253 116.720  0.00  0.00     0.006 C 
ENDBRANCH   8   9
BRANCH   8  11
ATOM     11  C   LIG d   1       0.655  88.388 119.880  0.00  0.00     0.028 C 
ATOM     12  C   LIG d   1       1.260  86.989 120.077  0.00  0.00     0.006 C 
ENDBRANCH   8  11
ENDBRANCH   7   8
ENDBRANCH   1   7
BRANCH   6  13
ATOM     13  N   LIG d   1      -3.231  91.189 117.857  0.00  0.00    -0.311 N 
ATOM     14  C   LIG d   1      -4.370  91.084 118.539  0.00  0.00     0.210 C 
ATOM     15  C   LIG d   1      -5.590  90.682 117.703  0.00  0.00     0.109 C 
ATOM     16  O   LIG d   1      -4.493  91.316 119.751  0.00  0.00    -0.276 OA
ATOM     17  H   LIG d   1      -3.229  91.013 116.871  0.00  0.00     0.149 HD
ENDBRANCH   6  13
BRANCH   5  18
ATOM     18  N   LIG d   1      -2.625  93.863 119.204  0.00  0.00     0.381 N 
ATOM     19  H   LIG d   1      -2.865  94.691 118.697  0.00  0.00    -0.090 HD
ATOM     20  H   LIG d   1      -2.202  94.136 120.073  0.00  0.00    -0.090 HD
ATOM     21  H   LIG d   1      -3.443  93.323 119.380  0.00  0.00    -0.090 HD
ENDBRANCH   5  18
BRANCH   3  22
ATOM     22  C   LIG d   1       2.024  93.057 118.377  0.00  0.00     0.382 C 
ATOM     23  O   LIG d   1       2.777  92.739 117.425  0.00  0.00    -0.241 OA
ATOM     24  O   LIG d   1       2.455  93.802 119.278  0.00  0.00    -0.241 OA
ENDBRANCH   3  22
TORSDOF 7
ENDMDL
MODEL 7
REMARK VINA RESULT:      -4.1      2.468      5.445
REMARK  7 active torsions:
REMARK  status: ('A' for Active; 'I' for Inactive)
REMARK    1  A    between atoms: C_2  and  C_3 
REMARK    2  A    between atoms: C_3  and  O_6 
REMARK    3  A    between atoms: C_3  and  C_4 
REMARK    4  A    between atoms: C_7  and  O_6 
REMARK    5  A    between atoms: C_9  and  C_10 
REMARK    6  A    between atoms: N_15  and  C_14 
REMARK    7  A    between atoms: N_20  and  C_19 
REMARK       I    between atoms: C_22  and  N_20 
ROOT
ATOM      1  C   LIG d   1      -1.461  92.293 117.879  0.00  0.00     0.161 C 
ATOM      2  C   LIG d   1      -0.322  92.887 118.447  0.00  0.00     0.016 C 
ATOM      3  C   LIG d   1      -0.227  93.239 119.813  0.00  0.00     0.038 C 
ATOM      4  C   LIG d   1      -1.216  92.881 120.742  0.00  0.00     0.028 C 
ATOM      5  C   LIG d   1      -2.602  92.732 120.123  0.00  0.00    -0.047 C 
ATOM      6  C   LIG d   1      -2.507  91.794 118.899  0.00  0.00     0.091 C 
ENDROOT
BRANCH   1   7
ATOM      7  O   LIG d   1      -1.067  91.221 117.000  0.00  0.00    -0.368 OA
BRANCH   7   8
ATOM      8  C   LIG d   1      -0.613  90.004 117.642  0.00  0.00     0.119 C 
BRANCH   8   9
ATOM      9  C   LIG d   1       0.850  89.775 117.217  0.00  0.00     0.028 C 
ATOM     10  C   LIG d   1       1.843  90.043 118.361  0.00  0.00     0.006 C 
ENDBRANCH   8   9
BRANCH   8  11
ATOM     11  C   LIG d   1      -1.381  88.783 117.128  0.00  0.00     0.028 C 
ATOM     12  C   LIG d   1      -0.480  87.555 116.925  0.00  0.00     0.006 C 
ENDBRANCH   8  11
ENDBRANCH   7   8
ENDBRANCH   1   7
BRANCH   6  13
ATOM     13  N   LIG d   1      -3.803  91.660 118.184  0.00  0.00    -0.311 N 
ATOM     14  C   LIG d   1      -4.535  90.548 118.195  0.00  0.00     0.210 C 
ATOM     15  C   LIG d   1      -5.829  90.616 117.377  0.00  0.00     0.109 C 
ATOM     16  O   LIG d   1      -4.252  89.521 118.831  0.00  0.00    -0.276 OA
ATOM     17  H   LIG d   1      -4.124  92.456 117.669  0.00  0.00     0.149 HD
ENDBRANCH   6  13
BRANCH   5  18
ATOM     18  N   LIG d   1      -3.506  92.223 121.172  0.00  0.00     0.381 N 
ATOM     19  H   LIG d   1      -4.438  92.544 121.001  0.00  0.00    -0.090 HD
ATOM     20  H   LIG d   1      -3.207  92.583 122.062  0.00  0.00    -0.090 HD
ATOM     21  H   LIG d   1      -3.486  91.227 121.186  0.00  0.00    -0.090 HD
ENDBRANCH   5  18
BRANCH   3  22
ATOM     22  C   LIG d   1       0.849  93.993 120.255  0.00  0.00     0.382 C 
ATOM     23  O   LIG d   1       0.674  95.180 120.622  0.00  0.00    -0.241 OA
ATOM     24  O   LIG d   1       2.000  93.516 120.250  0.00  0.00    -0.241 OA
ENDBRANCH   3  22
TORSDOF 7
ENDMDL
MODEL 8
REMARK VINA RESULT:      -4.0      2.558      4.503
REMARK  7 active torsions:
REMARK  status: ('A' for Active; 'I' for Inactive)
REMARK    1  A    between atoms: C_2  and  C_3 
REMARK    2  A    between atoms: C_3  and  O_6 
REMARK    3  A    between atoms: C_3  and  C_4 
REMARK    4  A    between atoms: C_7  and  O_6 
REMARK    5  A    between atoms: C_9  and  C_10 
REMARK    6  A    between atoms: N_15  and  C_14 
REMARK    7  A    between atoms: N_20  and  C_19 
REMARK       I    between atoms: C_22  and  N_20 
ROOT
ATOM      1  C   LIG d   1      -3.380  91.522 118.886  0.00  0.00     0.161 C 
ATOM      2  C   LIG d   1      -2.677  90.447 118.316  0.00  0.00     0.016 C 
ATOM      3  C   LIG d   1      -1.344  90.546 117.855  0.00  0.00     0.038 C 
ATOM      4  C   LIG d   1      -0.568  91.694 118.073  0.00  0.00     0.028 C 
ATOM      5  C   LIG d   1      -1.394  92.971 118.190  0.00  0.00    -0.047 C 
ATOM      6  C   LIG d   1      -2.513  92.750 119.233  0.00  0.00     0.091 C 
ENDROOT
BRANCH   1   7
ATOM      7  O   LIG d   1      -4.101  91.072 120.050  0.00  0.00    -0.368 OA
BRANCH   7   8
ATOM      8  C   LIG d   1      -3.539  91.447 121.332  0.00  0.00     0.119 C 
BRANCH   8   9
ATOM      9  C   LIG d   1      -2.900  90.185 121.944  0.00  0.00     0.028 C 
ATOM     10  C   LIG d   1      -1.378  90.135 121.731  0.00  0.00     0.006 C 
ENDBRANCH   8   9
BRANCH   8  11
ATOM     11  C   LIG d   1      -4.632  91.868 122.318  0.00  0.00     0.028 C 
ATOM     12  C   LIG d   1      -5.854  92.489 121.623  0.00  0.00     0.006 C 
ENDBRANCH   8  11
ENDBRANCH   7   8
ENDBRANCH   1   7
BRANCH   6  13
ATOM     13  N   LIG d   1      -3.420  93.922 119.348  0.00  0.00    -0.311 N 
ATOM     14  C   LIG d   1      -3.258  94.889 120.250  0.00  0.00     0.210 C 
ATOM     15  C   LIG d   1      -4.316  95.995 120.210  0.00  0.00     0.109 C 
ATOM     16  O   LIG d   1      -2.319  94.951 121.059  0.00  0.00    -0.276 OA
ATOM     17  H   LIG d   1      -4.190  93.968 118.710  0.00  0.00     0.149 HD
ENDBRANCH   6  13
BRANCH   5  18
ATOM     18  N   LIG d   1      -0.473  94.065 118.552  0.00  0.00     0.381 N 
ATOM     19  H   LIG d   1      -0.583  94.826 117.912  0.00  0.00    -0.090 HD
ATOM     20  H   LIG d   1       0.472  93.731 118.486  0.00  0.00    -0.090 HD
ATOM     21  H   LIG d   1      -0.660  94.374 119.481  0.00  0.00    -0.090 HD
ENDBRANCH   5  18
BRANCH   3  22
ATOM     22  C   LIG d   1      -0.788  89.502 117.132  0.00  0.00     0.382 C 
ATOM     23  O   LIG d   1      -1.304  88.360 117.182  0.00  0.00    -0.241 OA
ATOM     24  O   LIG d   1       0.250  89.677 116.466  0.00  0.00    -0.241 OA
ENDBRANCH   3  22
TORSDOF 7
ENDMDL
MODEL 9
REMARK VINA RESULT:      -3.9      3.239      4.959
REMARK  7 active torsions:
REMARK  status: ('A' for Active; 'I' for Inactive)
REMARK    1  A    between atoms: C_2  and  C_3 
REMARK    2  A    between atoms: C_3  and  O_6 
REMARK    3  A    between atoms: C_3  and  C_4 
REMARK    4  A    between atoms: C_7  and  O_6 
REMARK    5  A    between atoms: C_9  and  C_10 
REMARK    6  A    between atoms: N_15  and  C_14 
REMARK    7  A    between atoms: N_20  and  C_19 
REMARK       I    between atoms: C_22  and  N_20 
ROOT
ATOM      1  C   LIG d   1      -1.455  92.653 119.006  0.00  0.00     0.161 C 
ATOM      2  C   LIG d   1      -2.751  92.109 119.028  0.00  0.00     0.016 C 
ATOM      3  C   LIG d   1      -3.086  90.873 118.429  0.00  0.00     0.038 C 
ATOM      4  C   LIG d   1      -2.110  90.020 117.894  0.00  0.00     0.028 C 
ATOM      5  C   LIG d   1      -0.868  90.754 117.400  0.00  0.00    -0.047 C 
ATOM      6  C   LIG d   1      -0.356  91.684 118.523  0.00  0.00     0.091 C 
ENDROOT
BRANCH   1   7
ATOM      7  O   LIG d   1      -1.124  93.180 120.306  0.00  0.00    -0.368 OA
BRANCH   7   8
ATOM      8  C   LIG d   1      -0.413  92.283 121.195  0.00  0.00     0.119 C 
BRANCH   8   9
ATOM      9  C   LIG d   1      -1.374  91.909 122.340  0.00  0.00     0.028 C 
ATOM     10  C   LIG d   1      -1.854  90.450 122.250  0.00  0.00     0.006 C 
ENDBRANCH   8   9
BRANCH   8  11
ATOM     11  C   LIG d   1       0.767  92.987 121.870  0.00  0.00     0.028 C 
ATOM     12  C   LIG d   1       1.069  94.364 121.257  0.00  0.00     0.006 C 
ENDBRANCH   8  11
ENDBRANCH   7   8
ENDBRANCH   1   7
BRANCH   6  13
ATOM     13  N   LIG d   1       0.808  92.503 118.094  0.00  0.00    -0.311 N 
ATOM     14  C   LIG d   1       2.073  92.168 118.345  0.00  0.00     0.210 C 
ATOM     15  C   LIG d   1       3.119  93.162 117.832  0.00  0.00     0.109 C 
ATOM     16  O   LIG d   1       2.428  91.126 118.915  0.00  0.00    -0.276 OA
ATOM     17  H   LIG d   1       0.612  93.350 117.598  0.00  0.00     0.149 HD
ENDBRANCH   6  13
BRANCH   5  18
ATOM     18  N   LIG d   1       0.120  89.736 116.996  0.00  0.00     0.381 N 
ATOM     19  H   LIG d   1      -0.211  89.244 116.190  0.00  0.00    -0.090 HD
ATOM     20  H   LIG d   1       0.232  89.076 117.745  0.00  0.00    -0.090 HD
ATOM     21  H   LIG d   1       0.994  90.171 116.793  0.00  0.00    -0.090 HD
ENDBRANCH   5  18
BRANCH   3  22
ATOM     22  C   LIG d   1      -4.417  90.499 118.326  0.00  0.00     0.382 C 
ATOM     23  O   LIG d   1      -4.736  89.500 117.637  0.00  0.00    -0.241 OA
ATOM     24  O   LIG d   1      -5.308  91.173 118.878  0.00  0.00    -0.241 OA
ENDBRANCH   3  22
TORSDOF 7
ENDMDL
