MODEL 1
REMARK VINA RESULT:      -4.7      0.000      0.000
REMARK  7 active torsions:
REMARK  status: ('A' for Active; 'I' for Inactive)
REMARK    1  A    between atoms: C_2  and  C_3 
REMARK    2  A    between atoms: C_3  and  O_6 
REMARK    3  A    between atoms: C_3  and  C_4 
REMARK    4  A    between atoms: C_7  and  O_6 
REMARK    5  A    between atoms: C_9  and  C_10 
REMARK    6  A    between atoms: N_15  and  C_14 
REMARK    7  A    between atoms: N_20  and  C_19 
REMARK       I    between atoms: C_22  and  N_20 
ROOT
ATOM      1  C   LIG d   1      -1.026  90.984 116.994  0.00  0.00     0.161 C 
ATOM      2  C   LIG d   1       0.331  91.257 117.231  0.00  0.00     0.016 C 
ATOM      3  C   LIG d   1       0.807  92.514 117.668  0.00  0.00     0.038 C 
ATOM      4  C   LIG d   1      -0.064  93.546 118.046  0.00  0.00     0.028 C 
ATOM      5  C   LIG d   1      -1.417  93.484 117.345  0.00  0.00    -0.047 C 
ATOM      6  C   LIG d   1      -2.002  92.063 117.508  0.00  0.00     0.091 C 
ENDROOT
BRANCH   1   7
ATOM      7  O   LIG d   1      -1.369  89.696 117.544  0.00  0.00    -0.368 OA
BRANCH   7   8
ATOM      8  C   LIG d   1      -1.891  89.699 118.895  0.00  0.00     0.119 C 
BRANCH   8   9
ATOM      9  C   LIG d   1      -0.834  89.039 119.802  0.00  0.00     0.028 C 
ATOM     10  C   LIG d   1      -0.099  90.061 120.685  0.00  0.00     0.006 C 
ENDBRANCH   8   9
BRANCH   8  11
ATOM     11  C   LIG d   1      -3.136  88.814 119.014  0.00  0.00     0.028 C 
ATOM     12  C   LIG d   1      -3.038  87.799 120.164  0.00  0.00     0.006 C 
ENDBRANCH   8  11
ENDBRANCH   7   8
ENDBRANCH   1   7
BRANCH   6  13
ATOM     13  N   LIG d   1      -3.286  91.892 116.779  0.00  0.00    -0.311 N 
ATOM     14  C   LIG d   1      -4.480  92.014 117.358  0.00  0.00     0.210 C 
ATOM     15  C   LIG d   1      -5.675  91.778 116.430  0.00  0.00     0.109 C 
ATOM     16  O   LIG d   1      -4.661  92.328 118.544  0.00  0.00    -0.276 OA
ATOM     17  H   LIG d   1      -3.231  91.667 115.805  0.00  0.00     0.149 HD
ENDBRANCH   6  13
BRANCH   5  18
ATOM     18  N   LIG d   1      -2.272  94.533 117.932  0.00  0.00     0.381 N 
ATOM     19  H   LIG d   1      -2.978  94.113 118.503  0.00  0.00    -0.090 HD
ATOM     20  H   LIG d   1      -2.725  95.037 117.190  0.00  0.00    -0.090 HD
ATOM     21  H   LIG d   1      -1.720  95.156 118.479  0.00  0.00    -0.090 HD
ENDBRANCH   5  18
BRANCH   3  22
ATOM     22  C   LIG d   1       2.171  92.762 117.692  0.00  0.00     0.382 C 
ATOM     23  O   LIG d   1       2.646  93.574 118.522  0.00  0.00    -0.241 OA
ATOM     24  O   LIG d   1       2.927  92.217 116.866  0.00  0.00    -0.241 OA
ENDBRANCH   3  22
TORSDOF 7
ENDMDL
MODEL 2
REMARK VINA RESULT:      -4.5      3.321      6.595
REMARK  7 active torsions:
REMARK  status: ('A' for Active; 'I' for Inactive)
REMARK    1  A    between atoms: C_2  and  C_3 
REMARK    2  A    between atoms: C_3  and  O_6 
REMARK    3  A    between atoms: C_3  and  C_4 
REMARK    4  A    between atoms: C_7  and  O_6 
REMARK    5  A    between atoms: C_9  and  C_10 
REMARK    6  A    between atoms: N_15  and  C_14 
REMARK    7  A    between atoms: N_20  and  C_19 
REMARK       I    between atoms: C_22  and  N_20 
ROOT
ATOM      1  C   LIG d   1      -4.391  93.586 119.156  0.00  0.00     0.161 C 
ATOM      2  C   LIG d   1      -5.640  93.235 118.615  0.00  0.00     0.016 C 
ATOM      3  C   LIG d   1      -5.797  92.315 117.554  0.00  0.00     0.038 C 
ATOM      4  C   LIG d   1      -4.721  91.564 117.058  0.00  0.00     0.028 C 
ATOM      5  C   LIG d   1      -3.371  92.253 117.229  0.00  0.00    -0.047 C 
ATOM      6  C   LIG d   1      -3.217  92.694 118.703  0.00  0.00     0.091 C 
ENDROOT
BRANCH   1   7
ATOM      7  O   LIG d   1      -4.473  93.615 120.595  0.00  0.00    -0.368 OA
BRANCH   7   8
ATOM      8  C   LIG d   1      -5.804  93.730 121.156  0.00  0.00     0.119 C 
BRANCH   8   9
ATOM      9  C   LIG d   1      -5.974  95.179 121.650  0.00  0.00     0.028 C 
ATOM     10  C   LIG d   1      -7.076  95.934 120.886  0.00  0.00     0.006 C 
ENDBRANCH   8   9
BRANCH   8  11
ATOM     11  C   LIG d   1      -5.960  92.855 122.403  0.00  0.00     0.028 C 
ATOM     12  C   LIG d   1      -7.425  92.697 122.840  0.00  0.00     0.006 C 
ENDBRANCH   8  11
ENDBRANCH   7   8
ENDBRANCH   1   7
BRANCH   6  13
ATOM     13  N   LIG d   1      -1.960  93.451 118.939  0.00  0.00    -0.311 N 
ATOM     14  C   LIG d   1      -0.829  92.883 119.355  0.00  0.00     0.210 C 
ATOM     15  C   LIG d   1       0.344  93.849 119.555  0.00  0.00     0.109 C 
ATOM     16  O   LIG d   1      -0.677  91.668 119.547  0.00  0.00    -0.276 OA
ATOM     17  H   LIG d   1      -1.985  94.439 118.778  0.00  0.00     0.149 HD
ENDBRANCH   6  13
BRANCH   5  18
ATOM     18  N   LIG d   1      -2.328  91.304 116.798  0.00  0.00     0.381 N 
ATOM     19  H   LIG d   1      -1.478  91.797 116.610  0.00  0.00    -0.090 HD
ATOM     20  H   LIG d   1      -2.627  90.856 115.949  0.00  0.00    -0.090 HD
ATOM     21  H   LIG d   1      -2.174  90.620 117.506  0.00  0.00    -0.090 HD
ENDBRANCH   5  18
BRANCH   3  22
ATOM     22  C   LIG d   1      -7.036  92.168 116.949  0.00  0.00     0.382 C 
ATOM     23  O   LIG d   1      -7.395  91.045 116.519  0.00  0.00    -0.241 OA
ATOM     24  O   LIG d   1      -7.782  93.153 116.790  0.00  0.00    -0.241 OA
ENDBRANCH   3  22
TORSDOF 7
ENDMDL
MODEL 3
REMARK VINA RESULT:      -4.5      2.841      6.098
REMARK  7 active torsions:
REMARK  status: ('A' for Active; 'I' for Inactive)
REMARK    1  A    between atoms: C_2  and  C_3 
REMARK    2  A    between atoms: C_3  and  O_6 
REMARK    3  A    between atoms: C_3  and  C_4 
REMARK    4  A    between atoms: C_7  and  O_6 
REMARK    5  A    between atoms: C_9  and  C_10 
REMARK    6  A    between atoms: N_15  and  C_14 
REMARK    7  A    between atoms: N_20  and  C_19 
REMARK       I    between atoms: C_22  and  N_20 
ROOT
ATOM      1  C   LIG d   1      -4.298  92.306 118.483  0.00  0.00     0.161 C 
ATOM      2  C   LIG d   1      -5.479  92.573 117.771  0.00  0.00     0.016 C 
ATOM      3  C   LIG d   1      -6.553  93.326 118.299  0.00  0.00     0.038 C 
ATOM      4  C   LIG d   1      -6.454  93.995 119.528  0.00  0.00     0.028 C 
ATOM      5  C   LIG d   1      -5.479  93.339 120.499  0.00  0.00    -0.047 C 
ATOM      6  C   LIG d   1      -4.127  93.121 119.782  0.00  0.00     0.091 C 
ENDROOT
BRANCH   1   7
ATOM      7  O   LIG d   1      -3.156  92.490 117.622  0.00  0.00    -0.368 OA
BRANCH   7   8
ATOM      8  C   LIG d   1      -2.528  91.282 117.129  0.00  0.00     0.119 C 
BRANCH   8   9
ATOM      9  C   LIG d   1      -3.037  90.110 117.991  0.00  0.00     0.028 C 
ATOM     10  C   LIG d   1      -1.909  89.434 118.788  0.00  0.00     0.006 C 
ENDBRANCH   8   9
BRANCH   8  11
ATOM     11  C   LIG d   1      -1.012  91.314 117.344  0.00  0.00     0.028 C 
ATOM     12  C   LIG d   1      -0.412  92.716 117.146  0.00  0.00     0.006 C 
ENDBRANCH   8  11
ENDBRANCH   7   8
ENDBRANCH   1   7
BRANCH   6  13
ATOM     13  N   LIG d   1      -3.141  92.407 120.634  0.00  0.00    -0.311 N 
ATOM     14  C   LIG d   1      -1.886  92.818 120.805  0.00  0.00     0.210 C 
ATOM     15  C   LIG d   1      -1.030  91.925 121.709  0.00  0.00     0.109 C 
ATOM     16  O   LIG d   1      -1.409  93.855 120.319  0.00  0.00    -0.276 OA
ATOM     17  H   LIG d   1      -3.453  91.573 121.091  0.00  0.00     0.149 HD
ENDBRANCH   6  13
BRANCH   5  18
ATOM     18  N   LIG d   1      -5.371  94.214 121.682  0.00  0.00     0.381 N 
ATOM     19  H   LIG d   1      -4.642  93.884 122.282  0.00  0.00    -0.090 HD
ATOM     20  H   LIG d   1      -6.237  94.181 122.190  0.00  0.00    -0.090 HD
ATOM     21  H   LIG d   1      -5.179  95.149 121.398  0.00  0.00    -0.090 HD
ENDBRANCH   5  18
BRANCH   3  22
ATOM     22  C   LIG d   1      -7.756  93.382 117.613  0.00  0.00     0.382 C 
ATOM     23  O   LIG d   1      -8.793  93.778 118.198  0.00  0.00    -0.241 OA
ATOM     24  O   LIG d   1      -7.827  92.999 116.430  0.00  0.00    -0.241 OA
ENDBRANCH   3  22
TORSDOF 7
ENDMDL
MODEL 4
REMARK VINA RESULT:      -4.4      1.364      1.888
REMARK  7 active torsions:
REMARK  status: ('A' for Active; 'I' for Inactive)
REMARK    1  A    between atoms: C_2  and  C_3 
REMARK    2  A    between atoms: C_3  and  O_6 
REMARK    3  A    between atoms: C_3  and  C_4 
REMARK    4  A    between atoms: C_7  and  O_6 
REMARK    5  A    between atoms: C_9  and  C_10 
REMARK    6  A    between atoms: N_15  and  C_14 
REMARK    7  A    between atoms: N_20  and  C_19 
REMARK       I    between atoms: C_22  and  N_20 
ROOT
ATOM      1  C   LIG d   1      -0.295  90.652 117.686  0.00  0.00     0.161 C 
ATOM      2  C   LIG d   1       1.079  90.815 117.932  0.00  0.00     0.016 C 
ATOM      3  C   LIG d   1       1.747  92.056 117.820  0.00  0.00     0.038 C 
ATOM      4  C   LIG d   1       1.053  93.255 117.600  0.00  0.00     0.028 C 
ATOM      5  C   LIG d   1      -0.260  93.066 116.848  0.00  0.00    -0.047 C 
ATOM      6  C   LIG d   1      -1.089  91.968 117.553  0.00  0.00     0.091 C 
ENDROOT
BRANCH   1   7
ATOM      7  O   LIG d   1      -0.878  89.815 118.705  0.00  0.00    -0.368 OA
BRANCH   7   8
ATOM      8  C   LIG d   1      -1.477  88.578 118.247  0.00  0.00     0.119 C 
BRANCH   8   9
ATOM      9  C   LIG d   1      -2.834  88.429 118.963  0.00  0.00     0.028 C 
ATOM     10  C   LIG d   1      -2.789  87.388 120.095  0.00  0.00     0.006 C 
ENDBRANCH   8   9
BRANCH   8  11
ATOM     11  C   LIG d   1      -0.652  87.364 118.685  0.00  0.00     0.028 C 
ATOM     12  C   LIG d   1       0.491  87.038 117.710  0.00  0.00     0.006 C 
ENDBRANCH   8  11
ENDBRANCH   7   8
ENDBRANCH   1   7
BRANCH   6  13
ATOM     13  N   LIG d   1      -2.352  91.661 116.833  0.00  0.00    -0.311 N 
ATOM     14  C   LIG d   1      -3.561  91.922 117.328  0.00  0.00     0.210 C 
ATOM     15  C   LIG d   1      -4.731  91.506 116.430  0.00  0.00     0.109 C 
ATOM     16  O   LIG d   1      -3.774  92.487 118.411  0.00  0.00    -0.276 OA
ATOM     17  H   LIG d   1      -2.271  91.229 115.933  0.00  0.00     0.149 HD
ENDBRANCH   6  13
BRANCH   5  18
ATOM     18  N   LIG d   1      -0.944  94.372 116.809  0.00  0.00     0.381 N 
ATOM     19  H   LIG d   1      -0.945  94.781 117.722  0.00  0.00    -0.090 HD
ATOM     20  H   LIG d   1      -1.898  94.231 116.525  0.00  0.00    -0.090 HD
ATOM     21  H   LIG d   1      -0.485  94.978 116.166  0.00  0.00    -0.090 HD
ENDBRANCH   5  18
BRANCH   3  22
ATOM     22  C   LIG d   1       3.131  92.100 117.890  0.00  0.00     0.382 C 
ATOM     23  O   LIG d   1       3.710  91.902 118.985  0.00  0.00    -0.241 OA
ATOM     24  O   LIG d   1       3.806  92.379 116.880  0.00  0.00    -0.241 OA
ENDBRANCH   3  22
TORSDOF 7
ENDMDL
MODEL 5
REMARK VINA RESULT:      -4.4      2.983      6.183
REMARK  7 active torsions:
REMARK  status: ('A' for Active; 'I' for Inactive)
REMARK    1  A    between atoms: C_2  and  C_3 
REMARK    2  A    between atoms: C_3  and  O_6 
REMARK    3  A    between atoms: C_3  and  C_4 
REMARK    4  A    between atoms: C_7  and  O_6 
REMARK    5  A    between atoms: C_9  and  C_10 
REMARK    6  A    between atoms: N_15  and  C_14 
REMARK    7  A    between atoms: N_20  and  C_19 
REMARK       I    between atoms: C_22  and  N_20 
ROOT
ATOM      1  C   LIG d   1      -4.067  93.636 118.994  0.00  0.00     0.161 C 
ATOM      2  C   LIG d   1      -5.398  94.073 119.101  0.00  0.00     0.016 C 
ATOM      3  C   LIG d   1      -6.469  93.488 118.386  0.00  0.00     0.038 C 
ATOM      4  C   LIG d   1      -6.303  92.321 117.625  0.00  0.00     0.028 C 
ATOM      5  C   LIG d   1      -4.887  92.145 117.087  0.00  0.00    -0.047 C 
ATOM      6  C   LIG d   1      -3.885  92.294 118.255  0.00  0.00     0.091 C 
ENDROOT
BRANCH   1   7
ATOM      7  O   LIG d   1      -3.467  93.573 120.303  0.00  0.00    -0.368 OA
BRANCH   7   8
ATOM      8  C   LIG d   1      -3.860  92.450 121.130  0.00  0.00     0.119 C 
BRANCH   8   9
ATOM      9  C   LIG d   1      -4.343  93.016 122.480  0.00  0.00     0.028 C 
ATOM     10  C   LIG d   1      -5.857  92.837 122.683  0.00  0.00     0.006 C 
ENDBRANCH   8   9
BRANCH   8  11
ATOM     11  C   LIG d   1      -2.660  91.561 121.470  0.00  0.00     0.028 C 
ATOM     12  C   LIG d   1      -1.315  92.285 121.299  0.00  0.00     0.006 C 
ENDBRANCH   8  11
ENDBRANCH   7   8
ENDBRANCH   1   7
BRANCH   6  13
ATOM     13  N   LIG d   1      -2.471  92.218 117.802  0.00  0.00    -0.311 N 
ATOM     14  C   LIG d   1      -1.783  91.080 117.731  0.00  0.00     0.210 C 
ATOM     15  C   LIG d   1      -0.334  91.228 117.257  0.00  0.00     0.109 C 
ATOM     16  O   LIG d   1      -2.246  89.958 117.985  0.00  0.00    -0.276 OA
ATOM     17  H   LIG d   1      -2.028  93.079 117.546  0.00  0.00     0.149 HD
ENDBRANCH   6  13
BRANCH   5  18
ATOM     18  N   LIG d   1      -4.820  90.825 116.433  0.00  0.00     0.381 N 
ATOM     19  H   LIG d   1      -5.708  90.601 116.029  0.00  0.00    -0.090 HD
ATOM     20  H   LIG d   1      -4.604  90.129 117.125  0.00  0.00    -0.090 HD
ATOM     21  H   LIG d   1      -4.118  90.830 115.726  0.00  0.00    -0.090 HD
ENDBRANCH   5  18
BRANCH   3  22
ATOM     22  C   LIG d   1      -7.715  94.096 118.396  0.00  0.00     0.382 C 
ATOM     23  O   LIG d   1      -7.857  95.226 118.923  0.00  0.00    -0.241 OA
ATOM     24  O   LIG d   1      -8.707  93.511 117.924  0.00  0.00    -0.241 OA
ENDBRANCH   3  22
TORSDOF 7
ENDMDL
MODEL 6
REMARK VINA RESULT:      -4.2      3.223      6.292
REMARK  7 active torsions:
REMARK  status: ('A' for Active; 'I' for Inactive)
REMARK    1  A    between atoms: C_2  and  C_3 
REMARK    2  A    between atoms: C_3  and  O_6 
REMARK    3  A    between atoms: C_3  and  C_4 
REMARK    4  A    between atoms: C_7  and  O_6 
REMARK    5  A    between atoms: C_9  and  C_10 
REMARK    6  A    between atoms: N_15  and  C_14 
REMARK    7  A    between atoms: N_20  and  C_19 
REMARK       I    between atoms: C_22  and  N_20 
ROOT
ATOM      1  C   LIG d   1      -4.271  93.223 119.093  0.00  0.00     0.161 C 
ATOM      2  C   LIG d   1      -5.412  92.873 118.351  0.00  0.00     0.016 C 
ATOM      3  C   LIG d   1      -6.623  93.600 118.398  0.00  0.00     0.038 C 
ATOM      4  C   LIG d   1      -6.729  94.822 119.079  0.00  0.00     0.028 C 
ATOM      5  C   LIG d   1      -5.758  94.950 120.248  0.00  0.00    -0.047 C 
ATOM      6  C   LIG d   1      -4.332  94.615 119.755  0.00  0.00     0.091 C 
ENDROOT
BRANCH   1   7
ATOM      7  O   LIG d   1      -3.097  93.113 118.264  0.00  0.00    -0.368 OA
BRANCH   7   8
ATOM      8  C   LIG d   1      -2.206  92.011 118.564  0.00  0.00     0.119 C 
BRANCH   8   9
ATOM      9  C   LIG d   1      -2.416  90.937 117.479  0.00  0.00     0.028 C 
ATOM     10  C   LIG d   1      -3.209  89.726 117.999  0.00  0.00     0.006 C 
ENDBRANCH   8   9
BRANCH   8  11
ATOM     11  C   LIG d   1      -2.583  91.333 119.885  0.00  0.00     0.028 C 
ATOM     12  C   LIG d   1      -1.489  91.465 120.956  0.00  0.00     0.006 C 
ENDBRANCH   8  11
ENDBRANCH   7   8
ENDBRANCH   1   7
BRANCH   6  13
ATOM     13  N   LIG d   1      -3.333  94.634 120.855  0.00  0.00    -0.311 N 
ATOM     14  C   LIG d   1      -2.152  95.243 120.763  0.00  0.00     0.210 C 
ATOM     15  C   LIG d   1      -1.264  95.124 122.005  0.00  0.00     0.109 C 
ATOM     16  O   LIG d   1      -1.768  95.897 119.781  0.00  0.00    -0.276 OA
ATOM     17  H   LIG d   1      -3.575  94.154 121.700  0.00  0.00     0.149 HD
ENDBRANCH   6  13
BRANCH   5  18
ATOM     18  N   LIG d   1      -5.880  96.320 120.780  0.00  0.00     0.381 N 
ATOM     19  H   LIG d   1      -6.745  96.724 120.482  0.00  0.00    -0.090 HD
ATOM     20  H   LIG d   1      -5.129  96.879 120.414  0.00  0.00    -0.090 HD
ATOM     21  H   LIG d   1      -5.837  96.305 121.775  0.00  0.00    -0.090 HD
ENDBRANCH   5  18
BRANCH   3  22
ATOM     22  C   LIG d   1      -7.758  93.084 117.790  0.00  0.00     0.382 C 
ATOM     23  O   LIG d   1      -7.714  91.963 117.229  0.00  0.00    -0.241 OA
ATOM     24  O   LIG d   1      -8.813  93.746 117.758  0.00  0.00    -0.241 OA
ENDBRANCH   3  22
TORSDOF 7
ENDMDL
MODEL 7
REMARK VINA RESULT:      -4.0      4.225      6.652
REMARK  7 active torsions:
REMARK  status: ('A' for Active; 'I' for Inactive)
REMARK    1  A    between atoms: C_2  and  C_3 
REMARK    2  A    between atoms: C_3  and  O_6 
REMARK    3  A    between atoms: C_3  and  C_4 
REMARK    4  A    between atoms: C_7  and  O_6 
REMARK    5  A    between atoms: C_9  and  C_10 
REMARK    6  A    between atoms: N_15  and  C_14 
REMARK    7  A    between atoms: N_20  and  C_19 
REMARK       I    between atoms: C_22  and  N_20 
ROOT
ATOM      1  C   LIG d   1      -5.208  93.444 120.298  0.00  0.00     0.161 C 
ATOM      2  C   LIG d   1      -4.464  92.702 119.365  0.00  0.00     0.016 C 
ATOM      3  C   LIG d   1      -4.983  92.269 118.123  0.00  0.00     0.038 C 
ATOM      4  C   LIG d   1      -6.243  92.681 117.662  0.00  0.00     0.028 C 
ATOM      5  C   LIG d   1      -7.221  93.011 118.785  0.00  0.00    -0.047 C 
ATOM      6  C   LIG d   1      -6.546  93.997 119.765  0.00  0.00     0.091 C 
ENDROOT
BRANCH   1   7
ATOM      7  O   LIG d   1      -4.399  94.513 120.828  0.00  0.00    -0.368 OA
BRANCH   7   8
ATOM      8  C   LIG d   1      -3.988  95.531 119.882  0.00  0.00     0.119 C 
BRANCH   8   9
ATOM      9  C   LIG d   1      -2.452  95.469 119.775  0.00  0.00     0.028 C 
ATOM     10  C   LIG d   1      -1.968  95.365 118.318  0.00  0.00     0.006 C 
ENDBRANCH   8   9
BRANCH   8  11
ATOM     11  C   LIG d   1      -4.302  96.936 120.403  0.00  0.00     0.028 C 
ATOM     12  C   LIG d   1      -3.313  97.407 121.481  0.00  0.00     0.006 C 
ENDBRANCH   8  11
ENDBRANCH   7   8
ENDBRANCH   1   7
BRANCH   6  13
ATOM     13  N   LIG d   1      -7.404  94.307 120.938  0.00  0.00    -0.311 N 
ATOM     14  C   LIG d   1      -7.944  95.505 121.156  0.00  0.00     0.210 C 
ATOM     15  C   LIG d   1      -8.779  95.615 122.435  0.00  0.00     0.109 C 
ATOM     16  O   LIG d   1      -7.838  96.478 120.394  0.00  0.00    -0.276 OA
ATOM     17  H   LIG d   1      -7.568  93.566 121.591  0.00  0.00     0.149 HD
ENDBRANCH   6  13
BRANCH   5  18
ATOM     18  N   LIG d   1      -8.443  93.556 118.165  0.00  0.00     0.381 N 
ATOM     19  H   LIG d   1      -9.251  93.166 118.608  0.00  0.00    -0.090 HD
ATOM     20  H   LIG d   1      -8.459  93.296 117.195  0.00  0.00    -0.090 HD
ATOM     21  H   LIG d   1      -8.455  94.548 118.251  0.00  0.00    -0.090 HD
ENDBRANCH   5  18
BRANCH   3  22
ATOM     22  C   LIG d   1      -4.255  91.381 117.346  0.00  0.00     0.382 C 
ATOM     23  O   LIG d   1      -3.502  91.813 116.440  0.00  0.00    -0.241 OA
ATOM     24  O   LIG d   1      -4.376  90.153 117.510  0.00  0.00    -0.241 OA
ENDBRANCH   3  22
TORSDOF 7
ENDMDL
MODEL 8
REMARK VINA RESULT:      -4.0      2.073      3.223
REMARK  7 active torsions:
REMARK  status: ('A' for Active; 'I' for Inactive)
REMARK    1  A    between atoms: C_2  and  C_3 
REMARK    2  A    between atoms: C_3  and  O_6 
REMARK    3  A    between atoms: C_3  and  C_4 
REMARK    4  A    between atoms: C_7  and  O_6 
REMARK    5  A    between atoms: C_9  and  C_10 
REMARK    6  A    between atoms: N_15  and  C_14 
REMARK    7  A    between atoms: N_20  and  C_19 
REMARK       I    between atoms: C_22  and  N_20 
ROOT
ATOM      1  C   LIG d   1      -1.141  93.407 117.238  0.00  0.00     0.161 C 
ATOM      2  C   LIG d   1      -0.001  92.645 116.932  0.00  0.00     0.016 C 
ATOM      3  C   LIG d   1       1.192  92.689 117.689  0.00  0.00     0.038 C 
ATOM      4  C   LIG d   1       1.275  93.391 118.901  0.00  0.00     0.028 C 
ATOM      5  C   LIG d   1       0.317  94.575 118.982  0.00  0.00    -0.047 C 
ATOM      6  C   LIG d   1      -1.106  94.094 118.620  0.00  0.00     0.091 C 
ENDROOT
BRANCH   1   7
ATOM      7  O   LIG d   1      -2.323  92.592 117.113  0.00  0.00    -0.368 OA
BRANCH   7   8
ATOM      8  C   LIG d   1      -2.615  91.718 118.231  0.00  0.00     0.119 C 
BRANCH   8   9
ATOM      9  C   LIG d   1      -2.660  90.275 117.691  0.00  0.00     0.028 C 
ATOM     10  C   LIG d   1      -3.114  89.264 118.757  0.00  0.00     0.006 C 
ENDBRANCH   8   9
BRANCH   8  11
ATOM     11  C   LIG d   1      -4.014  91.983 118.795  0.00  0.00     0.028 C 
ATOM     12  C   LIG d   1      -5.062  92.230 117.699  0.00  0.00     0.006 C 
ENDBRANCH   8  11
ENDBRANCH   7   8
ENDBRANCH   1   7
BRANCH   6  13
ATOM     13  N   LIG d   1      -2.091  95.207 118.593  0.00  0.00    -0.311 N 
ATOM     14  C   LIG d   1      -2.887  95.507 119.618  0.00  0.00     0.210 C 
ATOM     15  C   LIG d   1      -3.842  96.679 119.374  0.00  0.00     0.109 C 
ATOM     16  O   LIG d   1      -2.870  94.933 120.718  0.00  0.00    -0.276 OA
ATOM     17  H   LIG d   1      -2.149  95.745 117.750  0.00  0.00     0.149 HD
ENDBRANCH   6  13
BRANCH   5  18
ATOM     18  N   LIG d   1       0.410  95.131 120.346  0.00  0.00     0.381 N 
ATOM     19  H   LIG d   1       0.721  96.081 120.304  0.00  0.00    -0.090 HD
ATOM     20  H   LIG d   1       1.086  94.601 120.867  0.00  0.00    -0.090 HD
ATOM     21  H   LIG d   1      -0.478  95.084 120.794  0.00  0.00    -0.090 HD
ENDBRANCH   5  18
BRANCH   3  22
ATOM     22  C   LIG d   1       2.331  92.058 117.214  0.00  0.00     0.382 C 
ATOM     23  O   LIG d   1       3.416  92.686 117.150  0.00  0.00    -0.241 OA
ATOM     24  O   LIG d   1       2.279  90.882 116.806  0.00  0.00    -0.241 OA
ENDBRANCH   3  22
TORSDOF 7
ENDMDL
MODEL 9
REMARK VINA RESULT:      -4.0      2.803      6.300
REMARK  7 active torsions:
REMARK  status: ('A' for Active; 'I' for Inactive)
REMARK    1  A    between atoms: C_2  and  C_3 
REMARK    2  A    between atoms: C_3  and  O_6 
REMARK    3  A    between atoms: C_3  and  C_4 
REMARK    4  A    between atoms: C_7  and  O_6 
REMARK    5  A    between atoms: C_9  and  C_10 
REMARK    6  A    between atoms: N_15  and  C_14 
REMARK    7  A    between atoms: N_20  and  C_19 
REMARK       I    between atoms: C_22  and  N_20 
ROOT
ATOM      1  C   LIG d   1      -3.717  93.627 119.006  0.00  0.00     0.161 C 
ATOM      2  C   LIG d   1      -5.057  93.990 119.225  0.00  0.00     0.016 C 
ATOM      3  C   LIG d   1      -6.148  93.368 118.576  0.00  0.00     0.038 C 
ATOM      4  C   LIG d   1      -5.981  92.230 117.772  0.00  0.00     0.028 C 
ATOM      5  C   LIG d   1      -4.603  92.142 117.125  0.00  0.00    -0.047 C 
ATOM      6  C   LIG d   1      -3.524  92.315 118.218  0.00  0.00     0.091 C 
ENDROOT
BRANCH   1   7
ATOM      7  O   LIG d   1      -3.017  93.564 120.264  0.00  0.00    -0.368 OA
BRANCH   7   8
ATOM      8  C   LIG d   1      -2.045  94.611 120.505  0.00  0.00     0.119 C 
BRANCH   8   9
ATOM      9  C   LIG d   1      -2.016  95.513 119.256  0.00  0.00     0.028 C 
ATOM     10  C   LIG d   1      -0.647  95.501 118.555  0.00  0.00     0.006 C 
ENDBRANCH   8   9
BRANCH   8  11
ATOM     11  C   LIG d   1      -0.629  94.040 120.626  0.00  0.00     0.028 C 
ATOM     12  C   LIG d   1      -0.237  93.718 122.077  0.00  0.00     0.006 C 
ENDBRANCH   8  11
ENDBRANCH   7   8
ENDBRANCH   1   7
BRANCH   6  13
ATOM     13  N   LIG d   1      -2.147  92.326 117.658  0.00  0.00    -0.311 N 
ATOM     14  C   LIG d   1      -1.399  91.232 117.529  0.00  0.00     0.210 C 
ATOM     15  C   LIG d   1      -0.002  91.468 116.947  0.00  0.00     0.109 C 
ATOM     16  O   LIG d   1      -1.772  90.083 117.811  0.00  0.00    -0.276 OA
ATOM     17  H   LIG d   1      -1.777  93.212 117.374  0.00  0.00     0.149 HD
ENDBRANCH   6  13
BRANCH   5  18
ATOM     18  N   LIG d   1      -4.519  90.844 116.430  0.00  0.00     0.381 N 
ATOM     19  H   LIG d   1      -5.390  90.358 116.513  0.00  0.00    -0.090 HD
ATOM     20  H   LIG d   1      -3.805  90.287 116.866  0.00  0.00    -0.090 HD
ATOM     21  H   LIG d   1      -4.300  90.985 115.468  0.00  0.00    -0.090 HD
ENDBRANCH   5  18
BRANCH   3  22
ATOM     22  C   LIG d   1      -7.419  93.908 118.697  0.00  0.00     0.382 C 
ATOM     23  O   LIG d   1      -8.336  93.531 117.929  0.00  0.00    -0.241 OA
ATOM     24  O   LIG d   1      -7.649  94.800 119.535  0.00  0.00    -0.241 OA
ENDBRANCH   3  22
TORSDOF 7
ENDMDL
