MODEL 1
REMARK VINA RESULT:      -4.6      0.000      0.000
REMARK  7 active torsions:
REMARK  status: ('A' for Active; 'I' for Inactive)
REMARK    1  A    between atoms: C_2  and  C_3 
REMARK    2  A    between atoms: C_3  and  O_6 
REMARK    3  A    between atoms: C_3  and  C_4 
REMARK    4  A    between atoms: C_7  and  O_6 
REMARK    5  A    between atoms: C_9  and  C_10 
REMARK    6  A    between atoms: N_15  and  C_14 
REMARK    7  A    between atoms: N_20  and  C_19 
REMARK       I    between atoms: C_22  and  N_20 
ROOT
ATOM      1  C   LIG d   1      -5.957  93.229 119.745  0.00  0.00     0.161 C 
ATOM      2  C   LIG d   1      -4.836  92.489 119.332  0.00  0.00     0.016 C 
ATOM      3  C   LIG d   1      -4.746  91.848 118.075  0.00  0.00     0.038 C 
ATOM      4  C   LIG d   1      -5.716  92.031 117.079  0.00  0.00     0.028 C 
ATOM      5  C   LIG d   1      -7.099  92.356 117.632  0.00  0.00    -0.047 C 
ATOM      6  C   LIG d   1      -6.978  93.532 118.628  0.00  0.00     0.091 C 
ENDROOT
BRANCH   1   7
ATOM      7  O   LIG d   1      -5.530  94.451 120.378  0.00  0.00    -0.368 OA
BRANCH   7   8
ATOM      8  C   LIG d   1      -5.243  95.561 119.493  0.00  0.00     0.119 C 
BRANCH   8   9
ATOM      9  C   LIG d   1      -3.770  95.957 119.709  0.00  0.00     0.028 C 
ATOM     10  C   LIG d   1      -2.881  95.591 118.508  0.00  0.00     0.006 C 
ENDBRANCH   8   9
BRANCH   8  11
ATOM     11  C   LIG d   1      -6.056  96.802 119.874  0.00  0.00     0.028 C 
ATOM     12  C   LIG d   1      -6.821  96.630 121.196  0.00  0.00     0.006 C 
ENDBRANCH   8  11
ENDBRANCH   7   8
ENDBRANCH   1   7
BRANCH   6  13
ATOM     13  N   LIG d   1      -8.273  93.859 119.280  0.00  0.00    -0.311 N 
ATOM     14  C   LIG d   1      -9.122  94.769 118.807  0.00  0.00     0.210 C 
ATOM     15  C   LIG d   1     -10.391  94.966 119.643  0.00  0.00     0.109 C 
ATOM     16  O   LIG d   1      -8.960  95.410 117.758  0.00  0.00    -0.276 OA
ATOM     17  H   LIG d   1      -8.499  93.363 120.120  0.00  0.00     0.149 HD
ENDBRANCH   6  13
BRANCH   5  18
ATOM     18  N   LIG d   1      -7.978  92.657 116.487  0.00  0.00     0.381 N 
ATOM     19  H   LIG d   1      -8.047  93.647 116.364  0.00  0.00    -0.090 HD
ATOM     20  H   LIG d   1      -8.897  92.298 116.679  0.00  0.00    -0.090 HD
ATOM     21  H   LIG d   1      -7.616  92.237 115.659  0.00  0.00    -0.090 HD
ENDBRANCH   5  18
BRANCH   3  22
ATOM     22  C   LIG d   1      -3.694  90.981 117.820  0.00  0.00     0.382 C 
ATOM     23  O   LIG d   1      -3.841  89.748 117.999  0.00  0.00    -0.241 OA
ATOM     24  O   LIG d   1      -2.588  91.421 117.454  0.00  0.00    -0.241 OA
ENDBRANCH   3  22
TORSDOF 7
ENDMDL
MODEL 2
REMARK VINA RESULT:      -4.4      4.802      7.415
REMARK  7 active torsions:
REMARK  status: ('A' for Active; 'I' for Inactive)
REMARK    1  A    between atoms: C_2  and  C_3 
REMARK    2  A    between atoms: C_3  and  O_6 
REMARK    3  A    between atoms: C_3  and  C_4 
REMARK    4  A    between atoms: C_7  and  O_6 
REMARK    5  A    between atoms: C_9  and  C_10 
REMARK    6  A    between atoms: N_15  and  C_14 
REMARK    7  A    between atoms: N_20  and  C_19 
REMARK       I    between atoms: C_22  and  N_20 
ROOT
ATOM      1  C   LIG d   1      -0.258  89.968 117.323  0.00  0.00     0.161 C 
ATOM      2  C   LIG d   1       1.145  90.039 117.297  0.00  0.00     0.016 C 
ATOM      3  C   LIG d   1       1.861  91.255 117.217  0.00  0.00     0.038 C 
ATOM      4  C   LIG d   1       1.221  92.500 117.311  0.00  0.00     0.028 C 
ATOM      5  C   LIG d   1      -0.226  92.475 116.830  0.00  0.00    -0.047 C 
ATOM      6  C   LIG d   1      -0.970  91.320 117.538  0.00  0.00     0.091 C 
ENDROOT
BRANCH   1   7
ATOM      7  O   LIG d   1      -0.681  89.015 118.318  0.00  0.00    -0.368 OA
BRANCH   7   8
ATOM      8  C   LIG d   1      -0.415  89.373 119.697  0.00  0.00     0.119 C 
BRANCH   8   9
ATOM      9  C   LIG d   1       0.379  88.214 120.331  0.00  0.00     0.028 C 
ATOM     10  C   LIG d   1       0.351  86.942 119.468  0.00  0.00     0.006 C 
ENDBRANCH   8   9
BRANCH   8  11
ATOM     11  C   LIG d   1      -1.710  89.468 120.508  0.00  0.00     0.028 C 
ATOM     12  C   LIG d   1      -2.897  88.776 119.819  0.00  0.00     0.006 C 
ENDBRANCH   8  11
ENDBRANCH   7   8
ENDBRANCH   1   7
BRANCH   6  13
ATOM     13  N   LIG d   1      -2.370  91.171 117.062  0.00  0.00    -0.311 N 
ATOM     14  C   LIG d   1      -3.417  91.716 117.681  0.00  0.00     0.210 C 
ATOM     15  C   LIG d   1      -4.774  91.423 117.034  0.00  0.00     0.109 C 
ATOM     16  O   LIG d   1      -3.346  92.440 118.685  0.00  0.00    -0.276 OA
ATOM     17  H   LIG d   1      -2.516  90.625 116.236  0.00  0.00     0.149 HD
ENDBRANCH   6  13
BRANCH   5  18
ATOM     18  N   LIG d   1      -0.812  93.799 117.111  0.00  0.00     0.381 N 
ATOM     19  H   LIG d   1      -0.344  94.498 116.570  0.00  0.00    -0.090 HD
ATOM     20  H   LIG d   1      -0.681  94.012 118.084  0.00  0.00    -0.090 HD
ATOM     21  H   LIG d   1      -1.784  93.795 116.892  0.00  0.00    -0.090 HD
ENDBRANCH   5  18
BRANCH   3  22
ATOM     22  C   LIG d   1       3.230  91.233 117.001  0.00  0.00     0.382 C 
ATOM     23  O   LIG d   1       3.846  90.140 116.988  0.00  0.00    -0.241 OA
ATOM     24  O   LIG d   1       3.865  92.296 116.864  0.00  0.00    -0.241 OA
ENDBRANCH   3  22
TORSDOF 7
ENDMDL
MODEL 3
REMARK VINA RESULT:      -4.2      2.785      4.925
REMARK  7 active torsions:
REMARK  status: ('A' for Active; 'I' for Inactive)
REMARK    1  A    between atoms: C_2  and  C_3 
REMARK    2  A    between atoms: C_3  and  O_6 
REMARK    3  A    between atoms: C_3  and  C_4 
REMARK    4  A    between atoms: C_7  and  O_6 
REMARK    5  A    between atoms: C_9  and  C_10 
REMARK    6  A    between atoms: N_15  and  C_14 
REMARK    7  A    between atoms: N_20  and  C_19 
REMARK       I    between atoms: C_22  and  N_20 
ROOT
ATOM      1  C   LIG d   1      -5.049  93.455 119.356  0.00  0.00     0.161 C 
ATOM      2  C   LIG d   1      -6.215  93.043 118.690  0.00  0.00     0.016 C 
ATOM      3  C   LIG d   1      -6.209  92.169 117.579  0.00  0.00     0.038 C 
ATOM      4  C   LIG d   1      -5.040  91.523 117.150  0.00  0.00     0.028 C 
ATOM      5  C   LIG d   1      -3.767  92.297 117.473  0.00  0.00    -0.047 C 
ATOM      6  C   LIG d   1      -3.775  92.673 118.972  0.00  0.00     0.091 C 
ENDROOT
BRANCH   1   7
ATOM      7  O   LIG d   1      -5.257  93.404 120.782  0.00  0.00    -0.368 OA
BRANCH   7   8
ATOM      8  C   LIG d   1      -6.445  94.070 121.276  0.00  0.00     0.119 C 
BRANCH   8   9
ATOM      9  C   LIG d   1      -6.203  95.588 121.170  0.00  0.00     0.028 C 
ATOM     10  C   LIG d   1      -7.494  96.369 120.871  0.00  0.00     0.006 C 
ENDBRANCH   8   9
BRANCH   8  11
ATOM     11  C   LIG d   1      -6.657  93.797 122.768  0.00  0.00     0.028 C 
ATOM     12  C   LIG d   1      -6.455  92.318 123.137  0.00  0.00     0.006 C 
ENDBRANCH   8  11
ENDBRANCH   7   8
ENDBRANCH   1   7
BRANCH   6  13
ATOM     13  N   LIG d   1      -2.604  93.505 119.354  0.00  0.00    -0.311 N 
ATOM     14  C   LIG d   1      -1.462  92.997 119.815  0.00  0.00     0.210 C 
ATOM     15  C   LIG d   1      -0.390  94.032 120.169  0.00  0.00     0.109 C 
ATOM     16  O   LIG d   1      -1.225  91.785 119.934  0.00  0.00    -0.276 OA
ATOM     17  H   LIG d   1      -2.699  94.497 119.260  0.00  0.00     0.149 HD
ENDBRANCH   6  13
BRANCH   5  18
ATOM     18  N   LIG d   1      -2.621  91.448 117.096  0.00  0.00     0.381 N 
ATOM     19  H   LIG d   1      -2.204  91.057 117.917  0.00  0.00    -0.090 HD
ATOM     20  H   LIG d   1      -1.933  92.017 116.633  0.00  0.00    -0.090 HD
ATOM     21  H   LIG d   1      -2.923  90.719 116.488  0.00  0.00    -0.090 HD
ENDBRANCH   5  18
BRANCH   3  22
ATOM     22  C   LIG d   1      -7.376  91.965 116.859  0.00  0.00     0.382 C 
ATOM     23  O   LIG d   1      -7.657  90.819 116.431  0.00  0.00    -0.241 OA
ATOM     24  O   LIG d   1      -8.131  92.920 116.594  0.00  0.00    -0.241 OA
ENDBRANCH   3  22
TORSDOF 7
ENDMDL
MODEL 4
REMARK VINA RESULT:      -4.2      3.539      5.945
REMARK  7 active torsions:
REMARK  status: ('A' for Active; 'I' for Inactive)
REMARK    1  A    between atoms: C_2  and  C_3 
REMARK    2  A    between atoms: C_3  and  O_6 
REMARK    3  A    between atoms: C_3  and  C_4 
REMARK    4  A    between atoms: C_7  and  O_6 
REMARK    5  A    between atoms: C_9  and  C_10 
REMARK    6  A    between atoms: N_15  and  C_14 
REMARK    7  A    between atoms: N_20  and  C_19 
REMARK       I    between atoms: C_22  and  N_20 
ROOT
ATOM      1  C   LIG d   1      -2.197  93.418 117.684  0.00  0.00     0.161 C 
ATOM      2  C   LIG d   1      -1.094  92.577 117.463  0.00  0.00     0.016 C 
ATOM      3  C   LIG d   1       0.240  92.953 117.744  0.00  0.00     0.038 C 
ATOM      4  C   LIG d   1       0.549  94.147 118.411  0.00  0.00     0.028 C 
ATOM      5  C   LIG d   1      -0.487  95.246 118.196  0.00  0.00    -0.047 C 
ATOM      6  C   LIG d   1      -1.890  94.682 118.514  0.00  0.00     0.091 C 
ENDROOT
BRANCH   1   7
ATOM      7  O   LIG d   1      -3.269  92.669 118.290  0.00  0.00    -0.368 OA
BRANCH   7   8
ATOM      8  C   LIG d   1      -4.046  91.832 117.398  0.00  0.00     0.119 C 
BRANCH   8   9
ATOM      9  C   LIG d   1      -5.531  92.183 117.610  0.00  0.00     0.028 C 
ATOM     10  C   LIG d   1      -6.428  91.651 116.479  0.00  0.00     0.006 C 
ENDBRANCH   8   9
BRANCH   8  11
ATOM     11  C   LIG d   1      -3.921  90.352 117.771  0.00  0.00     0.028 C 
ATOM     12  C   LIG d   1      -3.196  90.135 119.109  0.00  0.00     0.006 C 
ENDBRANCH   8  11
ENDBRANCH   7   8
ENDBRANCH   1   7
BRANCH   6  13
ATOM     13  N   LIG d   1      -2.971  95.667 118.249  0.00  0.00    -0.311 N 
ATOM     14  C   LIG d   1      -3.435  96.511 119.169  0.00  0.00     0.210 C 
ATOM     15  C   LIG d   1      -4.565  97.430 118.692  0.00  0.00     0.109 C 
ATOM     16  O   LIG d   1      -2.997  96.609 120.325  0.00  0.00    -0.276 OA
ATOM     17  H   LIG d   1      -3.362  95.678 117.327  0.00  0.00     0.149 HD
ENDBRANCH   6  13
BRANCH   5  18
ATOM     18  N   LIG d   1      -0.113  96.385 119.056  0.00  0.00     0.381 N 
ATOM     19  H   LIG d   1      -0.907  96.976 119.199  0.00  0.00    -0.090 HD
ATOM     20  H   LIG d   1       0.600  96.922 118.593  0.00  0.00    -0.090 HD
ATOM     21  H   LIG d   1       0.226  96.054 119.932  0.00  0.00    -0.090 HD
ENDBRANCH   5  18
BRANCH   3  22
ATOM     22  C   LIG d   1       1.285  92.146 117.320  0.00  0.00     0.382 C 
ATOM     23  O   LIG d   1       2.469  92.545 117.430  0.00  0.00    -0.241 OA
ATOM     24  O   LIG d   1       1.056  91.043 116.789  0.00  0.00    -0.241 OA
ENDBRANCH   3  22
TORSDOF 7
ENDMDL
MODEL 5
REMARK VINA RESULT:      -3.9      4.304      7.675
REMARK  7 active torsions:
REMARK  status: ('A' for Active; 'I' for Inactive)
REMARK    1  A    between atoms: C_2  and  C_3 
REMARK    2  A    between atoms: C_3  and  O_6 
REMARK    3  A    between atoms: C_3  and  C_4 
REMARK    4  A    between atoms: C_7  and  O_6 
REMARK    5  A    between atoms: C_9  and  C_10 
REMARK    6  A    between atoms: N_15  and  C_14 
REMARK    7  A    between atoms: N_20  and  C_19 
REMARK       I    between atoms: C_22  and  N_20 
ROOT
ATOM      1  C   LIG d   1      -1.468  91.205 118.054  0.00  0.00     0.161 C 
ATOM      2  C   LIG d   1      -2.779  91.034 117.580  0.00  0.00     0.016 C 
ATOM      3  C   LIG d   1      -3.750  92.062 117.590  0.00  0.00     0.038 C 
ATOM      4  C   LIG d   1      -3.429  93.382 117.939  0.00  0.00     0.028 C 
ATOM      5  C   LIG d   1      -2.251  93.485 118.902  0.00  0.00    -0.047 C 
ATOM      6  C   LIG d   1      -1.067  92.668 118.335  0.00  0.00     0.091 C 
ENDROOT
BRANCH   1   7
ATOM      7  O   LIG d   1      -0.534  90.597 117.140  0.00  0.00    -0.368 OA
BRANCH   7   8
ATOM      8  C   LIG d   1      -0.210  89.207 117.391  0.00  0.00     0.119 C 
BRANCH   8   9
ATOM      9  C   LIG d   1       0.238  89.095 118.861  0.00  0.00     0.028 C 
ATOM     10  C   LIG d   1      -0.664  88.157 119.680  0.00  0.00     0.006 C 
ENDBRANCH   8   9
BRANCH   8  11
ATOM     11  C   LIG d   1       0.998  88.758 116.563  0.00  0.00     0.028 C 
ATOM     12  C   LIG d   1       2.317  89.379 117.049  0.00  0.00     0.006 C 
ENDBRANCH   8  11
ENDBRANCH   7   8
ENDBRANCH   1   7
BRANCH   6  13
ATOM     13  N   LIG d   1       0.099  92.647 119.257  0.00  0.00    -0.311 N 
ATOM     14  C   LIG d   1       1.359  92.781 118.848  0.00  0.00     0.210 C 
ATOM     15  C   LIG d   1       2.411  92.709 119.960  0.00  0.00     0.109 C 
ATOM     16  O   LIG d   1       1.704  92.986 117.674  0.00  0.00    -0.276 OA
ATOM     17  H   LIG d   1      -0.092  92.516 120.231  0.00  0.00     0.149 HD
ENDBRANCH   6  13
BRANCH   5  18
ATOM     18  N   LIG d   1      -1.938  94.916 119.072  0.00  0.00     0.381 N 
ATOM     19  H   LIG d   1      -2.742  95.400 119.417  0.00  0.00    -0.090 HD
ATOM     20  H   LIG d   1      -1.696  95.305 118.177  0.00  0.00    -0.090 HD
ATOM     21  H   LIG d   1      -1.177  95.026 119.706  0.00  0.00    -0.090 HD
ENDBRANCH   5  18
BRANCH   3  22
ATOM     22  C   LIG d   1      -5.070  91.763 117.286  0.00  0.00     0.382 C 
ATOM     23  O   LIG d   1      -5.999  92.404 117.833  0.00  0.00    -0.241 OA
ATOM     24  O   LIG d   1      -5.343  90.832 116.506  0.00  0.00    -0.241 OA
ENDBRANCH   3  22
TORSDOF 7
ENDMDL
MODEL 6
REMARK VINA RESULT:      -3.8      2.712      5.343
REMARK  7 active torsions:
REMARK  status: ('A' for Active; 'I' for Inactive)
REMARK    1  A    between atoms: C_2  and  C_3 
REMARK    2  A    between atoms: C_3  and  O_6 
REMARK    3  A    between atoms: C_3  and  C_4 
REMARK    4  A    between atoms: C_7  and  O_6 
REMARK    5  A    between atoms: C_9  and  C_10 
REMARK    6  A    between atoms: N_15  and  C_14 
REMARK    7  A    between atoms: N_20  and  C_19 
REMARK       I    between atoms: C_22  and  N_20 
ROOT
ATOM      1  C   LIG d   1      -3.818  92.411 118.490  0.00  0.00     0.161 C 
ATOM      2  C   LIG d   1      -4.802  92.079 117.544  0.00  0.00     0.016 C 
ATOM      3  C   LIG d   1      -6.170  92.398 117.699  0.00  0.00     0.038 C 
ATOM      4  C   LIG d   1      -6.628  93.210 118.748  0.00  0.00     0.028 C 
ATOM      5  C   LIG d   1      -5.750  93.142 119.993  0.00  0.00    -0.047 C 
ATOM      6  C   LIG d   1      -4.281  93.394 119.586  0.00  0.00     0.091 C 
ENDROOT
BRANCH   1   7
ATOM      7  O   LIG d   1      -2.649  92.923 117.820  0.00  0.00    -0.368 OA
BRANCH   7   8
ATOM      8  C   LIG d   1      -1.605  91.959 117.534  0.00  0.00     0.119 C 
BRANCH   8   9
ATOM      9  C   LIG d   1      -1.463  91.051 118.771  0.00  0.00     0.028 C 
ATOM     10  C   LIG d   1      -1.577  89.558 118.419  0.00  0.00     0.006 C 
ENDBRANCH   8   9
BRANCH   8  11
ATOM     11  C   LIG d   1      -0.244  92.643 117.374  0.00  0.00     0.028 C 
ATOM     12  C   LIG d   1       0.236  93.323 118.666  0.00  0.00     0.006 C 
ENDBRANCH   8  11
ENDBRANCH   7   8
ENDBRANCH   1   7
BRANCH   6  13
ATOM     13  N   LIG d   1      -3.344  93.262 120.732  0.00  0.00    -0.311 N 
ATOM     14  C   LIG d   1      -2.587  94.263 121.179  0.00  0.00     0.210 C 
ATOM     15  C   LIG d   1      -1.677  93.908 122.359  0.00  0.00     0.109 C 
ATOM     16  O   LIG d   1      -2.607  95.420 120.731  0.00  0.00    -0.276 OA
ATOM     17  H   LIG d   1      -3.288  92.366 121.175  0.00  0.00     0.149 HD
ENDBRANCH   6  13
BRANCH   5  18
ATOM     18  N   LIG d   1      -6.263  94.138 120.954  0.00  0.00     0.381 N 
ATOM     19  H   LIG d   1      -5.662  94.177 121.753  0.00  0.00    -0.090 HD
ATOM     20  H   LIG d   1      -7.177  93.854 121.259  0.00  0.00    -0.090 HD
ATOM     21  H   LIG d   1      -6.312  95.034 120.522  0.00  0.00    -0.090 HD
ENDBRANCH   5  18
BRANCH   3  22
ATOM     22  C   LIG d   1      -7.103  91.869 116.821  0.00  0.00     0.382 C 
ATOM     23  O   LIG d   1      -8.079  92.564 116.448  0.00  0.00    -0.241 OA
ATOM     24  O   LIG d   1      -7.006  90.690 116.430  0.00  0.00    -0.241 OA
ENDBRANCH   3  22
TORSDOF 7
ENDMDL
MODEL 7
REMARK VINA RESULT:      -3.7      4.791      7.282
REMARK  7 active torsions:
REMARK  status: ('A' for Active; 'I' for Inactive)
REMARK    1  A    between atoms: C_2  and  C_3 
REMARK    2  A    between atoms: C_3  and  O_6 
REMARK    3  A    between atoms: C_3  and  C_4 
REMARK    4  A    between atoms: C_7  and  O_6 
REMARK    5  A    between atoms: C_9  and  C_10 
REMARK    6  A    between atoms: N_15  and  C_14 
REMARK    7  A    between atoms: N_20  and  C_19 
REMARK       I    between atoms: C_22  and  N_20 
ROOT
ATOM      1  C   LIG d   1      -0.446  91.845 117.330  0.00  0.00     0.161 C 
ATOM      2  C   LIG d   1       0.849  91.423 116.986  0.00  0.00     0.016 C 
ATOM      3  C   LIG d   1       2.023  91.974 117.550  0.00  0.00     0.038 C 
ATOM      4  C   LIG d   1       1.976  92.888 118.614  0.00  0.00     0.028 C 
ATOM      5  C   LIG d   1       0.695  93.715 118.646  0.00  0.00    -0.047 C 
ATOM      6  C   LIG d   1      -0.520  92.762 118.568  0.00  0.00     0.091 C 
ENDROOT
BRANCH   1   7
ATOM      7  O   LIG d   1      -1.303  90.700 117.502  0.00  0.00    -0.368 OA
BRANCH   7   8
ATOM      8  C   LIG d   1      -1.318  90.108 118.824  0.00  0.00     0.119 C 
BRANCH   8   9
ATOM      9  C   LIG d   1      -0.562  88.767 118.740  0.00  0.00     0.028 C 
ATOM     10  C   LIG d   1      -0.815  87.873 119.965  0.00  0.00     0.006 C 
ENDBRANCH   8   9
BRANCH   8  11
ATOM     11  C   LIG d   1      -2.742  89.744 119.256  0.00  0.00     0.028 C 
ATOM     12  C   LIG d   1      -3.810  90.247 118.273  0.00  0.00     0.006 C 
ENDBRANCH   8  11
ENDBRANCH   7   8
ENDBRANCH   1   7
BRANCH   6  13
ATOM     13  N   LIG d   1      -1.812  93.494 118.510  0.00  0.00    -0.311 N 
ATOM     14  C   LIG d   1      -2.680  93.531 119.519  0.00  0.00     0.210 C 
ATOM     15  C   LIG d   1      -3.960  94.326 119.242  0.00  0.00     0.109 C 
ATOM     16  O   LIG d   1      -2.498  93.007 120.628  0.00  0.00    -0.276 OA
ATOM     17  H   LIG d   1      -2.026  93.973 117.657  0.00  0.00     0.149 HD
ENDBRANCH   6  13
BRANCH   5  18
ATOM     18  N   LIG d   1       0.718  94.524 119.879  0.00  0.00     0.381 N 
ATOM     19  H   LIG d   1       0.940  93.942 120.662  0.00  0.00    -0.090 HD
ATOM     20  H   LIG d   1      -0.195  94.916 120.027  0.00  0.00    -0.090 HD
ATOM     21  H   LIG d   1       1.391  95.253 119.796  0.00  0.00    -0.090 HD
ENDBRANCH   5  18
BRANCH   3  22
ATOM     22  C   LIG d   1       3.261  91.642 117.021  0.00  0.00     0.382 C 
ATOM     23  O   LIG d   1       4.182  92.494 117.000  0.00  0.00    -0.241 OA
ATOM     24  O   LIG d   1       3.455  90.516 116.525  0.00  0.00    -0.241 OA
ENDBRANCH   3  22
TORSDOF 7
ENDMDL
MODEL 8
REMARK VINA RESULT:      -3.6      3.158      6.094
REMARK  7 active torsions:
REMARK  status: ('A' for Active; 'I' for Inactive)
REMARK    1  A    between atoms: C_2  and  C_3 
REMARK    2  A    between atoms: C_3  and  O_6 
REMARK    3  A    between atoms: C_3  and  C_4 
REMARK    4  A    between atoms: C_7  and  O_6 
REMARK    5  A    between atoms: C_9  and  C_10 
REMARK    6  A    between atoms: N_15  and  C_14 
REMARK    7  A    between atoms: N_20  and  C_19 
REMARK       I    between atoms: C_22  and  N_20 
ROOT
ATOM      1  C   LIG d   1      -2.615  93.097 118.793  0.00  0.00     0.161 C 
ATOM      2  C   LIG d   1      -3.814  93.618 119.306  0.00  0.00     0.016 C 
ATOM      3  C   LIG d   1      -5.089  93.099 118.983  0.00  0.00     0.038 C 
ATOM      4  C   LIG d   1      -5.243  91.919 118.240  0.00  0.00     0.028 C 
ATOM      5  C   LIG d   1      -4.084  91.649 117.285  0.00  0.00    -0.047 C 
ATOM      6  C   LIG d   1      -2.756  91.741 118.070  0.00  0.00     0.091 C 
ENDROOT
BRANCH   1   7
ATOM      7  O   LIG d   1      -1.634  93.003 119.846  0.00  0.00    -0.368 OA
BRANCH   7   8
ATOM      8  C   LIG d   1      -0.738  94.133 119.984  0.00  0.00     0.119 C 
BRANCH   8   9
ATOM      9  C   LIG d   1      -0.246  94.509 118.572  0.00  0.00     0.028 C 
ATOM     10  C   LIG d   1      -0.379  96.014 118.286  0.00  0.00     0.006 C 
ENDBRANCH   8   9
BRANCH   8  11
ATOM     11  C   LIG d   1       0.523  93.752 120.765  0.00  0.00     0.028 C 
ATOM     12  C   LIG d   1       1.421  92.765 120.002  0.00  0.00     0.006 C 
ENDBRANCH   8  11
ENDBRANCH   7   8
ENDBRANCH   1   7
BRANCH   6  13
ATOM     13  N   LIG d   1      -1.567  91.573 117.193  0.00  0.00    -0.311 N 
ATOM     14  C   LIG d   1      -0.539  90.782 117.496  0.00  0.00     0.210 C 
ATOM     15  C   LIG d   1       0.593  90.770 116.464  0.00  0.00     0.109 C 
ATOM     16  O   LIG d   1      -0.471  90.065 118.505  0.00  0.00    -0.276 OA
ATOM     17  H   LIG d   1      -1.553  92.095 116.339  0.00  0.00     0.149 HD
ENDBRANCH   6  13
BRANCH   5  18
ATOM     18  N   LIG d   1      -4.307  90.324 116.678  0.00  0.00     0.381 N 
ATOM     19  H   LIG d   1      -4.388  89.631 117.396  0.00  0.00    -0.090 HD
ATOM     20  H   LIG d   1      -3.515  90.092 116.105  0.00  0.00    -0.090 HD
ATOM     21  H   LIG d   1      -5.135  90.337 116.124  0.00  0.00    -0.090 HD
ENDBRANCH   5  18
BRANCH   3  22
ATOM     22  C   LIG d   1      -6.229  93.785 119.373  0.00  0.00     0.382 C 
ATOM     23  O   LIG d   1      -6.270  94.348 120.493  0.00  0.00    -0.241 OA
ATOM     24  O   LIG d   1      -7.234  93.810 118.637  0.00  0.00    -0.241 OA
ENDBRANCH   3  22
TORSDOF 7
ENDMDL
MODEL 9
REMARK VINA RESULT:      -3.6      3.093      6.047
REMARK  7 active torsions:
REMARK  status: ('A' for Active; 'I' for Inactive)
REMARK    1  A    between atoms: C_2  and  C_3 
REMARK    2  A    between atoms: C_3  and  O_6 
REMARK    3  A    between atoms: C_3  and  C_4 
REMARK    4  A    between atoms: C_7  and  O_6 
REMARK    5  A    between atoms: C_9  and  C_10 
REMARK    6  A    between atoms: N_15  and  C_14 
REMARK    7  A    between atoms: N_20  and  C_19 
REMARK       I    between atoms: C_22  and  N_20 
ROOT
ATOM      1  C   LIG d   1      -1.990  92.860 118.681  0.00  0.00     0.161 C 
ATOM      2  C   LIG d   1      -0.958  93.597 119.287  0.00  0.00     0.016 C 
ATOM      3  C   LIG d   1      -1.141  94.888 119.833  0.00  0.00     0.038 C 
ATOM      4  C   LIG d   1      -2.412  95.472 119.946  0.00  0.00     0.028 C 
ATOM      5  C   LIG d   1      -3.400  94.980 118.894  0.00  0.00    -0.047 C 
ATOM      6  C   LIG d   1      -3.406  93.434 118.894  0.00  0.00     0.091 C 
ENDROOT
BRANCH   1   7
ATOM      7  O   LIG d   1      -1.934  91.489 119.120  0.00  0.00    -0.368 OA
BRANCH   7   8
ATOM      8  C   LIG d   1      -2.069  90.483 118.086  0.00  0.00     0.119 C 
BRANCH   8   9
ATOM      9  C   LIG d   1      -3.145  89.482 118.552  0.00  0.00     0.028 C 
ATOM     10  C   LIG d   1      -2.766  88.784 119.869  0.00  0.00     0.006 C 
ENDBRANCH   8   9
BRANCH   8  11
ATOM     11  C   LIG d   1      -0.786  89.659 117.939  0.00  0.00     0.028 C 
ATOM     12  C   LIG d   1       0.197  90.263 116.924  0.00  0.00     0.006 C 
ENDBRANCH   8  11
ENDBRANCH   7   8
ENDBRANCH   1   7
BRANCH   6  13
ATOM     13  N   LIG d   1      -4.284  92.871 117.836  0.00  0.00    -0.311 N 
ATOM     14  C   LIG d   1      -5.529  92.455 118.061  0.00  0.00     0.210 C 
ATOM     15  C   LIG d   1      -6.253  91.889 116.835  0.00  0.00     0.109 C 
ATOM     16  O   LIG d   1      -6.114  92.530 119.152  0.00  0.00    -0.276 OA
ATOM     17  H   LIG d   1      -3.900  92.802 116.914  0.00  0.00     0.149 HD
ENDBRANCH   6  13
BRANCH   5  18
ATOM     18  N   LIG d   1      -4.717  95.563 119.213  0.00  0.00     0.381 N 
ATOM     19  H   LIG d   1      -4.776  95.751 120.194  0.00  0.00    -0.090 HD
ATOM     20  H   LIG d   1      -5.433  94.899 118.976  0.00  0.00    -0.090 HD
ATOM     21  H   LIG d   1      -4.851  96.405 118.697  0.00  0.00    -0.090 HD
ENDBRANCH   5  18
BRANCH   3  22
ATOM     22  C   LIG d   1      -0.039  95.626 120.238  0.00  0.00     0.382 C 
ATOM     23  O   LIG d   1      -0.163  96.847 120.498  0.00  0.00    -0.241 OA
ATOM     24  O   LIG d   1       1.086  95.096 120.303  0.00  0.00    -0.241 OA
ENDBRANCH   3  22
TORSDOF 7
ENDMDL
