MODEL 1
REMARK VINA RESULT:      -4.9      0.000      0.000
REMARK  7 active torsions:
REMARK  status: ('A' for Active; 'I' for Inactive)
REMARK    1  A    between atoms: C_2  and  C_3 
REMARK    2  A    between atoms: C_3  and  O_6 
REMARK    3  A    between atoms: C_3  and  C_4 
REMARK    4  A    between atoms: C_7  and  O_6 
REMARK    5  A    between atoms: C_9  and  C_10 
REMARK    6  A    between atoms: N_15  and  C_14 
REMARK    7  A    between atoms: N_20  and  C_19 
REMARK       I    between atoms: C_22  and  N_20 
ROOT
ATOM      1  C   LIG d   1      -4.370  91.399 119.549  0.00  0.00     0.161 C 
ATOM      2  C   LIG d   1      -5.518  91.103 118.796  0.00  0.00     0.016 C 
ATOM      3  C   LIG d   1      -5.488  90.367 117.589  0.00  0.00     0.038 C 
ATOM      4  C   LIG d   1      -4.318  89.743 117.130  0.00  0.00     0.028 C 
ATOM      5  C   LIG d   1      -3.041  90.437 117.590  0.00  0.00    -0.047 C 
ATOM      6  C   LIG d   1      -3.100  90.632 119.122  0.00  0.00     0.091 C 
ENDROOT
BRANCH   1   7
ATOM      7  O   LIG d   1      -4.636  91.186 120.950  0.00  0.00    -0.368 OA
BRANCH   7   8
ATOM      8  C   LIG d   1      -4.636  92.369 121.786  0.00  0.00     0.119 C 
BRANCH   8   9
ATOM      9  C   LIG d   1      -6.072  92.565 122.311  0.00  0.00     0.028 C 
ATOM     10  C   LIG d   1      -6.913  93.471 121.395  0.00  0.00     0.006 C 
ENDBRANCH   8   9
BRANCH   8  11
ATOM     11  C   LIG d   1      -4.327  93.628 120.970  0.00  0.00     0.028 C 
ATOM     12  C   LIG d   1      -3.208  94.480 121.589  0.00  0.00     0.006 C 
ENDBRANCH   8  11
ENDBRANCH   7   8
ENDBRANCH   1   7
BRANCH   6  13
ATOM     13  N   LIG d   1      -1.927  91.379 119.645  0.00  0.00    -0.311 N 
ATOM     14  C   LIG d   1      -0.837  90.787 120.130  0.00  0.00     0.210 C 
ATOM     15  C   LIG d   1       0.248  91.743 120.635  0.00  0.00     0.109 C 
ATOM     16  O   LIG d   1      -0.653  89.561 120.160  0.00  0.00    -0.276 OA
ATOM     17  H   LIG d   1      -1.979  92.379 119.629  0.00  0.00     0.149 HD
ENDBRANCH   6  13
BRANCH   5  18
ATOM     18  N   LIG d   1      -1.901  89.606 117.157  0.00  0.00     0.381 N 
ATOM     19  H   LIG d   1      -1.440  90.041 116.383  0.00  0.00    -0.090 HD
ATOM     20  H   LIG d   1      -2.247  88.712 116.857  0.00  0.00    -0.090 HD
ATOM     21  H   LIG d   1      -1.260  89.487 117.910  0.00  0.00    -0.090 HD
ENDBRANCH   5  18
BRANCH   3  22
ATOM     22  C   LIG d   1      -6.630  90.282 116.807  0.00  0.00     0.382 C 
ATOM     23  O   LIG d   1      -7.245  91.326 116.482  0.00  0.00    -0.241 OA
ATOM     24  O   LIG d   1      -7.077  89.173 116.460  0.00  0.00    -0.241 OA
ENDBRANCH   3  22
TORSDOF 7
ENDMDL
MODEL 2
REMARK VINA RESULT:      -4.6      1.401      1.950
REMARK  7 active torsions:
REMARK  status: ('A' for Active; 'I' for Inactive)
REMARK    1  A    between atoms: C_2  and  C_3 
REMARK    2  A    between atoms: C_3  and  O_6 
REMARK    3  A    between atoms: C_3  and  C_4 
REMARK    4  A    between atoms: C_7  and  O_6 
REMARK    5  A    between atoms: C_9  and  C_10 
REMARK    6  A    between atoms: N_15  and  C_14 
REMARK    7  A    between atoms: N_20  and  C_19 
REMARK       I    between atoms: C_22  and  N_20 
ROOT
ATOM      1  C   LIG d   1      -3.294  91.653 119.505  0.00  0.00     0.161 C 
ATOM      2  C   LIG d   1      -4.598  91.404 119.045  0.00  0.00     0.016 C 
ATOM      3  C   LIG d   1      -4.898  90.480 118.018  0.00  0.00     0.038 C 
ATOM      4  C   LIG d   1      -3.924  89.625 117.482  0.00  0.00     0.028 C 
ATOM      5  C   LIG d   1      -2.511  90.194 117.558  0.00  0.00    -0.047 C 
ATOM      6  C   LIG d   1      -2.232  90.649 119.009  0.00  0.00     0.091 C 
ENDROOT
BRANCH   1   7
ATOM      7  O   LIG d   1      -3.288  91.718 120.945  0.00  0.00    -0.368 OA
BRANCH   7   8
ATOM      8  C   LIG d   1      -3.739  90.529 121.639  0.00  0.00     0.119 C 
BRANCH   8   9
ATOM      9  C   LIG d   1      -4.749  90.976 122.714  0.00  0.00     0.028 C 
ATOM     10  C   LIG d   1      -4.916  92.504 122.763  0.00  0.00     0.006 C 
ENDBRANCH   8   9
BRANCH   8  11
ATOM     11  C   LIG d   1      -2.594  89.865 122.409  0.00  0.00     0.028 C 
ATOM     12  C   LIG d   1      -1.481  90.853 122.792  0.00  0.00     0.006 C 
ENDBRANCH   8  11
ENDBRANCH   7   8
ENDBRANCH   1   7
BRANCH   6  13
ATOM     13  N   LIG d   1      -0.901  91.295 119.154  0.00  0.00    -0.311 N 
ATOM     14  C   LIG d   1       0.191  90.644 119.551  0.00  0.00     0.210 C 
ATOM     15  C   LIG d   1       1.455  91.503 119.652  0.00  0.00     0.109 C 
ATOM     16  O   LIG d   1       0.240  89.430 119.797  0.00  0.00    -0.276 OA
ATOM     17  H   LIG d   1      -0.843  92.273 118.944  0.00  0.00     0.149 HD
ENDBRANCH   6  13
BRANCH   5  18
ATOM     18  N   LIG d   1      -1.583  89.146 117.093  0.00  0.00     0.381 N 
ATOM     19  H   LIG d   1      -2.090  88.305 116.903  0.00  0.00    -0.090 HD
ATOM     20  H   LIG d   1      -0.916  88.956 117.820  0.00  0.00    -0.090 HD
ATOM     21  H   LIG d   1      -1.111  89.450 116.270  0.00  0.00    -0.090 HD
ENDBRANCH   5  18
BRANCH   3  22
ATOM     22  C   LIG d   1      -6.179  90.432 117.490  0.00  0.00     0.382 C 
ATOM     23  O   LIG d   1      -6.524  89.467 116.766  0.00  0.00    -0.241 OA
ATOM     24  O   LIG d   1      -6.981  91.365 117.690  0.00  0.00    -0.241 OA
ENDBRANCH   3  22
TORSDOF 7
ENDMDL
MODEL 3
REMARK VINA RESULT:      -4.5      2.546      4.633
REMARK  7 active torsions:
REMARK  status: ('A' for Active; 'I' for Inactive)
REMARK    1  A    between atoms: C_2  and  C_3 
REMARK    2  A    between atoms: C_3  and  O_6 
REMARK    3  A    between atoms: C_3  and  C_4 
REMARK    4  A    between atoms: C_7  and  O_6 
REMARK    5  A    between atoms: C_9  and  C_10 
REMARK    6  A    between atoms: N_15  and  C_14 
REMARK    7  A    between atoms: N_20  and  C_19 
REMARK       I    between atoms: C_22  and  N_20 
ROOT
ATOM      1  C   LIG d   1      -3.974  91.010 120.343  0.00  0.00     0.161 C 
ATOM      2  C   LIG d   1      -3.206  90.290 119.412  0.00  0.00     0.016 C 
ATOM      3  C   LIG d   1      -3.616  90.057 118.079  0.00  0.00     0.038 C 
ATOM      4  C   LIG d   1      -4.762  90.661 117.540  0.00  0.00     0.028 C 
ATOM      5  C   LIG d   1      -5.827  90.980 118.584  0.00  0.00    -0.047 C 
ATOM      6  C   LIG d   1      -5.174  91.770 119.741  0.00  0.00     0.091 C 
ENDROOT
BRANCH   1   7
ATOM      7  O   LIG d   1      -3.127  91.913 121.080  0.00  0.00    -0.368 OA
BRANCH   7   8
ATOM      8  C   LIG d   1      -1.759  91.481 121.285  0.00  0.00     0.119 C 
BRANCH   8   9
ATOM      9  C   LIG d   1      -1.674  90.868 122.696  0.00  0.00     0.028 C 
ATOM     10  C   LIG d   1      -1.430  89.350 122.662  0.00  0.00     0.006 C 
ENDBRANCH   8   9
BRANCH   8  11
ATOM     11  C   LIG d   1      -0.795  92.671 121.301  0.00  0.00     0.028 C 
ATOM     12  C   LIG d   1       0.605  92.311 120.781  0.00  0.00     0.006 C 
ENDBRANCH   8  11
ENDBRANCH   7   8
ENDBRANCH   1   7
BRANCH   6  13
ATOM     13  N   LIG d   1      -6.128  92.050 120.846  0.00  0.00    -0.311 N 
ATOM     14  C   LIG d   1      -6.785  93.202 120.973  0.00  0.00     0.210 C 
ATOM     15  C   LIG d   1      -7.705  93.290 122.194  0.00  0.00     0.109 C 
ATOM     16  O   LIG d   1      -6.718  94.146 120.172  0.00  0.00    -0.276 OA
ATOM     17  H   LIG d   1      -6.267  91.326 121.523  0.00  0.00     0.149 HD
ENDBRANCH   6  13
BRANCH   5  18
ATOM     18  N   LIG d   1      -6.903  91.728 117.908  0.00  0.00     0.381 N 
ATOM     19  H   LIG d   1      -6.991  91.416 116.962  0.00  0.00    -0.090 HD
ATOM     20  H   LIG d   1      -6.664  92.704 117.897  0.00  0.00    -0.090 HD
ATOM     21  H   LIG d   1      -7.765  91.596 118.390  0.00  0.00    -0.090 HD
ENDBRANCH   5  18
BRANCH   3  22
ATOM     22  C   LIG d   1      -2.898  89.179 117.283  0.00  0.00     0.382 C 
ATOM     23  O   LIG d   1      -3.492  88.475 116.431  0.00  0.00    -0.241 OA
ATOM     24  O   LIG d   1      -1.668  89.049 117.435  0.00  0.00    -0.241 OA
ENDBRANCH   3  22
TORSDOF 7
ENDMDL
MODEL 4
REMARK VINA RESULT:      -4.2      1.891      4.677
REMARK  7 active torsions:
REMARK  status: ('A' for Active; 'I' for Inactive)
REMARK    1  A    between atoms: C_2  and  C_3 
REMARK    2  A    between atoms: C_3  and  O_6 
REMARK    3  A    between atoms: C_3  and  C_4 
REMARK    4  A    between atoms: C_7  and  O_6 
REMARK    5  A    between atoms: C_9  and  C_10 
REMARK    6  A    between atoms: N_15  and  C_14 
REMARK    7  A    between atoms: N_20  and  C_19 
REMARK       I    between atoms: C_22  and  N_20 
ROOT
ATOM      1  C   LIG d   1      -2.932  91.547 119.899  0.00  0.00     0.161 C 
ATOM      2  C   LIG d   1      -2.101  91.117 120.946  0.00  0.00     0.016 C 
ATOM      3  C   LIG d   1      -0.970  90.291 120.754  0.00  0.00     0.038 C 
ATOM      4  C   LIG d   1      -0.503  89.959 119.473  0.00  0.00     0.028 C 
ATOM      5  C   LIG d   1      -1.599  89.952 118.412  0.00  0.00    -0.047 C 
ATOM      6  C   LIG d   1      -2.375  91.287 118.483  0.00  0.00     0.091 C 
ENDROOT
BRANCH   1   7
ATOM      7  O   LIG d   1      -3.246  92.943 120.065  0.00  0.00    -0.368 OA
BRANCH   7   8
ATOM      8  C   LIG d   1      -4.371  93.246 120.926  0.00  0.00     0.119 C 
BRANCH   8   9
ATOM      9  C   LIG d   1      -5.531  92.320 120.514  0.00  0.00     0.028 C 
ATOM     10  C   LIG d   1      -6.622  93.062 119.724  0.00  0.00     0.006 C 
ENDBRANCH   8   9
BRANCH   8  11
ATOM     11  C   LIG d   1      -4.885  94.669 120.691  0.00  0.00     0.028 C 
ATOM     12  C   LIG d   1      -4.894  95.519 121.972  0.00  0.00     0.006 C 
ENDBRANCH   8  11
ENDBRANCH   7   8
ENDBRANCH   1   7
BRANCH   6  13
ATOM     13  N   LIG d   1      -3.519  91.328 117.535  0.00  0.00    -0.311 N 
ATOM     14  C   LIG d   1      -4.473  90.400 117.497  0.00  0.00     0.210 C 
ATOM     15  C   LIG d   1      -5.550  90.624 116.430  0.00  0.00     0.109 C 
ATOM     16  O   LIG d   1      -4.548  89.430 118.266  0.00  0.00    -0.276 OA
ATOM     17  H   LIG d   1      -3.553  92.098 116.896  0.00  0.00     0.149 HD
ENDBRANCH   6  13
BRANCH   5  18
ATOM     18  N   LIG d   1      -0.953  89.727 117.106  0.00  0.00     0.381 N 
ATOM     19  H   LIG d   1      -0.150  90.318 117.019  0.00  0.00    -0.090 HD
ATOM     20  H   LIG d   1      -1.601  89.967 116.377  0.00  0.00    -0.090 HD
ATOM     21  H   LIG d   1      -0.683  88.772 117.018  0.00  0.00    -0.090 HD
ENDBRANCH   5  18
BRANCH   3  22
ATOM     22  C   LIG d   1      -0.316  89.754 121.852  0.00  0.00     0.382 C 
ATOM     23  O   LIG d   1      -0.878  88.874 122.549  0.00  0.00    -0.241 OA
ATOM     24  O   LIG d   1       0.811  90.169 122.182  0.00  0.00    -0.241 OA
ENDBRANCH   3  22
TORSDOF 7
ENDMDL
MODEL 5
REMARK VINA RESULT:      -4.2      2.507      4.549
REMARK  7 active torsions:
REMARK  status: ('A' for Active; 'I' for Inactive)
REMARK    1  A    between atoms: C_2  and  C_3 
REMARK    2  A    between atoms: C_3  and  O_6 
REMARK    3  A    between atoms: C_3  and  C_4 
REMARK    4  A    between atoms: C_7  and  O_6 
REMARK    5  A    between atoms: C_9  and  C_10 
REMARK    6  A    between atoms: N_15  and  C_14 
REMARK    7  A    between atoms: N_20  and  C_19 
REMARK       I    between atoms: C_22  and  N_20 
ROOT
ATOM      1  C   LIG d   1      -4.078  90.924 120.912  0.00  0.00     0.161 C 
ATOM      2  C   LIG d   1      -3.260  90.253 119.988  0.00  0.00     0.016 C 
ATOM      3  C   LIG d   1      -3.563  90.151 118.611  0.00  0.00     0.038 C 
ATOM      4  C   LIG d   1      -4.637  90.846 118.034  0.00  0.00     0.028 C 
ATOM      5  C   LIG d   1      -5.774  91.122 119.012  0.00  0.00    -0.047 C 
ATOM      6  C   LIG d   1      -5.195  91.783 120.283  0.00  0.00     0.091 C 
ENDROOT
BRANCH   1   7
ATOM      7  O   LIG d   1      -3.265  91.725 121.793  0.00  0.00    -0.368 OA
BRANCH   7   8
ATOM      8  C   LIG d   1      -2.561  92.833 121.178  0.00  0.00     0.119 C 
BRANCH   8   9
ATOM      9  C   LIG d   1      -1.052  92.565 121.333  0.00  0.00     0.028 C 
ATOM     10  C   LIG d   1      -0.296  93.776 121.905  0.00  0.00     0.006 C 
ENDBRANCH   8   9
BRANCH   8  11
ATOM     11  C   LIG d   1      -2.820  94.142 121.929  0.00  0.00     0.028 C 
ATOM     12  C   LIG d   1      -3.679  95.131 121.125  0.00  0.00     0.006 C 
ENDBRANCH   8  11
ENDBRANCH   7   8
ENDBRANCH   1   7
BRANCH   6  13
ATOM     13  N   LIG d   1      -6.229  92.009 121.326  0.00  0.00    -0.311 N 
ATOM     14  C   LIG d   1      -6.927  93.138 121.433  0.00  0.00     0.210 C 
ATOM     15  C   LIG d   1      -7.930  93.171 122.591  0.00  0.00     0.109 C 
ATOM     16  O   LIG d   1      -6.835  94.103 120.660  0.00  0.00    -0.276 OA
ATOM     17  H   LIG d   1      -6.391  91.266 121.977  0.00  0.00     0.149 HD
ENDBRANCH   6  13
BRANCH   5  18
ATOM     18  N   LIG d   1      -6.762  91.970 118.318  0.00  0.00     0.381 N 
ATOM     19  H   LIG d   1      -7.687  91.704 118.590  0.00  0.00    -0.090 HD
ATOM     20  H   LIG d   1      -6.672  91.830 117.327  0.00  0.00    -0.090 HD
ATOM     21  H   LIG d   1      -6.605  92.928 118.542  0.00  0.00    -0.090 HD
ENDBRANCH   5  18
BRANCH   3  22
ATOM     22  C   LIG d   1      -2.811  89.313 117.801  0.00  0.00     0.382 C 
ATOM     23  O   LIG d   1      -1.569  89.235 117.963  0.00  0.00    -0.241 OA
ATOM     24  O   LIG d   1      -3.352  88.668 116.883  0.00  0.00    -0.241 OA
ENDBRANCH   3  22
TORSDOF 7
ENDMDL
MODEL 6
REMARK VINA RESULT:      -4.1      3.364      6.308
REMARK  7 active torsions:
REMARK  status: ('A' for Active; 'I' for Inactive)
REMARK    1  A    between atoms: C_2  and  C_3 
REMARK    2  A    between atoms: C_3  and  O_6 
REMARK    3  A    between atoms: C_3  and  C_4 
REMARK    4  A    between atoms: C_7  and  O_6 
REMARK    5  A    between atoms: C_9  and  C_10 
REMARK    6  A    between atoms: N_15  and  C_14 
REMARK    7  A    between atoms: N_20  and  C_19 
REMARK       I    between atoms: C_22  and  N_20 
ROOT
ATOM      1  C   LIG d   1       0.555  91.641 119.742  0.00  0.00     0.161 C 
ATOM      2  C   LIG d   1       1.733  91.733 118.981  0.00  0.00     0.016 C 
ATOM      3  C   LIG d   1       1.850  91.228 117.666  0.00  0.00     0.038 C 
ATOM      4  C   LIG d   1       0.745  90.727 116.962  0.00  0.00     0.028 C 
ATOM      5  C   LIG d   1      -0.341  90.154 117.867  0.00  0.00    -0.047 C 
ATOM      6  C   LIG d   1      -0.693  91.198 118.951  0.00  0.00     0.091 C 
ENDROOT
BRANCH   1   7
ATOM      7  O   LIG d   1       0.307  92.893 120.411  0.00  0.00    -0.368 OA
BRANCH   7   8
ATOM      8  C   LIG d   1       0.530  92.907 121.842  0.00  0.00     0.119 C 
BRANCH   8   9
ATOM      9  C   LIG d   1       1.900  93.566 122.091  0.00  0.00     0.028 C 
ATOM     10  C   LIG d   1       2.137  94.787 121.188  0.00  0.00     0.006 C 
ENDBRANCH   8   9
BRANCH   8  11
ATOM     11  C   LIG d   1       0.655  91.486 122.400  0.00  0.00     0.028 C 
ATOM     12  C   LIG d   1      -0.462  91.135 123.395  0.00  0.00     0.006 C 
ENDBRANCH   8  11
ENDBRANCH   7   8
ENDBRANCH   1   7
BRANCH   6  13
ATOM     13  N   LIG d   1      -1.687  90.685 119.930  0.00  0.00    -0.311 N 
ATOM     14  C   LIG d   1      -2.747  91.384 120.334  0.00  0.00     0.210 C 
ATOM     15  C   LIG d   1      -3.634  90.677 121.363  0.00  0.00     0.109 C 
ATOM     16  O   LIG d   1      -3.053  92.510 119.913  0.00  0.00    -0.276 OA
ATOM     17  H   LIG d   1      -1.532  89.767 120.299  0.00  0.00     0.149 HD
ENDBRANCH   6  13
BRANCH   5  18
ATOM     18  N   LIG d   1      -1.489  89.795 117.014  0.00  0.00     0.381 N 
ATOM     19  H   LIG d   1      -2.328  90.189 117.392  0.00  0.00    -0.090 HD
ATOM     20  H   LIG d   1      -1.587  88.795 117.004  0.00  0.00    -0.090 HD
ATOM     21  H   LIG d   1      -1.344  90.132 116.088  0.00  0.00    -0.090 HD
ENDBRANCH   5  18
BRANCH   3  22
ATOM     22  C   LIG d   1       3.094  91.184 117.055  0.00  0.00     0.382 C 
ATOM     23  O   LIG d   1       3.715  92.248 116.820  0.00  0.00    -0.241 OA
ATOM     24  O   LIG d   1       3.584  90.096 116.697  0.00  0.00    -0.241 OA
ENDBRANCH   3  22
TORSDOF 7
ENDMDL
MODEL 7
REMARK VINA RESULT:      -4.0      2.517      6.200
REMARK  7 active torsions:
REMARK  status: ('A' for Active; 'I' for Inactive)
REMARK    1  A    between atoms: C_2  and  C_3 
REMARK    2  A    between atoms: C_3  and  O_6 
REMARK    3  A    between atoms: C_3  and  C_4 
REMARK    4  A    between atoms: C_7  and  O_6 
REMARK    5  A    between atoms: C_9  and  C_10 
REMARK    6  A    between atoms: N_15  and  C_14 
REMARK    7  A    between atoms: N_20  and  C_19 
REMARK       I    between atoms: C_22  and  N_20 
ROOT
ATOM      1  C   LIG d   1      -3.689  92.179 119.477  0.00  0.00     0.161 C 
ATOM      2  C   LIG d   1      -2.370  91.927 119.893  0.00  0.00     0.016 C 
ATOM      3  C   LIG d   1      -1.829  92.416 121.104  0.00  0.00     0.038 C 
ATOM      4  C   LIG d   1      -2.622  93.069 122.060  0.00  0.00     0.028 C 
ATOM      5  C   LIG d   1      -3.828  93.784 121.460  0.00  0.00    -0.047 C 
ATOM      6  C   LIG d   1      -4.601  92.795 120.558  0.00  0.00     0.091 C 
ENDROOT
BRANCH   1   7
ATOM      7  O   LIG d   1      -4.276  90.970 118.955  0.00  0.00    -0.368 OA
BRANCH   7   8
ATOM      8  C   LIG d   1      -3.877  90.596 117.614  0.00  0.00     0.119 C 
BRANCH   8   9
ATOM      9  C   LIG d   1      -5.161  90.438 116.776  0.00  0.00     0.028 C 
ATOM     10  C   LIG d   1      -6.434  90.698 117.599  0.00  0.00     0.006 C 
ENDBRANCH   8   9
BRANCH   8  11
ATOM     11  C   LIG d   1      -3.209  89.218 117.595  0.00  0.00     0.028 C 
ATOM     12  C   LIG d   1      -1.674  89.300 117.593  0.00  0.00     0.006 C 
ENDBRANCH   8  11
ENDBRANCH   7   8
ENDBRANCH   1   7
BRANCH   6  13
ATOM     13  N   LIG d   1      -5.748  93.437 119.866  0.00  0.00    -0.311 N 
ATOM     14  C   LIG d   1      -6.968  93.525 120.394  0.00  0.00     0.210 C 
ATOM     15  C   LIG d   1      -8.011  94.208 119.504  0.00  0.00     0.109 C 
ATOM     16  O   LIG d   1      -7.277  93.131 121.529  0.00  0.00    -0.276 OA
ATOM     17  H   LIG d   1      -5.579  93.812 118.953  0.00  0.00     0.149 HD
ENDBRANCH   6  13
BRANCH   5  18
ATOM     18  N   LIG d   1      -4.639  94.303 122.577  0.00  0.00     0.381 N 
ATOM     19  H   LIG d   1      -5.256  95.018 122.245  0.00  0.00    -0.090 HD
ATOM     20  H   LIG d   1      -4.027  94.708 123.263  0.00  0.00    -0.090 HD
ATOM     21  H   LIG d   1      -5.167  93.564 122.988  0.00  0.00    -0.090 HD
ENDBRANCH   5  18
BRANCH   3  22
ATOM     22  C   LIG d   1      -0.471  92.289 121.351  0.00  0.00     0.382 C 
ATOM     23  O   LIG d   1      -0.075  91.759 122.417  0.00  0.00    -0.241 OA
ATOM     24  O   LIG d   1       0.363  92.737 120.541  0.00  0.00    -0.241 OA
ENDBRANCH   3  22
TORSDOF 7
ENDMDL
MODEL 8
REMARK VINA RESULT:      -4.0      3.208      6.105
REMARK  7 active torsions:
REMARK  status: ('A' for Active; 'I' for Inactive)
REMARK    1  A    between atoms: C_2  and  C_3 
REMARK    2  A    between atoms: C_3  and  O_6 
REMARK    3  A    between atoms: C_3  and  C_4 
REMARK    4  A    between atoms: C_7  and  O_6 
REMARK    5  A    between atoms: C_9  and  C_10 
REMARK    6  A    between atoms: N_15  and  C_14 
REMARK    7  A    between atoms: N_20  and  C_19 
REMARK       I    between atoms: C_22  and  N_20 
ROOT
ATOM      1  C   LIG d   1      -0.395  91.569 119.340  0.00  0.00     0.161 C 
ATOM      2  C   LIG d   1       0.519  91.221 118.332  0.00  0.00     0.016 C 
ATOM      3  C   LIG d   1       1.904  91.497 118.409  0.00  0.00     0.038 C 
ATOM      4  C   LIG d   1       2.495  92.007 119.575  0.00  0.00     0.028 C 
ATOM      5  C   LIG d   1       1.539  92.838 120.424  0.00  0.00    -0.047 C 
ATOM      6  C   LIG d   1       0.247  92.026 120.667  0.00  0.00     0.091 C 
ENDROOT
BRANCH   1   7
ATOM      7  O   LIG d   1      -1.304  90.475 119.574  0.00  0.00    -0.368 OA
BRANCH   7   8
ATOM      8  C   LIG d   1      -2.585  90.555 118.902  0.00  0.00     0.119 C 
BRANCH   8   9
ATOM      9  C   LIG d   1      -3.618  91.049 119.933  0.00  0.00     0.028 C 
ATOM     10  C   LIG d   1      -5.012  91.252 119.317  0.00  0.00     0.006 C 
ENDBRANCH   8   9
BRANCH   8  11
ATOM     11  C   LIG d   1      -3.075  89.171 118.469  0.00  0.00     0.028 C 
ATOM     12  C   LIG d   1      -3.143  89.014 116.941  0.00  0.00     0.006 C 
ENDBRANCH   8  11
ENDBRANCH   7   8
ENDBRANCH   1   7
BRANCH   6  13
ATOM     13  N   LIG d   1      -0.776  92.798 121.419  0.00  0.00    -0.311 N 
ATOM     14  C   LIG d   1      -1.310  92.384 122.567  0.00  0.00     0.210 C 
ATOM     15  C   LIG d   1      -2.361  93.323 123.166  0.00  0.00     0.109 C 
ATOM     16  O   LIG d   1      -0.989  91.344 123.161  0.00  0.00    -0.276 OA
ATOM     17  H   LIG d   1      -1.071  93.670 121.024  0.00  0.00     0.149 HD
ENDBRANCH   6  13
BRANCH   5  18
ATOM     18  N   LIG d   1       2.244  93.190 121.671  0.00  0.00     0.381 N 
ATOM     19  H   LIG d   1       1.579  93.442 122.376  0.00  0.00    -0.090 HD
ATOM     20  H   LIG d   1       2.836  93.983 121.498  0.00  0.00    -0.090 HD
ATOM     21  H   LIG d   1       2.792  92.419 121.983  0.00  0.00    -0.090 HD
ENDBRANCH   5  18
BRANCH   3  22
ATOM     22  C   LIG d   1       2.707  91.298 117.296  0.00  0.00     0.382 C 
ATOM     23  O   LIG d   1       3.360  92.256 116.815  0.00  0.00    -0.241 OA
ATOM     24  O   LIG d   1       2.752  90.185 116.740  0.00  0.00    -0.241 OA
ENDBRANCH   3  22
TORSDOF 7
ENDMDL
MODEL 9
REMARK VINA RESULT:      -4.0      2.951      4.479
REMARK  7 active torsions:
REMARK  status: ('A' for Active; 'I' for Inactive)
REMARK    1  A    between atoms: C_2  and  C_3 
REMARK    2  A    between atoms: C_3  and  O_6 
REMARK    3  A    between atoms: C_3  and  C_4 
REMARK    4  A    between atoms: C_7  and  O_6 
REMARK    5  A    between atoms: C_9  and  C_10 
REMARK    6  A    between atoms: N_15  and  C_14 
REMARK    7  A    between atoms: N_20  and  C_19 
REMARK       I    between atoms: C_22  and  N_20 
ROOT
ATOM      1  C   LIG d   1      -1.021  90.050 120.256  0.00  0.00     0.161 C 
ATOM      2  C   LIG d   1      -2.388  90.053 119.932  0.00  0.00     0.016 C 
ATOM      3  C   LIG d   1      -2.880  89.794 118.632  0.00  0.00     0.038 C 
ATOM      4  C   LIG d   1      -2.041  89.364 117.593  0.00  0.00     0.028 C 
ATOM      5  C   LIG d   1      -0.598  89.836 117.745  0.00  0.00    -0.047 C 
ATOM      6  C   LIG d   1      -0.098  89.473 119.162  0.00  0.00     0.091 C 
ENDROOT
BRANCH   1   7
ATOM      7  O   LIG d   1      -0.816  89.355 121.502  0.00  0.00    -0.368 OA
BRANCH   7   8
ATOM      8  C   LIG d   1      -0.739  90.183 122.688  0.00  0.00     0.119 C 
BRANCH   8   9
ATOM      9  C   LIG d   1       0.738  90.229 123.126  0.00  0.00     0.028 C 
ATOM     10  C   LIG d   1       1.333  88.826 123.333  0.00  0.00     0.006 C 
ENDBRANCH   8   9
BRANCH   8  11
ATOM     11  C   LIG d   1      -1.490  89.547 123.862  0.00  0.00     0.028 C 
ATOM     12  C   LIG d   1      -2.555  88.536 123.409  0.00  0.00     0.006 C 
ENDBRANCH   8  11
ENDBRANCH   7   8
ENDBRANCH   1   7
BRANCH   6  13
ATOM     13  N   LIG d   1       1.277  89.974 119.423  0.00  0.00    -0.311 N 
ATOM     14  C   LIG d   1       2.290  89.185 119.776  0.00  0.00     0.210 C 
ATOM     15  C   LIG d   1       3.619  89.907 120.017  0.00  0.00     0.109 C 
ATOM     16  O   LIG d   1       2.222  87.951 119.881  0.00  0.00    -0.276 OA
ATOM     17  H   LIG d   1       1.428  90.959 119.330  0.00  0.00     0.149 HD
ENDBRANCH   6  13
BRANCH   5  18
ATOM     18  N   LIG d   1       0.193  89.203 116.673  0.00  0.00     0.381 N 
ATOM     19  H   LIG d   1       1.153  89.146 116.949  0.00  0.00    -0.090 HD
ATOM     20  H   LIG d   1       0.134  89.771 115.847  0.00  0.00    -0.090 HD
ATOM     21  H   LIG d   1      -0.160  88.290 116.482  0.00  0.00    -0.090 HD
ENDBRANCH   5  18
BRANCH   3  22
ATOM     22  C   LIG d   1      -4.221  90.005 118.350  0.00  0.00     0.382 C 
ATOM     23  O   LIG d   1      -4.726  89.525 117.307  0.00  0.00    -0.241 OA
ATOM     24  O   LIG d   1      -4.922  90.707 119.103  0.00  0.00    -0.241 OA
ENDBRANCH   3  22
TORSDOF 7
ENDMDL
