MODEL 1
REMARK VINA RESULT:      -5.2      0.000      0.000
REMARK  7 active torsions:
REMARK  status: ('A' for Active; 'I' for Inactive)
REMARK    1  A    between atoms: C_2  and  C_3 
REMARK    2  A    between atoms: C_3  and  O_6 
REMARK    3  A    between atoms: C_3  and  C_4 
REMARK    4  A    between atoms: C_7  and  O_6 
REMARK    5  A    between atoms: C_9  and  C_10 
REMARK    6  A    between atoms: N_15  and  C_14 
REMARK    7  A    between atoms: N_20  and  C_19 
REMARK       I    between atoms: C_22  and  N_20 
ROOT
ATOM      1  C   LIG d   1      -5.537  93.235 119.436  0.00  0.00     0.161 C 
ATOM      2  C   LIG d   1      -5.684  92.154 118.551  0.00  0.00     0.016 C 
ATOM      3  C   LIG d   1      -6.620  92.137 117.492  0.00  0.00     0.038 C 
ATOM      4  C   LIG d   1      -7.373  93.270 117.150  0.00  0.00     0.028 C 
ATOM      5  C   LIG d   1      -7.622  94.209 118.326  0.00  0.00    -0.047 C 
ATOM      6  C   LIG d   1      -6.273  94.523 119.012  0.00  0.00     0.091 C 
ENDROOT
BRANCH   1   7
ATOM      7  O   LIG d   1      -4.138  93.505 119.650  0.00  0.00    -0.368 OA
BRANCH   7   8
ATOM      8  C   LIG d   1      -3.219  92.889 118.714  0.00  0.00     0.119 C 
BRANCH   8   9
ATOM      9  C   LIG d   1      -2.429  91.812 119.482  0.00  0.00     0.028 C 
ATOM     10  C   LIG d   1      -2.362  90.478 118.719  0.00  0.00     0.006 C 
ENDBRANCH   8   9
BRANCH   8  11
ATOM     11  C   LIG d   1      -2.169  93.890 118.223  0.00  0.00     0.028 C 
ATOM     12  C   LIG d   1      -2.342  95.286 118.842  0.00  0.00     0.006 C 
ENDBRANCH   8  11
ENDBRANCH   7   8
ENDBRANCH   1   7
BRANCH   6  13
ATOM     13  N   LIG d   1      -6.436  95.369 120.223  0.00  0.00    -0.311 N 
ATOM     14  C   LIG d   1      -5.915  96.589 120.341  0.00  0.00     0.210 C 
ATOM     15  C   LIG d   1      -6.185  97.280 121.681  0.00  0.00     0.109 C 
ATOM     16  O   LIG d   1      -5.282  97.177 119.451  0.00  0.00    -0.276 OA
ATOM     17  H   LIG d   1      -6.962  94.982 120.982  0.00  0.00     0.149 HD
ENDBRANCH   6  13
BRANCH   5  18
ATOM     18  N   LIG d   1      -8.298  95.411 117.801  0.00  0.00     0.381 N 
ATOM     19  H   LIG d   1      -8.712  95.206 116.914  0.00  0.00    -0.090 HD
ATOM     20  H   LIG d   1      -7.615  96.137 117.671  0.00  0.00    -0.090 HD
ATOM     21  H   LIG d   1      -8.999  95.714 118.441  0.00  0.00    -0.090 HD
ENDBRANCH   5  18
BRANCH   3  22
ATOM     22  C   LIG d   1      -6.838  90.964 116.786  0.00  0.00     0.382 C 
ATOM     23  O   LIG d   1      -8.009  90.589 116.539  0.00  0.00    -0.241 OA
ATOM     24  O   LIG d   1      -5.878  90.253 116.431  0.00  0.00    -0.241 OA
ENDBRANCH   3  22
TORSDOF 7
ENDMDL
MODEL 2
REMARK VINA RESULT:      -5.1      0.956      1.015
REMARK  7 active torsions:
REMARK  status: ('A' for Active; 'I' for Inactive)
REMARK    1  A    between atoms: C_2  and  C_3 
REMARK    2  A    between atoms: C_3  and  O_6 
REMARK    3  A    between atoms: C_3  and  C_4 
REMARK    4  A    between atoms: C_7  and  O_6 
REMARK    5  A    between atoms: C_9  and  C_10 
REMARK    6  A    between atoms: N_15  and  C_14 
REMARK    7  A    between atoms: N_20  and  C_19 
REMARK       I    between atoms: C_22  and  N_20 
ROOT
ATOM      1  C   LIG d   1      -5.404  93.419 119.341  0.00  0.00     0.161 C 
ATOM      2  C   LIG d   1      -5.284  92.311 118.486  0.00  0.00     0.016 C 
ATOM      3  C   LIG d   1      -6.223  92.004 117.474  0.00  0.00     0.038 C 
ATOM      4  C   LIG d   1      -7.272  92.875 117.147  0.00  0.00     0.028 C 
ATOM      5  C   LIG d   1      -7.721  93.748 118.314  0.00  0.00    -0.047 C 
ATOM      6  C   LIG d   1      -6.482  94.442 118.927  0.00  0.00     0.091 C 
ENDROOT
BRANCH   1   7
ATOM      7  O   LIG d   1      -4.125  94.069 119.481  0.00  0.00    -0.368 OA
BRANCH   7   8
ATOM      8  C   LIG d   1      -2.970  93.300 119.061  0.00  0.00     0.119 C 
BRANCH   8   9
ATOM      9  C   LIG d   1      -2.255  92.807 120.334  0.00  0.00     0.028 C 
ATOM     10  C   LIG d   1      -2.183  91.273 120.410  0.00  0.00     0.006 C 
ENDBRANCH   8   9
BRANCH   8  11
ATOM     11  C   LIG d   1      -1.948  94.181 118.337  0.00  0.00     0.028 C 
ATOM     12  C   LIG d   1      -0.712  94.489 119.197  0.00  0.00     0.006 C 
ENDBRANCH   8  11
ENDBRANCH   7   8
ENDBRANCH   1   7
BRANCH   6  13
ATOM     13  N   LIG d   1      -6.821  95.250 120.127  0.00  0.00    -0.311 N 
ATOM     14  C   LIG d   1      -7.142  96.541 120.075  0.00  0.00     0.210 C 
ATOM     15  C   LIG d   1      -7.437  97.190 121.431  0.00  0.00     0.109 C 
ATOM     16  O   LIG d   1      -7.243  97.204 119.031  0.00  0.00    -0.276 OA
ATOM     17  H   LIG d   1      -6.795  94.784 121.013  0.00  0.00     0.149 HD
ENDBRANCH   6  13
BRANCH   5  18
ATOM     18  N   LIG d   1      -8.722  94.701 117.799  0.00  0.00     0.381 N 
ATOM     19  H   LIG d   1      -9.507  94.736 118.418  0.00  0.00    -0.090 HD
ATOM     20  H   LIG d   1      -9.042  94.383 116.902  0.00  0.00    -0.090 HD
ATOM     21  H   LIG d   1      -8.317  95.608 117.713  0.00  0.00    -0.090 HD
ENDBRANCH   5  18
BRANCH   3  22
ATOM     22  C   LIG d   1      -6.138  90.793 116.804  0.00  0.00     0.382 C 
ATOM     23  O   LIG d   1      -7.184  90.209 116.431  0.00  0.00    -0.241 OA
ATOM     24  O   LIG d   1      -5.032  90.256 116.606  0.00  0.00    -0.241 OA
ENDBRANCH   3  22
TORSDOF 7
ENDMDL
MODEL 3
REMARK VINA RESULT:      -4.9      2.678      4.675
REMARK  7 active torsions:
REMARK  status: ('A' for Active; 'I' for Inactive)
REMARK    1  A    between atoms: C_2  and  C_3 
REMARK    2  A    between atoms: C_3  and  O_6 
REMARK    3  A    between atoms: C_3  and  C_4 
REMARK    4  A    between atoms: C_7  and  O_6 
REMARK    5  A    between atoms: C_9  and  C_10 
REMARK    6  A    between atoms: N_15  and  C_14 
REMARK    7  A    between atoms: N_20  and  C_19 
REMARK       I    between atoms: C_22  and  N_20 
ROOT
ATOM      1  C   LIG d   1      -4.633  93.167 119.165  0.00  0.00     0.161 C 
ATOM      2  C   LIG d   1      -5.813  93.929 119.160  0.00  0.00     0.016 C 
ATOM      3  C   LIG d   1      -6.916  93.650 118.322  0.00  0.00     0.038 C 
ATOM      4  C   LIG d   1      -6.974  92.490 117.534  0.00  0.00     0.028 C 
ATOM      5  C   LIG d   1      -5.602  91.965 117.129  0.00  0.00    -0.047 C 
ATOM      6  C   LIG d   1      -4.721  91.834 118.393  0.00  0.00     0.091 C 
ENDROOT
BRANCH   1   7
ATOM      7  O   LIG d   1      -4.208  92.932 120.522  0.00  0.00    -0.368 OA
BRANCH   7   8
ATOM      8  C   LIG d   1      -2.973  93.576 120.924  0.00  0.00     0.119 C 
BRANCH   8   9
ATOM      9  C   LIG d   1      -2.459  94.385 119.717  0.00  0.00     0.028 C 
ATOM     10  C   LIG d   1      -1.024  94.000 119.321  0.00  0.00     0.006 C 
ENDBRANCH   8   9
BRANCH   8  11
ATOM     11  C   LIG d   1      -1.878  92.547 121.218  0.00  0.00     0.028 C 
ATOM     12  C   LIG d   1      -2.442  91.179 121.633  0.00  0.00     0.006 C 
ENDBRANCH   8  11
ENDBRANCH   7   8
ENDBRANCH   1   7
BRANCH   6  13
ATOM     13  N   LIG d   1      -3.334  91.405 118.075  0.00  0.00    -0.311 N 
ATOM     14  C   LIG d   1      -2.921  90.141 118.155  0.00  0.00     0.210 C 
ATOM     15  C   LIG d   1      -1.446  89.920 117.803  0.00  0.00     0.109 C 
ATOM     16  O   LIG d   1      -3.643  89.178 118.452  0.00  0.00    -0.276 OA
ATOM     17  H   LIG d   1      -2.689  92.118 117.795  0.00  0.00     0.149 HD
ENDBRANCH   6  13
BRANCH   5  18
ATOM     18  N   LIG d   1      -5.804  90.681 116.430  0.00  0.00     0.381 N 
ATOM     19  H   LIG d   1      -6.608  90.216 116.803  0.00  0.00    -0.090 HD
ATOM     20  H   LIG d   1      -5.002  90.097 116.584  0.00  0.00    -0.090 HD
ATOM     21  H   LIG d   1      -5.927  90.840 115.454  0.00  0.00    -0.090 HD
ENDBRANCH   5  18
BRANCH   3  22
ATOM     22  C   LIG d   1      -7.962  94.557 118.237  0.00  0.00     0.382 C 
ATOM     23  O   LIG d   1      -9.141  94.174 118.426  0.00  0.00    -0.241 OA
ATOM     24  O   LIG d   1      -7.744  95.744 117.930  0.00  0.00    -0.241 OA
ENDBRANCH   3  22
TORSDOF 7
ENDMDL
MODEL 4
REMARK VINA RESULT:      -4.7      1.348      2.021
REMARK  7 active torsions:
REMARK  status: ('A' for Active; 'I' for Inactive)
REMARK    1  A    between atoms: C_2  and  C_3 
REMARK    2  A    between atoms: C_3  and  O_6 
REMARK    3  A    between atoms: C_3  and  C_4 
REMARK    4  A    between atoms: C_7  and  O_6 
REMARK    5  A    between atoms: C_9  and  C_10 
REMARK    6  A    between atoms: N_15  and  C_14 
REMARK    7  A    between atoms: N_20  and  C_19 
REMARK       I    between atoms: C_22  and  N_20 
ROOT
ATOM      1  C   LIG d   1      -5.565  93.396 119.499  0.00  0.00     0.161 C 
ATOM      2  C   LIG d   1      -5.667  92.285 118.645  0.00  0.00     0.016 C 
ATOM      3  C   LIG d   1      -6.594  92.205 117.580  0.00  0.00     0.038 C 
ATOM      4  C   LIG d   1      -7.385  93.300 117.202  0.00  0.00     0.028 C 
ATOM      5  C   LIG d   1      -7.675  94.263 118.349  0.00  0.00    -0.047 C 
ATOM      6  C   LIG d   1      -6.343  94.644 119.034  0.00  0.00     0.091 C 
ENDROOT
BRANCH   1   7
ATOM      7  O   LIG d   1      -4.177  93.721 119.715  0.00  0.00    -0.368 OA
BRANCH   7   8
ATOM      8  C   LIG d   1      -3.650  93.425 121.031  0.00  0.00     0.119 C 
BRANCH   8   9
ATOM      9  C   LIG d   1      -2.861  92.106 120.927  0.00  0.00     0.028 C 
ATOM     10  C   LIG d   1      -1.339  92.326 120.976  0.00  0.00     0.006 C 
ENDBRANCH   8   9
BRANCH   8  11
ATOM     11  C   LIG d   1      -4.775  93.147 122.033  0.00  0.00     0.028 C 
ATOM     12  C   LIG d   1      -4.427  92.024 123.022  0.00  0.00     0.006 C 
ENDBRANCH   8  11
ENDBRANCH   7   8
ENDBRANCH   1   7
BRANCH   6  13
ATOM     13  N   LIG d   1      -6.545  95.517 120.219  0.00  0.00    -0.311 N 
ATOM     14  C   LIG d   1      -5.952  96.700 120.368  0.00  0.00     0.210 C 
ATOM     15  C   LIG d   1      -6.281  97.429 121.675  0.00  0.00     0.109 C 
ATOM     16  O   LIG d   1      -5.209  97.230 119.528  0.00  0.00    -0.276 OA
ATOM     17  H   LIG d   1      -7.156  95.178 120.936  0.00  0.00     0.149 HD
ENDBRANCH   6  13
BRANCH   5  18
ATOM     18  N   LIG d   1      -8.389  95.424 117.786  0.00  0.00     0.381 N 
ATOM     19  H   LIG d   1      -9.228  95.590 118.305  0.00  0.00    -0.090 HD
ATOM     20  H   LIG d   1      -8.642  95.221 116.835  0.00  0.00    -0.090 HD
ATOM     21  H   LIG d   1      -7.806  96.231 117.817  0.00  0.00    -0.090 HD
ENDBRANCH   5  18
BRANCH   3  22
ATOM     22  C   LIG d   1      -6.764  91.006 116.906  0.00  0.00     0.382 C 
ATOM     23  O   LIG d   1      -5.763  90.348 116.533  0.00  0.00    -0.241 OA
ATOM     24  O   LIG d   1      -7.907  90.594 116.628  0.00  0.00    -0.241 OA
ENDBRANCH   3  22
TORSDOF 7
ENDMDL
MODEL 5
REMARK VINA RESULT:      -4.7      2.941      6.374
REMARK  7 active torsions:
REMARK  status: ('A' for Active; 'I' for Inactive)
REMARK    1  A    between atoms: C_2  and  C_3 
REMARK    2  A    between atoms: C_3  and  O_6 
REMARK    3  A    between atoms: C_3  and  C_4 
REMARK    4  A    between atoms: C_7  and  O_6 
REMARK    5  A    between atoms: C_9  and  C_10 
REMARK    6  A    between atoms: N_15  and  C_14 
REMARK    7  A    between atoms: N_20  and  C_19 
REMARK       I    between atoms: C_22  and  N_20 
ROOT
ATOM      1  C   LIG d   1      -3.675  92.721 119.758  0.00  0.00     0.161 C 
ATOM      2  C   LIG d   1      -3.527  94.113 119.633  0.00  0.00     0.016 C 
ATOM      3  C   LIG d   1      -2.503  94.722 118.871  0.00  0.00     0.038 C 
ATOM      4  C   LIG d   1      -1.642  93.973 118.054  0.00  0.00     0.028 C 
ATOM      5  C   LIG d   1      -1.434  92.544 118.542  0.00  0.00    -0.047 C 
ATOM      6  C   LIG d   1      -2.813  91.890 118.784  0.00  0.00     0.091 C 
ENDROOT
BRANCH   1   7
ATOM      7  O   LIG d   1      -5.065  92.364 119.627  0.00  0.00    -0.368 OA
BRANCH   7   8
ATOM      8  C   LIG d   1      -5.788  93.001 118.545  0.00  0.00     0.119 C 
BRANCH   8   9
ATOM      9  C   LIG d   1      -6.872  93.895 119.176  0.00  0.00     0.028 C 
ATOM     10  C   LIG d   1      -7.756  94.580 118.120  0.00  0.00     0.006 C 
ENDBRANCH   8   9
BRANCH   8  11
ATOM     11  C   LIG d   1      -6.549  91.973 117.702  0.00  0.00     0.028 C 
ATOM     12  C   LIG d   1      -5.666  91.304 116.637  0.00  0.00     0.006 C 
ENDBRANCH   8  11
ENDBRANCH   7   8
ENDBRANCH   1   7
BRANCH   6  13
ATOM     13  N   LIG d   1      -2.700  90.518 119.343  0.00  0.00    -0.311 N 
ATOM     14  C   LIG d   1      -2.736  89.416 118.596  0.00  0.00     0.210 C 
ATOM     15  C   LIG d   1      -2.622  88.102 119.375  0.00  0.00     0.109 C 
ATOM     16  O   LIG d   1      -2.820  89.403 117.359  0.00  0.00    -0.276 OA
ATOM     17  H   LIG d   1      -2.598  90.437 120.336  0.00  0.00     0.149 HD
ENDBRANCH   6  13
BRANCH   5  18
ATOM     18  N   LIG d   1      -0.630  91.839 117.526  0.00  0.00     0.381 N 
ATOM     19  H   LIG d   1      -0.860  92.180 116.615  0.00  0.00    -0.090 HD
ATOM     20  H   LIG d   1      -0.849  90.859 117.561  0.00  0.00    -0.090 HD
ATOM     21  H   LIG d   1       0.341  91.976 117.705  0.00  0.00    -0.090 HD
ENDBRANCH   5  18
BRANCH   3  22
ATOM     22  C   LIG d   1      -2.307  96.092 118.954  0.00  0.00     0.382 C 
ATOM     23  O   LIG d   1      -1.143  96.557 119.005  0.00  0.00    -0.241 OA
ATOM     24  O   LIG d   1      -3.280  96.866 119.022  0.00  0.00    -0.241 OA
ENDBRANCH   3  22
TORSDOF 7
ENDMDL
MODEL 6
REMARK VINA RESULT:      -4.6      4.468      7.429
REMARK  7 active torsions:
REMARK  status: ('A' for Active; 'I' for Inactive)
REMARK    1  A    between atoms: C_2  and  C_3 
REMARK    2  A    between atoms: C_3  and  O_6 
REMARK    3  A    between atoms: C_3  and  C_4 
REMARK    4  A    between atoms: C_7  and  O_6 
REMARK    5  A    between atoms: C_9  and  C_10 
REMARK    6  A    between atoms: N_15  and  C_14 
REMARK    7  A    between atoms: N_20  and  C_19 
REMARK       I    between atoms: C_22  and  N_20 
ROOT
ATOM      1  C   LIG d   1      -0.179  90.602 117.547  0.00  0.00     0.161 C 
ATOM      2  C   LIG d   1       1.213  90.597 117.741  0.00  0.00     0.016 C 
ATOM      3  C   LIG d   1       1.886  91.525 118.569  0.00  0.00     0.038 C 
ATOM      4  C   LIG d   1       1.192  92.431 119.383  0.00  0.00     0.028 C 
ATOM      5  C   LIG d   1      -0.182  92.806 118.839  0.00  0.00    -0.047 C 
ATOM      6  C   LIG d   1      -0.964  91.513 118.514  0.00  0.00     0.091 C 
ENDROOT
BRANCH   1   7
ATOM      7  O   LIG d   1      -0.685  89.253 117.607  0.00  0.00    -0.368 OA
BRANCH   7   8
ATOM      8  C   LIG d   1      -0.961  88.735 118.931  0.00  0.00     0.119 C 
BRANCH   8   9
ATOM      9  C   LIG d   1      -0.086  87.482 119.130  0.00  0.00     0.028 C 
ATOM     10  C   LIG d   1       0.379  86.873 117.797  0.00  0.00     0.006 C 
ENDBRANCH   8   9
BRANCH   8  11
ATOM     11  C   LIG d   1      -2.407  88.242 119.046  0.00  0.00     0.028 C 
ATOM     12  C   LIG d   1      -2.602  87.228 120.185  0.00  0.00     0.006 C 
ENDBRANCH   8  11
ENDBRANCH   7   8
ENDBRANCH   1   7
BRANCH   6  13
ATOM     13  N   LIG d   1      -2.287  91.789 117.897  0.00  0.00    -0.311 N 
ATOM     14  C   LIG d   1      -3.422  91.844 118.591  0.00  0.00     0.210 C 
ATOM     15  C   LIG d   1      -4.677  92.123 117.758  0.00  0.00     0.109 C 
ATOM     16  O   LIG d   1      -3.505  91.721 119.823  0.00  0.00    -0.276 OA
ATOM     17  H   LIG d   1      -2.307  91.933 116.906  0.00  0.00     0.149 HD
ENDBRANCH   6  13
BRANCH   5  18
ATOM     18  N   LIG d   1      -0.849  93.646 119.852  0.00  0.00     0.381 N 
ATOM     19  H   LIG d   1      -1.763  93.899 119.533  0.00  0.00    -0.090 HD
ATOM     20  H   LIG d   1      -0.316  94.488 119.979  0.00  0.00    -0.090 HD
ATOM     21  H   LIG d   1      -0.915  93.152 120.714  0.00  0.00    -0.090 HD
ENDBRANCH   5  18
BRANCH   3  22
ATOM     22  C   LIG d   1       3.271  91.577 118.556  0.00  0.00     0.382 C 
ATOM     23  O   LIG d   1       3.907  91.607 119.638  0.00  0.00    -0.241 OA
ATOM     24  O   LIG d   1       3.892  91.640 117.478  0.00  0.00    -0.241 OA
ENDBRANCH   3  22
TORSDOF 7
ENDMDL
MODEL 7
REMARK VINA RESULT:      -4.4      2.340      4.305
REMARK  7 active torsions:
REMARK  status: ('A' for Active; 'I' for Inactive)
REMARK    1  A    between atoms: C_2  and  C_3 
REMARK    2  A    between atoms: C_3  and  O_6 
REMARK    3  A    between atoms: C_3  and  C_4 
REMARK    4  A    between atoms: C_7  and  O_6 
REMARK    5  A    between atoms: C_9  and  C_10 
REMARK    6  A    between atoms: N_15  and  C_14 
REMARK    7  A    between atoms: N_20  and  C_19 
REMARK       I    between atoms: C_22  and  N_20 
ROOT
ATOM      1  C   LIG d   1      -5.194  93.497 119.254  0.00  0.00     0.161 C 
ATOM      2  C   LIG d   1      -6.180  92.854 118.487  0.00  0.00     0.016 C 
ATOM      3  C   LIG d   1      -5.924  91.717 117.686  0.00  0.00     0.038 C 
ATOM      4  C   LIG d   1      -4.689  91.051 117.717  0.00  0.00     0.028 C 
ATOM      5  C   LIG d   1      -3.521  91.958 118.087  0.00  0.00    -0.047 C 
ATOM      6  C   LIG d   1      -3.868  92.719 119.387  0.00  0.00     0.091 C 
ENDROOT
BRANCH   1   7
ATOM      7  O   LIG d   1      -5.721  93.815 120.558  0.00  0.00    -0.368 OA
BRANCH   7   8
ATOM      8  C   LIG d   1      -6.099  95.197 120.772  0.00  0.00     0.119 C 
BRANCH   8   9
ATOM      9  C   LIG d   1      -7.511  95.387 120.186  0.00  0.00     0.028 C 
ATOM     10  C   LIG d   1      -7.551  96.459 119.084  0.00  0.00     0.006 C 
ENDBRANCH   8   9
BRANCH   8  11
ATOM     11  C   LIG d   1      -5.200  96.150 119.979  0.00  0.00     0.028 C 
ATOM     12  C   LIG d   1      -4.100  96.790 120.842  0.00  0.00     0.006 C 
ENDBRANCH   8  11
ENDBRANCH   7   8
ENDBRANCH   1   7
BRANCH   6  13
ATOM     13  N   LIG d   1      -2.813  93.691 119.774  0.00  0.00    -0.311 N 
ATOM     14  C   LIG d   1      -1.866  93.426 120.672  0.00  0.00     0.210 C 
ATOM     15  C   LIG d   1      -0.888  94.575 120.939  0.00  0.00     0.109 C 
ATOM     16  O   LIG d   1      -1.723  92.338 121.250  0.00  0.00    -0.276 OA
ATOM     17  H   LIG d   1      -2.835  94.589 119.331  0.00  0.00     0.149 HD
ENDBRANCH   6  13
BRANCH   5  18
ATOM     18  N   LIG d   1      -2.321  91.110 118.216  0.00  0.00     0.381 N 
ATOM     19  H   LIG d   1      -1.753  91.439 118.970  0.00  0.00    -0.090 HD
ATOM     20  H   LIG d   1      -1.786  91.172 117.368  0.00  0.00    -0.090 HD
ATOM     21  H   LIG d   1      -2.589  90.164 118.380  0.00  0.00    -0.090 HD
ENDBRANCH   5  18
BRANCH   3  22
ATOM     22  C   LIG d   1      -6.898  91.259 116.812  0.00  0.00     0.382 C 
ATOM     23  O   LIG d   1      -7.811  92.030 116.430  0.00  0.00    -0.241 OA
ATOM     24  O   LIG d   1      -6.901  90.071 116.436  0.00  0.00    -0.241 OA
ENDBRANCH   3  22
TORSDOF 7
ENDMDL
MODEL 8
REMARK VINA RESULT:      -4.3      3.849      6.122
REMARK  7 active torsions:
REMARK  status: ('A' for Active; 'I' for Inactive)
REMARK    1  A    between atoms: C_2  and  C_3 
REMARK    2  A    between atoms: C_3  and  O_6 
REMARK    3  A    between atoms: C_3  and  C_4 
REMARK    4  A    between atoms: C_7  and  O_6 
REMARK    5  A    between atoms: C_9  and  C_10 
REMARK    6  A    between atoms: N_15  and  C_14 
REMARK    7  A    between atoms: N_20  and  C_19 
REMARK       I    between atoms: C_22  and  N_20 
ROOT
ATOM      1  C   LIG d   1      -1.242  90.717 119.531  0.00  0.00     0.161 C 
ATOM      2  C   LIG d   1      -2.570  90.618 119.084  0.00  0.00     0.016 C 
ATOM      3  C   LIG d   1      -3.257  91.675 118.444  0.00  0.00     0.038 C 
ATOM      4  C   LIG d   1      -2.608  92.861 118.069  0.00  0.00     0.028 C 
ATOM      5  C   LIG d   1      -1.408  93.199 118.948  0.00  0.00    -0.047 C 
ATOM      6  C   LIG d   1      -0.483  91.964 119.031  0.00  0.00     0.091 C 
ENDROOT
BRANCH   1   7
ATOM      7  O   LIG d   1      -0.520  89.519 119.185  0.00  0.00    -0.368 OA
BRANCH   7   8
ATOM      8  C   LIG d   1      -1.251  88.534 118.415  0.00  0.00     0.119 C 
BRANCH   8   9
ATOM      9  C   LIG d   1      -1.251  87.221 119.222  0.00  0.00     0.028 C 
ATOM     10  C   LIG d   1      -2.416  87.149 120.224  0.00  0.00     0.006 C 
ENDBRANCH   8   9
BRANCH   8  11
ATOM     11  C   LIG d   1      -0.530  88.204 117.104  0.00  0.00     0.028 C 
ATOM     12  C   LIG d   1       0.717  89.072 116.876  0.00  0.00     0.006 C 
ENDBRANCH   8  11
ENDBRANCH   7   8
ENDBRANCH   1   7
BRANCH   6  13
ATOM     13  N   LIG d   1       0.672  92.181 119.941  0.00  0.00    -0.311 N 
ATOM     14  C   LIG d   1       1.941  92.146 119.536  0.00  0.00     0.210 C 
ATOM     15  C   LIG d   1       2.978  92.377 120.639  0.00  0.00     0.109 C 
ATOM     16  O   LIG d   1       2.304  91.978 118.362  0.00  0.00    -0.276 OA
ATOM     17  H   LIG d   1       0.467  92.356 120.905  0.00  0.00     0.149 HD
ENDBRANCH   6  13
BRANCH   5  18
ATOM     18  N   LIG d   1      -0.745  94.380 118.363  0.00  0.00     0.381 N 
ATOM     19  H   LIG d   1       0.186  94.458 118.721  0.00  0.00    -0.090 HD
ATOM     20  H   LIG d   1      -1.255  95.204 118.628  0.00  0.00    -0.090 HD
ATOM     21  H   LIG d   1      -0.722  94.301 117.370  0.00  0.00    -0.090 HD
ENDBRANCH   5  18
BRANCH   3  22
ATOM     22  C   LIG d   1      -4.619  91.567 118.208  0.00  0.00     0.382 C 
ATOM     23  O   LIG d   1      -5.414  92.375 118.745  0.00  0.00    -0.241 OA
ATOM     24  O   LIG d   1      -5.066  90.645 117.500  0.00  0.00    -0.241 OA
ENDBRANCH   3  22
TORSDOF 7
ENDMDL
MODEL 9
REMARK VINA RESULT:      -4.2      2.818      4.430
REMARK  7 active torsions:
REMARK  status: ('A' for Active; 'I' for Inactive)
REMARK    1  A    between atoms: C_2  and  C_3 
REMARK    2  A    between atoms: C_3  and  O_6 
REMARK    3  A    between atoms: C_3  and  C_4 
REMARK    4  A    between atoms: C_7  and  O_6 
REMARK    5  A    between atoms: C_9  and  C_10 
REMARK    6  A    between atoms: N_15  and  C_14 
REMARK    7  A    between atoms: N_20  and  C_19 
REMARK       I    between atoms: C_22  and  N_20 
ROOT
ATOM      1  C   LIG d   1      -4.951  93.076 119.629  0.00  0.00     0.161 C 
ATOM      2  C   LIG d   1      -6.088  93.883 119.461  0.00  0.00     0.016 C 
ATOM      3  C   LIG d   1      -6.998  93.733 118.389  0.00  0.00     0.038 C 
ATOM      4  C   LIG d   1      -6.912  92.661 117.488  0.00  0.00     0.028 C 
ATOM      5  C   LIG d   1      -5.495  92.122 117.322  0.00  0.00    -0.047 C 
ATOM      6  C   LIG d   1      -4.901  91.831 118.719  0.00  0.00     0.091 C 
ENDROOT
BRANCH   1   7
ATOM      7  O   LIG d   1      -4.824  92.692 121.012  0.00  0.00    -0.368 OA
BRANCH   7   8
ATOM      8  C   LIG d   1      -4.082  93.601 121.861  0.00  0.00     0.119 C 
BRANCH   8   9
ATOM      9  C   LIG d   1      -2.808  92.868 122.324  0.00  0.00     0.028 C 
ATOM     10  C   LIG d   1      -2.936  91.340 122.208  0.00  0.00     0.006 C 
ENDBRANCH   8   9
BRANCH   8  11
ATOM     11  C   LIG d   1      -4.855  93.922 123.144  0.00  0.00     0.028 C 
ATOM     12  C   LIG d   1      -6.092  93.030 123.333  0.00  0.00     0.006 C 
ENDBRANCH   8  11
ENDBRANCH   7   8
ENDBRANCH   1   7
BRANCH   6  13
ATOM     13  N   LIG d   1      -3.487  91.379 118.651  0.00  0.00    -0.311 N 
ATOM     14  C   LIG d   1      -2.470  92.193 118.375  0.00  0.00     0.210 C 
ATOM     15  C   LIG d   1      -1.095  91.520 118.335  0.00  0.00     0.109 C 
ATOM     16  O   LIG d   1      -2.572  93.416 118.192  0.00  0.00    -0.276 OA
ATOM     17  H   LIG d   1      -3.310  90.408 118.818  0.00  0.00     0.149 HD
ENDBRANCH   6  13
BRANCH   5  18
ATOM     18  N   LIG d   1      -5.572  90.923 116.465  0.00  0.00     0.381 N 
ATOM     19  H   LIG d   1      -6.298  91.038 115.787  0.00  0.00    -0.090 HD
ATOM     20  H   LIG d   1      -5.797  90.129 117.038  0.00  0.00    -0.090 HD
ATOM     21  H   LIG d   1      -4.700  90.775 116.007  0.00  0.00    -0.090 HD
ENDBRANCH   5  18
BRANCH   3  22
ATOM     22  C   LIG d   1      -7.984  94.686 118.186  0.00  0.00     0.382 C 
ATOM     23  O   LIG d   1      -9.186  94.337 118.104  0.00  0.00    -0.241 OA
ATOM     24  O   LIG d   1      -7.682  95.886 118.038  0.00  0.00    -0.241 OA
ENDBRANCH   3  22
TORSDOF 7
ENDMDL
