MODEL 1
REMARK VINA RESULT:      -4.6      0.000      0.000
REMARK  7 active torsions:
REMARK  status: ('A' for Active; 'I' for Inactive)
REMARK    1  A    between atoms: C_2  and  C_3 
REMARK    2  A    between atoms: C_3  and  O_6 
REMARK    3  A    between atoms: C_3  and  C_4 
REMARK    4  A    between atoms: C_7  and  O_6 
REMARK    5  A    between atoms: C_9  and  C_10 
REMARK    6  A    between atoms: N_15  and  C_14 
REMARK    7  A    between atoms: N_20  and  C_19 
REMARK       I    between atoms: C_22  and  N_20 
ROOT
ATOM      1  C   LIG d   1      -2.695  93.254 119.318  0.00  0.00     0.161 C 
ATOM      2  C   LIG d   1      -2.582  94.601 118.935  0.00  0.00     0.016 C 
ATOM      3  C   LIG d   1      -1.773  95.040 117.863  0.00  0.00     0.038 C 
ATOM      4  C   LIG d   1      -1.133  94.139 116.999  0.00  0.00     0.028 C 
ATOM      5  C   LIG d   1      -0.812  92.799 117.652  0.00  0.00    -0.047 C 
ATOM      6  C   LIG d   1      -2.092  92.245 118.318  0.00  0.00     0.091 C 
ENDROOT
BRANCH   1   7
ATOM      7  O   LIG d   1      -4.075  92.935 119.582  0.00  0.00    -0.368 OA
BRANCH   7   8
ATOM      8  C   LIG d   1      -5.042  93.459 118.639  0.00  0.00     0.119 C 
BRANCH   8   9
ATOM      9  C   LIG d   1      -6.105  94.230 119.446  0.00  0.00     0.028 C 
ATOM     10  C   LIG d   1      -6.895  95.223 118.577  0.00  0.00     0.006 C 
ENDBRANCH   8   9
BRANCH   8  11
ATOM     11  C   LIG d   1      -5.805  92.331 117.938  0.00  0.00     0.028 C 
ATOM     12  C   LIG d   1      -5.362  92.129 116.480  0.00  0.00     0.006 C 
ENDBRANCH   8  11
ENDBRANCH   7   8
ENDBRANCH   1   7
BRANCH   6  13
ATOM     13  N   LIG d   1      -1.846  90.977 119.053  0.00  0.00    -0.311 N 
ATOM     14  C   LIG d   1      -2.511  89.849 118.811  0.00  0.00     0.210 C 
ATOM     15  C   LIG d   1      -2.116  88.662 119.695  0.00  0.00     0.109 C 
ATOM     16  O   LIG d   1      -3.369  89.710 117.926  0.00  0.00    -0.276 OA
ATOM     17  H   LIG d   1      -1.144  90.992 119.767  0.00  0.00     0.149 HD
ENDBRANCH   6  13
BRANCH   5  18
ATOM     18  N   LIG d   1      -0.275  91.910 116.604  0.00  0.00     0.381 N 
ATOM     19  H   LIG d   1       0.251  92.445 115.943  0.00  0.00    -0.090 HD
ATOM     20  H   LIG d   1      -1.042  91.476 116.121  0.00  0.00    -0.090 HD
ATOM     21  H   LIG d   1       0.306  91.212 117.014  0.00  0.00    -0.090 HD
ENDBRANCH   5  18
BRANCH   3  22
ATOM     22  C   LIG d   1      -1.564  96.398 117.670  0.00  0.00     0.382 C 
ATOM     23  O   LIG d   1      -2.446  97.222 118.010  0.00  0.00    -0.241 OA
ATOM     24  O   LIG d   1      -0.524  96.805 117.120  0.00  0.00    -0.241 OA
ENDBRANCH   3  22
TORSDOF 7
ENDMDL
MODEL 2
REMARK VINA RESULT:      -4.5      2.717      4.335
REMARK  7 active torsions:
REMARK  status: ('A' for Active; 'I' for Inactive)
REMARK    1  A    between atoms: C_2  and  C_3 
REMARK    2  A    between atoms: C_3  and  O_6 
REMARK    3  A    between atoms: C_3  and  C_4 
REMARK    4  A    between atoms: C_7  and  O_6 
REMARK    5  A    between atoms: C_9  and  C_10 
REMARK    6  A    between atoms: N_15  and  C_14 
REMARK    7  A    between atoms: N_20  and  C_19 
REMARK       I    between atoms: C_22  and  N_20 
ROOT
ATOM      1  C   LIG d   1      -3.756  93.739 119.087  0.00  0.00     0.161 C 
ATOM      2  C   LIG d   1      -5.019  93.420 118.562  0.00  0.00     0.016 C 
ATOM      3  C   LIG d   1      -5.222  92.441 117.562  0.00  0.00     0.038 C 
ATOM      4  C   LIG d   1      -4.185  91.603 117.124  0.00  0.00     0.028 C 
ATOM      5  C   LIG d   1      -2.802  92.230 117.259  0.00  0.00    -0.047 C 
ATOM      6  C   LIG d   1      -2.629  92.759 118.701  0.00  0.00     0.091 C 
ENDROOT
BRANCH   1   7
ATOM      7  O   LIG d   1      -3.840  93.867 120.520  0.00  0.00    -0.368 OA
BRANCH   7   8
ATOM      8  C   LIG d   1      -4.631  92.864 121.204  0.00  0.00     0.119 C 
BRANCH   8   9
ATOM      9  C   LIG d   1      -5.625  93.604 122.120  0.00  0.00     0.028 C 
ATOM     10  C   LIG d   1      -7.088  93.248 121.808  0.00  0.00     0.006 C 
ENDBRANCH   8   9
BRANCH   8  11
ATOM     11  C   LIG d   1      -3.767  92.018 122.143  0.00  0.00     0.028 C 
ATOM     12  C   LIG d   1      -2.409  92.669 122.452  0.00  0.00     0.006 C 
ENDBRANCH   8  11
ENDBRANCH   7   8
ENDBRANCH   1   7
BRANCH   6  13
ATOM     13  N   LIG d   1      -1.334  93.463 118.895  0.00  0.00    -0.311 N 
ATOM     14  C   LIG d   1      -0.240  92.869 119.369  0.00  0.00     0.210 C 
ATOM     15  C   LIG d   1       0.982  93.782 119.510  0.00  0.00     0.109 C 
ATOM     16  O   LIG d   1      -0.157  91.665 119.656  0.00  0.00    -0.276 OA
ATOM     17  H   LIG d   1      -1.304  94.435 118.658  0.00  0.00     0.149 HD
ENDBRANCH   6  13
BRANCH   5  18
ATOM     18  N   LIG d   1      -1.809  91.201 116.897  0.00  0.00     0.381 N 
ATOM     19  H   LIG d   1      -1.004  91.635 116.489  0.00  0.00    -0.090 HD
ATOM     20  H   LIG d   1      -2.214  90.584 116.215  0.00  0.00    -0.090 HD
ATOM     21  H   LIG d   1      -1.542  90.685 117.706  0.00  0.00    -0.090 HD
ENDBRANCH   5  18
BRANCH   3  22
ATOM     22  C   LIG d   1      -6.465  92.320 116.961  0.00  0.00     0.382 C 
ATOM     23  O   LIG d   1      -7.141  93.346 116.706  0.00  0.00    -0.241 OA
ATOM     24  O   LIG d   1      -6.939  91.195 116.710  0.00  0.00    -0.241 OA
ENDBRANCH   3  22
TORSDOF 7
ENDMDL
MODEL 3
REMARK VINA RESULT:      -4.4      2.912      5.416
REMARK  7 active torsions:
REMARK  status: ('A' for Active; 'I' for Inactive)
REMARK    1  A    between atoms: C_2  and  C_3 
REMARK    2  A    between atoms: C_3  and  O_6 
REMARK    3  A    between atoms: C_3  and  C_4 
REMARK    4  A    between atoms: C_7  and  O_6 
REMARK    5  A    between atoms: C_9  and  C_10 
REMARK    6  A    between atoms: N_15  and  C_14 
REMARK    7  A    between atoms: N_20  and  C_19 
REMARK       I    between atoms: C_22  and  N_20 
ROOT
ATOM      1  C   LIG d   1      -4.955  93.027 119.711  0.00  0.00     0.161 C 
ATOM      2  C   LIG d   1      -3.797  92.374 119.257  0.00  0.00     0.016 C 
ATOM      3  C   LIG d   1      -3.679  91.806 117.968  0.00  0.00     0.038 C 
ATOM      4  C   LIG d   1      -4.663  91.986 116.985  0.00  0.00     0.028 C 
ATOM      5  C   LIG d   1      -6.059  92.203 117.559  0.00  0.00    -0.047 C 
ATOM      6  C   LIG d   1      -5.998  93.331 118.615  0.00  0.00     0.091 C 
ENDROOT
BRANCH   1   7
ATOM      7  O   LIG d   1      -4.593  94.236 120.407  0.00  0.00    -0.368 OA
BRANCH   7   8
ATOM      8  C   LIG d   1      -4.369  95.405 119.580  0.00  0.00     0.119 C 
BRANCH   8   9
ATOM      9  C   LIG d   1      -2.897  95.823 119.758  0.00  0.00     0.028 C 
ATOM     10  C   LIG d   1      -2.058  95.571 118.494  0.00  0.00     0.006 C 
ENDBRANCH   8   9
BRANCH   8  11
ATOM     11  C   LIG d   1      -5.192  96.600 120.070  0.00  0.00     0.028 C 
ATOM     12  C   LIG d   1      -5.987  96.293 121.349  0.00  0.00     0.006 C 
ENDBRANCH   8  11
ENDBRANCH   7   8
ENDBRANCH   1   7
BRANCH   6  13
ATOM     13  N   LIG d   1      -7.306  93.550 119.286  0.00  0.00    -0.311 N 
ATOM     14  C   LIG d   1      -8.182  94.476 118.901  0.00  0.00     0.210 C 
ATOM     15  C   LIG d   1      -9.459  94.548 119.743  0.00  0.00     0.109 C 
ATOM     16  O   LIG d   1      -8.036  95.223 117.921  0.00  0.00    -0.276 OA
ATOM     17  H   LIG d   1      -7.519  92.966 120.071  0.00  0.00     0.149 HD
ENDBRANCH   6  13
BRANCH   5  18
ATOM     18  N   LIG d   1      -6.961  92.514 116.433  0.00  0.00     0.381 N 
ATOM     19  H   LIG d   1      -6.683  91.996 115.624  0.00  0.00    -0.090 HD
ATOM     20  H   LIG d   1      -6.889  93.494 116.220  0.00  0.00    -0.090 HD
ATOM     21  H   LIG d   1      -7.900  92.288 116.676  0.00  0.00    -0.090 HD
ENDBRANCH   5  18
BRANCH   3  22
ATOM     22  C   LIG d   1      -2.582  91.014 117.664  0.00  0.00     0.382 C 
ATOM     23  O   LIG d   1      -2.625  89.777 117.872  0.00  0.00    -0.241 OA
ATOM     24  O   LIG d   1      -1.535  91.526 117.226  0.00  0.00    -0.241 OA
ENDBRANCH   3  22
TORSDOF 7
ENDMDL
MODEL 4
REMARK VINA RESULT:      -4.3      2.762      4.272
REMARK  7 active torsions:
REMARK  status: ('A' for Active; 'I' for Inactive)
REMARK    1  A    between atoms: C_2  and  C_3 
REMARK    2  A    between atoms: C_3  and  O_6 
REMARK    3  A    between atoms: C_3  and  C_4 
REMARK    4  A    between atoms: C_7  and  O_6 
REMARK    5  A    between atoms: C_9  and  C_10 
REMARK    6  A    between atoms: N_15  and  C_14 
REMARK    7  A    between atoms: N_20  and  C_19 
REMARK       I    between atoms: C_22  and  N_20 
ROOT
ATOM      1  C   LIG d   1      -3.762  93.613 119.117  0.00  0.00     0.161 C 
ATOM      2  C   LIG d   1      -5.025  93.311 118.581  0.00  0.00     0.016 C 
ATOM      3  C   LIG d   1      -5.226  92.370 117.545  0.00  0.00     0.038 C 
ATOM      4  C   LIG d   1      -4.188  91.552 117.075  0.00  0.00     0.028 C 
ATOM      5  C   LIG d   1      -2.806  92.176 117.233  0.00  0.00    -0.047 C 
ATOM      6  C   LIG d   1      -2.633  92.650 118.695  0.00  0.00     0.091 C 
ENDROOT
BRANCH   1   7
ATOM      7  O   LIG d   1      -3.847  93.686 120.554  0.00  0.00    -0.368 OA
BRANCH   7   8
ATOM      8  C   LIG d   1      -5.084  94.212 121.094  0.00  0.00     0.119 C 
BRANCH   8   9
ATOM      9  C   LIG d   1      -4.816  95.664 121.534  0.00  0.00     0.028 C 
ATOM     10  C   LIG d   1      -5.594  96.687 120.688  0.00  0.00     0.006 C 
ENDBRANCH   8   9
BRANCH   8  11
ATOM     11  C   LIG d   1      -5.495  93.471 122.370  0.00  0.00     0.028 C 
ATOM     12  C   LIG d   1      -6.956  92.997 122.339  0.00  0.00     0.006 C 
ENDBRANCH   8  11
ENDBRANCH   7   8
ENDBRANCH   1   7
BRANCH   6  13
ATOM     13  N   LIG d   1      -1.340  93.348 118.915  0.00  0.00    -0.311 N 
ATOM     14  C   LIG d   1      -0.343  92.834 119.633  0.00  0.00     0.210 C 
ATOM     15  C   LIG d   1       0.896  93.728 119.752  0.00  0.00     0.109 C 
ATOM     16  O   LIG d   1      -0.353  91.709 120.155  0.00  0.00    -0.276 OA
ATOM     17  H   LIG d   1      -1.234  94.253 118.501  0.00  0.00     0.149 HD
ENDBRANCH   6  13
BRANCH   5  18
ATOM     18  N   LIG d   1      -1.811  91.163 116.833  0.00  0.00     0.381 N 
ATOM     19  H   LIG d   1      -0.976  91.615 116.516  0.00  0.00    -0.090 HD
ATOM     20  H   LIG d   1      -2.185  90.623 116.072  0.00  0.00    -0.090 HD
ATOM     21  H   LIG d   1      -1.603  90.566 117.603  0.00  0.00    -0.090 HD
ENDBRANCH   5  18
BRANCH   3  22
ATOM     22  C   LIG d   1      -6.469  92.270 116.939  0.00  0.00     0.382 C 
ATOM     23  O   LIG d   1      -6.944  91.141 116.665  0.00  0.00    -0.241 OA
ATOM     24  O   LIG d   1      -7.103  93.295 116.623  0.00  0.00    -0.241 OA
ENDBRANCH   3  22
TORSDOF 7
ENDMDL
MODEL 5
REMARK VINA RESULT:      -4.3      3.023      5.259
REMARK  7 active torsions:
REMARK  status: ('A' for Active; 'I' for Inactive)
REMARK    1  A    between atoms: C_2  and  C_3 
REMARK    2  A    between atoms: C_3  and  O_6 
REMARK    3  A    between atoms: C_3  and  C_4 
REMARK    4  A    between atoms: C_7  and  O_6 
REMARK    5  A    between atoms: C_9  and  C_10 
REMARK    6  A    between atoms: N_15  and  C_14 
REMARK    7  A    between atoms: N_20  and  C_19 
REMARK       I    between atoms: C_22  and  N_20 
ROOT
ATOM      1  C   LIG d   1      -5.082  93.995 119.154  0.00  0.00     0.161 C 
ATOM      2  C   LIG d   1      -3.806  93.614 118.706  0.00  0.00     0.016 C 
ATOM      3  C   LIG d   1      -3.591  92.659 117.686  0.00  0.00     0.038 C 
ATOM      4  C   LIG d   1      -4.650  92.127 116.935  0.00  0.00     0.028 C 
ATOM      5  C   LIG d   1      -5.975  92.101 117.688  0.00  0.00    -0.047 C 
ATOM      6  C   LIG d   1      -6.249  93.507 118.270  0.00  0.00     0.091 C 
ENDROOT
BRANCH   1   7
ATOM      7  O   LIG d   1      -5.137  95.426 119.312  0.00  0.00    -0.368 OA
BRANCH   7   8
ATOM      8  C   LIG d   1      -4.807  95.935 120.628  0.00  0.00     0.119 C 
BRANCH   8   9
ATOM      9  C   LIG d   1      -6.122  96.382 121.295  0.00  0.00     0.028 C 
ATOM     10  C   LIG d   1      -6.686  95.319 122.253  0.00  0.00     0.006 C 
ENDBRANCH   8   9
BRANCH   8  11
ATOM     11  C   LIG d   1      -3.948  97.199 120.537  0.00  0.00     0.028 C 
ATOM     12  C   LIG d   1      -3.140  97.278 119.232  0.00  0.00     0.006 C 
ENDBRANCH   8  11
ENDBRANCH   7   8
ENDBRANCH   1   7
BRANCH   6  13
ATOM     13  N   LIG d   1      -7.485  93.549 119.094  0.00  0.00    -0.311 N 
ATOM     14  C   LIG d   1      -8.412  94.498 118.977  0.00  0.00     0.210 C 
ATOM     15  C   LIG d   1      -9.599  94.364 119.937  0.00  0.00     0.109 C 
ATOM     16  O   LIG d   1      -8.380  95.420 118.148  0.00  0.00    -0.276 OA
ATOM     17  H   LIG d   1      -7.607  92.821 119.771  0.00  0.00     0.149 HD
ENDBRANCH   6  13
BRANCH   5  18
ATOM     18  N   LIG d   1      -7.016  91.653 116.744  0.00  0.00     0.381 N 
ATOM     19  H   LIG d   1      -7.400  90.782 117.052  0.00  0.00    -0.090 HD
ATOM     20  H   LIG d   1      -6.598  91.512 115.842  0.00  0.00    -0.090 HD
ATOM     21  H   LIG d   1      -7.737  92.338 116.681  0.00  0.00    -0.090 HD
ENDBRANCH   5  18
BRANCH   3  22
ATOM     22  C   LIG d   1      -2.308  92.197 117.436  0.00  0.00     0.382 C 
ATOM     23  O   LIG d   1      -1.366  93.012 117.289  0.00  0.00    -0.241 OA
ATOM     24  O   LIG d   1      -2.089  90.977 117.310  0.00  0.00    -0.241 OA
ENDBRANCH   3  22
TORSDOF 7
ENDMDL
MODEL 6
REMARK VINA RESULT:      -4.2      2.627      4.419
REMARK  7 active torsions:
REMARK  status: ('A' for Active; 'I' for Inactive)
REMARK    1  A    between atoms: C_2  and  C_3 
REMARK    2  A    between atoms: C_3  and  O_6 
REMARK    3  A    between atoms: C_3  and  C_4 
REMARK    4  A    between atoms: C_7  and  O_6 
REMARK    5  A    between atoms: C_9  and  C_10 
REMARK    6  A    between atoms: N_15  and  C_14 
REMARK    7  A    between atoms: N_20  and  C_19 
REMARK       I    between atoms: C_22  and  N_20 
ROOT
ATOM      1  C   LIG d   1      -4.397  93.902 119.065  0.00  0.00     0.161 C 
ATOM      2  C   LIG d   1      -5.584  94.645 119.172  0.00  0.00     0.016 C 
ATOM      3  C   LIG d   1      -6.768  94.327 118.467  0.00  0.00     0.038 C 
ATOM      4  C   LIG d   1      -6.890  93.148 117.717  0.00  0.00     0.028 C 
ATOM      5  C   LIG d   1      -5.560  92.634 117.175  0.00  0.00    -0.047 C 
ATOM      6  C   LIG d   1      -4.545  92.549 118.338  0.00  0.00     0.091 C 
ENDROOT
BRANCH   1   7
ATOM      7  O   LIG d   1      -3.822  93.708 120.372  0.00  0.00    -0.368 OA
BRANCH   7   8
ATOM      8  C   LIG d   1      -4.355  92.605 121.146  0.00  0.00     0.119 C 
BRANCH   8   9
ATOM      9  C   LIG d   1      -4.981  93.196 122.424  0.00  0.00     0.028 C 
ATOM     10  C   LIG d   1      -6.513  93.066 122.440  0.00  0.00     0.006 C 
ENDBRANCH   8   9
BRANCH   8  11
ATOM     11  C   LIG d   1      -3.239  91.676 121.633  0.00  0.00     0.028 C 
ATOM     12  C   LIG d   1      -1.835  92.197 121.285  0.00  0.00     0.006 C 
ENDBRANCH   8  11
ENDBRANCH   7   8
ENDBRANCH   1   7
BRANCH   6  13
ATOM     13  N   LIG d   1      -3.193  92.135 117.880  0.00  0.00    -0.311 N 
ATOM     14  C   LIG d   1      -2.767  90.872 117.898  0.00  0.00     0.210 C 
ATOM     15  C   LIG d   1      -1.333  90.666 117.401  0.00  0.00     0.109 C 
ATOM     16  O   LIG d   1      -3.453  89.900 118.248  0.00  0.00    -0.276 OA
ATOM     17  H   LIG d   1      -2.582  92.856 117.550  0.00  0.00     0.149 HD
ENDBRANCH   6  13
BRANCH   5  18
ATOM     18  N   LIG d   1      -5.814  91.331 116.533  0.00  0.00     0.381 N 
ATOM     19  H   LIG d   1      -5.999  91.464 115.559  0.00  0.00    -0.090 HD
ATOM     20  H   LIG d   1      -6.626  90.914 116.954  0.00  0.00    -0.090 HD
ATOM     21  H   LIG d   1      -5.026  90.733 116.650  0.00  0.00    -0.090 HD
ENDBRANCH   5  18
BRANCH   3  22
ATOM     22  C   LIG d   1      -7.833  95.216 118.476  0.00  0.00     0.382 C 
ATOM     23  O   LIG d   1      -7.804  96.221 119.226  0.00  0.00    -0.241 OA
ATOM     24  O   LIG d   1      -8.841  95.000 117.776  0.00  0.00    -0.241 OA
ENDBRANCH   3  22
TORSDOF 7
ENDMDL
MODEL 7
REMARK VINA RESULT:      -4.2      3.438      5.745
REMARK  7 active torsions:
REMARK  status: ('A' for Active; 'I' for Inactive)
REMARK    1  A    between atoms: C_2  and  C_3 
REMARK    2  A    between atoms: C_3  and  O_6 
REMARK    3  A    between atoms: C_3  and  C_4 
REMARK    4  A    between atoms: C_7  and  O_6 
REMARK    5  A    between atoms: C_9  and  C_10 
REMARK    6  A    between atoms: N_15  and  C_14 
REMARK    7  A    between atoms: N_20  and  C_19 
REMARK       I    between atoms: C_22  and  N_20 
ROOT
ATOM      1  C   LIG d   1      -5.929  95.018 120.217  0.00  0.00     0.161 C 
ATOM      2  C   LIG d   1      -7.246  95.360 120.566  0.00  0.00     0.016 C 
ATOM      3  C   LIG d   1      -8.371  95.036 119.773  0.00  0.00     0.038 C 
ATOM      4  C   LIG d   1      -8.268  94.211 118.643  0.00  0.00     0.028 C 
ATOM      5  C   LIG d   1      -6.898  94.266 117.975  0.00  0.00    -0.047 C 
ATOM      6  C   LIG d   1      -5.809  94.022 119.045  0.00  0.00     0.091 C 
ENDROOT
BRANCH   1   7
ATOM      7  O   LIG d   1      -5.231  94.516 121.374  0.00  0.00    -0.368 OA
BRANCH   7   8
ATOM      8  C   LIG d   1      -5.396  93.105 121.655  0.00  0.00     0.119 C 
BRANCH   8   9
ATOM      9  C   LIG d   1      -6.111  92.984 123.015  0.00  0.00     0.028 C 
ATOM     10  C   LIG d   1      -7.562  92.495 122.873  0.00  0.00     0.006 C 
ENDBRANCH   8   9
BRANCH   8  11
ATOM     11  C   LIG d   1      -4.043  92.413 121.846  0.00  0.00     0.028 C 
ATOM     12  C   LIG d   1      -2.856  93.384 121.732  0.00  0.00     0.006 C 
ENDBRANCH   8  11
ENDBRANCH   7   8
ENDBRANCH   1   7
BRANCH   6  13
ATOM     13  N   LIG d   1      -4.435  94.142 118.492  0.00  0.00    -0.311 N 
ATOM     14  C   LIG d   1      -3.705  93.096 118.108  0.00  0.00     0.210 C 
ATOM     15  C   LIG d   1      -2.307  93.440 117.585  0.00  0.00     0.109 C 
ATOM     16  O   LIG d   1      -4.095  91.918 118.120  0.00  0.00    -0.276 OA
ATOM     17  H   LIG d   1      -4.052  95.064 118.417  0.00  0.00     0.149 HD
ENDBRANCH   6  13
BRANCH   5  18
ATOM     18  N   LIG d   1      -6.887  93.258 116.898  0.00  0.00     0.381 N 
ATOM     19  H   LIG d   1      -7.042  93.704 116.016  0.00  0.00    -0.090 HD
ATOM     20  H   LIG d   1      -7.633  92.604 117.056  0.00  0.00    -0.090 HD
ATOM     21  H   LIG d   1      -6.013  92.780 116.887  0.00  0.00    -0.090 HD
ENDBRANCH   5  18
BRANCH   3  22
ATOM     22  C   LIG d   1      -9.610  95.574 120.086  0.00  0.00     0.382 C 
ATOM     23  O   LIG d   1      -9.685  96.701 120.632  0.00  0.00    -0.241 OA
ATOM     24  O   LIG d   1     -10.652  94.927 119.869  0.00  0.00    -0.241 OA
ENDBRANCH   3  22
TORSDOF 7
ENDMDL
MODEL 8
REMARK VINA RESULT:      -4.1      2.745      5.306
REMARK  7 active torsions:
REMARK  status: ('A' for Active; 'I' for Inactive)
REMARK    1  A    between atoms: C_2  and  C_3 
REMARK    2  A    between atoms: C_3  and  O_6 
REMARK    3  A    between atoms: C_3  and  C_4 
REMARK    4  A    between atoms: C_7  and  O_6 
REMARK    5  A    between atoms: C_9  and  C_10 
REMARK    6  A    between atoms: N_15  and  C_14 
REMARK    7  A    between atoms: N_20  and  C_19 
REMARK       I    between atoms: C_22  and  N_20 
ROOT
ATOM      1  C   LIG d   1      -4.511  93.707 119.295  0.00  0.00     0.161 C 
ATOM      2  C   LIG d   1      -3.323  93.120 118.829  0.00  0.00     0.016 C 
ATOM      3  C   LIG d   1      -3.278  92.200 117.757  0.00  0.00     0.038 C 
ATOM      4  C   LIG d   1      -4.407  91.918 116.974  0.00  0.00     0.028 C 
ATOM      5  C   LIG d   1      -5.724  92.099 117.722  0.00  0.00    -0.047 C 
ATOM      6  C   LIG d   1      -5.738  93.497 118.382  0.00  0.00     0.091 C 
ENDROOT
BRANCH   1   7
ATOM      7  O   LIG d   1      -4.301  95.113 119.535  0.00  0.00    -0.368 OA
BRANCH   7   8
ATOM      8  C   LIG d   1      -2.920  95.547 119.608  0.00  0.00     0.119 C 
BRANCH   8   9
ATOM      9  C   LIG d   1      -2.689  96.118 121.021  0.00  0.00     0.028 C 
ATOM     10  C   LIG d   1      -1.254  95.882 121.521  0.00  0.00     0.006 C 
ENDBRANCH   8   9
BRANCH   8  11
ATOM     11  C   LIG d   1      -2.651  96.711 118.651  0.00  0.00     0.028 C 
ATOM     12  C   LIG d   1      -1.558  96.393 117.618  0.00  0.00     0.006 C 
ENDBRANCH   8  11
ENDBRANCH   7   8
ENDBRANCH   1   7
BRANCH   6  13
ATOM     13  N   LIG d   1      -6.955  93.723 119.204  0.00  0.00    -0.311 N 
ATOM     14  C   LIG d   1      -8.044  94.338 118.747  0.00  0.00     0.210 C 
ATOM     15  C   LIG d   1      -9.179  94.486 119.766  0.00  0.00     0.109 C 
ATOM     16  O   LIG d   1      -8.191  94.747 117.586  0.00  0.00    -0.276 OA
ATOM     17  H   LIG d   1      -6.934  93.396 120.150  0.00  0.00     0.149 HD
ENDBRANCH   6  13
BRANCH   5  18
ATOM     18  N   LIG d   1      -6.818  91.907 116.752  0.00  0.00     0.381 N 
ATOM     19  H   LIG d   1      -6.544  92.262 115.857  0.00  0.00    -0.090 HD
ATOM     20  H   LIG d   1      -7.622  92.423 117.063  0.00  0.00    -0.090 HD
ATOM     21  H   LIG d   1      -7.043  90.939 116.679  0.00  0.00    -0.090 HD
ENDBRANCH   5  18
BRANCH   3  22
ATOM     22  C   LIG d   1      -2.101  91.520 117.483  0.00  0.00     0.382 C 
ATOM     23  O   LIG d   1      -2.065  90.269 117.566  0.00  0.00    -0.241 OA
ATOM     24  O   LIG d   1      -1.062  92.146 117.198  0.00  0.00    -0.241 OA
ENDBRANCH   3  22
TORSDOF 7
ENDMDL
MODEL 9
REMARK VINA RESULT:      -4.0      2.688      5.395
REMARK  7 active torsions:
REMARK  status: ('A' for Active; 'I' for Inactive)
REMARK    1  A    between atoms: C_2  and  C_3 
REMARK    2  A    between atoms: C_3  and  O_6 
REMARK    3  A    between atoms: C_3  and  C_4 
REMARK    4  A    between atoms: C_7  and  O_6 
REMARK    5  A    between atoms: C_9  and  C_10 
REMARK    6  A    between atoms: N_15  and  C_14 
REMARK    7  A    between atoms: N_20  and  C_19 
REMARK       I    between atoms: C_22  and  N_20 
ROOT
ATOM      1  C   LIG d   1      -2.939  90.115 117.993  0.00  0.00     0.161 C 
ATOM      2  C   LIG d   1      -1.597  89.711 117.891  0.00  0.00     0.016 C 
ATOM      3  C   LIG d   1      -0.534  90.605 117.628  0.00  0.00     0.038 C 
ATOM      4  C   LIG d   1      -0.723  91.995 117.598  0.00  0.00     0.028 C 
ATOM      5  C   LIG d   1      -2.135  92.405 117.193  0.00  0.00    -0.047 C 
ATOM      6  C   LIG d   1      -3.151  91.641 118.073  0.00  0.00     0.091 C 
ENDROOT
BRANCH   1   7
ATOM      7  O   LIG d   1      -3.562  89.463 119.117  0.00  0.00    -0.368 OA
BRANCH   7   8
ATOM      8  C   LIG d   1      -2.673  89.035 120.178  0.00  0.00     0.119 C 
BRANCH   8   9
ATOM      9  C   LIG d   1      -3.180  87.671 120.685  0.00  0.00     0.028 C 
ATOM     10  C   LIG d   1      -2.640  87.327 122.083  0.00  0.00     0.006 C 
ENDBRANCH   8   9
BRANCH   8  11
ATOM     11  C   LIG d   1      -2.755  89.973 121.386  0.00  0.00     0.028 C 
ATOM     12  C   LIG d   1      -1.668  91.059 121.372  0.00  0.00     0.006 C 
ENDBRANCH   8  11
ENDBRANCH   7   8
ENDBRANCH   1   7
BRANCH   6  13
ATOM     13  N   LIG d   1      -4.558  91.921 117.686  0.00  0.00    -0.311 N 
ATOM     14  C   LIG d   1      -5.386  92.664 118.419  0.00  0.00     0.210 C 
ATOM     15  C   LIG d   1      -6.800  92.810 117.848  0.00  0.00     0.109 C 
ATOM     16  O   LIG d   1      -5.074  93.243 119.470  0.00  0.00    -0.276 OA
ATOM     17  H   LIG d   1      -4.886  91.516 116.831  0.00  0.00     0.149 HD
ENDBRANCH   6  13
BRANCH   5  18
ATOM     18  N   LIG d   1      -2.232  93.870 117.336  0.00  0.00     0.381 N 
ATOM     19  H   LIG d   1      -2.499  94.101 118.272  0.00  0.00    -0.090 HD
ATOM     20  H   LIG d   1      -2.941  94.211 116.712  0.00  0.00    -0.090 HD
ATOM     21  H   LIG d   1      -1.356  94.292 117.119  0.00  0.00    -0.090 HD
ENDBRANCH   5  18
BRANCH   3  22
ATOM     22  C   LIG d   1       0.730  90.106 117.352  0.00  0.00     0.382 C 
ATOM     23  O   LIG d   1       0.887  89.270 116.430  0.00  0.00    -0.241 OA
ATOM     24  O   LIG d   1       1.709  90.449 118.041  0.00  0.00    -0.241 OA
ENDBRANCH   3  22
TORSDOF 7
ENDMDL
