MODEL 1
REMARK VINA RESULT:      -5.3      0.000      0.000
REMARK  7 active torsions:
REMARK  status: ('A' for Active; 'I' for Inactive)
REMARK    1  A    between atoms: C_2  and  C_3 
REMARK    2  A    between atoms: C_3  and  O_6 
REMARK    3  A    between atoms: C_3  and  C_4 
REMARK    4  A    between atoms: C_7  and  O_6 
REMARK    5  A    between atoms: C_9  and  C_10 
REMARK    6  A    between atoms: N_15  and  C_14 
REMARK    7  A    between atoms: N_20  and  C_19 
REMARK       I    between atoms: C_22  and  N_20 
ROOT
ATOM      1  C   LIG d   1      -6.116  93.119 118.821  0.00  0.00     0.161 C 
ATOM      2  C   LIG d   1      -5.676  91.917 118.243  0.00  0.00     0.016 C 
ATOM      3  C   LIG d   1      -6.325  91.294 117.152  0.00  0.00     0.038 C 
ATOM      4  C   LIG d   1      -7.379  91.915 116.464  0.00  0.00     0.028 C 
ATOM      5  C   LIG d   1      -8.176  92.887 117.327  0.00  0.00    -0.047 C 
ATOM      6  C   LIG d   1      -7.198  93.867 118.013  0.00  0.00     0.091 C 
ENDROOT
BRANCH   1   7
ATOM      7  O   LIG d   1      -4.990  93.983 119.070  0.00  0.00    -0.368 OA
BRANCH   7   8
ATOM      8  C   LIG d   1      -4.374  93.866 120.376  0.00  0.00     0.119 C 
BRANCH   8   9
ATOM      9  C   LIG d   1      -4.953  94.985 121.263  0.00  0.00     0.028 C 
ATOM     10  C   LIG d   1      -5.082  96.321 120.512  0.00  0.00     0.006 C 
ENDBRANCH   8   9
BRANCH   8  11
ATOM     11  C   LIG d   1      -2.868  94.140 120.309  0.00  0.00     0.028 C 
ATOM     12  C   LIG d   1      -2.345  94.238 118.867  0.00  0.00     0.006 C 
ENDBRANCH   8  11
ENDBRANCH   7   8
ENDBRANCH   1   7
BRANCH   6  13
ATOM     13  N   LIG d   1      -7.888  94.799 118.942  0.00  0.00    -0.311 N 
ATOM     14  C   LIG d   1      -8.902  94.436 119.726  0.00  0.00     0.210 C 
ATOM     15  C   LIG d   1      -9.483  95.558 120.593  0.00  0.00     0.109 C 
ATOM     16  O   LIG d   1      -9.353  93.284 119.811  0.00  0.00    -0.276 OA
ATOM     17  H   LIG d   1      -7.565  95.747 118.961  0.00  0.00     0.149 HD
ENDBRANCH   6  13
BRANCH   5  18
ATOM     18  N   LIG d   1      -9.152  93.563 116.451  0.00  0.00     0.381 N 
ATOM     19  H   LIG d   1      -9.498  94.386 116.901  0.00  0.00    -0.090 HD
ATOM     20  H   LIG d   1      -9.926  92.943 116.288  0.00  0.00    -0.090 HD
ATOM     21  H   LIG d   1      -8.723  93.805 115.585  0.00  0.00    -0.090 HD
ENDBRANCH   5  18
BRANCH   3  22
ATOM     22  C   LIG d   1      -5.946  90.018 116.764  0.00  0.00     0.382 C 
ATOM     23  O   LIG d   1      -6.818  89.180 116.431  0.00  0.00    -0.241 OA
ATOM     24  O   LIG d   1      -4.748  89.681 116.785  0.00  0.00    -0.241 OA
ENDBRANCH   3  22
TORSDOF 7
ENDMDL
MODEL 2
REMARK VINA RESULT:      -5.2      2.502      4.688
REMARK  7 active torsions:
REMARK  status: ('A' for Active; 'I' for Inactive)
REMARK    1  A    between atoms: C_2  and  C_3 
REMARK    2  A    between atoms: C_3  and  O_6 
REMARK    3  A    between atoms: C_3  and  C_4 
REMARK    4  A    between atoms: C_7  and  O_6 
REMARK    5  A    between atoms: C_9  and  C_10 
REMARK    6  A    between atoms: N_15  and  C_14 
REMARK    7  A    between atoms: N_20  and  C_19 
REMARK       I    between atoms: C_22  and  N_20 
ROOT
ATOM      1  C   LIG d   1      -5.338  93.630 120.001  0.00  0.00     0.161 C 
ATOM      2  C   LIG d   1      -6.568  93.147 119.526  0.00  0.00     0.016 C 
ATOM      3  C   LIG d   1      -7.502  93.950 118.831  0.00  0.00     0.038 C 
ATOM      4  C   LIG d   1      -7.201  95.260 118.429  0.00  0.00     0.028 C 
ATOM      5  C   LIG d   1      -6.176  95.947 119.326  0.00  0.00    -0.047 C 
ATOM      6  C   LIG d   1      -4.944  95.026 119.476  0.00  0.00     0.091 C 
ENDROOT
BRANCH   1   7
ATOM      7  O   LIG d   1      -4.296  92.675 119.717  0.00  0.00    -0.368 OA
BRANCH   7   8
ATOM      8  C   LIG d   1      -3.924  92.533 118.324  0.00  0.00     0.119 C 
BRANCH   8   9
ATOM      9  C   LIG d   1      -3.970  91.031 117.983  0.00  0.00     0.028 C 
ATOM     10  C   LIG d   1      -5.088  90.690 116.983  0.00  0.00     0.006 C 
ENDBRANCH   8   9
BRANCH   8  11
ATOM     11  C   LIG d   1      -2.472  92.959 118.088  0.00  0.00     0.028 C 
ATOM     12  C   LIG d   1      -1.611  92.869 119.358  0.00  0.00     0.006 C 
ENDBRANCH   8  11
ENDBRANCH   7   8
ENDBRANCH   1   7
BRANCH   6  13
ATOM     13  N   LIG d   1      -3.928  95.586 120.406  0.00  0.00    -0.311 N 
ATOM     14  C   LIG d   1      -2.882  96.305 120.002  0.00  0.00     0.210 C 
ATOM     15  C   LIG d   1      -1.946  96.769 121.122  0.00  0.00     0.109 C 
ATOM     16  O   LIG d   1      -2.658  96.629 118.826  0.00  0.00    -0.276 OA
ATOM     17  H   LIG d   1      -4.050  95.398 121.382  0.00  0.00     0.149 HD
ENDBRANCH   6  13
BRANCH   5  18
ATOM     18  N   LIG d   1      -5.853  97.250 118.715  0.00  0.00     0.381 N 
ATOM     19  H   LIG d   1      -6.011  97.210 117.728  0.00  0.00    -0.090 HD
ATOM     20  H   LIG d   1      -4.881  97.450 118.871  0.00  0.00    -0.090 HD
ATOM     21  H   LIG d   1      -6.416  97.966 119.120  0.00  0.00    -0.090 HD
ENDBRANCH   5  18
BRANCH   3  22
ATOM     22  C   LIG d   1      -8.770  93.455 118.565  0.00  0.00     0.382 C 
ATOM     23  O   LIG d   1      -9.546  93.178 119.511  0.00  0.00    -0.241 OA
ATOM     24  O   LIG d   1      -9.131  93.240 117.392  0.00  0.00    -0.241 OA
ENDBRANCH   3  22
TORSDOF 7
ENDMDL
MODEL 3
REMARK VINA RESULT:      -5.2      1.668      2.135
REMARK  7 active torsions:
REMARK  status: ('A' for Active; 'I' for Inactive)
REMARK    1  A    between atoms: C_2  and  C_3 
REMARK    2  A    between atoms: C_3  and  O_6 
REMARK    3  A    between atoms: C_3  and  C_4 
REMARK    4  A    between atoms: C_7  and  O_6 
REMARK    5  A    between atoms: C_9  and  C_10 
REMARK    6  A    between atoms: N_15  and  C_14 
REMARK    7  A    between atoms: N_20  and  C_19 
REMARK       I    between atoms: C_22  and  N_20 
ROOT
ATOM      1  C   LIG d   1      -5.609  92.836 119.017  0.00  0.00     0.161 C 
ATOM      2  C   LIG d   1      -5.360  91.659 118.291  0.00  0.00     0.016 C 
ATOM      3  C   LIG d   1      -6.158  91.230 117.206  0.00  0.00     0.038 C 
ATOM      4  C   LIG d   1      -7.178  92.032 116.673  0.00  0.00     0.028 C 
ATOM      5  C   LIG d   1      -7.787  92.992 117.689  0.00  0.00    -0.047 C 
ATOM      6  C   LIG d   1      -6.650  93.780 118.380  0.00  0.00     0.091 C 
ENDROOT
BRANCH   1   7
ATOM      7  O   LIG d   1      -4.372  93.538 119.249  0.00  0.00    -0.368 OA
BRANCH   7   8
ATOM      8  C   LIG d   1      -3.159  92.819 118.918  0.00  0.00     0.119 C 
BRANCH   8   9
ATOM      9  C   LIG d   1      -2.387  92.585 120.231  0.00  0.00     0.028 C 
ATOM     10  C   LIG d   1      -2.207  91.091 120.548  0.00  0.00     0.006 C 
ENDBRANCH   8   9
BRANCH   8  11
ATOM     11  C   LIG d   1      -2.229  93.667 118.046  0.00  0.00     0.028 C 
ATOM     12  C   LIG d   1      -1.740  94.938 118.757  0.00  0.00     0.006 C 
ENDBRANCH   8  11
ENDBRANCH   7   8
ENDBRANCH   1   7
BRANCH   6  13
ATOM     13  N   LIG d   1      -7.153  94.682 119.449  0.00  0.00    -0.311 N 
ATOM     14  C   LIG d   1      -7.351  95.987 119.273  0.00  0.00     0.210 C 
ATOM     15  C   LIG d   1      -7.855  96.737 120.511  0.00  0.00     0.109 C 
ATOM     16  O   LIG d   1      -7.188  96.590 118.202  0.00  0.00    -0.276 OA
ATOM     17  H   LIG d   1      -7.342  94.270 120.341  0.00  0.00     0.149 HD
ENDBRANCH   6  13
BRANCH   5  18
ATOM     18  N   LIG d   1      -8.737  93.860 116.969  0.00  0.00     0.381 N 
ATOM     19  H   LIG d   1      -9.589  93.363 116.799  0.00  0.00    -0.090 HD
ATOM     20  H   LIG d   1      -8.338  94.114 116.082  0.00  0.00    -0.090 HD
ATOM     21  H   LIG d   1      -8.924  94.680 117.504  0.00  0.00    -0.090 HD
ENDBRANCH   5  18
BRANCH   3  22
ATOM     22  C   LIG d   1      -5.964  89.967 116.668  0.00  0.00     0.382 C 
ATOM     23  O   LIG d   1      -6.951  89.229 116.430  0.00  0.00    -0.241 OA
ATOM     24  O   LIG d   1      -4.814  89.539 116.459  0.00  0.00    -0.241 OA
ENDBRANCH   3  22
TORSDOF 7
ENDMDL
MODEL 4
REMARK VINA RESULT:      -5.1      2.494      4.330
REMARK  7 active torsions:
REMARK  status: ('A' for Active; 'I' for Inactive)
REMARK    1  A    between atoms: C_2  and  C_3 
REMARK    2  A    between atoms: C_3  and  O_6 
REMARK    3  A    between atoms: C_3  and  C_4 
REMARK    4  A    between atoms: C_7  and  O_6 
REMARK    5  A    between atoms: C_9  and  C_10 
REMARK    6  A    between atoms: N_15  and  C_14 
REMARK    7  A    between atoms: N_20  and  C_19 
REMARK       I    between atoms: C_22  and  N_20 
ROOT
ATOM      1  C   LIG d   1      -5.623  94.139 118.518  0.00  0.00     0.161 C 
ATOM      2  C   LIG d   1      -6.912  93.764 118.105  0.00  0.00     0.016 C 
ATOM      3  C   LIG d   1      -7.188  92.564 117.409  0.00  0.00     0.038 C 
ATOM      4  C   LIG d   1      -6.208  91.580 117.211  0.00  0.00     0.028 C 
ATOM      5  C   LIG d   1      -4.790  92.138 117.165  0.00  0.00    -0.047 C 
ATOM      6  C   LIG d   1      -4.559  93.026 118.409  0.00  0.00     0.091 C 
ENDROOT
BRANCH   1   7
ATOM      7  O   LIG d   1      -5.672  94.655 119.863  0.00  0.00    -0.368 OA
BRANCH   7   8
ATOM      8  C   LIG d   1      -6.712  94.116 120.715  0.00  0.00     0.119 C 
BRANCH   8   9
ATOM      9  C   LIG d   1      -7.403  95.304 121.411  0.00  0.00     0.028 C 
ATOM     10  C   LIG d   1      -8.677  95.754 120.678  0.00  0.00     0.006 C 
ENDBRANCH   8   9
BRANCH   8  11
ATOM     11  C   LIG d   1      -6.121  93.270 121.847  0.00  0.00     0.028 C 
ATOM     12  C   LIG d   1      -6.109  91.767 121.524  0.00  0.00     0.006 C 
ENDBRANCH   8  11
ENDBRANCH   7   8
ENDBRANCH   1   7
BRANCH   6  13
ATOM     13  N   LIG d   1      -3.224  93.680 118.400  0.00  0.00    -0.311 N 
ATOM     14  C   LIG d   1      -2.365  93.606 119.415  0.00  0.00     0.210 C 
ATOM     15  C   LIG d   1      -1.053  94.369 119.208  0.00  0.00     0.109 C 
ATOM     16  O   LIG d   1      -2.552  92.955 120.454  0.00  0.00    -0.276 OA
ATOM     17  H   LIG d   1      -2.978  94.203 117.582  0.00  0.00     0.149 HD
ENDBRANCH   6  13
BRANCH   5  18
ATOM     18  N   LIG d   1      -3.862  90.993 117.093  0.00  0.00     0.381 N 
ATOM     19  H   LIG d   1      -4.379  90.145 116.968  0.00  0.00    -0.090 HD
ATOM     20  H   LIG d   1      -3.357  90.928 117.960  0.00  0.00    -0.090 HD
ATOM     21  H   LIG d   1      -3.225  91.116 116.337  0.00  0.00    -0.090 HD
ENDBRANCH   5  18
BRANCH   3  22
ATOM     22  C   LIG d   1      -8.448  92.357 116.868  0.00  0.00     0.382 C 
ATOM     23  O   LIG d   1      -9.286  93.290 116.858  0.00  0.00    -0.241 OA
ATOM     24  O   LIG d   1      -8.771  91.237 116.430  0.00  0.00    -0.241 OA
ENDBRANCH   3  22
TORSDOF 7
ENDMDL
MODEL 5
REMARK VINA RESULT:      -5.0      2.800      4.610
REMARK  7 active torsions:
REMARK  status: ('A' for Active; 'I' for Inactive)
REMARK    1  A    between atoms: C_2  and  C_3 
REMARK    2  A    between atoms: C_3  and  O_6 
REMARK    3  A    between atoms: C_3  and  C_4 
REMARK    4  A    between atoms: C_7  and  O_6 
REMARK    5  A    between atoms: C_9  and  C_10 
REMARK    6  A    between atoms: N_15  and  C_14 
REMARK    7  A    between atoms: N_20  and  C_19 
REMARK       I    between atoms: C_22  and  N_20 
ROOT
ATOM      1  C   LIG d   1      -4.832  93.146 118.303  0.00  0.00     0.161 C 
ATOM      2  C   LIG d   1      -6.203  93.171 117.999  0.00  0.00     0.016 C 
ATOM      3  C   LIG d   1      -6.850  92.172 117.236  0.00  0.00     0.038 C 
ATOM      4  C   LIG d   1      -6.194  90.994 116.849  0.00  0.00     0.028 C 
ATOM      5  C   LIG d   1      -4.686  91.161 116.700  0.00  0.00    -0.047 C 
ATOM      6  C   LIG d   1      -4.124  91.812 117.984  0.00  0.00     0.091 C 
ENDROOT
BRANCH   1   7
ATOM      7  O   LIG d   1      -4.631  93.502 119.685  0.00  0.00    -0.368 OA
BRANCH   7   8
ATOM      8  C   LIG d   1      -4.755  92.425 120.646  0.00  0.00     0.119 C 
BRANCH   8   9
ATOM      9  C   LIG d   1      -5.963  92.745 121.547  0.00  0.00     0.028 C 
ATOM     10  C   LIG d   1      -6.244  94.255 121.636  0.00  0.00     0.006 C 
ENDBRANCH   8   9
BRANCH   8  11
ATOM     11  C   LIG d   1      -3.548  92.376 121.587  0.00  0.00     0.028 C 
ATOM     12  C   LIG d   1      -2.499  93.453 121.268  0.00  0.00     0.006 C 
ENDBRANCH   8  11
ENDBRANCH   7   8
ENDBRANCH   1   7
BRANCH   6  13
ATOM     13  N   LIG d   1      -2.666  92.088 117.889  0.00  0.00    -0.311 N 
ATOM     14  C   LIG d   1      -1.732  91.272 118.372  0.00  0.00     0.210 C 
ATOM     15  C   LIG d   1      -0.291  91.755 118.185  0.00  0.00     0.109 C 
ATOM     16  O   LIG d   1      -1.959  90.177 118.909  0.00  0.00    -0.276 OA
ATOM     17  H   LIG d   1      -2.392  92.940 117.440  0.00  0.00     0.149 HD
ENDBRANCH   6  13
BRANCH   5  18
ATOM     18  N   LIG d   1      -4.114  89.828 116.430  0.00  0.00     0.381 N 
ATOM     19  H   LIG d   1      -4.824  89.222 116.069  0.00  0.00    -0.090 HD
ATOM     20  H   LIG d   1      -3.776  89.439 117.292  0.00  0.00    -0.090 HD
ATOM     21  H   LIG d   1      -3.367  89.904 115.775  0.00  0.00    -0.090 HD
ENDBRANCH   5  18
BRANCH   3  22
ATOM     22  C   LIG d   1      -8.157  92.366 116.817  0.00  0.00     0.382 C 
ATOM     23  O   LIG d   1      -8.669  93.510 116.868  0.00  0.00    -0.241 OA
ATOM     24  O   LIG d   1      -8.846  91.403 116.431  0.00  0.00    -0.241 OA
ENDBRANCH   3  22
TORSDOF 7
ENDMDL
MODEL 6
REMARK VINA RESULT:      -4.8      2.162      3.127
REMARK  7 active torsions:
REMARK  status: ('A' for Active; 'I' for Inactive)
REMARK    1  A    between atoms: C_2  and  C_3 
REMARK    2  A    between atoms: C_3  and  O_6 
REMARK    3  A    between atoms: C_3  and  C_4 
REMARK    4  A    between atoms: C_7  and  O_6 
REMARK    5  A    between atoms: C_9  and  C_10 
REMARK    6  A    between atoms: N_15  and  C_14 
REMARK    7  A    between atoms: N_20  and  C_19 
REMARK       I    between atoms: C_22  and  N_20 
ROOT
ATOM      1  C   LIG d   1      -4.607  91.513 119.794  0.00  0.00     0.161 C 
ATOM      2  C   LIG d   1      -3.549  90.672 119.409  0.00  0.00     0.016 C 
ATOM      3  C   LIG d   1      -3.465  90.059 118.137  0.00  0.00     0.038 C 
ATOM      4  C   LIG d   1      -4.363  90.368 117.105  0.00  0.00     0.028 C 
ATOM      5  C   LIG d   1      -5.731  90.820 117.606  0.00  0.00    -0.047 C 
ATOM      6  C   LIG d   1      -5.537  91.950 118.643  0.00  0.00     0.091 C 
ENDROOT
BRANCH   1   7
ATOM      7  O   LIG d   1      -4.087  92.667 120.484  0.00  0.00    -0.368 OA
BRANCH   7   8
ATOM      8  C   LIG d   1      -3.853  93.843 119.672  0.00  0.00     0.119 C 
BRANCH   8   9
ATOM      9  C   LIG d   1      -2.330  94.070 119.615  0.00  0.00     0.028 C 
ATOM     10  C   LIG d   1      -1.743  93.769 118.225  0.00  0.00     0.006 C 
ENDBRANCH   8   9
BRANCH   8  11
ATOM     11  C   LIG d   1      -4.426  95.100 120.333  0.00  0.00     0.028 C 
ATOM     12  C   LIG d   1      -5.234  94.790 121.603  0.00  0.00     0.006 C 
ENDBRANCH   8  11
ENDBRANCH   7   8
ENDBRANCH   1   7
BRANCH   6  13
ATOM     13  N   LIG d   1      -6.822  92.392 119.246  0.00  0.00    -0.311 N 
ATOM     14  C   LIG d   1      -7.511  93.446 118.813  0.00  0.00     0.210 C 
ATOM     15  C   LIG d   1      -8.799  93.739 119.588  0.00  0.00     0.109 C 
ATOM     16  O   LIG d   1      -7.195  94.146 117.839  0.00  0.00    -0.276 OA
ATOM     17  H   LIG d   1      -7.168  91.861 120.022  0.00  0.00     0.149 HD
ENDBRANCH   6  13
BRANCH   5  18
ATOM     18  N   LIG d   1      -6.519  91.241 116.433  0.00  0.00     0.381 N 
ATOM     19  H   LIG d   1      -6.101  90.882 115.598  0.00  0.00    -0.090 HD
ATOM     20  H   LIG d   1      -6.515  92.244 116.381  0.00  0.00    -0.090 HD
ATOM     21  H   LIG d   1      -7.455  90.908 116.513  0.00  0.00    -0.090 HD
ENDBRANCH   5  18
BRANCH   3  22
ATOM     22  C   LIG d   1      -2.497  89.095 117.902  0.00  0.00     0.382 C 
ATOM     23  O   LIG d   1      -2.733  87.892 118.167  0.00  0.00    -0.241 OA
ATOM     24  O   LIG d   1      -1.375  89.419 117.469  0.00  0.00    -0.241 OA
ENDBRANCH   3  22
TORSDOF 7
ENDMDL
MODEL 7
REMARK VINA RESULT:      -4.7      2.138      2.671
REMARK  7 active torsions:
REMARK  status: ('A' for Active; 'I' for Inactive)
REMARK    1  A    between atoms: C_2  and  C_3 
REMARK    2  A    between atoms: C_3  and  O_6 
REMARK    3  A    between atoms: C_3  and  C_4 
REMARK    4  A    between atoms: C_7  and  O_6 
REMARK    5  A    between atoms: C_9  and  C_10 
REMARK    6  A    between atoms: N_15  and  C_14 
REMARK    7  A    between atoms: N_20  and  C_19 
REMARK       I    between atoms: C_22  and  N_20 
ROOT
ATOM      1  C   LIG d   1      -4.347  92.288 118.884  0.00  0.00     0.161 C 
ATOM      2  C   LIG d   1      -3.299  91.415 118.546  0.00  0.00     0.016 C 
ATOM      3  C   LIG d   1      -3.456  90.309 117.680  0.00  0.00     0.038 C 
ATOM      4  C   LIG d   1      -4.644  90.088 116.968  0.00  0.00     0.028 C 
ATOM      5  C   LIG d   1      -5.880  90.648 117.663  0.00  0.00    -0.047 C 
ATOM      6  C   LIG d   1      -5.622  92.127 118.030  0.00  0.00     0.091 C 
ENDROOT
BRANCH   1   7
ATOM      7  O   LIG d   1      -3.882  93.651 118.838  0.00  0.00    -0.368 OA
BRANCH   7   8
ATOM      8  C   LIG d   1      -3.707  94.308 120.117  0.00  0.00     0.119 C 
BRANCH   8   9
ATOM      9  C   LIG d   1      -4.771  95.419 120.215  0.00  0.00     0.028 C 
ATOM     10  C   LIG d   1      -5.817  95.135 121.307  0.00  0.00     0.006 C 
ENDBRANCH   8   9
BRANCH   8  11
ATOM     11  C   LIG d   1      -2.359  95.030 120.194  0.00  0.00     0.028 C 
ATOM     12  C   LIG d   1      -2.247  96.191 119.193  0.00  0.00     0.006 C 
ENDBRANCH   8  11
ENDBRANCH   7   8
ENDBRANCH   1   7
BRANCH   6  13
ATOM     13  N   LIG d   1      -6.750  92.728 118.788  0.00  0.00    -0.311 N 
ATOM     14  C   LIG d   1      -7.764  93.370 118.210  0.00  0.00     0.210 C 
ATOM     15  C   LIG d   1      -8.811  93.930 119.177  0.00  0.00     0.109 C 
ATOM     16  O   LIG d   1      -7.911  93.500 116.985  0.00  0.00    -0.276 OA
ATOM     17  H   LIG d   1      -6.726  92.642 119.786  0.00  0.00     0.149 HD
ENDBRANCH   6  13
BRANCH   5  18
ATOM     18  N   LIG d   1      -7.024  90.470 116.749  0.00  0.00     0.381 N 
ATOM     19  H   LIG d   1      -6.759  90.727 115.819  0.00  0.00    -0.090 HD
ATOM     20  H   LIG d   1      -7.772  91.074 117.042  0.00  0.00    -0.090 HD
ATOM     21  H   LIG d   1      -7.329  89.522 116.765  0.00  0.00    -0.090 HD
ENDBRANCH   5  18
BRANCH   3  22
ATOM     22  C   LIG d   1      -2.428  89.387 117.549  0.00  0.00     0.382 C 
ATOM     23  O   LIG d   1      -2.670  88.160 117.650  0.00  0.00    -0.241 OA
ATOM     24  O   LIG d   1      -1.255  89.769 117.377  0.00  0.00    -0.241 OA
ENDBRANCH   3  22
TORSDOF 7
ENDMDL
MODEL 8
REMARK VINA RESULT:      -4.6      4.392      6.798
REMARK  7 active torsions:
REMARK  status: ('A' for Active; 'I' for Inactive)
REMARK    1  A    between atoms: C_2  and  C_3 
REMARK    2  A    between atoms: C_3  and  O_6 
REMARK    3  A    between atoms: C_3  and  C_4 
REMARK    4  A    between atoms: C_7  and  O_6 
REMARK    5  A    between atoms: C_9  and  C_10 
REMARK    6  A    between atoms: N_15  and  C_14 
REMARK    7  A    between atoms: N_20  and  C_19 
REMARK       I    between atoms: C_22  and  N_20 
ROOT
ATOM      1  C   LIG d   1      -2.874  89.884 118.171  0.00  0.00     0.161 C 
ATOM      2  C   LIG d   1      -4.128  89.750 117.552  0.00  0.00     0.016 C 
ATOM      3  C   LIG d   1      -4.942  90.849 117.196  0.00  0.00     0.038 C 
ATOM      4  C   LIG d   1      -4.488  92.172 117.300  0.00  0.00     0.028 C 
ATOM      5  C   LIG d   1      -3.434  92.368 118.385  0.00  0.00    -0.047 C 
ATOM      6  C   LIG d   1      -2.313  91.322 118.190  0.00  0.00     0.091 C 
ENDROOT
BRANCH   1   7
ATOM      7  O   LIG d   1      -1.928  88.986 117.559  0.00  0.00    -0.368 OA
BRANCH   7   8
ATOM      8  C   LIG d   1      -1.762  87.699 118.204  0.00  0.00     0.119 C 
BRANCH   8   9
ATOM      9  C   LIG d   1      -0.386  87.702 118.897  0.00  0.00     0.028 C 
ATOM     10  C   LIG d   1      -0.493  87.934 120.414  0.00  0.00     0.006 C 
ENDBRANCH   8   9
BRANCH   8  11
ATOM     11  C   LIG d   1      -1.696  86.565 117.177  0.00  0.00     0.028 C 
ATOM     12  C   LIG d   1      -0.386  85.765 117.256  0.00  0.00     0.006 C 
ENDBRANCH   8  11
ENDBRANCH   7   8
ENDBRANCH   1   7
BRANCH   6  13
ATOM     13  N   LIG d   1      -1.284  91.389 119.260  0.00  0.00    -0.311 N 
ATOM     14  C   LIG d   1       0.025  91.413 119.017  0.00  0.00     0.210 C 
ATOM     15  C   LIG d   1       0.914  91.462 120.264  0.00  0.00     0.109 C 
ATOM     16  O   LIG d   1       0.535  91.430 117.887  0.00  0.00    -0.276 OA
ATOM     17  H   LIG d   1      -1.610  91.410 120.207  0.00  0.00     0.149 HD
ENDBRANCH   6  13
BRANCH   5  18
ATOM     18  N   LIG d   1      -2.950  93.758 118.290  0.00  0.00     0.381 N 
ATOM     19  H   LIG d   1      -2.007  93.812 118.618  0.00  0.00    -0.090 HD
ATOM     20  H   LIG d   1      -3.521  94.342 118.876  0.00  0.00    -0.090 HD
ATOM     21  H   LIG d   1      -3.000  94.073 117.346  0.00  0.00    -0.090 HD
ENDBRANCH   5  18
BRANCH   3  22
ATOM     22  C   LIG d   1      -6.243  90.631 116.768  0.00  0.00     0.382 C 
ATOM     23  O   LIG d   1      -6.607  89.479 116.430  0.00  0.00    -0.241 OA
ATOM     24  O   LIG d   1      -7.044  91.580 116.673  0.00  0.00    -0.241 OA
ENDBRANCH   3  22
TORSDOF 7
ENDMDL
MODEL 9
REMARK VINA RESULT:      -4.5      2.651      4.714
REMARK  7 active torsions:
REMARK  status: ('A' for Active; 'I' for Inactive)
REMARK    1  A    between atoms: C_2  and  C_3 
REMARK    2  A    between atoms: C_3  and  O_6 
REMARK    3  A    between atoms: C_3  and  C_4 
REMARK    4  A    between atoms: C_7  and  O_6 
REMARK    5  A    between atoms: C_9  and  C_10 
REMARK    6  A    between atoms: N_15  and  C_14 
REMARK    7  A    between atoms: N_20  and  C_19 
REMARK       I    between atoms: C_22  and  N_20 
ROOT
ATOM      1  C   LIG d   1      -5.265  93.274 119.772  0.00  0.00     0.161 C 
ATOM      2  C   LIG d   1      -6.557  92.902 119.365  0.00  0.00     0.016 C 
ATOM      3  C   LIG d   1      -7.482  93.805 118.792  0.00  0.00     0.038 C 
ATOM      4  C   LIG d   1      -7.122  95.116 118.446  0.00  0.00     0.028 C 
ATOM      5  C   LIG d   1      -5.990  95.678 119.300  0.00  0.00    -0.047 C 
ATOM      6  C   LIG d   1      -4.816  94.673 119.301  0.00  0.00     0.091 C 
ENDROOT
BRANCH   1   7
ATOM      7  O   LIG d   1      -4.315  92.275 119.353  0.00  0.00    -0.368 OA
BRANCH   7   8
ATOM      8  C   LIG d   1      -3.913  91.314 120.361  0.00  0.00     0.119 C 
BRANCH   8   9
ATOM      9  C   LIG d   1      -4.081  91.989 121.736  0.00  0.00     0.028 C 
ATOM     10  C   LIG d   1      -4.712  91.049 122.778  0.00  0.00     0.006 C 
ENDBRANCH   8   9
BRANCH   8  11
ATOM     11  C   LIG d   1      -2.423  90.982 120.251  0.00  0.00     0.028 C 
ATOM     12  C   LIG d   1      -2.153  89.470 120.181  0.00  0.00     0.006 C 
ENDBRANCH   8  11
ENDBRANCH   7   8
ENDBRANCH   1   7
BRANCH   6  13
ATOM     13  N   LIG d   1      -3.700  95.107 120.182  0.00  0.00    -0.311 N 
ATOM     14  C   LIG d   1      -2.421  95.085 119.809  0.00  0.00     0.210 C 
ATOM     15  C   LIG d   1      -1.428  95.555 120.876  0.00  0.00     0.109 C 
ATOM     16  O   LIG d   1      -2.018  94.751 118.684  0.00  0.00    -0.276 OA
ATOM     17  H   LIG d   1      -3.940  95.422 121.101  0.00  0.00     0.149 HD
ENDBRANCH   6  13
BRANCH   5  18
ATOM     18  N   LIG d   1      -5.624  96.995 118.744  0.00  0.00     0.381 N 
ATOM     19  H   LIG d   1      -4.879  97.393 119.281  0.00  0.00    -0.090 HD
ATOM     20  H   LIG d   1      -6.419  97.606 118.805  0.00  0.00    -0.090 HD
ATOM     21  H   LIG d   1      -5.343  96.897 117.793  0.00  0.00    -0.090 HD
ENDBRANCH   5  18
BRANCH   3  22
ATOM     22  C   LIG d   1      -8.797  93.410 118.595  0.00  0.00     0.382 C 
ATOM     23  O   LIG d   1      -9.540  93.192 119.582  0.00  0.00    -0.241 OA
ATOM     24  O   LIG d   1      -9.236  93.226 117.444  0.00  0.00    -0.241 OA
ENDBRANCH   3  22
TORSDOF 7
ENDMDL
