MODEL 1
REMARK VINA RESULT:      -4.5      0.000      0.000
REMARK  7 active torsions:
REMARK  status: ('A' for Active; 'I' for Inactive)
REMARK    1  A    between atoms: C_2  and  C_3 
REMARK    2  A    between atoms: C_3  and  O_6 
REMARK    3  A    between atoms: C_3  and  C_4 
REMARK    4  A    between atoms: C_7  and  O_6 
REMARK    5  A    between atoms: C_9  and  C_10 
REMARK    6  A    between atoms: N_15  and  C_14 
REMARK    7  A    between atoms: N_20  and  C_19 
REMARK       I    between atoms: C_22  and  N_20 
ROOT
ATOM      1  C   LIG d   1       0.524  92.545 118.807  0.00  0.00     0.161 C 
ATOM      2  C   LIG d   1      -0.744  92.101 118.397  0.00  0.00     0.016 C 
ATOM      3  C   LIG d   1      -1.068  90.738 118.208  0.00  0.00     0.038 C 
ATOM      4  C   LIG d   1      -0.183  89.709 118.564  0.00  0.00     0.028 C 
ATOM      5  C   LIG d   1       1.283  90.124 118.504  0.00  0.00    -0.047 C 
ATOM      6  C   LIG d   1       1.468  91.432 119.307  0.00  0.00     0.091 C 
ENDROOT
BRANCH   1   7
ATOM      7  O   LIG d   1       0.382  93.570 119.810  0.00  0.00    -0.368 OA
BRANCH   7   8
ATOM      8  C   LIG d   1      -0.866  93.573 120.546  0.00  0.00     0.119 C 
BRANCH   8   9
ATOM      9  C   LIG d   1      -1.319  95.039 120.684  0.00  0.00     0.028 C 
ATOM     10  C   LIG d   1      -1.905  95.597 119.376  0.00  0.00     0.006 C 
ENDBRANCH   8   9
BRANCH   8  11
ATOM     11  C   LIG d   1      -0.668  93.073 121.980  0.00  0.00     0.028 C 
ATOM     12  C   LIG d   1      -1.091  91.607 122.165  0.00  0.00     0.006 C 
ENDBRANCH   8  11
ENDBRANCH   7   8
ENDBRANCH   1   7
BRANCH   6  13
ATOM     13  N   LIG d   1       2.858  91.952 119.230  0.00  0.00    -0.311 N 
ATOM     14  C   LIG d   1       3.430  92.349 118.094  0.00  0.00     0.210 C 
ATOM     15  C   LIG d   1       4.877  92.833 118.234  0.00  0.00     0.109 C 
ATOM     16  O   LIG d   1       2.866  92.376 116.990  0.00  0.00    -0.276 OA
ATOM     17  H   LIG d   1       3.378  91.994 120.084  0.00  0.00     0.149 HD
ENDBRANCH   6  13
BRANCH   5  18
ATOM     18  N   LIG d   1       2.085  89.003 119.030  0.00  0.00     0.381 N 
ATOM     19  H   LIG d   1       2.827  88.789 118.394  0.00  0.00    -0.090 HD
ATOM     20  H   LIG d   1       1.497  88.193 119.113  0.00  0.00    -0.090 HD
ATOM     21  H   LIG d   1       2.461  89.242 119.922  0.00  0.00    -0.090 HD
ENDBRANCH   5  18
BRANCH   3  22
ATOM     22  C   LIG d   1      -2.275  90.393 117.619  0.00  0.00     0.382 C 
ATOM     23  O   LIG d   1      -3.254  91.175 117.693  0.00  0.00    -0.241 OA
ATOM     24  O   LIG d   1      -2.411  89.292 117.053  0.00  0.00    -0.241 OA
ENDBRANCH   3  22
TORSDOF 7
ENDMDL
MODEL 2
REMARK VINA RESULT:      -4.4      2.168      4.946
REMARK  7 active torsions:
REMARK  status: ('A' for Active; 'I' for Inactive)
REMARK    1  A    between atoms: C_2  and  C_3 
REMARK    2  A    between atoms: C_3  and  O_6 
REMARK    3  A    between atoms: C_3  and  C_4 
REMARK    4  A    between atoms: C_7  and  O_6 
REMARK    5  A    between atoms: C_9  and  C_10 
REMARK    6  A    between atoms: N_15  and  C_14 
REMARK    7  A    between atoms: N_20  and  C_19 
REMARK       I    between atoms: C_22  and  N_20 
ROOT
ATOM      1  C   LIG d   1      -0.232  93.296 118.428  0.00  0.00     0.161 C 
ATOM      2  C   LIG d   1       0.751  92.718 117.607  0.00  0.00     0.016 C 
ATOM      3  C   LIG d   1       1.878  92.030 118.110  0.00  0.00     0.038 C 
ATOM      4  C   LIG d   1       2.022  91.740 119.475  0.00  0.00     0.028 C 
ATOM      5  C   LIG d   1       1.315  92.740 120.384  0.00  0.00    -0.047 C 
ATOM      6  C   LIG d   1      -0.150  92.895 119.915  0.00  0.00     0.091 C 
ENDROOT
BRANCH   1   7
ATOM      7  O   LIG d   1      -1.542  93.005 117.902  0.00  0.00    -0.368 OA
BRANCH   7   8
ATOM      8  C   LIG d   1      -2.286  91.967 118.585  0.00  0.00     0.119 C 
BRANCH   8   9
ATOM      9  C   LIG d   1      -2.216  90.697 117.714  0.00  0.00     0.028 C 
ATOM     10  C   LIG d   1      -1.157  89.700 118.215  0.00  0.00     0.006 C 
ENDBRANCH   8   9
BRANCH   8  11
ATOM     11  C   LIG d   1      -3.775  92.315 118.674  0.00  0.00     0.028 C 
ATOM     12  C   LIG d   1      -4.565  91.873 117.432  0.00  0.00     0.006 C 
ENDBRANCH   8  11
ENDBRANCH   7   8
ENDBRANCH   1   7
BRANCH   6  13
ATOM     13  N   LIG d   1      -0.890  93.918 120.699  0.00  0.00    -0.311 N 
ATOM     14  C   LIG d   1      -1.643  93.627 121.759  0.00  0.00     0.210 C 
ATOM     15  C   LIG d   1      -2.335  94.828 122.409  0.00  0.00     0.109 C 
ATOM     16  O   LIG d   1      -1.777  92.492 122.240  0.00  0.00    -0.276 OA
ATOM     17  H   LIG d   1      -0.812  94.869 120.396  0.00  0.00     0.149 HD
ENDBRANCH   6  13
BRANCH   5  18
ATOM     18  N   LIG d   1       1.430  92.242 121.768  0.00  0.00     0.381 N 
ATOM     19  H   LIG d   1       0.863  92.798 122.376  0.00  0.00    -0.090 HD
ATOM     20  H   LIG d   1       2.387  92.326 122.065  0.00  0.00    -0.090 HD
ATOM     21  H   LIG d   1       1.143  91.289 121.813  0.00  0.00    -0.090 HD
ENDBRANCH   5  18
BRANCH   3  22
ATOM     22  C   LIG d   1       2.898  91.657 117.246  0.00  0.00     0.382 C 
ATOM     23  O   LIG d   1       3.726  92.512 116.849  0.00  0.00    -0.241 OA
ATOM     24  O   LIG d   1       2.973  90.488 116.825  0.00  0.00    -0.241 OA
ENDBRANCH   3  22
TORSDOF 7
ENDMDL
MODEL 3
REMARK VINA RESULT:      -4.3      3.005      4.853
REMARK  7 active torsions:
REMARK  status: ('A' for Active; 'I' for Inactive)
REMARK    1  A    between atoms: C_2  and  C_3 
REMARK    2  A    between atoms: C_3  and  O_6 
REMARK    3  A    between atoms: C_3  and  C_4 
REMARK    4  A    between atoms: C_7  and  O_6 
REMARK    5  A    between atoms: C_9  and  C_10 
REMARK    6  A    between atoms: N_15  and  C_14 
REMARK    7  A    between atoms: N_20  and  C_19 
REMARK       I    between atoms: C_22  and  N_20 
ROOT
ATOM      1  C   LIG d   1      -1.318  92.452 120.115  0.00  0.00     0.161 C 
ATOM      2  C   LIG d   1      -2.104  93.343 120.865  0.00  0.00     0.016 C 
ATOM      3  C   LIG d   1      -3.413  93.728 120.494  0.00  0.00     0.038 C 
ATOM      4  C   LIG d   1      -4.086  93.127 119.420  0.00  0.00     0.028 C 
ATOM      5  C   LIG d   1      -3.150  92.596 118.339  0.00  0.00    -0.047 C 
ATOM      6  C   LIG d   1      -2.077  91.702 119.000  0.00  0.00     0.091 C 
ENDROOT
BRANCH   1   7
ATOM      7  O   LIG d   1      -0.666  91.516 120.995  0.00  0.00    -0.368 OA
BRANCH   7   8
ATOM      8  C   LIG d   1       0.771  91.653 121.119  0.00  0.00     0.119 C 
BRANCH   8   9
ATOM      9  C   LIG d   1       1.219  92.747 120.130  0.00  0.00     0.028 C 
ATOM     10  C   LIG d   1       2.287  92.245 119.144  0.00  0.00     0.006 C 
ENDBRANCH   8   9
BRANCH   8  11
ATOM     11  C   LIG d   1       1.494  90.380 120.669  0.00  0.00     0.028 C 
ATOM     12  C   LIG d   1       0.566  89.156 120.616  0.00  0.00     0.006 C 
ENDBRANCH   8  11
ENDBRANCH   7   8
ENDBRANCH   1   7
BRANCH   6  13
ATOM     13  N   LIG d   1      -1.071  91.209 118.024  0.00  0.00    -0.311 N 
ATOM     14  C   LIG d   1      -1.183  90.050 117.377  0.00  0.00     0.210 C 
ATOM     15  C   LIG d   1      -0.024  89.723 116.430  0.00  0.00     0.109 C 
ATOM     16  O   LIG d   1      -2.149  89.278 117.473  0.00  0.00    -0.276 OA
ATOM     17  H   LIG d   1      -0.270  91.788 117.863  0.00  0.00     0.149 HD
ENDBRANCH   6  13
BRANCH   5  18
ATOM     18  N   LIG d   1      -3.975  91.876 117.351  0.00  0.00     0.381 N 
ATOM     19  H   LIG d   1      -4.916  91.803 117.683  0.00  0.00    -0.090 HD
ATOM     20  H   LIG d   1      -3.608  90.947 117.237  0.00  0.00    -0.090 HD
ATOM     21  H   LIG d   1      -3.959  92.356 116.478  0.00  0.00    -0.090 HD
ENDBRANCH   5  18
BRANCH   3  22
ATOM     22  C   LIG d   1      -4.047  94.754 121.178  0.00  0.00     0.382 C 
ATOM     23  O   LIG d   1      -3.382  95.732 121.599  0.00  0.00    -0.241 OA
ATOM     24  O   LIG d   1      -5.268  94.694 121.418  0.00  0.00    -0.241 OA
ENDBRANCH   3  22
TORSDOF 7
ENDMDL
MODEL 4
REMARK VINA RESULT:      -4.3      2.927      4.919
REMARK  7 active torsions:
REMARK  status: ('A' for Active; 'I' for Inactive)
REMARK    1  A    between atoms: C_2  and  C_3 
REMARK    2  A    between atoms: C_3  and  O_6 
REMARK    3  A    between atoms: C_3  and  C_4 
REMARK    4  A    between atoms: C_7  and  O_6 
REMARK    5  A    between atoms: C_9  and  C_10 
REMARK    6  A    between atoms: N_15  and  C_14 
REMARK    7  A    between atoms: N_20  and  C_19 
REMARK       I    between atoms: C_22  and  N_20 
ROOT
ATOM      1  C   LIG d   1      -1.115  92.569 119.965  0.00  0.00     0.161 C 
ATOM      2  C   LIG d   1      -1.878  93.510 120.676  0.00  0.00     0.016 C 
ATOM      3  C   LIG d   1      -3.208  93.851 120.337  0.00  0.00     0.038 C 
ATOM      4  C   LIG d   1      -3.921  93.158 119.348  0.00  0.00     0.028 C 
ATOM      5  C   LIG d   1      -3.029  92.549 118.271  0.00  0.00    -0.047 C 
ATOM      6  C   LIG d   1      -1.914  91.722 118.952  0.00  0.00     0.091 C 
ENDROOT
BRANCH   1   7
ATOM      7  O   LIG d   1      -0.411  91.714 120.887  0.00  0.00    -0.368 OA
BRANCH   7   8
ATOM      8  C   LIG d   1      -1.076  90.478 121.246  0.00  0.00     0.119 C 
BRANCH   8   9
ATOM      9  C   LIG d   1      -1.388  90.542 122.754  0.00  0.00     0.028 C 
ATOM     10  C   LIG d   1      -2.842  90.957 123.036  0.00  0.00     0.006 C 
ENDBRANCH   8   9
BRANCH   8  11
ATOM     11  C   LIG d   1      -0.145  89.274 121.075  0.00  0.00     0.028 C 
ATOM     12  C   LIG d   1       1.178  89.638 120.383  0.00  0.00     0.006 C 
ENDBRANCH   8  11
ENDBRANCH   7   8
ENDBRANCH   1   7
BRANCH   6  13
ATOM     13  N   LIG d   1      -0.947  91.161 117.973  0.00  0.00    -0.311 N 
ATOM     14  C   LIG d   1      -1.097  89.972 117.394  0.00  0.00     0.210 C 
ATOM     15  C   LIG d   1       0.026  89.575 116.431  0.00  0.00     0.109 C 
ATOM     16  O   LIG d   1      -2.070  89.221 117.561  0.00  0.00    -0.276 OA
ATOM     17  H   LIG d   1      -0.143  91.718 117.756  0.00  0.00     0.149 HD
ENDBRANCH   6  13
BRANCH   5  18
ATOM     18  N   LIG d   1      -3.887  91.743 117.384  0.00  0.00     0.381 N 
ATOM     19  H   LIG d   1      -4.626  92.310 117.019  0.00  0.00    -0.090 HD
ATOM     20  H   LIG d   1      -4.297  90.997 117.918  0.00  0.00    -0.090 HD
ATOM     21  H   LIG d   1      -3.347  91.367 116.636  0.00  0.00    -0.090 HD
ENDBRANCH   5  18
BRANCH   3  22
ATOM     22  C   LIG d   1      -3.824  94.923 120.964  0.00  0.00     0.382 C 
ATOM     23  O   LIG d   1      -4.948  95.317 120.572  0.00  0.00    -0.241 OA
ATOM     24  O   LIG d   1      -3.250  95.529 121.889  0.00  0.00    -0.241 OA
ENDBRANCH   3  22
TORSDOF 7
ENDMDL
MODEL 5
REMARK VINA RESULT:      -4.3      2.234      5.601
REMARK  7 active torsions:
REMARK  status: ('A' for Active; 'I' for Inactive)
REMARK    1  A    between atoms: C_2  and  C_3 
REMARK    2  A    between atoms: C_3  and  O_6 
REMARK    3  A    between atoms: C_3  and  C_4 
REMARK    4  A    between atoms: C_7  and  O_6 
REMARK    5  A    between atoms: C_9  and  C_10 
REMARK    6  A    between atoms: N_15  and  C_14 
REMARK    7  A    between atoms: N_20  and  C_19 
REMARK       I    between atoms: C_22  and  N_20 
ROOT
ATOM      1  C   LIG d   1       0.734  92.292 117.949  0.00  0.00     0.161 C 
ATOM      2  C   LIG d   1       2.049  92.207 117.463  0.00  0.00     0.016 C 
ATOM      3  C   LIG d   1       3.183  92.107 118.301  0.00  0.00     0.038 C 
ATOM      4  C   LIG d   1       3.067  91.931 119.688  0.00  0.00     0.028 C 
ATOM      5  C   LIG d   1       1.785  92.518 120.267  0.00  0.00    -0.047 C 
ATOM      6  C   LIG d   1       0.580  91.990 119.455  0.00  0.00     0.091 C 
ENDROOT
BRANCH   1   7
ATOM      7  O   LIG d   1      -0.129  91.434 117.176  0.00  0.00    -0.368 OA
BRANCH   7   8
ATOM      8  C   LIG d   1      -0.150  90.038 117.560  0.00  0.00     0.119 C 
BRANCH   8   9
ATOM      9  C   LIG d   1       0.526  89.237 116.430  0.00  0.00     0.028 C 
ATOM     10  C   LIG d   1       1.891  88.667 116.851  0.00  0.00     0.006 C 
ENDBRANCH   8   9
BRANCH   8  11
ATOM     11  C   LIG d   1      -1.583  89.502 117.635  0.00  0.00     0.028 C 
ATOM     12  C   LIG d   1      -2.641  90.613 117.540  0.00  0.00     0.006 C 
ENDBRANCH   8  11
ENDBRANCH   7   8
ENDBRANCH   1   7
BRANCH   6  13
ATOM     13  N   LIG d   1      -0.708  92.581 119.902  0.00  0.00    -0.311 N 
ATOM     14  C   LIG d   1      -1.541  91.971 120.744  0.00  0.00     0.210 C 
ATOM     15  C   LIG d   1      -2.824  92.746 121.059  0.00  0.00     0.109 C 
ATOM     16  O   LIG d   1      -1.325  90.876 121.284  0.00  0.00    -0.276 OA
ATOM     17  H   LIG d   1      -0.948  93.482 119.537  0.00  0.00     0.149 HD
ENDBRANCH   6  13
BRANCH   5  18
ATOM     18  N   LIG d   1       1.728  92.144 121.693  0.00  0.00     0.381 N 
ATOM     19  H   LIG d   1       2.307  92.761 122.228  0.00  0.00    -0.090 HD
ATOM     20  H   LIG d   1       2.082  91.209 121.799  0.00  0.00    -0.090 HD
ATOM     21  H   LIG d   1       0.789  92.191 122.021  0.00  0.00    -0.090 HD
ENDBRANCH   5  18
BRANCH   3  22
ATOM     22  C   LIG d   1       4.453  92.222 117.755  0.00  0.00     0.382 C 
ATOM     23  O   LIG d   1       4.717  91.668 116.661  0.00  0.00    -0.241 OA
ATOM     24  O   LIG d   1       5.350  92.834 118.365  0.00  0.00    -0.241 OA
ENDBRANCH   3  22
TORSDOF 7
ENDMDL
MODEL 6
REMARK VINA RESULT:      -4.3      1.980      3.007
REMARK  7 active torsions:
REMARK  status: ('A' for Active; 'I' for Inactive)
REMARK    1  A    between atoms: C_2  and  C_3 
REMARK    2  A    between atoms: C_3  and  O_6 
REMARK    3  A    between atoms: C_3  and  C_4 
REMARK    4  A    between atoms: C_7  and  O_6 
REMARK    5  A    between atoms: C_9  and  C_10 
REMARK    6  A    between atoms: N_15  and  C_14 
REMARK    7  A    between atoms: N_20  and  C_19 
REMARK       I    between atoms: C_22  and  N_20 
ROOT
ATOM      1  C   LIG d   1       0.380  92.654 118.396  0.00  0.00     0.161 C 
ATOM      2  C   LIG d   1      -0.978  92.833 118.709  0.00  0.00     0.016 C 
ATOM      3  C   LIG d   1      -1.984  91.898 118.371  0.00  0.00     0.038 C 
ATOM      4  C   LIG d   1      -1.677  90.642 117.828  0.00  0.00     0.028 C 
ATOM      5  C   LIG d   1      -0.374  90.627 117.035  0.00  0.00    -0.047 C 
ATOM      6  C   LIG d   1       0.749  91.239 117.903  0.00  0.00     0.091 C 
ENDROOT
BRANCH   1   7
ATOM      7  O   LIG d   1       1.194  93.018 119.528  0.00  0.00    -0.368 OA
BRANCH   7   8
ATOM      8  C   LIG d   1       1.553  91.941 120.428  0.00  0.00     0.119 C 
BRANCH   8   9
ATOM      9  C   LIG d   1       0.696  92.094 121.700  0.00  0.00     0.028 C 
ATOM     10  C   LIG d   1      -0.324  90.955 121.861  0.00  0.00     0.006 C 
ENDBRANCH   8   9
BRANCH   8  11
ATOM     11  C   LIG d   1       3.005  92.069 120.899  0.00  0.00     0.028 C 
ATOM     12  C   LIG d   1       3.894  92.818 119.894  0.00  0.00     0.006 C 
ENDBRANCH   8  11
ENDBRANCH   7   8
ENDBRANCH   1   7
BRANCH   6  13
ATOM     13  N   LIG d   1       2.039  91.339 117.172  0.00  0.00    -0.311 N 
ATOM     14  C   LIG d   1       2.999  90.420 117.250  0.00  0.00     0.210 C 
ATOM     15  C   LIG d   1       4.258  90.728 116.433  0.00  0.00     0.109 C 
ATOM     16  O   LIG d   1       2.916  89.362 117.893  0.00  0.00    -0.276 OA
ATOM     17  H   LIG d   1       2.178  92.150 116.602  0.00  0.00     0.149 HD
ENDBRANCH   6  13
BRANCH   5  18
ATOM     18  N   LIG d   1      -0.107  89.230 116.645  0.00  0.00     0.381 N 
ATOM     19  H   LIG d   1      -0.706  88.614 117.157  0.00  0.00    -0.090 HD
ATOM     20  H   LIG d   1       0.846  89.005 116.873  0.00  0.00    -0.090 HD
ATOM     21  H   LIG d   1      -0.258  89.114 115.667  0.00  0.00    -0.090 HD
ENDBRANCH   5  18
BRANCH   3  22
ATOM     22  C   LIG d   1      -3.318  92.234 118.540  0.00  0.00     0.382 C 
ATOM     23  O   LIG d   1      -4.156  91.939 117.655  0.00  0.00    -0.241 OA
ATOM     24  O   LIG d   1      -3.688  92.868 119.547  0.00  0.00    -0.241 OA
ENDBRANCH   3  22
TORSDOF 7
ENDMDL
MODEL 7
REMARK VINA RESULT:      -4.3      2.614      4.540
REMARK  7 active torsions:
REMARK  status: ('A' for Active; 'I' for Inactive)
REMARK    1  A    between atoms: C_2  and  C_3 
REMARK    2  A    between atoms: C_3  and  O_6 
REMARK    3  A    between atoms: C_3  and  C_4 
REMARK    4  A    between atoms: C_7  and  O_6 
REMARK    5  A    between atoms: C_9  and  C_10 
REMARK    6  A    between atoms: N_15  and  C_14 
REMARK    7  A    between atoms: N_20  and  C_19 
REMARK       I    between atoms: C_22  and  N_20 
ROOT
ATOM      1  C   LIG d   1       0.736  90.859 118.957  0.00  0.00     0.161 C 
ATOM      2  C   LIG d   1       1.783  90.102 118.406  0.00  0.00     0.016 C 
ATOM      3  C   LIG d   1       1.615  89.224 117.311  0.00  0.00     0.038 C 
ATOM      4  C   LIG d   1       0.413  89.157 116.592  0.00  0.00     0.028 C 
ATOM      5  C   LIG d   1      -0.812  89.525 117.423  0.00  0.00    -0.047 C 
ATOM      6  C   LIG d   1      -0.557  90.883 118.116  0.00  0.00     0.091 C 
ENDROOT
BRANCH   1   7
ATOM      7  O   LIG d   1       1.189  92.202 119.218  0.00  0.00    -0.368 OA
BRANCH   7   8
ATOM      8  C   LIG d   1       1.400  92.545 120.610  0.00  0.00     0.119 C 
BRANCH   8   9
ATOM      9  C   LIG d   1       2.896  92.338 120.916  0.00  0.00     0.028 C 
ATOM     10  C   LIG d   1       3.802  92.845 119.781  0.00  0.00     0.006 C 
ENDBRANCH   8   9
BRANCH   8  11
ATOM     11  C   LIG d   1       0.659  91.580 121.540  0.00  0.00     0.028 C 
ATOM     12  C   LIG d   1      -0.450  92.268 122.352  0.00  0.00     0.006 C 
ENDBRANCH   8  11
ENDBRANCH   7   8
ENDBRANCH   1   7
BRANCH   6  13
ATOM     13  N   LIG d   1      -1.672  91.277 119.016  0.00  0.00    -0.311 N 
ATOM     14  C   LIG d   1      -2.305  92.446 118.932  0.00  0.00     0.210 C 
ATOM     15  C   LIG d   1      -3.411  92.659 119.969  0.00  0.00     0.109 C 
ATOM     16  O   LIG d   1      -2.076  93.314 118.075  0.00  0.00    -0.276 OA
ATOM     17  H   LIG d   1      -1.944  90.619 119.721  0.00  0.00     0.149 HD
ENDBRANCH   6  13
BRANCH   5  18
ATOM     18  N   LIG d   1      -1.975  89.547 116.517  0.00  0.00     0.381 N 
ATOM     19  H   LIG d   1      -2.399  90.453 116.531  0.00  0.00    -0.090 HD
ATOM     20  H   LIG d   1      -2.652  88.877 116.840  0.00  0.00    -0.090 HD
ATOM     21  H   LIG d   1      -1.690  89.320 115.590  0.00  0.00    -0.090 HD
ENDBRANCH   5  18
BRANCH   3  22
ATOM     22  C   LIG d   1       2.647  88.371 116.950  0.00  0.00     0.382 C 
ATOM     23  O   LIG d   1       2.388  87.234 116.486  0.00  0.00    -0.241 OA
ATOM     24  O   LIG d   1       3.834  88.706 117.123  0.00  0.00    -0.241 OA
ENDBRANCH   3  22
TORSDOF 7
ENDMDL
MODEL 8
REMARK VINA RESULT:      -4.3      2.331      4.948
REMARK  7 active torsions:
REMARK  status: ('A' for Active; 'I' for Inactive)
REMARK    1  A    between atoms: C_2  and  C_3 
REMARK    2  A    between atoms: C_3  and  O_6 
REMARK    3  A    between atoms: C_3  and  C_4 
REMARK    4  A    between atoms: C_7  and  O_6 
REMARK    5  A    between atoms: C_9  and  C_10 
REMARK    6  A    between atoms: N_15  and  C_14 
REMARK    7  A    between atoms: N_20  and  C_19 
REMARK       I    between atoms: C_22  and  N_20 
ROOT
ATOM      1  C   LIG d   1       1.747  91.586 117.461  0.00  0.00     0.161 C 
ATOM      2  C   LIG d   1       1.120  92.636 118.153  0.00  0.00     0.016 C 
ATOM      3  C   LIG d   1       0.521  92.481 119.424  0.00  0.00     0.038 C 
ATOM      4  C   LIG d   1       0.642  91.294 120.162  0.00  0.00     0.028 C 
ATOM      5  C   LIG d   1       0.829  90.056 119.291  0.00  0.00    -0.047 C 
ATOM      6  C   LIG d   1       1.986  90.312 118.298  0.00  0.00     0.091 C 
ENDROOT
BRANCH   1   7
ATOM      7  O   LIG d   1       2.986  92.050 116.889  0.00  0.00    -0.368 OA
BRANCH   7   8
ATOM      8  C   LIG d   1       4.189  91.733 117.632  0.00  0.00     0.119 C 
BRANCH   8   9
ATOM      9  C   LIG d   1       4.764  93.059 118.168  0.00  0.00     0.028 C 
ATOM     10  C   LIG d   1       4.578  93.208 119.687  0.00  0.00     0.006 C 
ENDBRANCH   8   9
BRANCH   8  11
ATOM     11  C   LIG d   1       5.275  91.161 116.717  0.00  0.00     0.028 C 
ATOM     12  C   LIG d   1       6.379  90.423 117.491  0.00  0.00     0.006 C 
ENDBRANCH   8  11
ENDBRANCH   7   8
ENDBRANCH   1   7
BRANCH   6  13
ATOM     13  N   LIG d   1       2.182  89.182 117.352  0.00  0.00    -0.311 N 
ATOM     14  C   LIG d   1       3.081  88.218 117.537  0.00  0.00     0.210 C 
ATOM     15  C   LIG d   1       3.132  87.160 116.431  0.00  0.00     0.109 C 
ATOM     16  O   LIG d   1       3.820  88.121 118.528  0.00  0.00    -0.276 OA
ATOM     17  H   LIG d   1       1.602  89.166 116.535  0.00  0.00     0.149 HD
ENDBRANCH   6  13
BRANCH   5  18
ATOM     18  N   LIG d   1       1.080  88.913 120.188  0.00  0.00     0.381 N 
ATOM     19  H   LIG d   1       1.905  88.428 119.897  0.00  0.00    -0.090 HD
ATOM     20  H   LIG d   1       0.303  88.278 120.130  0.00  0.00    -0.090 HD
ATOM     21  H   LIG d   1       1.187  89.233 121.126  0.00  0.00    -0.090 HD
ENDBRANCH   5  18
BRANCH   3  22
ATOM     22  C   LIG d   1      -0.243  93.510 119.953  0.00  0.00     0.382 C 
ATOM     23  O   LIG d   1      -1.212  93.970 119.302  0.00  0.00    -0.241 OA
ATOM     24  O   LIG d   1       0.051  94.014 121.054  0.00  0.00    -0.241 OA
ENDBRANCH   3  22
TORSDOF 7
ENDMDL
MODEL 9
REMARK VINA RESULT:      -4.3      2.397      4.694
REMARK  7 active torsions:
REMARK  status: ('A' for Active; 'I' for Inactive)
REMARK    1  A    between atoms: C_2  and  C_3 
REMARK    2  A    between atoms: C_3  and  O_6 
REMARK    3  A    between atoms: C_3  and  C_4 
REMARK    4  A    between atoms: C_7  and  O_6 
REMARK    5  A    between atoms: C_9  and  C_10 
REMARK    6  A    between atoms: N_15  and  C_14 
REMARK    7  A    between atoms: N_20  and  C_19 
REMARK       I    between atoms: C_22  and  N_20 
ROOT
ATOM      1  C   LIG d   1       1.309  91.293 120.026  0.00  0.00     0.161 C 
ATOM      2  C   LIG d   1       1.953  91.738 118.859  0.00  0.00     0.016 C 
ATOM      3  C   LIG d   1       2.944  90.990 118.183  0.00  0.00     0.038 C 
ATOM      4  C   LIG d   1       3.254  89.671 118.547  0.00  0.00     0.028 C 
ATOM      5  C   LIG d   1       2.993  89.371 120.019  0.00  0.00    -0.047 C 
ATOM      6  C   LIG d   1       1.554  89.810 120.374  0.00  0.00     0.091 C 
ENDROOT
BRANCH   1   7
ATOM      7  O   LIG d   1      -0.104  91.560 119.937  0.00  0.00    -0.368 OA
BRANCH   7   8
ATOM      8  C   LIG d   1      -0.656  91.635 118.599  0.00  0.00     0.119 C 
BRANCH   8   9
ATOM      9  C   LIG d   1      -1.576  92.869 118.546  0.00  0.00     0.028 C 
ATOM     10  C   LIG d   1      -0.994  93.998 117.679  0.00  0.00     0.006 C 
ENDBRANCH   8   9
BRANCH   8  11
ATOM     11  C   LIG d   1      -1.565  90.438 118.304  0.00  0.00     0.028 C 
ATOM     12  C   LIG d   1      -0.952  89.461 117.288  0.00  0.00     0.006 C 
ENDBRANCH   8  11
ENDBRANCH   7   8
ENDBRANCH   1   7
BRANCH   6  13
ATOM     13  N   LIG d   1       1.245  89.629 121.816  0.00  0.00    -0.311 N 
ATOM     14  C   LIG d   1       0.779  88.492 122.330  0.00  0.00     0.210 C 
ATOM     15  C   LIG d   1       0.509  88.527 123.837  0.00  0.00     0.109 C 
ATOM     16  O   LIG d   1       0.594  87.449 121.685  0.00  0.00    -0.276 OA
ATOM     17  H   LIG d   1       1.396  90.416 122.417  0.00  0.00     0.149 HD
ENDBRANCH   6  13
BRANCH   5  18
ATOM     18  N   LIG d   1       3.226  87.930 120.229  0.00  0.00     0.381 N 
ATOM     19  H   LIG d   1       4.129  87.678 119.879  0.00  0.00    -0.090 HD
ATOM     20  H   LIG d   1       2.534  87.411 119.718  0.00  0.00    -0.090 HD
ATOM     21  H   LIG d   1       3.166  87.712 121.199  0.00  0.00    -0.090 HD
ENDBRANCH   5  18
BRANCH   3  22
ATOM     22  C   LIG d   1       3.666  91.576 117.155  0.00  0.00     0.382 C 
ATOM     23  O   LIG d   1       3.507  92.793 116.892  0.00  0.00    -0.241 OA
ATOM     24  O   LIG d   1       4.442  90.894 116.459  0.00  0.00    -0.241 OA
ENDBRANCH   3  22
TORSDOF 7
ENDMDL
