MODEL 1
REMARK VINA RESULT:      -4.7      0.000      0.000
REMARK  7 active torsions:
REMARK  status: ('A' for Active; 'I' for Inactive)
REMARK    1  A    between atoms: C_2  and  C_3 
REMARK    2  A    between atoms: C_3  and  O_6 
REMARK    3  A    between atoms: C_3  and  C_4 
REMARK    4  A    between atoms: C_7  and  O_6 
REMARK    5  A    between atoms: C_9  and  C_10 
REMARK    6  A    between atoms: N_15  and  C_14 
REMARK    7  A    between atoms: N_20  and  C_19 
REMARK       I    between atoms: C_22  and  N_20 
ROOT
ATOM      1  C   LIG d   1      -2.184  91.230 119.531  0.00  0.00     0.161 C 
ATOM      2  C   LIG d   1      -2.912  91.065 118.341  0.00  0.00     0.016 C 
ATOM      3  C   LIG d   1      -4.043  91.845 118.007  0.00  0.00     0.038 C 
ATOM      4  C   LIG d   1      -4.434  92.952 118.775  0.00  0.00     0.028 C 
ATOM      5  C   LIG d   1      -4.034  92.842 120.243  0.00  0.00    -0.047 C 
ATOM      6  C   LIG d   1      -2.528  92.505 120.329  0.00  0.00     0.091 C 
ENDROOT
BRANCH   1   7
ATOM      7  O   LIG d   1      -0.771  91.181 119.250  0.00  0.00    -0.368 OA
BRANCH   7   8
ATOM      8  C   LIG d   1      -0.362  91.674 117.950  0.00  0.00     0.119 C 
BRANCH   8   9
ATOM      9  C   LIG d   1       0.826  90.813 117.481  0.00  0.00     0.028 C 
ATOM     10  C   LIG d   1       2.182  91.401 117.909  0.00  0.00     0.006 C 
ENDBRANCH   8   9
BRANCH   8  11
ATOM     11  C   LIG d   1       0.183  93.102 118.041  0.00  0.00     0.028 C 
ATOM     12  C   LIG d   1      -0.823  94.156 117.551  0.00  0.00     0.006 C 
ENDBRANCH   8  11
ENDBRANCH   7   8
ENDBRANCH   1   7
BRANCH   6  13
ATOM     13  N   LIG d   1      -2.073  92.297 121.729  0.00  0.00    -0.311 N 
ATOM     14  C   LIG d   1      -1.066  92.971 122.280  0.00  0.00     0.210 C 
ATOM     15  C   LIG d   1      -0.747  92.587 123.728  0.00  0.00     0.109 C 
ATOM     16  O   LIG d   1      -0.427  93.873 121.718  0.00  0.00    -0.276 OA
ATOM     17  H   LIG d   1      -2.556  91.605 122.267  0.00  0.00     0.149 HD
ENDBRANCH   6  13
BRANCH   5  18
ATOM     18  N   LIG d   1      -4.380  94.119 120.896  0.00  0.00     0.381 N 
ATOM     19  H   LIG d   1      -4.985  93.948 121.674  0.00  0.00    -0.090 HD
ATOM     20  H   LIG d   1      -4.869  94.699 120.237  0.00  0.00    -0.090 HD
ATOM     21  H   LIG d   1      -3.551  94.579 121.204  0.00  0.00    -0.090 HD
ENDBRANCH   5  18
BRANCH   3  22
ATOM     22  C   LIG d   1      -4.819  91.496 116.913  0.00  0.00     0.382 C 
ATOM     23  O   LIG d   1      -5.631  92.322 116.430  0.00  0.00    -0.241 OA
ATOM     24  O   LIG d   1      -4.751  90.350 116.430  0.00  0.00    -0.241 OA
ENDBRANCH   3  22
TORSDOF 7
ENDMDL
MODEL 2
REMARK VINA RESULT:      -4.7      2.279      4.457
REMARK  7 active torsions:
REMARK  status: ('A' for Active; 'I' for Inactive)
REMARK    1  A    between atoms: C_2  and  C_3 
REMARK    2  A    between atoms: C_3  and  O_6 
REMARK    3  A    between atoms: C_3  and  C_4 
REMARK    4  A    between atoms: C_7  and  O_6 
REMARK    5  A    between atoms: C_9  and  C_10 
REMARK    6  A    between atoms: N_15  and  C_14 
REMARK    7  A    between atoms: N_20  and  C_19 
REMARK       I    between atoms: C_22  and  N_20 
ROOT
ATOM      1  C   LIG d   1      -3.551  93.384 119.587  0.00  0.00     0.161 C 
ATOM      2  C   LIG d   1      -4.839  93.268 119.038  0.00  0.00     0.016 C 
ATOM      3  C   LIG d   1      -5.146  92.426 117.945  0.00  0.00     0.038 C 
ATOM      4  C   LIG d   1      -4.210  91.522 117.420  0.00  0.00     0.028 C 
ATOM      5  C   LIG d   1      -2.764  91.968 117.611  0.00  0.00    -0.047 C 
ATOM      6  C   LIG d   1      -2.542  92.324 119.099  0.00  0.00     0.091 C 
ENDROOT
BRANCH   1   7
ATOM      7  O   LIG d   1      -3.630  93.375 121.026  0.00  0.00    -0.368 OA
BRANCH   7   8
ATOM      8  C   LIG d   1      -4.039  92.125 121.634  0.00  0.00     0.119 C 
BRANCH   8   9
ATOM      9  C   LIG d   1      -5.299  92.409 122.474  0.00  0.00     0.028 C 
ATOM     10  C   LIG d   1      -5.855  91.141 123.144  0.00  0.00     0.006 C 
ENDBRANCH   8   9
BRANCH   8  11
ATOM     11  C   LIG d   1      -2.991  91.622 122.631  0.00  0.00     0.028 C 
ATOM     12  C   LIG d   1      -2.413  90.250 122.248  0.00  0.00     0.006 C 
ENDBRANCH   8  11
ENDBRANCH   7   8
ENDBRANCH   1   7
BRANCH   6  13
ATOM     13  N   LIG d   1      -1.176  92.850 119.358  0.00  0.00    -0.311 N 
ATOM     14  C   LIG d   1      -0.141  92.076 119.681  0.00  0.00     0.210 C 
ATOM     15  C   LIG d   1       1.173  92.823 119.925  0.00  0.00     0.109 C 
ATOM     16  O   LIG d   1      -0.180  90.838 119.756  0.00  0.00    -0.276 OA
ATOM     17  H   LIG d   1      -1.048  93.840 119.288  0.00  0.00     0.149 HD
ENDBRANCH   6  13
BRANCH   5  18
ATOM     18  N   LIG d   1      -1.894  90.872 117.143  0.00  0.00     0.381 N 
ATOM     19  H   LIG d   1      -2.446  90.174 116.686  0.00  0.00    -0.090 HD
ATOM     20  H   LIG d   1      -1.446  90.451 117.937  0.00  0.00    -0.090 HD
ATOM     21  H   LIG d   1      -1.208  91.227 116.514  0.00  0.00    -0.090 HD
ENDBRANCH   5  18
BRANCH   3  22
ATOM     22  C   LIG d   1      -6.390  92.511 117.340  0.00  0.00     0.382 C 
ATOM     23  O   LIG d   1      -7.157  93.465 117.615  0.00  0.00    -0.241 OA
ATOM     24  O   LIG d   1      -6.774  91.622 116.556  0.00  0.00    -0.241 OA
ENDBRANCH   3  22
TORSDOF 7
ENDMDL
MODEL 3
REMARK VINA RESULT:      -4.7      2.824      4.464
REMARK  7 active torsions:
REMARK  status: ('A' for Active; 'I' for Inactive)
REMARK    1  A    between atoms: C_2  and  C_3 
REMARK    2  A    between atoms: C_3  and  O_6 
REMARK    3  A    between atoms: C_3  and  C_4 
REMARK    4  A    between atoms: C_7  and  O_6 
REMARK    5  A    between atoms: C_9  and  C_10 
REMARK    6  A    between atoms: N_15  and  C_14 
REMARK    7  A    between atoms: N_20  and  C_19 
REMARK       I    between atoms: C_22  and  N_20 
ROOT
ATOM      1  C   LIG d   1      -5.302  93.698 119.198  0.00  0.00     0.161 C 
ATOM      2  C   LIG d   1      -6.418  94.364 118.663  0.00  0.00     0.016 C 
ATOM      3  C   LIG d   1      -6.866  95.624 119.122  0.00  0.00     0.038 C 
ATOM      4  C   LIG d   1      -6.134  96.378 120.051  0.00  0.00     0.028 C 
ATOM      5  C   LIG d   1      -5.279  95.526 120.984  0.00  0.00    -0.047 C 
ATOM      6  C   LIG d   1      -4.426  94.555 120.136  0.00  0.00     0.091 C 
ENDROOT
BRANCH   1   7
ATOM      7  O   LIG d   1      -4.505  93.147 118.131  0.00  0.00    -0.368 OA
BRANCH   7   8
ATOM      8  C   LIG d   1      -4.738  91.752 117.816  0.00  0.00     0.119 C 
BRANCH   8   9
ATOM      9  C   LIG d   1      -3.363  91.063 117.718  0.00  0.00     0.028 C 
ATOM     10  C   LIG d   1      -2.201  92.030 118.001  0.00  0.00     0.006 C 
ENDBRANCH   8   9
BRANCH   8  11
ATOM     11  C   LIG d   1      -5.371  91.593 116.430  0.00  0.00     0.028 C 
ATOM     12  C   LIG d   1      -6.888  91.356 116.492  0.00  0.00     0.006 C 
ENDBRANCH   8  11
ENDBRANCH   7   8
ENDBRANCH   1   7
BRANCH   6  13
ATOM     13  N   LIG d   1      -3.623  93.626 120.973  0.00  0.00    -0.311 N 
ATOM     14  C   LIG d   1      -2.354  93.853 121.308  0.00  0.00     0.210 C 
ATOM     15  C   LIG d   1      -1.704  92.758 122.161  0.00  0.00     0.109 C 
ATOM     16  O   LIG d   1      -1.714  94.872 121.006  0.00  0.00    -0.276 OA
ATOM     17  H   LIG d   1      -4.074  92.790 121.288  0.00  0.00     0.149 HD
ENDBRANCH   6  13
BRANCH   5  18
ATOM     18  N   LIG d   1      -4.467  96.442 121.806  0.00  0.00     0.381 N 
ATOM     19  H   LIG d   1      -4.892  97.347 121.825  0.00  0.00    -0.090 HD
ATOM     20  H   LIG d   1      -3.556  96.530 121.391  0.00  0.00    -0.090 HD
ATOM     21  H   LIG d   1      -4.384  96.086 122.733  0.00  0.00    -0.090 HD
ENDBRANCH   5  18
BRANCH   3  22
ATOM     22  C   LIG d   1      -8.081  96.125 118.679  0.00  0.00     0.382 C 
ATOM     23  O   LIG d   1      -9.109  95.407 118.725  0.00  0.00    -0.241 OA
ATOM     24  O   LIG d   1      -8.153  97.269 118.193  0.00  0.00    -0.241 OA
ENDBRANCH   3  22
TORSDOF 7
ENDMDL
MODEL 4
REMARK VINA RESULT:      -4.7      3.033      4.728
REMARK  7 active torsions:
REMARK  status: ('A' for Active; 'I' for Inactive)
REMARK    1  A    between atoms: C_2  and  C_3 
REMARK    2  A    between atoms: C_3  and  O_6 
REMARK    3  A    between atoms: C_3  and  C_4 
REMARK    4  A    between atoms: C_7  and  O_6 
REMARK    5  A    between atoms: C_9  and  C_10 
REMARK    6  A    between atoms: N_15  and  C_14 
REMARK    7  A    between atoms: N_20  and  C_19 
REMARK       I    between atoms: C_22  and  N_20 
ROOT
ATOM      1  C   LIG d   1      -5.354  93.948 119.947  0.00  0.00     0.161 C 
ATOM      2  C   LIG d   1      -6.558  94.406 119.386  0.00  0.00     0.016 C 
ATOM      3  C   LIG d   1      -6.783  95.753 119.020  0.00  0.00     0.038 C 
ATOM      4  C   LIG d   1      -5.758  96.710 119.051  0.00  0.00     0.028 C 
ATOM      5  C   LIG d   1      -4.677  96.408 120.082  0.00  0.00    -0.047 C 
ATOM      6  C   LIG d   1      -4.187  94.955 119.884  0.00  0.00     0.091 C 
ENDROOT
BRANCH   1   7
ATOM      7  O   LIG d   1      -4.972  92.701 119.333  0.00  0.00    -0.368 OA
BRANCH   7   8
ATOM      8  C   LIG d   1      -4.517  92.779 117.960  0.00  0.00     0.119 C 
BRANCH   8   9
ATOM      9  C   LIG d   1      -5.272  91.700 117.159  0.00  0.00     0.028 C 
ATOM     10  C   LIG d   1      -6.603  92.217 116.588  0.00  0.00     0.006 C 
ENDBRANCH   8   9
BRANCH   8  11
ATOM     11  C   LIG d   1      -3.035  92.409 117.842  0.00  0.00     0.028 C 
ATOM     12  C   LIG d   1      -2.592  91.383 118.897  0.00  0.00     0.006 C 
ENDBRANCH   8  11
ENDBRANCH   7   8
ENDBRANCH   1   7
BRANCH   6  13
ATOM     13  N   LIG d   1      -3.187  94.550 120.907  0.00  0.00    -0.311 N 
ATOM     14  C   LIG d   1      -1.871  94.606 120.708  0.00  0.00     0.210 C 
ATOM     15  C   LIG d   1      -1.019  94.122 121.885  0.00  0.00     0.109 C 
ATOM     16  O   LIG d   1      -1.329  95.041 119.681  0.00  0.00    -0.276 OA
ATOM     17  H   LIG d   1      -3.540  94.214 121.781  0.00  0.00     0.149 HD
ENDBRANCH   6  13
BRANCH   5  18
ATOM     18  N   LIG d   1      -3.606  97.408 119.911  0.00  0.00     0.381 N 
ATOM     19  H   LIG d   1      -3.157  97.276 119.027  0.00  0.00    -0.090 HD
ATOM     20  H   LIG d   1      -2.921  97.278 120.635  0.00  0.00    -0.090 HD
ATOM     21  H   LIG d   1      -3.986  98.327 119.965  0.00  0.00    -0.090 HD
ENDBRANCH   5  18
BRANCH   3  22
ATOM     22  C   LIG d   1      -8.057  96.162 118.656  0.00  0.00     0.382 C 
ATOM     23  O   LIG d   1      -9.015  95.355 118.715  0.00  0.00    -0.241 OA
ATOM     24  O   LIG d   1      -8.251  97.315 118.227  0.00  0.00    -0.241 OA
ENDBRANCH   3  22
TORSDOF 7
ENDMDL
MODEL 5
REMARK VINA RESULT:      -4.5      2.388      4.160
REMARK  7 active torsions:
REMARK  status: ('A' for Active; 'I' for Inactive)
REMARK    1  A    between atoms: C_2  and  C_3 
REMARK    2  A    between atoms: C_3  and  O_6 
REMARK    3  A    between atoms: C_3  and  C_4 
REMARK    4  A    between atoms: C_7  and  O_6 
REMARK    5  A    between atoms: C_9  and  C_10 
REMARK    6  A    between atoms: N_15  and  C_14 
REMARK    7  A    between atoms: N_20  and  C_19 
REMARK       I    between atoms: C_22  and  N_20 
ROOT
ATOM      1  C   LIG d   1      -3.413  93.428 119.469  0.00  0.00     0.161 C 
ATOM      2  C   LIG d   1      -4.748  93.508 119.038  0.00  0.00     0.016 C 
ATOM      3  C   LIG d   1      -5.283  92.699 118.009  0.00  0.00     0.038 C 
ATOM      4  C   LIG d   1      -4.555  91.642 117.443  0.00  0.00     0.028 C 
ATOM      5  C   LIG d   1      -3.045  91.852 117.492  0.00  0.00    -0.047 C 
ATOM      6  C   LIG d   1      -2.635  92.205 118.940  0.00  0.00     0.091 C 
ENDROOT
BRANCH   1   7
ATOM      7  O   LIG d   1      -3.362  93.469 120.909  0.00  0.00    -0.368 OA
BRANCH   7   8
ATOM      8  C   LIG d   1      -3.069  94.759 121.500  0.00  0.00     0.119 C 
BRANCH   8   9
ATOM      9  C   LIG d   1      -1.602  94.728 121.973  0.00  0.00     0.028 C 
ATOM     10  C   LIG d   1      -0.673  95.545 121.059  0.00  0.00     0.006 C 
ENDBRANCH   8   9
BRANCH   8  11
ATOM     11  C   LIG d   1      -3.898  94.994 122.766  0.00  0.00     0.028 C 
ATOM     12  C   LIG d   1      -5.388  94.669 122.571  0.00  0.00     0.006 C 
ENDBRANCH   8  11
ENDBRANCH   7   8
ENDBRANCH   1   7
BRANCH   6  13
ATOM     13  N   LIG d   1      -1.185  92.509 119.060  0.00  0.00    -0.311 N 
ATOM     14  C   LIG d   1      -0.372  91.878 119.905  0.00  0.00     0.210 C 
ATOM     15  C   LIG d   1       1.083  92.359 119.883  0.00  0.00     0.109 C 
ATOM     16  O   LIG d   1      -0.710  90.944 120.648  0.00  0.00    -0.276 OA
ATOM     17  H   LIG d   1      -0.820  93.232 118.472  0.00  0.00     0.149 HD
ENDBRANCH   6  13
BRANCH   5  18
ATOM     18  N   LIG d   1      -2.408  90.618 116.995  0.00  0.00     0.381 N 
ATOM     19  H   LIG d   1      -2.345  89.947 117.735  0.00  0.00    -0.090 HD
ATOM     20  H   LIG d   1      -1.477  90.835 116.686  0.00  0.00    -0.090 HD
ATOM     21  H   LIG d   1      -2.937  90.241 116.240  0.00  0.00    -0.090 HD
ENDBRANCH   5  18
BRANCH   3  22
ATOM     22  C   LIG d   1      -6.548  92.970 117.510  0.00  0.00     0.382 C 
ATOM     23  O   LIG d   1      -6.948  92.393 116.470  0.00  0.00    -0.241 OA
ATOM     24  O   LIG d   1      -7.277  93.817 118.061  0.00  0.00    -0.241 OA
ENDBRANCH   3  22
TORSDOF 7
ENDMDL
MODEL 6
REMARK VINA RESULT:      -4.4      1.280      1.871
REMARK  7 active torsions:
REMARK  status: ('A' for Active; 'I' for Inactive)
REMARK    1  A    between atoms: C_2  and  C_3 
REMARK    2  A    between atoms: C_3  and  O_6 
REMARK    3  A    between atoms: C_3  and  C_4 
REMARK    4  A    between atoms: C_7  and  O_6 
REMARK    5  A    between atoms: C_9  and  C_10 
REMARK    6  A    between atoms: N_15  and  C_14 
REMARK    7  A    between atoms: N_20  and  C_19 
REMARK       I    between atoms: C_22  and  N_20 
ROOT
ATOM      1  C   LIG d   1      -1.692  91.903 118.676  0.00  0.00     0.161 C 
ATOM      2  C   LIG d   1      -2.655  91.577 117.707  0.00  0.00     0.016 C 
ATOM      3  C   LIG d   1      -3.953  92.138 117.681  0.00  0.00     0.038 C 
ATOM      4  C   LIG d   1      -4.328  93.181 118.540  0.00  0.00     0.028 C 
ATOM      5  C   LIG d   1      -3.559  93.187 119.857  0.00  0.00    -0.047 C 
ATOM      6  C   LIG d   1      -2.045  93.121 119.555  0.00  0.00     0.091 C 
ENDROOT
BRANCH   1   7
ATOM      7  O   LIG d   1      -0.410  92.093 118.046  0.00  0.00    -0.368 OA
BRANCH   7   8
ATOM      8  C   LIG d   1       0.521  90.988 118.148  0.00  0.00     0.119 C 
BRANCH   8   9
ATOM      9  C   LIG d   1       1.811  91.528 118.796  0.00  0.00     0.028 C 
ATOM     10  C   LIG d   1       1.955  91.096 120.266  0.00  0.00     0.006 C 
ENDBRANCH   8   9
BRANCH   8  11
ATOM     11  C   LIG d   1       0.943  90.484 116.765  0.00  0.00     0.028 C 
ATOM     12  C   LIG d   1       1.744  89.174 116.826  0.00  0.00     0.006 C 
ENDBRANCH   8  11
ENDBRANCH   7   8
ENDBRANCH   1   7
BRANCH   6  13
ATOM     13  N   LIG d   1      -1.223  93.037 120.790  0.00  0.00    -0.311 N 
ATOM     14  C   LIG d   1      -0.369  93.987 121.169  0.00  0.00     0.210 C 
ATOM     15  C   LIG d   1       0.393  93.692 122.465  0.00  0.00     0.109 C 
ATOM     16  O   LIG d   1      -0.195  95.060 120.572  0.00  0.00    -0.276 OA
ATOM     17  H   LIG d   1      -1.325  92.214 121.351  0.00  0.00     0.149 HD
ENDBRANCH   6  13
BRANCH   5  18
ATOM     18  N   LIG d   1      -3.949  94.402 120.596  0.00  0.00     0.381 N 
ATOM     19  H   LIG d   1      -4.169  95.135 119.951  0.00  0.00    -0.090 HD
ATOM     20  H   LIG d   1      -3.174  94.702 121.161  0.00  0.00    -0.090 HD
ATOM     21  H   LIG d   1      -4.737  94.212 121.175  0.00  0.00    -0.090 HD
ENDBRANCH   5  18
BRANCH   3  22
ATOM     22  C   LIG d   1      -4.906  91.625 116.813  0.00  0.00     0.382 C 
ATOM     23  O   LIG d   1      -5.867  92.342 116.444  0.00  0.00    -0.241 OA
ATOM     24  O   LIG d   1      -4.840  90.442 116.430  0.00  0.00    -0.241 OA
ENDBRANCH   3  22
TORSDOF 7
ENDMDL
MODEL 7
REMARK VINA RESULT:      -4.4      2.516      4.460
REMARK  7 active torsions:
REMARK  status: ('A' for Active; 'I' for Inactive)
REMARK    1  A    between atoms: C_2  and  C_3 
REMARK    2  A    between atoms: C_3  and  O_6 
REMARK    3  A    between atoms: C_3  and  C_4 
REMARK    4  A    between atoms: C_7  and  O_6 
REMARK    5  A    between atoms: C_9  and  C_10 
REMARK    6  A    between atoms: N_15  and  C_14 
REMARK    7  A    between atoms: N_20  and  C_19 
REMARK       I    between atoms: C_22  and  N_20 
ROOT
ATOM      1  C   LIG d   1      -4.152  93.331 119.671  0.00  0.00     0.161 C 
ATOM      2  C   LIG d   1      -3.339  92.428 118.967  0.00  0.00     0.016 C 
ATOM      3  C   LIG d   1      -3.762  91.744 117.804  0.00  0.00     0.038 C 
ATOM      4  C   LIG d   1      -4.983  92.034 117.176  0.00  0.00     0.028 C 
ATOM      5  C   LIG d   1      -6.044  92.568 118.132  0.00  0.00    -0.047 C 
ATOM      6  C   LIG d   1      -5.446  93.744 118.939  0.00  0.00     0.091 C 
ENDROOT
BRANCH   1   7
ATOM      7  O   LIG d   1      -3.387  94.498 120.032  0.00  0.00    -0.368 OA
BRANCH   7   8
ATOM      8  C   LIG d   1      -1.946  94.351 119.998  0.00  0.00     0.119 C 
BRANCH   8   9
ATOM      9  C   LIG d   1      -1.401  94.805 121.366  0.00  0.00     0.028 C 
ATOM     10  C   LIG d   1      -0.697  93.668 122.124  0.00  0.00     0.006 C 
ENDBRANCH   8   9
BRANCH   8  11
ATOM     11  C   LIG d   1      -1.314  95.300 118.975  0.00  0.00     0.028 C 
ATOM     12  C   LIG d   1      -0.639  94.556 117.811  0.00  0.00     0.006 C 
ENDBRANCH   8  11
ENDBRANCH   7   8
ENDBRANCH   1   7
BRANCH   6  13
ATOM     13  N   LIG d   1      -6.391  94.271 119.958  0.00  0.00    -0.311 N 
ATOM     14  C   LIG d   1      -7.207  95.300 119.738  0.00  0.00     0.210 C 
ATOM     15  C   LIG d   1      -8.086  95.695 120.929  0.00  0.00     0.109 C 
ATOM     16  O   LIG d   1      -7.310  95.903 118.659  0.00  0.00    -0.276 OA
ATOM     17  H   LIG d   1      -6.396  93.820 120.852  0.00  0.00     0.149 HD
ENDBRANCH   6  13
BRANCH   5  18
ATOM     18  N   LIG d   1      -7.216  92.957 117.325  0.00  0.00     0.381 N 
ATOM     19  H   LIG d   1      -7.998  92.382 117.565  0.00  0.00    -0.090 HD
ATOM     20  H   LIG d   1      -7.004  92.813 116.354  0.00  0.00    -0.090 HD
ATOM     21  H   LIG d   1      -7.437  93.915 117.486  0.00  0.00    -0.090 HD
ENDBRANCH   5  18
BRANCH   3  22
ATOM     22  C   LIG d   1      -2.977  90.729 117.280  0.00  0.00     0.382 C 
ATOM     23  O   LIG d   1      -3.514  89.762 116.688  0.00  0.00    -0.241 OA
ATOM     24  O   LIG d   1      -1.740  90.746 117.429  0.00  0.00    -0.241 OA
ENDBRANCH   3  22
TORSDOF 7
ENDMDL
MODEL 8
REMARK VINA RESULT:      -4.3      1.981      2.985
REMARK  7 active torsions:
REMARK  status: ('A' for Active; 'I' for Inactive)
REMARK    1  A    between atoms: C_2  and  C_3 
REMARK    2  A    between atoms: C_3  and  O_6 
REMARK    3  A    between atoms: C_3  and  C_4 
REMARK    4  A    between atoms: C_7  and  O_6 
REMARK    5  A    between atoms: C_9  and  C_10 
REMARK    6  A    between atoms: N_15  and  C_14 
REMARK    7  A    between atoms: N_20  and  C_19 
REMARK       I    between atoms: C_22  and  N_20 
ROOT
ATOM      1  C   LIG d   1       0.133  91.401 118.321  0.00  0.00     0.161 C 
ATOM      2  C   LIG d   1      -1.035  91.246 117.556  0.00  0.00     0.016 C 
ATOM      3  C   LIG d   1      -2.332  91.511 118.053  0.00  0.00     0.038 C 
ATOM      4  C   LIG d   1      -2.538  92.099 119.310  0.00  0.00     0.028 C 
ATOM      5  C   LIG d   1      -1.423  91.804 120.307  0.00  0.00    -0.047 C 
ATOM      6  C   LIG d   1      -0.063  92.148 119.657  0.00  0.00     0.091 C 
ENDROOT
BRANCH   1   7
ATOM      7  O   LIG d   1       1.151  92.047 117.531  0.00  0.00    -0.368 OA
BRANCH   7   8
ATOM      8  C   LIG d   1       2.292  91.230 117.170  0.00  0.00     0.119 C 
BRANCH   8   9
ATOM      9  C   LIG d   1       2.003  89.795 117.650  0.00  0.00     0.028 C 
ATOM     10  C   LIG d   1       2.007  88.779 116.496  0.00  0.00     0.006 C 
ENDBRANCH   8   9
BRANCH   8  11
ATOM     11  C   LIG d   1       3.551  91.665 117.927  0.00  0.00     0.028 C 
ATOM     12  C   LIG d   1       4.848  91.231 117.226  0.00  0.00     0.006 C 
ENDBRANCH   8  11
ENDBRANCH   7   8
ENDBRANCH   1   7
BRANCH   6  13
ATOM     13  N   LIG d   1       1.087  91.809 120.535  0.00  0.00    -0.311 N 
ATOM     14  C   LIG d   1       1.673  92.687 121.347  0.00  0.00     0.210 C 
ATOM     15  C   LIG d   1       2.855  92.136 122.150  0.00  0.00     0.109 C 
ATOM     16  O   LIG d   1       1.306  93.861 121.502  0.00  0.00    -0.276 OA
ATOM     17  H   LIG d   1       1.429  90.869 120.496  0.00  0.00     0.149 HD
ENDBRANCH   6  13
BRANCH   5  18
ATOM     18  N   LIG d   1      -1.696  92.588 121.526  0.00  0.00     0.381 N 
ATOM     19  H   LIG d   1      -2.683  92.661 121.668  0.00  0.00    -0.090 HD
ATOM     20  H   LIG d   1      -1.325  93.514 121.407  0.00  0.00    -0.090 HD
ATOM     21  H   LIG d   1      -1.271  92.152 122.315  0.00  0.00    -0.090 HD
ENDBRANCH   5  18
BRANCH   3  22
ATOM     22  C   LIG d   1      -3.442  91.150 117.305  0.00  0.00     0.382 C 
ATOM     23  O   LIG d   1      -3.653  89.943 117.040  0.00  0.00    -0.241 OA
ATOM     24  O   LIG d   1      -4.210  92.021 116.854  0.00  0.00    -0.241 OA
ENDBRANCH   3  22
TORSDOF 7
ENDMDL
MODEL 9
REMARK VINA RESULT:      -4.3      2.637      4.351
REMARK  7 active torsions:
REMARK  status: ('A' for Active; 'I' for Inactive)
REMARK    1  A    between atoms: C_2  and  C_3 
REMARK    2  A    between atoms: C_3  and  O_6 
REMARK    3  A    between atoms: C_3  and  C_4 
REMARK    4  A    between atoms: C_7  and  O_6 
REMARK    5  A    between atoms: C_9  and  C_10 
REMARK    6  A    between atoms: N_15  and  C_14 
REMARK    7  A    between atoms: N_20  and  C_19 
REMARK       I    between atoms: C_22  and  N_20 
ROOT
ATOM      1  C   LIG d   1      -3.805  93.634 119.111  0.00  0.00     0.161 C 
ATOM      2  C   LIG d   1      -5.015  94.314 119.325  0.00  0.00     0.016 C 
ATOM      3  C   LIG d   1      -6.214  94.002 118.642  0.00  0.00     0.038 C 
ATOM      4  C   LIG d   1      -6.320  92.883 117.803  0.00  0.00     0.028 C 
ATOM      5  C   LIG d   1      -4.994  92.472 117.171  0.00  0.00    -0.047 C 
ATOM      6  C   LIG d   1      -3.928  92.338 118.282  0.00  0.00     0.091 C 
ENDROOT
BRANCH   1   7
ATOM      7  O   LIG d   1      -3.168  93.361 120.375  0.00  0.00    -0.368 OA
BRANCH   7   8
ATOM      8  C   LIG d   1      -2.258  94.378 120.863  0.00  0.00     0.119 C 
BRANCH   8   9
ATOM      9  C   LIG d   1      -1.305  94.738 119.707  0.00  0.00     0.028 C 
ATOM     10  C   LIG d   1       0.075  94.076 119.857  0.00  0.00     0.006 C 
ENDBRANCH   8   9
BRANCH   8  11
ATOM     11  C   LIG d   1      -1.358  93.832 121.976  0.00  0.00     0.028 C 
ATOM     12  C   LIG d   1      -1.899  92.535 122.597  0.00  0.00     0.006 C 
ENDBRANCH   8  11
ENDBRANCH   7   8
ENDBRANCH   1   7
BRANCH   6  13
ATOM     13  N   LIG d   1      -2.581  92.021 117.741  0.00  0.00    -0.311 N 
ATOM     14  C   LIG d   1      -1.703  91.242 118.370  0.00  0.00     0.210 C 
ATOM     15  C   LIG d   1      -0.365  91.060 117.646  0.00  0.00     0.109 C 
ATOM     16  O   LIG d   1      -1.917  90.658 119.443  0.00  0.00    -0.276 OA
ATOM     17  H   LIG d   1      -2.336  92.428 116.859  0.00  0.00     0.149 HD
ENDBRANCH   6  13
BRANCH   5  18
ATOM     18  N   LIG d   1      -5.222  91.214 116.434  0.00  0.00     0.381 N 
ATOM     19  H   LIG d   1      -5.211  90.442 117.071  0.00  0.00    -0.090 HD
ATOM     20  H   LIG d   1      -4.479  91.087 115.770  0.00  0.00    -0.090 HD
ATOM     21  H   LIG d   1      -6.098  91.251 115.961  0.00  0.00    -0.090 HD
ENDBRANCH   5  18
BRANCH   3  22
ATOM     22  C   LIG d   1      -7.312  94.840 118.764  0.00  0.00     0.382 C 
ATOM     23  O   LIG d   1      -8.451  94.354 118.968  0.00  0.00    -0.241 OA
ATOM     24  O   LIG d   1      -7.185  96.072 118.630  0.00  0.00    -0.241 OA
ENDBRANCH   3  22
TORSDOF 7
ENDMDL
