MODEL 1
REMARK VINA RESULT:      -4.9      0.000      0.000
REMARK  7 active torsions:
REMARK  status: ('A' for Active; 'I' for Inactive)
REMARK    1  A    between atoms: C_2  and  C_3 
REMARK    2  A    between atoms: C_3  and  O_6 
REMARK    3  A    between atoms: C_3  and  C_4 
REMARK    4  A    between atoms: C_7  and  O_6 
REMARK    5  A    between atoms: C_9  and  C_10 
REMARK    6  A    between atoms: N_15  and  C_14 
REMARK    7  A    between atoms: N_20  and  C_19 
REMARK       I    between atoms: C_22  and  N_20 
ROOT
ATOM      1  C   LIG d   1      -4.769  94.181 118.767  0.00  0.00     0.161 C 
ATOM      2  C   LIG d   1      -6.123  94.546 118.679  0.00  0.00     0.016 C 
ATOM      3  C   LIG d   1      -7.078  93.816 117.934  0.00  0.00     0.038 C 
ATOM      4  C   LIG d   1      -6.772  92.580 117.345  0.00  0.00     0.028 C 
ATOM      5  C   LIG d   1      -5.298  92.429 116.984  0.00  0.00    -0.047 C 
ATOM      6  C   LIG d   1      -4.441  92.775 118.223  0.00  0.00     0.091 C 
ENDROOT
BRANCH   1   7
ATOM      7  O   LIG d   1      -4.316  94.310 120.129  0.00  0.00    -0.368 OA
BRANCH   7   8
ATOM      8  C   LIG d   1      -4.567  93.175 120.994  0.00  0.00     0.119 C 
BRANCH   8   9
ATOM      9  C   LIG d   1      -5.539  93.639 122.096  0.00  0.00     0.028 C 
ATOM     10  C   LIG d   1      -6.899  92.923 122.018  0.00  0.00     0.006 C 
ENDBRANCH   8   9
BRANCH   8  11
ATOM     11  C   LIG d   1      -3.296  92.744 121.731  0.00  0.00     0.028 C 
ATOM     12  C   LIG d   1      -2.085  93.630 121.399  0.00  0.00     0.006 C 
ENDBRANCH   8  11
ENDBRANCH   7   8
ENDBRANCH   1   7
BRANCH   6  13
ATOM     13  N   LIG d   1      -2.984  92.734 117.933  0.00  0.00    -0.311 N 
ATOM     14  C   LIG d   1      -2.211  91.684 118.207  0.00  0.00     0.210 C 
ATOM     15  C   LIG d   1      -0.732  91.858 117.845  0.00  0.00     0.109 C 
ATOM     16  O   LIG d   1      -2.615  90.614 118.686  0.00  0.00    -0.276 OA
ATOM     17  H   LIG d   1      -2.578  93.549 117.515  0.00  0.00     0.149 HD
ENDBRANCH   6  13
BRANCH   5  18
ATOM     18  N   LIG d   1      -5.095  91.047 116.509  0.00  0.00     0.381 N 
ATOM     19  H   LIG d   1      -5.793  90.817 115.830  0.00  0.00    -0.090 HD
ATOM     20  H   LIG d   1      -5.193  90.418 117.286  0.00  0.00    -0.090 HD
ATOM     21  H   LIG d   1      -4.188  90.954 116.108  0.00  0.00    -0.090 HD
ENDBRANCH   5  18
BRANCH   3  22
ATOM     22  C   LIG d   1      -8.345  94.344 117.738  0.00  0.00     0.382 C 
ATOM     23  O   LIG d   1      -8.749  94.591 116.576  0.00  0.00    -0.241 OA
ATOM     24  O   LIG d   1      -9.073  94.616 118.711  0.00  0.00    -0.241 OA
ENDBRANCH   3  22
TORSDOF 7
ENDMDL
MODEL 2
REMARK VINA RESULT:      -4.8      1.117      1.899
REMARK  7 active torsions:
REMARK  status: ('A' for Active; 'I' for Inactive)
REMARK    1  A    between atoms: C_2  and  C_3 
REMARK    2  A    between atoms: C_3  and  O_6 
REMARK    3  A    between atoms: C_3  and  C_4 
REMARK    4  A    between atoms: C_7  and  O_6 
REMARK    5  A    between atoms: C_9  and  C_10 
REMARK    6  A    between atoms: N_15  and  C_14 
REMARK    7  A    between atoms: N_20  and  C_19 
REMARK       I    between atoms: C_22  and  N_20 
ROOT
ATOM      1  C   LIG d   1      -4.801  94.156 118.722  0.00  0.00     0.161 C 
ATOM      2  C   LIG d   1      -6.153  94.525 118.629  0.00  0.00     0.016 C 
ATOM      3  C   LIG d   1      -7.109  93.795 117.886  0.00  0.00     0.038 C 
ATOM      4  C   LIG d   1      -6.807  92.555 117.304  0.00  0.00     0.028 C 
ATOM      5  C   LIG d   1      -5.333  92.396 116.948  0.00  0.00    -0.047 C 
ATOM      6  C   LIG d   1      -4.477  92.746 118.186  0.00  0.00     0.091 C 
ENDROOT
BRANCH   1   7
ATOM      7  O   LIG d   1      -4.350  94.290 120.085  0.00  0.00    -0.368 OA
BRANCH   7   8
ATOM      8  C   LIG d   1      -3.403  95.356 120.341  0.00  0.00     0.119 C 
BRANCH   8   9
ATOM      9  C   LIG d   1      -2.064  94.702 120.731  0.00  0.00     0.028 C 
ATOM     10  C   LIG d   1      -2.254  93.352 121.442  0.00  0.00     0.006 C 
ENDBRANCH   8   9
BRANCH   8  11
ATOM     11  C   LIG d   1      -3.817  96.188 121.559  0.00  0.00     0.028 C 
ATOM     12  C   LIG d   1      -5.295  95.997 121.936  0.00  0.00     0.006 C 
ENDBRANCH   8  11
ENDBRANCH   7   8
ENDBRANCH   1   7
BRANCH   6  13
ATOM     13  N   LIG d   1      -3.019  92.698 117.899  0.00  0.00    -0.311 N 
ATOM     14  C   LIG d   1      -2.255  91.639 118.162  0.00  0.00     0.210 C 
ATOM     15  C   LIG d   1      -0.774  91.806 117.806  0.00  0.00     0.109 C 
ATOM     16  O   LIG d   1      -2.668  90.566 118.625  0.00  0.00    -0.276 OA
ATOM     17  H   LIG d   1      -2.607  93.515 117.493  0.00  0.00     0.149 HD
ENDBRANCH   6  13
BRANCH   5  18
ATOM     18  N   LIG d   1      -5.135  91.011 116.479  0.00  0.00     0.381 N 
ATOM     19  H   LIG d   1      -4.324  90.965 115.894  0.00  0.00    -0.090 HD
ATOM     20  H   LIG d   1      -5.933  90.735 115.935  0.00  0.00    -0.090 HD
ATOM     21  H   LIG d   1      -5.026  90.400 117.259  0.00  0.00    -0.090 HD
ENDBRANCH   5  18
BRANCH   3  22
ATOM     22  C   LIG d   1      -8.374  94.326 117.685  0.00  0.00     0.382 C 
ATOM     23  O   LIG d   1      -8.767  94.588 116.523  0.00  0.00    -0.241 OA
ATOM     24  O   LIG d   1      -9.111  94.589 118.655  0.00  0.00    -0.241 OA
ENDBRANCH   3  22
TORSDOF 7
ENDMDL
MODEL 3
REMARK VINA RESULT:      -4.7      0.809      1.174
REMARK  7 active torsions:
REMARK  status: ('A' for Active; 'I' for Inactive)
REMARK    1  A    between atoms: C_2  and  C_3 
REMARK    2  A    between atoms: C_3  and  O_6 
REMARK    3  A    between atoms: C_3  and  C_4 
REMARK    4  A    between atoms: C_7  and  O_6 
REMARK    5  A    between atoms: C_9  and  C_10 
REMARK    6  A    between atoms: N_15  and  C_14 
REMARK    7  A    between atoms: N_20  and  C_19 
REMARK       I    between atoms: C_22  and  N_20 
ROOT
ATOM      1  C   LIG d   1      -4.771  94.206 118.785  0.00  0.00     0.161 C 
ATOM      2  C   LIG d   1      -6.122  94.577 118.687  0.00  0.00     0.016 C 
ATOM      3  C   LIG d   1      -7.076  93.850 117.938  0.00  0.00     0.038 C 
ATOM      4  C   LIG d   1      -6.773  92.611 117.355  0.00  0.00     0.028 C 
ATOM      5  C   LIG d   1      -5.298  92.451 117.004  0.00  0.00    -0.047 C 
ATOM      6  C   LIG d   1      -4.446  92.797 118.247  0.00  0.00     0.091 C 
ENDROOT
BRANCH   1   7
ATOM      7  O   LIG d   1      -4.326  94.336 120.150  0.00  0.00    -0.368 OA
BRANCH   7   8
ATOM      8  C   LIG d   1      -5.304  94.019 121.172  0.00  0.00     0.119 C 
BRANCH   8   9
ATOM      9  C   LIG d   1      -5.368  95.218 122.138  0.00  0.00     0.028 C 
ATOM     10  C   LIG d   1      -4.154  96.152 121.996  0.00  0.00     0.006 C 
ENDBRANCH   8   9
BRANCH   8  11
ATOM     11  C   LIG d   1      -4.851  92.832 122.027  0.00  0.00     0.028 C 
ATOM     12  C   LIG d   1      -3.384  92.446 121.781  0.00  0.00     0.006 C 
ENDBRANCH   8  11
ENDBRANCH   7   8
ENDBRANCH   1   7
BRANCH   6  13
ATOM     13  N   LIG d   1      -2.988  92.747 117.966  0.00  0.00    -0.311 N 
ATOM     14  C   LIG d   1      -2.229  91.682 118.217  0.00  0.00     0.210 C 
ATOM     15  C   LIG d   1      -0.746  91.849 117.871  0.00  0.00     0.109 C 
ATOM     16  O   LIG d   1      -2.648  90.604 118.663  0.00  0.00    -0.276 OA
ATOM     17  H   LIG d   1      -2.570  93.569 117.575  0.00  0.00     0.149 HD
ENDBRANCH   6  13
BRANCH   5  18
ATOM     18  N   LIG d   1      -5.099  91.068 116.533  0.00  0.00     0.381 N 
ATOM     19  H   LIG d   1      -5.583  90.432 117.135  0.00  0.00    -0.090 HD
ATOM     20  H   LIG d   1      -4.119  90.850 116.568  0.00  0.00    -0.090 HD
ATOM     21  H   LIG d   1      -5.435  90.973 115.600  0.00  0.00    -0.090 HD
ENDBRANCH   5  18
BRANCH   3  22
ATOM     22  C   LIG d   1      -8.340  94.383 117.733  0.00  0.00     0.382 C 
ATOM     23  O   LIG d   1      -8.756  94.579 116.566  0.00  0.00    -0.241 OA
ATOM     24  O   LIG d   1      -9.051  94.712 118.701  0.00  0.00    -0.241 OA
ENDBRANCH   3  22
TORSDOF 7
ENDMDL
MODEL 4
REMARK VINA RESULT:      -4.3      2.313      4.014
REMARK  7 active torsions:
REMARK  status: ('A' for Active; 'I' for Inactive)
REMARK    1  A    between atoms: C_2  and  C_3 
REMARK    2  A    between atoms: C_3  and  O_6 
REMARK    3  A    between atoms: C_3  and  C_4 
REMARK    4  A    between atoms: C_7  and  O_6 
REMARK    5  A    between atoms: C_9  and  C_10 
REMARK    6  A    between atoms: N_15  and  C_14 
REMARK    7  A    between atoms: N_20  and  C_19 
REMARK       I    between atoms: C_22  and  N_20 
ROOT
ATOM      1  C   LIG d   1      -3.591  92.781 118.510  0.00  0.00     0.161 C 
ATOM      2  C   LIG d   1      -4.568  92.316 117.614  0.00  0.00     0.016 C 
ATOM      3  C   LIG d   1      -5.873  92.854 117.537  0.00  0.00     0.038 C 
ATOM      4  C   LIG d   1      -6.245  94.002 118.253  0.00  0.00     0.028 C 
ATOM      5  C   LIG d   1      -5.453  94.195 119.541  0.00  0.00    -0.047 C 
ATOM      6  C   LIG d   1      -3.943  94.104 119.221  0.00  0.00     0.091 C 
ENDROOT
BRANCH   1   7
ATOM      7  O   LIG d   1      -2.323  92.896 117.835  0.00  0.00    -0.368 OA
BRANCH   7   8
ATOM      8  C   LIG d   1      -1.287  91.978 118.262  0.00  0.00     0.119 C 
BRANCH   8   9
ATOM      9  C   LIG d   1      -1.899  91.059 119.338  0.00  0.00     0.028 C 
ATOM     10  C   LIG d   1      -2.047  89.606 118.853  0.00  0.00     0.006 C 
ENDBRANCH   8   9
BRANCH   8  11
ATOM     11  C   LIG d   1      -0.142  92.715 118.962  0.00  0.00     0.028 C 
ATOM     12  C   LIG d   1       0.021  92.303 120.434  0.00  0.00     0.006 C 
ENDBRANCH   8  11
ENDBRANCH   7   8
ENDBRANCH   1   7
BRANCH   6  13
ATOM     13  N   LIG d   1      -3.098  94.199 120.440  0.00  0.00    -0.311 N 
ATOM     14  C   LIG d   1      -2.522  95.329 120.846  0.00  0.00     0.210 C 
ATOM     15  C   LIG d   1      -1.676  95.203 122.117  0.00  0.00     0.109 C 
ATOM     16  O   LIG d   1      -2.656  96.430 120.292  0.00  0.00    -0.276 OA
ATOM     17  H   LIG d   1      -2.962  93.359 120.967  0.00  0.00     0.149 HD
ENDBRANCH   6  13
BRANCH   5  18
ATOM     18  N   LIG d   1      -5.845  95.497 120.114  0.00  0.00     0.381 N 
ATOM     19  H   LIG d   1      -5.825  96.200 119.403  0.00  0.00    -0.090 HD
ATOM     20  H   LIG d   1      -5.184  95.751 120.827  0.00  0.00    -0.090 HD
ATOM     21  H   LIG d   1      -6.759  95.436 120.505  0.00  0.00    -0.090 HD
ENDBRANCH   5  18
BRANCH   3  22
ATOM     22  C   LIG d   1      -6.834  92.217 116.767  0.00  0.00     0.382 C 
ATOM     23  O   LIG d   1      -7.876  92.831 116.431  0.00  0.00    -0.241 OA
ATOM     24  O   LIG d   1      -6.694  91.023 116.441  0.00  0.00    -0.241 OA
ENDBRANCH   3  22
TORSDOF 7
ENDMDL
MODEL 5
REMARK VINA RESULT:      -4.1      2.472      5.332
REMARK  7 active torsions:
REMARK  status: ('A' for Active; 'I' for Inactive)
REMARK    1  A    between atoms: C_2  and  C_3 
REMARK    2  A    between atoms: C_3  and  O_6 
REMARK    3  A    between atoms: C_3  and  C_4 
REMARK    4  A    between atoms: C_7  and  O_6 
REMARK    5  A    between atoms: C_9  and  C_10 
REMARK    6  A    between atoms: N_15  and  C_14 
REMARK    7  A    between atoms: N_20  and  C_19 
REMARK       I    between atoms: C_22  and  N_20 
ROOT
ATOM      1  C   LIG d   1      -5.482  93.979 120.192  0.00  0.00     0.161 C 
ATOM      2  C   LIG d   1      -4.284  93.446 119.687  0.00  0.00     0.016 C 
ATOM      3  C   LIG d   1      -4.196  92.759 118.455  0.00  0.00     0.038 C 
ATOM      4  C   LIG d   1      -5.279  92.691 117.565  0.00  0.00     0.028 C 
ATOM      5  C   LIG d   1      -6.636  92.776 118.255  0.00  0.00    -0.047 C 
ATOM      6  C   LIG d   1      -6.650  94.012 119.184  0.00  0.00     0.091 C 
ENDROOT
BRANCH   1   7
ATOM      7  O   LIG d   1      -5.243  95.297 120.725  0.00  0.00    -0.368 OA
BRANCH   7   8
ATOM      8  C   LIG d   1      -5.344  96.393 119.783  0.00  0.00     0.119 C 
BRANCH   8   9
ATOM      9  C   LIG d   1      -3.992  97.132 119.786  0.00  0.00     0.028 C 
ATOM     10  C   LIG d   1      -3.080  96.682 120.940  0.00  0.00     0.006 C 
ENDBRANCH   8   9
BRANCH   8  11
ATOM     11  C   LIG d   1      -6.374  97.430 120.243  0.00  0.00     0.028 C 
ATOM     12  C   LIG d   1      -6.922  97.141 121.649  0.00  0.00     0.006 C 
ENDBRANCH   8  11
ENDBRANCH   7   8
ENDBRANCH   1   7
BRANCH   6  13
ATOM     13  N   LIG d   1      -7.912  94.122 119.962  0.00  0.00    -0.311 N 
ATOM     14  C   LIG d   1      -8.958  94.843 119.563  0.00  0.00     0.210 C 
ATOM     15  C   LIG d   1     -10.151  94.838 120.523  0.00  0.00     0.109 C 
ATOM     16  O   LIG d   1      -9.023  95.461 118.489  0.00  0.00    -0.276 OA
ATOM     17  H   LIG d   1      -7.957  93.627 120.831  0.00  0.00     0.149 HD
ENDBRANCH   6  13
BRANCH   5  18
ATOM     18  N   LIG d   1      -7.668  92.832 117.203  0.00  0.00     0.381 N 
ATOM     19  H   LIG d   1      -7.403  92.245 116.437  0.00  0.00    -0.090 HD
ATOM     20  H   LIG d   1      -7.739  93.776 116.867  0.00  0.00    -0.090 HD
ATOM     21  H   LIG d   1      -8.546  92.536 117.570  0.00  0.00    -0.090 HD
ENDBRANCH   5  18
BRANCH   3  22
ATOM     22  C   LIG d   1      -3.025  92.097 118.119  0.00  0.00     0.382 C 
ATOM     23  O   LIG d   1      -1.951  92.736 118.014  0.00  0.00    -0.241 OA
ATOM     24  O   LIG d   1      -3.038  90.875 117.876  0.00  0.00    -0.241 OA
ENDBRANCH   3  22
TORSDOF 7
ENDMDL
MODEL 6
REMARK VINA RESULT:      -3.9      2.164      3.428
REMARK  7 active torsions:
REMARK  status: ('A' for Active; 'I' for Inactive)
REMARK    1  A    between atoms: C_2  and  C_3 
REMARK    2  A    between atoms: C_3  and  O_6 
REMARK    3  A    between atoms: C_3  and  C_4 
REMARK    4  A    between atoms: C_7  and  O_6 
REMARK    5  A    between atoms: C_9  and  C_10 
REMARK    6  A    between atoms: N_15  and  C_14 
REMARK    7  A    between atoms: N_20  and  C_19 
REMARK       I    between atoms: C_22  and  N_20 
ROOT
ATOM      1  C   LIG d   1      -5.930  95.551 119.503  0.00  0.00     0.161 C 
ATOM      2  C   LIG d   1      -6.900  95.043 118.623  0.00  0.00     0.016 C 
ATOM      3  C   LIG d   1      -6.719  93.864 117.863  0.00  0.00     0.038 C 
ATOM      4  C   LIG d   1      -5.608  93.027 118.046  0.00  0.00     0.028 C 
ATOM      5  C   LIG d   1      -4.373  93.762 118.553  0.00  0.00    -0.047 C 
ATOM      6  C   LIG d   1      -4.759  94.592 119.799  0.00  0.00     0.091 C 
ENDROOT
BRANCH   1   7
ATOM      7  O   LIG d   1      -6.557  95.971 120.731  0.00  0.00    -0.368 OA
BRANCH   7   8
ATOM      8  C   LIG d   1      -7.621  95.120 121.227  0.00  0.00     0.119 C 
BRANCH   8   9
ATOM      9  C   LIG d   1      -8.789  96.035 121.644  0.00  0.00     0.028 C 
ATOM     10  C   LIG d   1     -10.073  95.746 120.849  0.00  0.00     0.006 C 
ENDBRANCH   8   9
BRANCH   8  11
ATOM     11  C   LIG d   1      -7.200  94.391 122.506  0.00  0.00     0.028 C 
ATOM     12  C   LIG d   1      -7.206  92.862 122.349  0.00  0.00     0.006 C 
ENDBRANCH   8  11
ENDBRANCH   7   8
ENDBRANCH   1   7
BRANCH   6  13
ATOM     13  N   LIG d   1      -3.627  95.409 120.309  0.00  0.00    -0.311 N 
ATOM     14  C   LIG d   1      -2.821  95.012 121.292  0.00  0.00     0.210 C 
ATOM     15  C   LIG d   1      -1.729  96.014 121.679  0.00  0.00     0.109 C 
ATOM     16  O   LIG d   1      -2.886  93.910 121.859  0.00  0.00    -0.276 OA
ATOM     17  H   LIG d   1      -3.482  96.304 119.884  0.00  0.00     0.149 HD
ENDBRANCH   6  13
BRANCH   5  18
ATOM     18  N   LIG d   1      -3.335  92.751 118.831  0.00  0.00     0.381 N 
ATOM     19  H   LIG d   1      -3.591  92.216 119.636  0.00  0.00    -0.090 HD
ATOM     20  H   LIG d   1      -2.468  93.220 119.027  0.00  0.00    -0.090 HD
ATOM     21  H   LIG d   1      -3.225  92.150 118.044  0.00  0.00    -0.090 HD
ENDBRANCH   5  18
BRANCH   3  22
ATOM     22  C   LIG d   1      -7.637  93.534 116.877  0.00  0.00     0.382 C 
ATOM     23  O   LIG d   1      -8.449  94.397 116.463  0.00  0.00    -0.241 OA
ATOM     24  O   LIG d   1      -7.694  92.373 116.430  0.00  0.00    -0.241 OA
ENDBRANCH   3  22
TORSDOF 7
ENDMDL
MODEL 7
REMARK VINA RESULT:      -3.9      1.722      2.328
REMARK  7 active torsions:
REMARK  status: ('A' for Active; 'I' for Inactive)
REMARK    1  A    between atoms: C_2  and  C_3 
REMARK    2  A    between atoms: C_3  and  O_6 
REMARK    3  A    between atoms: C_3  and  C_4 
REMARK    4  A    between atoms: C_7  and  O_6 
REMARK    5  A    between atoms: C_9  and  C_10 
REMARK    6  A    between atoms: N_15  and  C_14 
REMARK    7  A    between atoms: N_20  and  C_19 
REMARK       I    between atoms: C_22  and  N_20 
ROOT
ATOM      1  C   LIG d   1      -2.935  93.528 119.399  0.00  0.00     0.161 C 
ATOM      2  C   LIG d   1      -3.922  94.480 119.704  0.00  0.00     0.016 C 
ATOM      3  C   LIG d   1      -5.209  94.481 119.118  0.00  0.00     0.038 C 
ATOM      4  C   LIG d   1      -5.650  93.434 118.295  0.00  0.00     0.028 C 
ATOM      5  C   LIG d   1      -4.518  92.721 117.563  0.00  0.00    -0.047 C 
ATOM      6  C   LIG d   1      -3.435  92.315 118.588  0.00  0.00     0.091 C 
ENDROOT
BRANCH   1   7
ATOM      7  O   LIG d   1      -2.289  93.090 120.610  0.00  0.00    -0.368 OA
BRANCH   7   8
ATOM      8  C   LIG d   1      -2.877  91.939 121.266  0.00  0.00     0.119 C 
BRANCH   8   9
ATOM      9  C   LIG d   1      -3.427  92.413 122.625  0.00  0.00     0.028 C 
ATOM     10  C   LIG d   1      -4.965  92.447 122.656  0.00  0.00     0.006 C 
ENDBRANCH   8   9
BRANCH   8  11
ATOM     11  C   LIG d   1      -1.817  90.887 121.602  0.00  0.00     0.028 C 
ATOM     12  C   LIG d   1      -2.397  89.467 121.701  0.00  0.00     0.006 C 
ENDBRANCH   8  11
ENDBRANCH   7   8
ENDBRANCH   1   7
BRANCH   6  13
ATOM     13  N   LIG d   1      -2.253  91.686 117.944  0.00  0.00    -0.311 N 
ATOM     14  C   LIG d   1      -2.097  90.369 117.823  0.00  0.00     0.210 C 
ATOM     15  C   LIG d   1      -0.796  89.930 117.144  0.00  0.00     0.109 C 
ATOM     16  O   LIG d   1      -2.929  89.522 118.185  0.00  0.00    -0.276 OA
ATOM     17  H   LIG d   1      -1.543  92.300 117.594  0.00  0.00     0.149 HD
ENDBRANCH   6  13
BRANCH   5  18
ATOM     18  N   LIG d   1      -5.104  91.569 116.852  0.00  0.00     0.381 N 
ATOM     19  H   LIG d   1      -5.535  91.878 116.004  0.00  0.00    -0.090 HD
ATOM     20  H   LIG d   1      -5.811  91.154 117.433  0.00  0.00    -0.090 HD
ATOM     21  H   LIG d   1      -4.395  90.899 116.648  0.00  0.00    -0.090 HD
ENDBRANCH   5  18
BRANCH   3  22
ATOM     22  C   LIG d   1      -6.056  95.560 119.323  0.00  0.00     0.382 C 
ATOM     23  O   LIG d   1      -7.142  95.632 118.698  0.00  0.00    -0.241 OA
ATOM     24  O   LIG d   1      -5.728  96.484 120.091  0.00  0.00    -0.241 OA
ENDBRANCH   3  22
TORSDOF 7
ENDMDL
MODEL 8
REMARK VINA RESULT:      -3.9      2.509      4.921
REMARK  7 active torsions:
REMARK  status: ('A' for Active; 'I' for Inactive)
REMARK    1  A    between atoms: C_2  and  C_3 
REMARK    2  A    between atoms: C_3  and  O_6 
REMARK    3  A    between atoms: C_3  and  C_4 
REMARK    4  A    between atoms: C_7  and  O_6 
REMARK    5  A    between atoms: C_9  and  C_10 
REMARK    6  A    between atoms: N_15  and  C_14 
REMARK    7  A    between atoms: N_20  and  C_19 
REMARK       I    between atoms: C_22  and  N_20 
ROOT
ATOM      1  C   LIG d   1      -2.555  92.614 118.700  0.00  0.00     0.161 C 
ATOM      2  C   LIG d   1      -3.489  92.214 117.730  0.00  0.00     0.016 C 
ATOM      3  C   LIG d   1      -4.834  92.649 117.720  0.00  0.00     0.038 C 
ATOM      4  C   LIG d   1      -5.301  93.639 118.597  0.00  0.00     0.028 C 
ATOM      5  C   LIG d   1      -4.528  93.697 119.911  0.00  0.00    -0.047 C 
ATOM      6  C   LIG d   1      -3.016  93.780 119.600  0.00  0.00     0.091 C 
ENDROOT
BRANCH   1   7
ATOM      7  O   LIG d   1      -1.301  92.936 118.067  0.00  0.00    -0.368 OA
BRANCH   7   8
ATOM      8  C   LIG d   1      -0.218  91.998 118.285  0.00  0.00     0.119 C 
BRANCH   8   9
ATOM      9  C   LIG d   1       1.030  92.813 118.676  0.00  0.00     0.028 C 
ATOM     10  C   LIG d   1       1.924  92.072 119.684  0.00  0.00     0.006 C 
ENDBRANCH   8   9
BRANCH   8  11
ATOM     11  C   LIG d   1       0.160  91.273 116.990  0.00  0.00     0.028 C 
ATOM     12  C   LIG d   1      -0.285  89.802 116.978  0.00  0.00     0.006 C 
ENDBRANCH   8  11
ENDBRANCH   7   8
ENDBRANCH   1   7
BRANCH   6  13
ATOM     13  N   LIG d   1      -2.182  93.755 120.830  0.00  0.00    -0.311 N 
ATOM     14  C   LIG d   1      -1.766  94.855 121.456  0.00  0.00     0.210 C 
ATOM     15  C   LIG d   1      -0.900  94.606 122.695  0.00  0.00     0.109 C 
ATOM     16  O   LIG d   1      -2.057  96.013 121.120  0.00  0.00    -0.276 OA
ATOM     17  H   LIG d   1      -1.925  92.857 121.189  0.00  0.00     0.149 HD
ENDBRANCH   6  13
BRANCH   5  18
ATOM     18  N   LIG d   1      -5.027  94.858 120.671  0.00  0.00     0.381 N 
ATOM     19  H   LIG d   1      -5.069  94.633 121.645  0.00  0.00    -0.090 HD
ATOM     20  H   LIG d   1      -5.956  95.077 120.357  0.00  0.00    -0.090 HD
ATOM     21  H   LIG d   1      -4.428  95.641 120.529  0.00  0.00    -0.090 HD
ENDBRANCH   5  18
BRANCH   3  22
ATOM     22  C   LIG d   1      -5.739  92.062 116.848  0.00  0.00     0.382 C 
ATOM     23  O   LIG d   1      -5.543  90.894 116.434  0.00  0.00    -0.241 OA
ATOM     24  O   LIG d   1      -6.726  92.701 116.437  0.00  0.00    -0.241 OA
ENDBRANCH   3  22
TORSDOF 7
ENDMDL
MODEL 9
REMARK VINA RESULT:      -3.8      2.304      3.319
REMARK  7 active torsions:
REMARK  status: ('A' for Active; 'I' for Inactive)
REMARK    1  A    between atoms: C_2  and  C_3 
REMARK    2  A    between atoms: C_3  and  O_6 
REMARK    3  A    between atoms: C_3  and  C_4 
REMARK    4  A    between atoms: C_7  and  O_6 
REMARK    5  A    between atoms: C_9  and  C_10 
REMARK    6  A    between atoms: N_15  and  C_14 
REMARK    7  A    between atoms: N_20  and  C_19 
REMARK       I    between atoms: C_22  and  N_20 
ROOT
ATOM      1  C   LIG d   1      -6.785  93.945 120.767  0.00  0.00     0.161 C 
ATOM      2  C   LIG d   1      -8.049  94.467 121.087  0.00  0.00     0.016 C 
ATOM      3  C   LIG d   1      -8.974  94.918 120.117  0.00  0.00     0.038 C 
ATOM      4  C   LIG d   1      -8.755  94.736 118.743  0.00  0.00     0.028 C 
ATOM      5  C   LIG d   1      -7.278  94.675 118.369  0.00  0.00    -0.047 C 
ATOM      6  C   LIG d   1      -6.574  93.636 119.270  0.00  0.00     0.091 C 
ENDROOT
BRANCH   1   7
ATOM      7  O   LIG d   1      -6.526  92.771 121.563  0.00  0.00    -0.368 OA
BRANCH   7   8
ATOM      8  C   LIG d   1      -5.922  93.001 122.860  0.00  0.00     0.119 C 
BRANCH   8   9
ATOM      9  C   LIG d   1      -4.441  93.358 122.624  0.00  0.00     0.028 C 
ATOM     10  C   LIG d   1      -3.640  92.182 122.041  0.00  0.00     0.006 C 
ENDBRANCH   8   9
BRANCH   8  11
ATOM     11  C   LIG d   1      -5.902  91.721 123.700  0.00  0.00     0.028 C 
ATOM     12  C   LIG d   1      -7.139  90.839 123.470  0.00  0.00     0.006 C 
ENDBRANCH   8  11
ENDBRANCH   7   8
ENDBRANCH   1   7
BRANCH   6  13
ATOM     13  N   LIG d   1      -5.109  93.573 119.027  0.00  0.00    -0.311 N 
ATOM     14  C   LIG d   1      -4.546  92.744 118.149  0.00  0.00     0.210 C 
ATOM     15  C   LIG d   1      -3.019  92.828 118.068  0.00  0.00     0.109 C 
ATOM     16  O   LIG d   1      -5.169  91.971 117.407  0.00  0.00    -0.276 OA
ATOM     17  H   LIG d   1      -4.531  94.190 119.564  0.00  0.00     0.149 HD
ENDBRANCH   6  13
BRANCH   5  18
ATOM     18  N   LIG d   1      -7.196  94.345 116.933  0.00  0.00     0.381 N 
ATOM     19  H   LIG d   1      -7.342  95.171 116.387  0.00  0.00    -0.090 HD
ATOM     20  H   LIG d   1      -7.921  93.686 116.709  0.00  0.00    -0.090 HD
ATOM     21  H   LIG d   1      -6.304  93.953 116.724  0.00  0.00    -0.090 HD
ENDBRANCH   5  18
BRANCH   3  22
ATOM     22  C   LIG d   1     -10.115  95.596 120.518  0.00  0.00     0.382 C 
ATOM     23  O   LIG d   1     -11.244  95.075 120.353  0.00  0.00    -0.241 OA
ATOM     24  O   LIG d   1     -10.033  96.741 121.002  0.00  0.00    -0.241 OA
ENDBRANCH   3  22
TORSDOF 7
ENDMDL
