MODEL 1
REMARK VINA RESULT:      -4.9      0.000      0.000
REMARK  7 active torsions:
REMARK  status: ('A' for Active; 'I' for Inactive)
REMARK    1  A    between atoms: C_2  and  C_3 
REMARK    2  A    between atoms: C_3  and  O_6 
REMARK    3  A    between atoms: C_3  and  C_4 
REMARK    4  A    between atoms: C_7  and  O_6 
REMARK    5  A    between atoms: C_9  and  C_10 
REMARK    6  A    between atoms: N_15  and  C_14 
REMARK    7  A    between atoms: N_20  and  C_19 
REMARK       I    between atoms: C_22  and  N_20 
ROOT
ATOM      1  C   LIG d   1      -1.043  91.458 117.965  0.00  0.00     0.161 C 
ATOM      2  C   LIG d   1      -0.077  92.166 118.699  0.00  0.00     0.016 C 
ATOM      3  C   LIG d   1      -0.383  92.948 119.837  0.00  0.00     0.038 C 
ATOM      4  C   LIG d   1      -1.663  92.953 120.411  0.00  0.00     0.028 C 
ATOM      5  C   LIG d   1      -2.776  92.656 119.411  0.00  0.00    -0.047 C 
ATOM      6  C   LIG d   1      -2.427  91.362 118.641  0.00  0.00     0.091 C 
ENDROOT
BRANCH   1   7
ATOM      7  O   LIG d   1      -0.548  90.142 117.648  0.00  0.00    -0.368 OA
BRANCH   7   8
ATOM      8  C   LIG d   1       0.520  89.643 118.489  0.00  0.00     0.119 C 
BRANCH   8   9
ATOM      9  C   LIG d   1       1.547  88.951 117.572  0.00  0.00     0.028 C 
ATOM     10  C   LIG d   1       2.581  89.936 117.002  0.00  0.00     0.006 C 
ENDBRANCH   8   9
BRANCH   8  11
ATOM     11  C   LIG d   1       0.018  88.548 119.435  0.00  0.00     0.028 C 
ATOM     12  C   LIG d   1      -0.309  89.078 120.840  0.00  0.00     0.006 C 
ENDBRANCH   8  11
ENDBRANCH   7   8
ENDBRANCH   1   7
BRANCH   6  13
ATOM     13  N   LIG d   1      -3.423  91.046 117.584  0.00  0.00    -0.311 N 
ATOM     14  C   LIG d   1      -4.453  90.222 117.770  0.00  0.00     0.210 C 
ATOM     15  C   LIG d   1      -5.348  90.018 116.544  0.00  0.00     0.109 C 
ATOM     16  O   LIG d   1      -4.728  89.666 118.844  0.00  0.00    -0.276 OA
ATOM     17  H   LIG d   1      -3.293  91.479 116.691  0.00  0.00     0.149 HD
ENDBRANCH   6  13
BRANCH   5  18
ATOM     18  N   LIG d   1      -4.039  92.557 120.167  0.00  0.00     0.381 N 
ATOM     19  H   LIG d   1      -3.852  92.621 121.148  0.00  0.00    -0.090 HD
ATOM     20  H   LIG d   1      -4.458  91.662 119.983  0.00  0.00    -0.090 HD
ATOM     21  H   LIG d   1      -4.660  93.286 119.891  0.00  0.00    -0.090 HD
ENDBRANCH   5  18
BRANCH   3  22
ATOM     22  C   LIG d   1       0.590  93.767 120.389  0.00  0.00     0.382 C 
ATOM     23  O   LIG d   1       0.301  94.938 120.734  0.00  0.00    -0.241 OA
ATOM     24  O   LIG d   1       1.763  93.365 120.506  0.00  0.00    -0.241 OA
ENDBRANCH   3  22
TORSDOF 7
ENDMDL
MODEL 2
REMARK VINA RESULT:      -4.6      2.923      5.705
REMARK  7 active torsions:
REMARK  status: ('A' for Active; 'I' for Inactive)
REMARK    1  A    between atoms: C_2  and  C_3 
REMARK    2  A    between atoms: C_3  and  O_6 
REMARK    3  A    between atoms: C_3  and  C_4 
REMARK    4  A    between atoms: C_7  and  O_6 
REMARK    5  A    between atoms: C_9  and  C_10 
REMARK    6  A    between atoms: N_15  and  C_14 
REMARK    7  A    between atoms: N_20  and  C_19 
REMARK       I    between atoms: C_22  and  N_20 
ROOT
ATOM      1  C   LIG d   1      -4.716  90.612 120.433  0.00  0.00     0.161 C 
ATOM      2  C   LIG d   1      -5.821  91.236 119.831  0.00  0.00     0.016 C 
ATOM      3  C   LIG d   1      -6.198  92.573 120.093  0.00  0.00     0.038 C 
ATOM      4  C   LIG d   1      -5.402  93.430 120.867  0.00  0.00     0.028 C 
ATOM      5  C   LIG d   1      -4.551  92.698 121.899  0.00  0.00    -0.047 C 
ATOM      6  C   LIG d   1      -3.771  91.565 121.194  0.00  0.00     0.091 C 
ENDROOT
BRANCH   1   7
ATOM      7  O   LIG d   1      -3.982  89.860 119.447  0.00  0.00    -0.368 OA
BRANCH   7   8
ATOM      8  C   LIG d   1      -3.545  90.598 118.279  0.00  0.00     0.119 C 
BRANCH   8   9
ATOM      9  C   LIG d   1      -3.873  89.741 117.041  0.00  0.00     0.028 C 
ATOM     10  C   LIG d   1      -5.247  90.081 116.439  0.00  0.00     0.006 C 
ENDBRANCH   8   9
BRANCH   8  11
ATOM     11  C   LIG d   1      -2.022  90.766 118.263  0.00  0.00     0.028 C 
ATOM     12  C   LIG d   1      -1.289  89.622 118.981  0.00  0.00     0.006 C 
ENDBRANCH   8  11
ENDBRANCH   7   8
ENDBRANCH   1   7
BRANCH   6  13
ATOM     13  N   LIG d   1      -2.977  90.746 122.147  0.00  0.00    -0.311 N 
ATOM     14  C   LIG d   1      -1.687  90.959 122.400  0.00  0.00     0.210 C 
ATOM     15  C   LIG d   1      -1.055  89.986 123.400  0.00  0.00     0.109 C 
ATOM     16  O   LIG d   1      -1.015  91.882 121.915  0.00  0.00    -0.276 OA
ATOM     17  H   LIG d   1      -3.453  89.995 122.608  0.00  0.00     0.149 HD
ENDBRANCH   6  13
BRANCH   5  18
ATOM     18  N   LIG d   1      -3.671  93.695 122.539  0.00  0.00     0.381 N 
ATOM     19  H   LIG d   1      -3.301  93.323 123.390  0.00  0.00    -0.090 HD
ATOM     20  H   LIG d   1      -4.212  94.512 122.760  0.00  0.00    -0.090 HD
ATOM     21  H   LIG d   1      -2.926  93.938 121.923  0.00  0.00    -0.090 HD
ENDBRANCH   5  18
BRANCH   3  22
ATOM     22  C   LIG d   1      -7.406  93.054 119.611  0.00  0.00     0.382 C 
ATOM     23  O   LIG d   1      -8.129  92.323 118.891  0.00  0.00    -0.241 OA
ATOM     24  O   LIG d   1      -7.762  94.223 119.850  0.00  0.00    -0.241 OA
ENDBRANCH   3  22
TORSDOF 7
ENDMDL
MODEL 3
REMARK VINA RESULT:      -4.5      2.520      5.251
REMARK  7 active torsions:
REMARK  status: ('A' for Active; 'I' for Inactive)
REMARK    1  A    between atoms: C_2  and  C_3 
REMARK    2  A    between atoms: C_3  and  O_6 
REMARK    3  A    between atoms: C_3  and  C_4 
REMARK    4  A    between atoms: C_7  and  O_6 
REMARK    5  A    between atoms: C_9  and  C_10 
REMARK    6  A    between atoms: N_15  and  C_14 
REMARK    7  A    between atoms: N_20  and  C_19 
REMARK       I    between atoms: C_22  and  N_20 
ROOT
ATOM      1  C   LIG d   1      -2.652  92.651 120.158  0.00  0.00     0.161 C 
ATOM      2  C   LIG d   1      -1.565  92.294 119.342  0.00  0.00     0.016 C 
ATOM      3  C   LIG d   1      -1.618  91.252 118.388  0.00  0.00     0.038 C 
ATOM      4  C   LIG d   1      -2.816  90.591 118.077  0.00  0.00     0.028 C 
ATOM      5  C   LIG d   1      -3.814  90.573 119.230  0.00  0.00    -0.047 C 
ATOM      6  C   LIG d   1      -3.999  92.014 119.757  0.00  0.00     0.091 C 
ENDROOT
BRANCH   1   7
ATOM      7  O   LIG d   1      -2.772  94.086 120.213  0.00  0.00    -0.368 OA
BRANCH   7   8
ATOM      8  C   LIG d   1      -2.597  94.691 121.518  0.00  0.00     0.119 C 
BRANCH   8   9
ATOM      9  C   LIG d   1      -3.739  95.707 121.714  0.00  0.00     0.028 C 
ATOM     10  C   LIG d   1      -4.738  95.699 120.545  0.00  0.00     0.006 C 
ENDBRANCH   8   9
BRANCH   8  11
ATOM     11  C   LIG d   1      -1.307  95.514 121.582  0.00  0.00     0.028 C 
ATOM     12  C   LIG d   1      -0.088  94.678 122.005  0.00  0.00     0.006 C 
ENDBRANCH   8  11
ENDBRANCH   7   8
ENDBRANCH   1   7
BRANCH   6  13
ATOM     13  N   LIG d   1      -4.896  92.075 120.940  0.00  0.00    -0.311 N 
ATOM     14  C   LIG d   1      -6.212  92.260 120.854  0.00  0.00     0.210 C 
ATOM     15  C   LIG d   1      -6.947  92.311 122.197  0.00  0.00     0.109 C 
ATOM     16  O   LIG d   1      -6.844  92.355 119.792  0.00  0.00    -0.276 OA
ATOM     17  H   LIG d   1      -4.470  91.976 121.841  0.00  0.00     0.149 HD
ENDBRANCH   6  13
BRANCH   5  18
ATOM     18  N   LIG d   1      -5.065  89.976 118.727  0.00  0.00     0.381 N 
ATOM     19  H   LIG d   1      -5.399  90.501 117.943  0.00  0.00    -0.090 HD
ATOM     20  H   LIG d   1      -5.759  90.016 119.452  0.00  0.00    -0.090 HD
ATOM     21  H   LIG d   1      -4.908  89.029 118.459  0.00  0.00    -0.090 HD
ENDBRANCH   5  18
BRANCH   3  22
ATOM     22  C   LIG d   1      -0.454  90.836 117.760  0.00  0.00     0.382 C 
ATOM     23  O   LIG d   1      -0.439  89.757 117.119  0.00  0.00    -0.241 OA
ATOM     24  O   LIG d   1       0.593  91.502 117.864  0.00  0.00    -0.241 OA
ENDBRANCH   3  22
TORSDOF 7
ENDMDL
MODEL 4
REMARK VINA RESULT:      -4.5      1.718      4.866
REMARK  7 active torsions:
REMARK  status: ('A' for Active; 'I' for Inactive)
REMARK    1  A    between atoms: C_2  and  C_3 
REMARK    2  A    between atoms: C_3  and  O_6 
REMARK    3  A    between atoms: C_3  and  C_4 
REMARK    4  A    between atoms: C_7  and  O_6 
REMARK    5  A    between atoms: C_9  and  C_10 
REMARK    6  A    between atoms: N_15  and  C_14 
REMARK    7  A    between atoms: N_20  and  C_19 
REMARK       I    between atoms: C_22  and  N_20 
ROOT
ATOM      1  C   LIG d   1      -0.224  90.765 118.476  0.00  0.00     0.161 C 
ATOM      2  C   LIG d   1      -1.345  90.165 117.879  0.00  0.00     0.016 C 
ATOM      3  C   LIG d   1      -2.674  90.574 118.133  0.00  0.00     0.038 C 
ATOM      4  C   LIG d   1      -2.966  91.718 118.890  0.00  0.00     0.028 C 
ATOM      5  C   LIG d   1      -1.893  92.052 119.921  0.00  0.00    -0.047 C 
ATOM      6  C   LIG d   1      -0.516  92.086 119.219  0.00  0.00     0.091 C 
ENDROOT
BRANCH   1   7
ATOM      7  O   LIG d   1       0.808  90.963 117.490  0.00  0.00    -0.368 OA
BRANCH   7   8
ATOM      8  C   LIG d   1       2.035  90.220 117.693  0.00  0.00     0.119 C 
BRANCH   8   9
ATOM      9  C   LIG d   1       3.182  91.042 117.074  0.00  0.00     0.028 C 
ATOM     10  C   LIG d   1       3.287  92.452 117.680  0.00  0.00     0.006 C 
ENDBRANCH   8   9
BRANCH   8  11
ATOM     11  C   LIG d   1       2.020  88.898 116.919  0.00  0.00     0.028 C 
ATOM     12  C   LIG d   1       2.347  87.685 117.804  0.00  0.00     0.006 C 
ENDBRANCH   8  11
ENDBRANCH   7   8
ENDBRANCH   1   7
BRANCH   6  13
ATOM     13  N   LIG d   1       0.600  92.323 120.171  0.00  0.00    -0.311 N 
ATOM     14  C   LIG d   1       0.989  93.538 120.556  0.00  0.00     0.210 C 
ATOM     15  C   LIG d   1       2.173  93.559 121.528  0.00  0.00     0.109 C 
ATOM     16  O   LIG d   1       0.446  94.597 120.209  0.00  0.00    -0.276 OA
ATOM     17  H   LIG d   1       1.076  91.517 120.526  0.00  0.00     0.149 HD
ENDBRANCH   6  13
BRANCH   5  18
ATOM     18  N   LIG d   1      -2.257  93.340 120.542  0.00  0.00     0.381 N 
ATOM     19  H   LIG d   1      -1.813  94.090 120.051  0.00  0.00    -0.090 HD
ATOM     20  H   LIG d   1      -1.930  93.347 121.492  0.00  0.00    -0.090 HD
ATOM     21  H   LIG d   1      -3.246  93.460 120.522  0.00  0.00    -0.090 HD
ENDBRANCH   5  18
BRANCH   3  22
ATOM     22  C   LIG d   1      -3.730  89.811 117.658  0.00  0.00     0.382 C 
ATOM     23  O   LIG d   1      -3.702  89.361 116.487  0.00  0.00    -0.241 OA
ATOM     24  O   LIG d   1      -4.731  89.604 118.371  0.00  0.00    -0.241 OA
ENDBRANCH   3  22
TORSDOF 7
ENDMDL
MODEL 5
REMARK VINA RESULT:      -4.5      2.135      3.665
REMARK  7 active torsions:
REMARK  status: ('A' for Active; 'I' for Inactive)
REMARK    1  A    between atoms: C_2  and  C_3 
REMARK    2  A    between atoms: C_3  and  O_6 
REMARK    3  A    between atoms: C_3  and  C_4 
REMARK    4  A    between atoms: C_7  and  O_6 
REMARK    5  A    between atoms: C_9  and  C_10 
REMARK    6  A    between atoms: N_15  and  C_14 
REMARK    7  A    between atoms: N_20  and  C_19 
REMARK       I    between atoms: C_22  and  N_20 
ROOT
ATOM      1  C   LIG d   1      -2.296  92.302 118.654  0.00  0.00     0.161 C 
ATOM      2  C   LIG d   1      -1.026  91.906 118.202  0.00  0.00     0.016 C 
ATOM      3  C   LIG d   1       0.161  92.113 118.941  0.00  0.00     0.038 C 
ATOM      4  C   LIG d   1       0.141  92.597 120.257  0.00  0.00     0.028 C 
ATOM      5  C   LIG d   1      -1.066  93.478 120.560  0.00  0.00    -0.047 C 
ATOM      6  C   LIG d   1      -2.351  92.731 120.135  0.00  0.00     0.091 C 
ENDROOT
BRANCH   1   7
ATOM      7  O   LIG d   1      -3.254  91.255 118.399  0.00  0.00    -0.368 OA
BRANCH   7   8
ATOM      8  C   LIG d   1      -2.706  89.970 118.015  0.00  0.00     0.119 C 
BRANCH   8   9
ATOM      9  C   LIG d   1      -3.580  89.418 116.872  0.00  0.00     0.028 C 
ATOM     10  C   LIG d   1      -4.921  90.160 116.748  0.00  0.00     0.006 C 
ENDBRANCH   8   9
BRANCH   8  11
ATOM     11  C   LIG d   1      -2.829  88.950 119.150  0.00  0.00     0.028 C 
ATOM     12  C   LIG d   1      -1.470  88.566 119.756  0.00  0.00     0.006 C 
ENDBRANCH   8  11
ENDBRANCH   7   8
ENDBRANCH   1   7
BRANCH   6  13
ATOM     13  N   LIG d   1      -3.574  93.556 120.319  0.00  0.00    -0.311 N 
ATOM     14  C   LIG d   1      -4.614  93.171 121.055  0.00  0.00     0.210 C 
ATOM     15  C   LIG d   1      -5.781  94.163 121.096  0.00  0.00     0.109 C 
ATOM     16  O   LIG d   1      -4.670  92.115 121.704  0.00  0.00    -0.276 OA
ATOM     17  H   LIG d   1      -3.600  94.442 119.853  0.00  0.00     0.149 HD
ENDBRANCH   6  13
BRANCH   5  18
ATOM     18  N   LIG d   1      -1.034  93.799 121.999  0.00  0.00     0.381 N 
ATOM     19  H   LIG d   1      -0.117  93.631 122.363  0.00  0.00    -0.090 HD
ATOM     20  H   LIG d   1      -1.679  93.198 122.481  0.00  0.00    -0.090 HD
ATOM     21  H   LIG d   1      -1.286  94.752 122.142  0.00  0.00    -0.090 HD
ENDBRANCH   5  18
BRANCH   3  22
ATOM     22  C   LIG d   1       1.391  91.871 118.347  0.00  0.00     0.382 C 
ATOM     23  O   LIG d   1       1.846  92.675 117.498  0.00  0.00    -0.241 OA
ATOM     24  O   LIG d   1       2.030  90.836 118.616  0.00  0.00    -0.241 OA
ENDBRANCH   3  22
TORSDOF 7
ENDMDL
MODEL 6
REMARK VINA RESULT:      -4.5      2.644      6.600
REMARK  7 active torsions:
REMARK  status: ('A' for Active; 'I' for Inactive)
REMARK    1  A    between atoms: C_2  and  C_3 
REMARK    2  A    between atoms: C_3  and  O_6 
REMARK    3  A    between atoms: C_3  and  C_4 
REMARK    4  A    between atoms: C_7  and  O_6 
REMARK    5  A    between atoms: C_9  and  C_10 
REMARK    6  A    between atoms: N_15  and  C_14 
REMARK    7  A    between atoms: N_20  and  C_19 
REMARK       I    between atoms: C_22  and  N_20 
ROOT
ATOM      1  C   LIG d   1      -3.799  91.819 119.604  0.00  0.00     0.161 C 
ATOM      2  C   LIG d   1      -4.973  91.415 118.946  0.00  0.00     0.016 C 
ATOM      3  C   LIG d   1      -4.983  90.515 117.855  0.00  0.00     0.038 C 
ATOM      4  C   LIG d   1      -3.826  89.837 117.443  0.00  0.00     0.028 C 
ATOM      5  C   LIG d   1      -2.539  90.594 117.750  0.00  0.00    -0.047 C 
ATOM      6  C   LIG d   1      -2.541  91.004 119.240  0.00  0.00     0.091 C 
ENDROOT
BRANCH   1   7
ATOM      7  O   LIG d   1      -4.010  91.806 121.029  0.00  0.00    -0.368 OA
BRANCH   7   8
ATOM      8  C   LIG d   1      -4.136  93.101 121.667  0.00  0.00     0.119 C 
BRANCH   8   9
ATOM      9  C   LIG d   1      -5.641  93.398 121.818  0.00  0.00     0.028 C 
ATOM     10  C   LIG d   1      -6.424  92.193 122.365  0.00  0.00     0.006 C 
ENDBRANCH   8   9
BRANCH   8  11
ATOM     11  C   LIG d   1      -3.591  94.218 120.772  0.00  0.00     0.028 C 
ATOM     12  C   LIG d   1      -4.501  95.456 120.743  0.00  0.00     0.006 C 
ENDBRANCH   8  11
ENDBRANCH   7   8
ENDBRANCH   1   7
BRANCH   6  13
ATOM     13  N   LIG d   1      -1.354  91.822 119.604  0.00  0.00    -0.311 N 
ATOM     14  C   LIG d   1      -0.228  91.304 120.091  0.00  0.00     0.210 C 
ATOM     15  C   LIG d   1       0.865  92.326 120.419  0.00  0.00     0.109 C 
ATOM     16  O   LIG d   1      -0.019  90.092 120.252  0.00  0.00    -0.276 OA
ATOM     17  H   LIG d   1      -1.426  92.812 119.476  0.00  0.00     0.149 HD
ENDBRANCH   6  13
BRANCH   5  18
ATOM     18  N   LIG d   1      -1.409  89.714 117.394  0.00  0.00     0.381 N 
ATOM     19  H   LIG d   1      -0.985  89.354 118.225  0.00  0.00    -0.090 HD
ATOM     20  H   LIG d   1      -0.722  90.252 116.897  0.00  0.00    -0.090 HD
ATOM     21  H   LIG d   1      -1.729  88.962 116.823  0.00  0.00    -0.090 HD
ENDBRANCH   5  18
BRANCH   3  22
ATOM     22  C   LIG d   1      -6.154  90.317 117.139  0.00  0.00     0.382 C 
ATOM     23  O   LIG d   1      -6.289  89.290 116.430  0.00  0.00    -0.241 OA
ATOM     24  O   LIG d   1      -7.058  91.173 117.157  0.00  0.00    -0.241 OA
ENDBRANCH   3  22
TORSDOF 7
ENDMDL
MODEL 7
REMARK VINA RESULT:      -4.4      2.978      5.585
REMARK  7 active torsions:
REMARK  status: ('A' for Active; 'I' for Inactive)
REMARK    1  A    between atoms: C_2  and  C_3 
REMARK    2  A    between atoms: C_3  and  O_6 
REMARK    3  A    between atoms: C_3  and  C_4 
REMARK    4  A    between atoms: C_7  and  O_6 
REMARK    5  A    between atoms: C_9  and  C_10 
REMARK    6  A    between atoms: N_15  and  C_14 
REMARK    7  A    between atoms: N_20  and  C_19 
REMARK       I    between atoms: C_22  and  N_20 
ROOT
ATOM      1  C   LIG d   1      -4.422  91.102 120.021  0.00  0.00     0.161 C 
ATOM      2  C   LIG d   1      -5.600  91.632 119.470  0.00  0.00     0.016 C 
ATOM      3  C   LIG d   1      -6.324  92.696 120.056  0.00  0.00     0.038 C 
ATOM      4  C   LIG d   1      -5.832  93.407 121.161  0.00  0.00     0.028 C 
ATOM      5  C   LIG d   1      -4.904  92.582 122.047  0.00  0.00    -0.047 C 
ATOM      6  C   LIG d   1      -3.811  91.937 121.165  0.00  0.00     0.091 C 
ENDROOT
BRANCH   1   7
ATOM      7  O   LIG d   1      -3.448  90.889 118.980  0.00  0.00    -0.368 OA
BRANCH   7   8
ATOM      8  C   LIG d   1      -3.269  89.519 118.545  0.00  0.00     0.119 C 
BRANCH   8   9
ATOM      9  C   LIG d   1      -1.838  89.095 118.930  0.00  0.00     0.028 C 
ATOM     10  C   LIG d   1      -0.797  90.181 118.607  0.00  0.00     0.006 C 
ENDBRANCH   8   9
BRANCH   8  11
ATOM     11  C   LIG d   1      -3.329  89.406 117.019  0.00  0.00     0.028 C 
ATOM     12  C   LIG d   1      -4.693  89.819 116.444  0.00  0.00     0.006 C 
ENDBRANCH   8  11
ENDBRANCH   7   8
ENDBRANCH   1   7
BRANCH   6  13
ATOM     13  N   LIG d   1      -2.910  91.045 121.941  0.00  0.00    -0.311 N 
ATOM     14  C   LIG d   1      -1.599  91.252 122.061  0.00  0.00     0.210 C 
ATOM     15  C   LIG d   1      -0.853  90.201 122.889  0.00  0.00     0.109 C 
ATOM     16  O   LIG d   1      -0.990  92.223 121.589  0.00  0.00    -0.276 OA
ATOM     17  H   LIG d   1      -3.326  90.250 122.384  0.00  0.00     0.149 HD
ENDBRANCH   6  13
BRANCH   5  18
ATOM     18  N   LIG d   1      -4.357  93.483 123.080  0.00  0.00     0.381 N 
ATOM     19  H   LIG d   1      -5.104  93.967 123.536  0.00  0.00    -0.090 HD
ATOM     20  H   LIG d   1      -3.764  94.163 122.637  0.00  0.00    -0.090 HD
ATOM     21  H   LIG d   1      -3.834  92.959 123.746  0.00  0.00    -0.090 HD
ENDBRANCH   5  18
BRANCH   3  22
ATOM     22  C   LIG d   1      -7.574  93.033 119.560  0.00  0.00     0.382 C 
ATOM     23  O   LIG d   1      -8.203  92.220 118.841  0.00  0.00    -0.241 OA
ATOM     24  O   LIG d   1      -8.061  94.157 119.785  0.00  0.00    -0.241 OA
ENDBRANCH   3  22
TORSDOF 7
ENDMDL
MODEL 8
REMARK VINA RESULT:      -4.3      2.441      5.281
REMARK  7 active torsions:
REMARK  status: ('A' for Active; 'I' for Inactive)
REMARK    1  A    between atoms: C_2  and  C_3 
REMARK    2  A    between atoms: C_3  and  O_6 
REMARK    3  A    between atoms: C_3  and  C_4 
REMARK    4  A    between atoms: C_7  and  O_6 
REMARK    5  A    between atoms: C_9  and  C_10 
REMARK    6  A    between atoms: N_15  and  C_14 
REMARK    7  A    between atoms: N_20  and  C_19 
REMARK       I    between atoms: C_22  and  N_20 
ROOT
ATOM      1  C   LIG d   1      -3.041  90.673 120.712  0.00  0.00     0.161 C 
ATOM      2  C   LIG d   1      -4.446  90.693 120.693  0.00  0.00     0.016 C 
ATOM      3  C   LIG d   1      -5.208  91.879 120.795  0.00  0.00     0.038 C 
ATOM      4  C   LIG d   1      -4.611  93.149 120.770  0.00  0.00     0.028 C 
ATOM      5  C   LIG d   1      -3.181  93.156 121.299  0.00  0.00    -0.047 C 
ATOM      6  C   LIG d   1      -2.372  92.056 120.573  0.00  0.00     0.091 C 
ENDROOT
BRANCH   1   7
ATOM      7  O   LIG d   1      -2.552  89.775 119.696  0.00  0.00    -0.368 OA
BRANCH   7   8
ATOM      8  C   LIG d   1      -2.393  90.338 118.371  0.00  0.00     0.119 C 
BRANCH   8   9
ATOM      9  C   LIG d   1      -3.303  89.540 117.417  0.00  0.00     0.028 C 
ATOM     10  C   LIG d   1      -4.593  90.299 117.065  0.00  0.00     0.006 C 
ENDBRANCH   8   9
BRANCH   8  11
ATOM     11  C   LIG d   1      -0.970  90.130 117.843  0.00  0.00     0.028 C 
ATOM     12  C   LIG d   1      -0.117  89.244 118.765  0.00  0.00     0.006 C 
ENDBRANCH   8  11
ENDBRANCH   7   8
ENDBRANCH   1   7
BRANCH   6  13
ATOM     13  N   LIG d   1      -0.984  91.939 121.090  0.00  0.00    -0.311 N 
ATOM     14  C   LIG d   1       0.054  92.579 120.555  0.00  0.00     0.210 C 
ATOM     15  C   LIG d   1       1.402  92.302 121.230  0.00  0.00     0.109 C 
ATOM     16  O   LIG d   1      -0.017  93.374 119.606  0.00  0.00    -0.276 OA
ATOM     17  H   LIG d   1      -0.840  91.338 121.879  0.00  0.00     0.149 HD
ENDBRANCH   6  13
BRANCH   5  18
ATOM     18  N   LIG d   1      -2.634  94.510 121.088  0.00  0.00     0.381 N 
ATOM     19  H   LIG d   1      -2.642  94.730 120.112  0.00  0.00    -0.090 HD
ATOM     20  H   LIG d   1      -1.682  94.529 121.408  0.00  0.00    -0.090 HD
ATOM     21  H   LIG d   1      -3.175  95.178 121.591  0.00  0.00    -0.090 HD
ENDBRANCH   5  18
BRANCH   3  22
ATOM     22  C   LIG d   1      -6.582  91.801 120.962  0.00  0.00     0.382 C 
ATOM     23  O   LIG d   1      -7.349  92.195 120.051  0.00  0.00    -0.241 OA
ATOM     24  O   LIG d   1      -7.065  91.382 122.031  0.00  0.00    -0.241 OA
ENDBRANCH   3  22
TORSDOF 7
ENDMDL
MODEL 9
REMARK VINA RESULT:      -4.3      2.803      5.221
REMARK  7 active torsions:
REMARK  status: ('A' for Active; 'I' for Inactive)
REMARK    1  A    between atoms: C_2  and  C_3 
REMARK    2  A    between atoms: C_3  and  O_6 
REMARK    3  A    between atoms: C_3  and  C_4 
REMARK    4  A    between atoms: C_7  and  O_6 
REMARK    5  A    between atoms: C_9  and  C_10 
REMARK    6  A    between atoms: N_15  and  C_14 
REMARK    7  A    between atoms: N_20  and  C_19 
REMARK       I    between atoms: C_22  and  N_20 
ROOT
ATOM      1  C   LIG d   1      -2.811  91.780 121.128  0.00  0.00     0.161 C 
ATOM      2  C   LIG d   1      -1.775  91.776 120.179  0.00  0.00     0.016 C 
ATOM      3  C   LIG d   1      -1.935  91.309 118.854  0.00  0.00     0.038 C 
ATOM      4  C   LIG d   1      -3.191  90.953 118.340  0.00  0.00     0.028 C 
ATOM      5  C   LIG d   1      -4.165  90.463 119.406  0.00  0.00    -0.047 C 
ATOM      6  C   LIG d   1      -4.215  91.499 120.553  0.00  0.00     0.091 C 
ENDROOT
BRANCH   1   7
ATOM      7  O   LIG d   1      -2.806  93.027 121.851  0.00  0.00    -0.368 OA
BRANCH   7   8
ATOM      8  C   LIG d   1      -3.109  94.214 121.078  0.00  0.00     0.119 C 
BRANCH   8   9
ATOM      9  C   LIG d   1      -2.147  95.325 121.540  0.00  0.00     0.028 C 
ATOM     10  C   LIG d   1      -0.738  94.792 121.848  0.00  0.00     0.006 C 
ENDBRANCH   8   9
BRANCH   8  11
ATOM     11  C   LIG d   1      -4.514  94.738 121.388  0.00  0.00     0.028 C 
ATOM     12  C   LIG d   1      -4.975  95.827 120.407  0.00  0.00     0.006 C 
ENDBRANCH   8  11
ENDBRANCH   7   8
ENDBRANCH   1   7
BRANCH   6  13
ATOM     13  N   LIG d   1      -5.081  91.057 121.677  0.00  0.00    -0.311 N 
ATOM     14  C   LIG d   1      -6.379  91.345 121.760  0.00  0.00     0.210 C 
ATOM     15  C   LIG d   1      -7.081  90.811 123.012  0.00  0.00     0.109 C 
ATOM     16  O   LIG d   1      -7.022  91.965 120.900  0.00  0.00    -0.276 OA
ATOM     17  H   LIG d   1      -4.647  90.522 122.404  0.00  0.00     0.149 HD
ENDBRANCH   6  13
BRANCH   5  18
ATOM     18  N   LIG d   1      -5.472  90.258 118.755  0.00  0.00     0.381 N 
ATOM     19  H   LIG d   1      -5.844  91.138 118.457  0.00  0.00    -0.090 HD
ATOM     20  H   LIG d   1      -6.108  89.856 119.422  0.00  0.00    -0.090 HD
ATOM     21  H   LIG d   1      -5.372  89.649 117.973  0.00  0.00    -0.090 HD
ENDBRANCH   5  18
BRANCH   3  22
ATOM     22  C   LIG d   1      -0.823  91.158 118.039  0.00  0.00     0.382 C 
ATOM     23  O   LIG d   1      -0.062  92.133 117.830  0.00  0.00    -0.241 OA
ATOM     24  O   LIG d   1      -0.596  90.071 117.476  0.00  0.00    -0.241 OA
ENDBRANCH   3  22
TORSDOF 7
ENDMDL
