MODEL 1
REMARK VINA RESULT:      -4.6      0.000      0.000
REMARK  7 active torsions:
REMARK  status: ('A' for Active; 'I' for Inactive)
REMARK    1  A    between atoms: C_2  and  C_3 
REMARK    2  A    between atoms: C_3  and  O_6 
REMARK    3  A    between atoms: C_3  and  C_4 
REMARK    4  A    between atoms: C_7  and  O_6 
REMARK    5  A    between atoms: C_9  and  C_10 
REMARK    6  A    between atoms: N_15  and  C_14 
REMARK    7  A    between atoms: N_20  and  C_19 
REMARK       I    between atoms: C_22  and  N_20 
ROOT
ATOM      1  C   LIG d   1      -4.333  93.528 117.331  0.00  0.00     0.161 C 
ATOM      2  C   LIG d   1      -5.347  92.617 116.994  0.00  0.00     0.016 C 
ATOM      3  C   LIG d   1      -5.236  91.221 117.186  0.00  0.00     0.038 C 
ATOM      4  C   LIG d   1      -4.153  90.651 117.873  0.00  0.00     0.028 C 
ATOM      5  C   LIG d   1      -2.875  91.478 117.781  0.00  0.00    -0.047 C 
ATOM      6  C   LIG d   1      -3.190  92.936 118.184  0.00  0.00     0.091 C 
ENDROOT
BRANCH   1   7
ATOM      7  O   LIG d   1      -4.905  94.676 117.988  0.00  0.00    -0.368 OA
BRANCH   7   8
ATOM      8  C   LIG d   1      -5.708  94.404 119.162  0.00  0.00     0.119 C 
BRANCH   8   9
ATOM      9  C   LIG d   1      -7.081  95.072 118.950  0.00  0.00     0.028 C 
ATOM     10  C   LIG d   1      -7.108  95.974 117.704  0.00  0.00     0.006 C 
ENDBRANCH   8   9
BRANCH   8  11
ATOM     11  C   LIG d   1      -5.120  95.074 120.408  0.00  0.00     0.028 C 
ATOM     12  C   LIG d   1      -4.090  96.162 120.068  0.00  0.00     0.006 C 
ENDBRANCH   8  11
ENDBRANCH   7   8
ENDBRANCH   1   7
BRANCH   6  13
ATOM     13  N   LIG d   1      -2.013  93.831 118.041  0.00  0.00    -0.311 N 
ATOM     14  C   LIG d   1      -1.181  94.114 119.042  0.00  0.00     0.210 C 
ATOM     15  C   LIG d   1      -0.042  95.074 118.684  0.00  0.00     0.109 C 
ATOM     16  O   LIG d   1      -1.259  93.635 120.183  0.00  0.00    -0.276 OA
ATOM     17  H   LIG d   1      -1.856  94.239 117.140  0.00  0.00     0.149 HD
ENDBRANCH   6  13
BRANCH   5  18
ATOM     18  N   LIG d   1      -1.869  90.842 118.653  0.00  0.00     0.381 N 
ATOM     19  H   LIG d   1      -1.683  91.430 119.440  0.00  0.00    -0.090 HD
ATOM     20  H   LIG d   1      -1.016  90.728 118.135  0.00  0.00    -0.090 HD
ATOM     21  H   LIG d   1      -2.199  89.954 118.963  0.00  0.00    -0.090 HD
ENDBRANCH   5  18
BRANCH   3  22
ATOM     22  C   LIG d   1      -6.196  90.374 116.652  0.00  0.00     0.382 C 
ATOM     23  O   LIG d   1      -7.354  90.802 116.430  0.00  0.00    -0.241 OA
ATOM     24  O   LIG d   1      -5.930  89.178 116.431  0.00  0.00    -0.241 OA
ENDBRANCH   3  22
TORSDOF 7
ENDMDL
MODEL 2
REMARK VINA RESULT:      -4.6      2.426      4.405
REMARK  7 active torsions:
REMARK  status: ('A' for Active; 'I' for Inactive)
REMARK    1  A    between atoms: C_2  and  C_3 
REMARK    2  A    between atoms: C_3  and  O_6 
REMARK    3  A    between atoms: C_3  and  C_4 
REMARK    4  A    between atoms: C_7  and  O_6 
REMARK    5  A    between atoms: C_9  and  C_10 
REMARK    6  A    between atoms: N_15  and  C_14 
REMARK    7  A    between atoms: N_20  and  C_19 
REMARK       I    between atoms: C_22  and  N_20 
ROOT
ATOM      1  C   LIG d   1      -4.220  92.556 118.054  0.00  0.00     0.161 C 
ATOM      2  C   LIG d   1      -3.303  91.536 117.748  0.00  0.00     0.016 C 
ATOM      3  C   LIG d   1      -3.682  90.284 117.213  0.00  0.00     0.038 C 
ATOM      4  C   LIG d   1      -4.998  90.021 116.802  0.00  0.00     0.028 C 
ATOM      5  C   LIG d   1      -6.042  90.835 117.558  0.00  0.00    -0.047 C 
ATOM      6  C   LIG d   1      -5.645  92.329 117.510  0.00  0.00     0.091 C 
ENDROOT
BRANCH   1   7
ATOM      7  O   LIG d   1      -3.707  93.825 117.602  0.00  0.00    -0.368 OA
BRANCH   7   8
ATOM      8  C   LIG d   1      -2.945  94.586 118.571  0.00  0.00     0.119 C 
BRANCH   8   9
ATOM      9  C   LIG d   1      -3.522  96.015 118.595  0.00  0.00     0.028 C 
ATOM     10  C   LIG d   1      -4.785  96.122 119.465  0.00  0.00     0.006 C 
ENDBRANCH   8   9
BRANCH   8  11
ATOM     11  C   LIG d   1      -1.486  94.745 118.131  0.00  0.00     0.028 C 
ATOM     12  C   LIG d   1      -0.524  93.843 118.920  0.00  0.00     0.006 C 
ENDBRANCH   8  11
ENDBRANCH   7   8
ENDBRANCH   1   7
BRANCH   6  13
ATOM     13  N   LIG d   1      -6.569  93.186 118.297  0.00  0.00    -0.311 N 
ATOM     14  C   LIG d   1      -7.668  93.740 117.788  0.00  0.00     0.210 C 
ATOM     15  C   LIG d   1      -8.470  94.605 118.766  0.00  0.00     0.109 C 
ATOM     16  O   LIG d   1      -8.073  93.571 116.628  0.00  0.00    -0.276 OA
ATOM     17  H   LIG d   1      -6.333  93.351 119.256  0.00  0.00     0.149 HD
ENDBRANCH   6  13
BRANCH   5  18
ATOM     18  N   LIG d   1      -7.353  90.565 116.937  0.00  0.00     0.381 N 
ATOM     19  H   LIG d   1      -8.082  90.722 117.604  0.00  0.00    -0.090 HD
ATOM     20  H   LIG d   1      -7.386  89.602 116.654  0.00  0.00    -0.090 HD
ATOM     21  H   LIG d   1      -7.484  91.156 116.146  0.00  0.00    -0.090 HD
ENDBRANCH   5  18
BRANCH   3  22
ATOM     22  C   LIG d   1      -2.747  89.264 117.120  0.00  0.00     0.382 C 
ATOM     23  O   LIG d   1      -3.092  88.134 116.698  0.00  0.00    -0.241 OA
ATOM     24  O   LIG d   1      -1.573  89.448 117.494  0.00  0.00    -0.241 OA
ENDBRANCH   3  22
TORSDOF 7
ENDMDL
MODEL 3
REMARK VINA RESULT:      -4.4      2.149      3.486
REMARK  7 active torsions:
REMARK  status: ('A' for Active; 'I' for Inactive)
REMARK    1  A    between atoms: C_2  and  C_3 
REMARK    2  A    between atoms: C_3  and  O_6 
REMARK    3  A    between atoms: C_3  and  C_4 
REMARK    4  A    between atoms: C_7  and  O_6 
REMARK    5  A    between atoms: C_9  and  C_10 
REMARK    6  A    between atoms: N_15  and  C_14 
REMARK    7  A    between atoms: N_20  and  C_19 
REMARK       I    between atoms: C_22  and  N_20 
ROOT
ATOM      1  C   LIG d   1      -3.887  93.692 117.716  0.00  0.00     0.161 C 
ATOM      2  C   LIG d   1      -5.141  94.304 117.552  0.00  0.00     0.016 C 
ATOM      3  C   LIG d   1      -6.284  93.623 117.074  0.00  0.00     0.038 C 
ATOM      4  C   LIG d   1      -6.288  92.235 116.869  0.00  0.00     0.028 C 
ATOM      5  C   LIG d   1      -4.911  91.668 116.539  0.00  0.00    -0.047 C 
ATOM      6  C   LIG d   1      -3.900  92.153 117.603  0.00  0.00     0.091 C 
ENDROOT
BRANCH   1   7
ATOM      7  O   LIG d   1      -3.305  94.097 118.970  0.00  0.00    -0.368 OA
BRANCH   7   8
ATOM      8  C   LIG d   1      -3.735  93.359 120.141  0.00  0.00     0.119 C 
BRANCH   8   9
ATOM      9  C   LIG d   1      -4.424  94.358 121.091  0.00  0.00     0.028 C 
ATOM     10  C   LIG d   1      -3.983  95.809 120.837  0.00  0.00     0.006 C 
ENDBRANCH   8   9
BRANCH   8  11
ATOM     11  C   LIG d   1      -2.538  92.813 120.925  0.00  0.00     0.028 C 
ATOM     12  C   LIG d   1      -1.190  93.295 120.367  0.00  0.00     0.006 C 
ENDBRANCH   8  11
ENDBRANCH   7   8
ENDBRANCH   1   7
BRANCH   6  13
ATOM     13  N   LIG d   1      -2.512  91.712 117.308  0.00  0.00    -0.311 N 
ATOM     14  C   LIG d   1      -1.951  90.637 117.860  0.00  0.00     0.210 C 
ATOM     15  C   LIG d   1      -0.503  90.372 117.434  0.00  0.00     0.109 C 
ATOM     16  O   LIG d   1      -2.525  89.860 118.638  0.00  0.00    -0.276 OA
ATOM     17  H   LIG d   1      -1.984  92.267 116.664  0.00  0.00     0.149 HD
ENDBRANCH   6  13
BRANCH   5  18
ATOM     18  N   LIG d   1      -5.035  90.199 116.487  0.00  0.00     0.381 N 
ATOM     19  H   LIG d   1      -5.293  89.848 117.388  0.00  0.00    -0.090 HD
ATOM     20  H   LIG d   1      -4.145  89.806 116.239  0.00  0.00    -0.090 HD
ATOM     21  H   LIG d   1      -5.721  89.938 115.813  0.00  0.00    -0.090 HD
ENDBRANCH   5  18
BRANCH   3  22
ATOM     22  C   LIG d   1      -7.428  94.338 116.758  0.00  0.00     0.382 C 
ATOM     23  O   LIG d   1      -8.477  93.732 116.431  0.00  0.00    -0.241 OA
ATOM     24  O   LIG d   1      -7.414  95.584 116.753  0.00  0.00    -0.241 OA
ENDBRANCH   3  22
TORSDOF 7
ENDMDL
MODEL 4
REMARK VINA RESULT:      -4.4      1.163      1.797
REMARK  7 active torsions:
REMARK  status: ('A' for Active; 'I' for Inactive)
REMARK    1  A    between atoms: C_2  and  C_3 
REMARK    2  A    between atoms: C_3  and  O_6 
REMARK    3  A    between atoms: C_3  and  C_4 
REMARK    4  A    between atoms: C_7  and  O_6 
REMARK    5  A    between atoms: C_9  and  C_10 
REMARK    6  A    between atoms: N_15  and  C_14 
REMARK    7  A    between atoms: N_20  and  C_19 
REMARK       I    between atoms: C_22  and  N_20 
ROOT
ATOM      1  C   LIG d   1      -3.887  92.883 117.787  0.00  0.00     0.161 C 
ATOM      2  C   LIG d   1      -5.112  92.272 117.471  0.00  0.00     0.016 C 
ATOM      3  C   LIG d   1      -5.237  90.901 117.152  0.00  0.00     0.038 C 
ATOM      4  C   LIG d   1      -4.161  90.009 117.276  0.00  0.00     0.028 C 
ATOM      5  C   LIG d   1      -2.800  90.674 117.102  0.00  0.00    -0.047 C 
ATOM      6  C   LIG d   1      -2.720  91.904 118.035  0.00  0.00     0.091 C 
ENDROOT
BRANCH   1   7
ATOM      7  O   LIG d   1      -4.055  93.759 118.919  0.00  0.00    -0.368 OA
BRANCH   7   8
ATOM      8  C   LIG d   1      -4.347  95.145 118.615  0.00  0.00     0.119 C 
BRANCH   8   9
ATOM      9  C   LIG d   1      -3.010  95.913 118.629  0.00  0.00     0.028 C 
ATOM     10  C   LIG d   1      -3.192  97.401 118.974  0.00  0.00     0.006 C 
ENDBRANCH   8   9
BRANCH   8  11
ATOM     11  C   LIG d   1      -5.196  95.790 119.714  0.00  0.00     0.028 C 
ATOM     12  C   LIG d   1      -6.689  95.448 119.592  0.00  0.00     0.006 C 
ENDBRANCH   8  11
ENDBRANCH   7   8
ENDBRANCH   1   7
BRANCH   6  13
ATOM     13  N   LIG d   1      -1.453  92.662 117.867  0.00  0.00    -0.311 N 
ATOM     14  C   LIG d   1      -0.658  92.995 118.882  0.00  0.00     0.210 C 
ATOM     15  C   LIG d   1       0.590  93.794 118.491  0.00  0.00     0.109 C 
ATOM     16  O   LIG d   1      -0.851  92.678 120.065  0.00  0.00    -0.276 OA
ATOM     17  H   LIG d   1      -1.204  92.933 116.936  0.00  0.00     0.149 HD
ENDBRANCH   6  13
BRANCH   5  18
ATOM     18  N   LIG d   1      -1.768  89.661 117.392  0.00  0.00     0.381 N 
ATOM     19  H   LIG d   1      -0.951  89.844 116.845  0.00  0.00    -0.090 HD
ATOM     20  H   LIG d   1      -2.122  88.755 117.138  0.00  0.00    -0.090 HD
ATOM     21  H   LIG d   1      -1.539  89.675 118.361  0.00  0.00    -0.090 HD
ENDBRANCH   5  18
BRANCH   3  22
ATOM     22  C   LIG d   1      -6.442  90.416 116.665  0.00  0.00     0.382 C 
ATOM     23  O   LIG d   1      -7.411  91.196 116.501  0.00  0.00    -0.241 OA
ATOM     24  O   LIG d   1      -6.585  89.201 116.430  0.00  0.00    -0.241 OA
ENDBRANCH   3  22
TORSDOF 7
ENDMDL
MODEL 5
REMARK VINA RESULT:      -4.4      2.238      4.195
REMARK  7 active torsions:
REMARK  status: ('A' for Active; 'I' for Inactive)
REMARK    1  A    between atoms: C_2  and  C_3 
REMARK    2  A    between atoms: C_3  and  O_6 
REMARK    3  A    between atoms: C_3  and  C_4 
REMARK    4  A    between atoms: C_7  and  O_6 
REMARK    5  A    between atoms: C_9  and  C_10 
REMARK    6  A    between atoms: N_15  and  C_14 
REMARK    7  A    between atoms: N_20  and  C_19 
REMARK       I    between atoms: C_22  and  N_20 
ROOT
ATOM      1  C   LIG d   1      -4.689  92.576 118.843  0.00  0.00     0.161 C 
ATOM      2  C   LIG d   1      -5.068  91.380 118.210  0.00  0.00     0.016 C 
ATOM      3  C   LIG d   1      -5.965  91.329 117.118  0.00  0.00     0.038 C 
ATOM      4  C   LIG d   1      -6.431  92.491 116.485  0.00  0.00     0.028 C 
ATOM      5  C   LIG d   1      -6.474  93.706 117.406  0.00  0.00    -0.047 C 
ATOM      6  C   LIG d   1      -5.099  93.862 118.096  0.00  0.00     0.091 C 
ENDROOT
BRANCH   1   7
ATOM      7  O   LIG d   1      -3.268  92.570 119.088  0.00  0.00    -0.368 OA
BRANCH   7   8
ATOM      8  C   LIG d   1      -2.576  91.333 118.791  0.00  0.00     0.119 C 
BRANCH   8   9
ATOM      9  C   LIG d   1      -1.806  90.917 120.059  0.00  0.00     0.028 C 
ATOM     10  C   LIG d   1      -2.084  91.854 121.247  0.00  0.00     0.006 C 
ENDBRANCH   8   9
BRANCH   8  11
ATOM     11  C   LIG d   1      -1.504  91.539 117.716  0.00  0.00     0.028 C 
ATOM     12  C   LIG d   1      -0.089  91.206 118.215  0.00  0.00     0.006 C 
ENDBRANCH   8  11
ENDBRANCH   7   8
ENDBRANCH   1   7
BRANCH   6  13
ATOM     13  N   LIG d   1      -5.081  94.978 119.077  0.00  0.00    -0.311 N 
ATOM     14  C   LIG d   1      -4.119  95.897 119.124  0.00  0.00     0.210 C 
ATOM     15  C   LIG d   1      -4.283  96.948 120.227  0.00  0.00     0.109 C 
ATOM     16  O   LIG d   1      -3.162  95.961 118.338  0.00  0.00    -0.276 OA
ATOM     17  H   LIG d   1      -5.837  95.020 119.733  0.00  0.00     0.149 HD
ENDBRANCH   6  13
BRANCH   5  18
ATOM     18  N   LIG d   1      -6.844  94.874 116.584  0.00  0.00     0.381 N 
ATOM     19  H   LIG d   1      -6.087  95.114 115.976  0.00  0.00    -0.090 HD
ATOM     20  H   LIG d   1      -7.020  95.655 117.191  0.00  0.00    -0.090 HD
ATOM     21  H   LIG d   1      -7.659  94.670 116.049  0.00  0.00    -0.090 HD
ENDBRANCH   5  18
BRANCH   3  22
ATOM     22  C   LIG d   1      -6.438  90.103 116.675  0.00  0.00     0.382 C 
ATOM     23  O   LIG d   1      -7.672  89.911 116.560  0.00  0.00    -0.241 OA
ATOM     24  O   LIG d   1      -5.647  89.172 116.430  0.00  0.00    -0.241 OA
ENDBRANCH   3  22
TORSDOF 7
ENDMDL
MODEL 6
REMARK VINA RESULT:      -4.3      0.812      1.097
REMARK  7 active torsions:
REMARK  status: ('A' for Active; 'I' for Inactive)
REMARK    1  A    between atoms: C_2  and  C_3 
REMARK    2  A    between atoms: C_3  and  O_6 
REMARK    3  A    between atoms: C_3  and  C_4 
REMARK    4  A    between atoms: C_7  and  O_6 
REMARK    5  A    between atoms: C_9  and  C_10 
REMARK    6  A    between atoms: N_15  and  C_14 
REMARK    7  A    between atoms: N_20  and  C_19 
REMARK       I    between atoms: C_22  and  N_20 
ROOT
ATOM      1  C   LIG d   1      -3.820  93.169 117.215  0.00  0.00     0.161 C 
ATOM      2  C   LIG d   1      -5.001  92.474 116.906  0.00  0.00     0.016 C 
ATOM      3  C   LIG d   1      -5.210  91.113 117.227  0.00  0.00     0.038 C 
ATOM      4  C   LIG d   1      -4.305  90.391 118.019  0.00  0.00     0.028 C 
ATOM      5  C   LIG d   1      -2.872  90.904 117.922  0.00  0.00    -0.047 C 
ATOM      6  C   LIG d   1      -2.867  92.429 118.176  0.00  0.00     0.091 C 
ENDROOT
BRANCH   1   7
ATOM      7  O   LIG d   1      -4.143  94.474 117.735  0.00  0.00    -0.368 OA
BRANCH   7   8
ATOM      8  C   LIG d   1      -4.832  94.500 119.009  0.00  0.00     0.119 C 
BRANCH   8   9
ATOM      9  C   LIG d   1      -6.110  95.341 118.828  0.00  0.00     0.028 C 
ATOM     10  C   LIG d   1      -7.389  94.491 118.909  0.00  0.00     0.006 C 
ENDBRANCH   8   9
BRANCH   8  11
ATOM     11  C   LIG d   1      -4.010  95.235 120.072  0.00  0.00     0.028 C 
ATOM     12  C   LIG d   1      -4.541  96.646 120.366  0.00  0.00     0.006 C 
ENDBRANCH   8  11
ENDBRANCH   7   8
ENDBRANCH   1   7
BRANCH   6  13
ATOM     13  N   LIG d   1      -1.515  93.026 118.017  0.00  0.00    -0.311 N 
ATOM     14  C   LIG d   1      -0.677  93.225 119.033  0.00  0.00     0.210 C 
ATOM     15  C   LIG d   1       0.659  93.871 118.652  0.00  0.00     0.109 C 
ATOM     16  O   LIG d   1      -0.901  92.899 120.208  0.00  0.00    -0.276 OA
ATOM     17  H   LIG d   1      -1.240  93.291 117.091  0.00  0.00     0.149 HD
ENDBRANCH   6  13
BRANCH   5  18
ATOM     18  N   LIG d   1      -2.062  90.153 118.899  0.00  0.00     0.381 N 
ATOM     19  H   LIG d   1      -1.644  90.786 119.551  0.00  0.00    -0.090 HD
ATOM     20  H   LIG d   1      -1.327  89.672 118.411  0.00  0.00    -0.090 HD
ATOM     21  H   LIG d   1      -2.635  89.496 119.383  0.00  0.00    -0.090 HD
ENDBRANCH   5  18
BRANCH   3  22
ATOM     22  C   LIG d   1      -6.317  90.450 116.721  0.00  0.00     0.382 C 
ATOM     23  O   LIG d   1      -6.248  89.225 116.459  0.00  0.00    -0.241 OA
ATOM     24  O   LIG d   1      -7.370  91.070 116.480  0.00  0.00    -0.241 OA
ENDBRANCH   3  22
TORSDOF 7
ENDMDL
MODEL 7
REMARK VINA RESULT:      -4.2      2.064      3.775
REMARK  7 active torsions:
REMARK  status: ('A' for Active; 'I' for Inactive)
REMARK    1  A    between atoms: C_2  and  C_3 
REMARK    2  A    between atoms: C_3  and  O_6 
REMARK    3  A    between atoms: C_3  and  C_4 
REMARK    4  A    between atoms: C_7  and  O_6 
REMARK    5  A    between atoms: C_9  and  C_10 
REMARK    6  A    between atoms: N_15  and  C_14 
REMARK    7  A    between atoms: N_20  and  C_19 
REMARK       I    between atoms: C_22  and  N_20 
ROOT
ATOM      1  C   LIG d   1      -3.891  93.582 117.539  0.00  0.00     0.161 C 
ATOM      2  C   LIG d   1      -5.132  94.229 117.421  0.00  0.00     0.016 C 
ATOM      3  C   LIG d   1      -6.315  93.574 117.008  0.00  0.00     0.038 C 
ATOM      4  C   LIG d   1      -6.369  92.184 116.830  0.00  0.00     0.028 C 
ATOM      5  C   LIG d   1      -5.026  91.569 116.449  0.00  0.00    -0.047 C 
ATOM      6  C   LIG d   1      -3.954  92.042 117.456  0.00  0.00     0.091 C 
ENDROOT
BRANCH   1   7
ATOM      7  O   LIG d   1      -3.240  93.991 118.758  0.00  0.00    -0.368 OA
BRANCH   7   8
ATOM      8  C   LIG d   1      -2.087  94.856 118.606  0.00  0.00     0.119 C 
BRANCH   8   9
ATOM      9  C   LIG d   1      -1.011  94.370 119.596  0.00  0.00     0.028 C 
ATOM     10  C   LIG d   1       0.349  94.136 118.916  0.00  0.00     0.006 C 
ENDBRANCH   8   9
BRANCH   8  11
ATOM     11  C   LIG d   1      -2.408  96.292 119.029  0.00  0.00     0.028 C 
ATOM     12  C   LIG d   1      -3.500  96.366 120.108  0.00  0.00     0.006 C 
ENDBRANCH   8  11
ENDBRANCH   7   8
ENDBRANCH   1   7
BRANCH   6  13
ATOM     13  N   LIG d   1      -2.594  91.554 117.108  0.00  0.00    -0.311 N 
ATOM     14  C   LIG d   1      -1.740  91.061 118.003  0.00  0.00     0.210 C 
ATOM     15  C   LIG d   1      -0.383  90.633 117.435  0.00  0.00     0.109 C 
ATOM     16  O   LIG d   1      -1.989  90.908 119.208  0.00  0.00    -0.276 OA
ATOM     17  H   LIG d   1      -2.321  91.613 116.146  0.00  0.00     0.149 HD
ENDBRANCH   6  13
BRANCH   5  18
ATOM     18  N   LIG d   1      -5.196  90.104 116.430  0.00  0.00     0.381 N 
ATOM     19  H   LIG d   1      -5.940  89.841 117.046  0.00  0.00    -0.090 HD
ATOM     20  H   LIG d   1      -4.349  89.674 116.757  0.00  0.00    -0.090 HD
ATOM     21  H   LIG d   1      -5.397  89.796 115.504  0.00  0.00    -0.090 HD
ENDBRANCH   5  18
BRANCH   3  22
ATOM     22  C   LIG d   1      -7.451  94.319 116.730  0.00  0.00     0.382 C 
ATOM     23  O   LIG d   1      -7.402  95.572 116.759  0.00  0.00    -0.241 OA
ATOM     24  O   LIG d   1      -8.535  93.752 116.494  0.00  0.00    -0.241 OA
ENDBRANCH   3  22
TORSDOF 7
ENDMDL
MODEL 8
REMARK VINA RESULT:      -4.1      2.300      4.305
REMARK  7 active torsions:
REMARK  status: ('A' for Active; 'I' for Inactive)
REMARK    1  A    between atoms: C_2  and  C_3 
REMARK    2  A    between atoms: C_3  and  O_6 
REMARK    3  A    between atoms: C_3  and  C_4 
REMARK    4  A    between atoms: C_7  and  O_6 
REMARK    5  A    between atoms: C_9  and  C_10 
REMARK    6  A    between atoms: N_15  and  C_14 
REMARK    7  A    between atoms: N_20  and  C_19 
REMARK       I    between atoms: C_22  and  N_20 
ROOT
ATOM      1  C   LIG d   1      -4.456  93.403 118.220  0.00  0.00     0.161 C 
ATOM      2  C   LIG d   1      -4.304  92.066 117.816  0.00  0.00     0.016 C 
ATOM      3  C   LIG d   1      -5.332  91.318 117.199  0.00  0.00     0.038 C 
ATOM      4  C   LIG d   1      -6.543  91.906 116.805  0.00  0.00     0.028 C 
ATOM      5  C   LIG d   1      -6.930  93.118 117.646  0.00  0.00    -0.047 C 
ATOM      6  C   LIG d   1      -5.733  94.095 117.698  0.00  0.00     0.091 C 
ENDROOT
BRANCH   1   7
ATOM      7  O   LIG d   1      -3.288  94.162 117.849  0.00  0.00    -0.368 OA
BRANCH   7   8
ATOM      8  C   LIG d   1      -2.575  94.805 118.934  0.00  0.00     0.119 C 
BRANCH   8   9
ATOM      9  C   LIG d   1      -1.162  94.192 118.988  0.00  0.00     0.028 C 
ATOM     10  C   LIG d   1      -0.961  93.090 117.934  0.00  0.00     0.006 C 
ENDBRANCH   8   9
BRANCH   8  11
ATOM     11  C   LIG d   1      -3.211  94.479 120.289  0.00  0.00     0.028 C 
ATOM     12  C   LIG d   1      -2.268  94.754 121.471  0.00  0.00     0.006 C 
ENDBRANCH   8  11
ENDBRANCH   7   8
ENDBRANCH   1   7
BRANCH   6  13
ATOM     13  N   LIG d   1      -5.997  95.269 118.570  0.00  0.00    -0.311 N 
ATOM     14  C   LIG d   1      -6.739  96.309 118.194  0.00  0.00     0.210 C 
ATOM     15  C   LIG d   1      -6.868  97.422 119.239  0.00  0.00     0.109 C 
ATOM     16  O   LIG d   1      -7.330  96.401 117.108  0.00  0.00    -0.276 OA
ATOM     17  H   LIG d   1      -5.581  95.263 119.481  0.00  0.00     0.149 HD
ENDBRANCH   6  13
BRANCH   5  18
ATOM     18  N   LIG d   1      -8.136  93.714 117.041  0.00  0.00     0.381 N 
ATOM     19  H   LIG d   1      -8.769  94.001 117.761  0.00  0.00    -0.090 HD
ATOM     20  H   LIG d   1      -8.594  93.019 116.478  0.00  0.00    -0.090 HD
ATOM     21  H   LIG d   1      -7.885  94.496 116.478  0.00  0.00    -0.090 HD
ENDBRANCH   5  18
BRANCH   3  22
ATOM     22  C   LIG d   1      -5.169  89.954 117.007  0.00  0.00     0.382 C 
ATOM     23  O   LIG d   1      -4.110  89.391 117.374  0.00  0.00    -0.241 OA
ATOM     24  O   LIG d   1      -6.049  89.288 116.430  0.00  0.00    -0.241 OA
ENDBRANCH   3  22
TORSDOF 7
ENDMDL
MODEL 9
REMARK VINA RESULT:      -3.8      2.969      5.799
REMARK  7 active torsions:
REMARK  status: ('A' for Active; 'I' for Inactive)
REMARK    1  A    between atoms: C_2  and  C_3 
REMARK    2  A    between atoms: C_3  and  O_6 
REMARK    3  A    between atoms: C_3  and  C_4 
REMARK    4  A    between atoms: C_7  and  O_6 
REMARK    5  A    between atoms: C_9  and  C_10 
REMARK    6  A    between atoms: N_15  and  C_14 
REMARK    7  A    between atoms: N_20  and  C_19 
REMARK       I    between atoms: C_22  and  N_20 
ROOT
ATOM      1  C   LIG d   1      -1.508  91.618 118.219  0.00  0.00     0.161 C 
ATOM      2  C   LIG d   1      -2.770  92.119 117.858  0.00  0.00     0.016 C 
ATOM      3  C   LIG d   1      -3.047  93.497 117.711  0.00  0.00     0.038 C 
ATOM      4  C   LIG d   1      -2.035  94.467 117.768  0.00  0.00     0.028 C 
ATOM      5  C   LIG d   1      -0.846  94.052 118.627  0.00  0.00    -0.047 C 
ATOM      6  C   LIG d   1      -0.365  92.653 118.177  0.00  0.00     0.091 C 
ENDROOT
BRANCH   1   7
ATOM      7  O   LIG d   1      -1.182  90.478 117.400  0.00  0.00    -0.368 OA
BRANCH   7   8
ATOM      8  C   LIG d   1      -1.180  89.192 118.068  0.00  0.00     0.119 C 
BRANCH   8   9
ATOM      9  C   LIG d   1       0.062  88.420 117.583  0.00  0.00     0.028 C 
ATOM     10  C   LIG d   1       0.988  89.286 116.711  0.00  0.00     0.006 C 
ENDBRANCH   8   9
BRANCH   8  11
ATOM     11  C   LIG d   1      -2.379  88.340 117.640  0.00  0.00     0.028 C 
ATOM     12  C   LIG d   1      -1.965  86.991 117.033  0.00  0.00     0.006 C 
ENDBRANCH   8  11
ENDBRANCH   7   8
ENDBRANCH   1   7
BRANCH   6  13
ATOM     13  N   LIG d   1       0.743  92.136 119.021  0.00  0.00    -0.311 N 
ATOM     14  C   LIG d   1       2.027  92.220 118.679  0.00  0.00     0.210 C 
ATOM     15  C   LIG d   1       3.006  91.605 119.684  0.00  0.00     0.109 C 
ATOM     16  O   LIG d   1       2.450  92.775 117.653  0.00  0.00    -0.276 OA
ATOM     17  H   LIG d   1       0.491  91.698 119.886  0.00  0.00     0.149 HD
ENDBRANCH   6  13
BRANCH   5  18
ATOM     18  N   LIG d   1       0.190  95.092 118.487  0.00  0.00     0.381 N 
ATOM     19  H   LIG d   1       0.957  94.737 117.952  0.00  0.00    -0.090 HD
ATOM     20  H   LIG d   1       0.530  95.338 119.400  0.00  0.00    -0.090 HD
ATOM     21  H   LIG d   1      -0.192  95.896 118.040  0.00  0.00    -0.090 HD
ENDBRANCH   5  18
BRANCH   3  22
ATOM     22  C   LIG d   1      -4.357  93.921 117.544  0.00  0.00     0.382 C 
ATOM     23  O   LIG d   1      -5.065  93.425 116.635  0.00  0.00    -0.241 OA
ATOM     24  O   LIG d   1      -4.825  94.825 118.262  0.00  0.00    -0.241 OA
ENDBRANCH   3  22
TORSDOF 7
ENDMDL
