MODEL 1
REMARK VINA RESULT:      -4.8      0.000      0.000
REMARK  7 active torsions:
REMARK  status: ('A' for Active; 'I' for Inactive)
REMARK    1  A    between atoms: C_2  and  C_3 
REMARK    2  A    between atoms: C_3  and  O_6 
REMARK    3  A    between atoms: C_3  and  C_4 
REMARK    4  A    between atoms: C_7  and  O_6 
REMARK    5  A    between atoms: C_9  and  C_10 
REMARK    6  A    between atoms: N_15  and  C_14 
REMARK    7  A    between atoms: N_20  and  C_19 
REMARK       I    between atoms: C_22  and  N_20 
ROOT
ATOM      1  C   LIG d   1      -3.334  91.086 117.884  0.00  0.00     0.161 C 
ATOM      2  C   LIG d   1      -4.587  90.818 117.307  0.00  0.00     0.016 C 
ATOM      3  C   LIG d   1      -5.544  91.819 117.025  0.00  0.00     0.038 C 
ATOM      4  C   LIG d   1      -5.251  93.184 117.163  0.00  0.00     0.028 C 
ATOM      5  C   LIG d   1      -4.186  93.472 118.215  0.00  0.00    -0.047 C 
ATOM      6  C   LIG d   1      -2.954  92.580 117.938  0.00  0.00     0.091 C 
ENDROOT
BRANCH   1   7
ATOM      7  O   LIG d   1      -2.311  90.333 117.202  0.00  0.00    -0.368 OA
BRANCH   7   8
ATOM      8  C   LIG d   1      -1.918  89.085 117.823  0.00  0.00     0.119 C 
BRANCH   8   9
ATOM      9  C   LIG d   1      -2.329  89.156 119.307  0.00  0.00     0.028 C 
ATOM     10  C   LIG d   1      -2.865  87.814 119.832  0.00  0.00     0.006 C 
ENDBRANCH   8   9
BRANCH   8  11
ATOM     11  C   LIG d   1      -0.395  88.922 117.832  0.00  0.00     0.028 C 
ATOM     12  C   LIG d   1       0.315  89.905 116.887  0.00  0.00     0.006 C 
ENDBRANCH   8  11
ENDBRANCH   7   8
ENDBRANCH   1   7
BRANCH   6  13
ATOM     13  N   LIG d   1      -1.897  92.738 118.971  0.00  0.00    -0.311 N 
ATOM     14  C   LIG d   1      -0.633  93.048 118.685  0.00  0.00     0.210 C 
ATOM     15  C   LIG d   1       0.299  93.142 119.897  0.00  0.00     0.109 C 
ATOM     16  O   LIG d   1      -0.204  93.287 117.546  0.00  0.00    -0.276 OA
ATOM     17  H   LIG d   1      -2.165  92.593 119.924  0.00  0.00     0.149 HD
ENDBRANCH   6  13
BRANCH   5  18
ATOM     18  N   LIG d   1      -3.880  94.914 118.157  0.00  0.00     0.381 N 
ATOM     19  H   LIG d   1      -2.965  95.051 117.777  0.00  0.00    -0.090 HD
ATOM     20  H   LIG d   1      -3.893  95.287 119.090  0.00  0.00    -0.090 HD
ATOM     21  H   LIG d   1      -4.556  95.383 117.595  0.00  0.00    -0.090 HD
ENDBRANCH   5  18
BRANCH   3  22
ATOM     22  C   LIG d   1      -6.825  91.456 116.637  0.00  0.00     0.382 C 
ATOM     23  O   LIG d   1      -7.099  90.249 116.431  0.00  0.00    -0.241 OA
ATOM     24  O   LIG d   1      -7.698  92.324 116.448  0.00  0.00    -0.241 OA
ENDBRANCH   3  22
TORSDOF 7
ENDMDL
MODEL 2
REMARK VINA RESULT:      -4.7      2.113      4.415
REMARK  7 active torsions:
REMARK  status: ('A' for Active; 'I' for Inactive)
REMARK    1  A    between atoms: C_2  and  C_3 
REMARK    2  A    between atoms: C_3  and  O_6 
REMARK    3  A    between atoms: C_3  and  C_4 
REMARK    4  A    between atoms: C_7  and  O_6 
REMARK    5  A    between atoms: C_9  and  C_10 
REMARK    6  A    between atoms: N_15  and  C_14 
REMARK    7  A    between atoms: N_20  and  C_19 
REMARK       I    between atoms: C_22  and  N_20 
ROOT
ATOM      1  C   LIG d   1      -3.855  93.238 117.758  0.00  0.00     0.161 C 
ATOM      2  C   LIG d   1      -5.241  93.098 117.579  0.00  0.00     0.016 C 
ATOM      3  C   LIG d   1      -5.871  91.860 117.313  0.00  0.00     0.038 C 
ATOM      4  C   LIG d   1      -5.168  90.647 117.357  0.00  0.00     0.028 C 
ATOM      5  C   LIG d   1      -3.685  90.793 117.034  0.00  0.00    -0.047 C 
ATOM      6  C   LIG d   1      -3.087  91.909 117.920  0.00  0.00     0.091 C 
ENDROOT
BRANCH   1   7
ATOM      7  O   LIG d   1      -3.592  94.108 118.876  0.00  0.00    -0.368 OA
BRANCH   7   8
ATOM      8  C   LIG d   1      -3.065  95.419 118.553  0.00  0.00     0.119 C 
BRANCH   8   9
ATOM      9  C   LIG d   1      -1.587  95.444 118.990  0.00  0.00     0.028 C 
ATOM     10  C   LIG d   1      -1.351  94.685 120.306  0.00  0.00     0.006 C 
ENDBRANCH   8   9
BRANCH   8  11
ATOM     11  C   LIG d   1      -3.750  96.513 119.377  0.00  0.00     0.028 C 
ATOM     12  C   LIG d   1      -5.282  96.471 119.267  0.00  0.00     0.006 C 
ENDBRANCH   8  11
ENDBRANCH   7   8
ENDBRANCH   1   7
BRANCH   6  13
ATOM     13  N   LIG d   1      -1.658  92.175 117.609  0.00  0.00    -0.311 N 
ATOM     14  C   LIG d   1      -0.647  91.624 118.279  0.00  0.00     0.210 C 
ATOM     15  C   LIG d   1       0.748  92.049 117.808  0.00  0.00     0.109 C 
ATOM     16  O   LIG d   1      -0.772  90.800 119.197  0.00  0.00    -0.276 OA
ATOM     17  H   LIG d   1      -1.465  92.808 116.858  0.00  0.00     0.149 HD
ENDBRANCH   6  13
BRANCH   5  18
ATOM     18  N   LIG d   1      -3.050  89.479 117.252  0.00  0.00     0.381 N 
ATOM     19  H   LIG d   1      -2.055  89.578 117.236  0.00  0.00    -0.090 HD
ATOM     20  H   LIG d   1      -3.317  88.862 116.506  0.00  0.00    -0.090 HD
ATOM     21  H   LIG d   1      -3.340  89.101 118.126  0.00  0.00    -0.090 HD
ENDBRANCH   5  18
BRANCH   3  22
ATOM     22  C   LIG d   1      -7.211  91.833 116.958  0.00  0.00     0.382 C 
ATOM     23  O   LIG d   1      -7.849  92.907 116.836  0.00  0.00    -0.241 OA
ATOM     24  O   LIG d   1      -7.801  90.748 116.803  0.00  0.00    -0.241 OA
ENDBRANCH   3  22
TORSDOF 7
ENDMDL
MODEL 3
REMARK VINA RESULT:      -4.6      2.924      6.061
REMARK  7 active torsions:
REMARK  status: ('A' for Active; 'I' for Inactive)
REMARK    1  A    between atoms: C_2  and  C_3 
REMARK    2  A    between atoms: C_3  and  O_6 
REMARK    3  A    between atoms: C_3  and  C_4 
REMARK    4  A    between atoms: C_7  and  O_6 
REMARK    5  A    between atoms: C_9  and  C_10 
REMARK    6  A    between atoms: N_15  and  C_14 
REMARK    7  A    between atoms: N_20  and  C_19 
REMARK       I    between atoms: C_22  and  N_20 
ROOT
ATOM      1  C   LIG d   1      -4.992  93.412 118.736  0.00  0.00     0.161 C 
ATOM      2  C   LIG d   1      -3.961  92.536 118.357  0.00  0.00     0.016 C 
ATOM      3  C   LIG d   1      -4.180  91.346 117.626  0.00  0.00     0.038 C 
ATOM      4  C   LIG d   1      -5.436  91.026 117.089  0.00  0.00     0.028 C 
ATOM      5  C   LIG d   1      -6.600  91.622 117.874  0.00  0.00    -0.047 C 
ATOM      6  C   LIG d   1      -6.354  93.136 118.064  0.00  0.00     0.091 C 
ENDROOT
BRANCH   1   7
ATOM      7  O   LIG d   1      -4.586  94.775 118.503  0.00  0.00    -0.368 OA
BRANCH   7   8
ATOM      8  C   LIG d   1      -3.922  95.439 119.607  0.00  0.00     0.119 C 
BRANCH   8   9
ATOM      9  C   LIG d   1      -4.881  96.522 120.139  0.00  0.00     0.028 C 
ATOM     10  C   LIG d   1      -5.807  97.076 119.043  0.00  0.00     0.006 C 
ENDBRANCH   8   9
BRANCH   8  11
ATOM     11  C   LIG d   1      -2.678  96.197 119.134  0.00  0.00     0.028 C 
ATOM     12  C   LIG d   1      -1.445  95.289 118.995  0.00  0.00     0.006 C 
ENDBRANCH   8  11
ENDBRANCH   7   8
ENDBRANCH   1   7
BRANCH   6  13
ATOM     13  N   LIG d   1      -7.404  93.782 118.894  0.00  0.00    -0.311 N 
ATOM     14  C   LIG d   1      -8.509  94.325 118.386  0.00  0.00     0.210 C 
ATOM     15  C   LIG d   1      -9.452  94.955 119.416  0.00  0.00     0.109 C 
ATOM     16  O   LIG d   1      -8.813  94.316 117.184  0.00  0.00    -0.276 OA
ATOM     17  H   LIG d   1      -7.253  93.805 119.883  0.00  0.00     0.149 HD
ENDBRANCH   6  13
BRANCH   5  18
ATOM     18  N   LIG d   1      -7.838  91.326 117.129  0.00  0.00     0.381 N 
ATOM     19  H   LIG d   1      -8.035  90.346 117.175  0.00  0.00    -0.090 HD
ATOM     20  H   LIG d   1      -7.704  91.576 116.165  0.00  0.00    -0.090 HD
ATOM     21  H   LIG d   1      -8.598  91.844 117.511  0.00  0.00    -0.090 HD
ENDBRANCH   5  18
BRANCH   3  22
ATOM     22  C   LIG d   1      -3.142  90.441 117.459  0.00  0.00     0.382 C 
ATOM     23  O   LIG d   1      -3.393  89.221 117.307  0.00  0.00    -0.241 OA
ATOM     24  O   LIG d   1      -1.958  90.823 117.504  0.00  0.00    -0.241 OA
ENDBRANCH   3  22
TORSDOF 7
ENDMDL
MODEL 4
REMARK VINA RESULT:      -4.5      2.162      4.327
REMARK  7 active torsions:
REMARK  status: ('A' for Active; 'I' for Inactive)
REMARK    1  A    between atoms: C_2  and  C_3 
REMARK    2  A    between atoms: C_3  and  O_6 
REMARK    3  A    between atoms: C_3  and  C_4 
REMARK    4  A    between atoms: C_7  and  O_6 
REMARK    5  A    between atoms: C_9  and  C_10 
REMARK    6  A    between atoms: N_15  and  C_14 
REMARK    7  A    between atoms: N_20  and  C_19 
REMARK       I    between atoms: C_22  and  N_20 
ROOT
ATOM      1  C   LIG d   1      -3.954  93.336 117.726  0.00  0.00     0.161 C 
ATOM      2  C   LIG d   1      -5.333  93.220 117.486  0.00  0.00     0.016 C 
ATOM      3  C   LIG d   1      -5.971  91.995 117.186  0.00  0.00     0.038 C 
ATOM      4  C   LIG d   1      -5.292  90.769 117.255  0.00  0.00     0.028 C 
ATOM      5  C   LIG d   1      -3.793  90.892 116.999  0.00  0.00    -0.047 C 
ATOM      6  C   LIG d   1      -3.216  91.994 117.916  0.00  0.00     0.091 C 
ENDROOT
BRANCH   1   7
ATOM      7  O   LIG d   1      -3.726  94.198 118.859  0.00  0.00    -0.368 OA
BRANCH   7   8
ATOM      8  C   LIG d   1      -4.806  94.285 119.821  0.00  0.00     0.119 C 
BRANCH   8   9
ATOM      9  C   LIG d   1      -4.890  95.750 120.291  0.00  0.00     0.028 C 
ATOM     10  C   LIG d   1      -5.426  96.688 119.196  0.00  0.00     0.006 C 
ENDBRANCH   8   9
BRANCH   8  11
ATOM     11  C   LIG d   1      -4.497  93.472 121.081  0.00  0.00     0.028 C 
ATOM     12  C   LIG d   1      -5.198  92.104 121.095  0.00  0.00     0.006 C 
ENDBRANCH   8  11
ENDBRANCH   7   8
ENDBRANCH   1   7
BRANCH   6  13
ATOM     13  N   LIG d   1      -1.771  92.237 117.669  0.00  0.00    -0.311 N 
ATOM     14  C   LIG d   1      -0.799  91.643 118.359  0.00  0.00     0.210 C 
ATOM     15  C   LIG d   1       0.622  92.050 117.957  0.00  0.00     0.109 C 
ATOM     16  O   LIG d   1      -0.979  90.793 119.244  0.00  0.00    -0.276 OA
ATOM     17  H   LIG d   1      -1.535  92.890 116.947  0.00  0.00     0.149 HD
ENDBRANCH   6  13
BRANCH   5  18
ATOM     18  N   LIG d   1      -3.191  89.567 117.238  0.00  0.00     0.381 N 
ATOM     19  H   LIG d   1      -3.216  89.354 118.215  0.00  0.00    -0.090 HD
ATOM     20  H   LIG d   1      -2.230  89.589 116.946  0.00  0.00    -0.090 HD
ATOM     21  H   LIG d   1      -3.685  88.870 116.726  0.00  0.00    -0.090 HD
ENDBRANCH   5  18
BRANCH   3  22
ATOM     22  C   LIG d   1      -7.294  91.991 116.772  0.00  0.00     0.382 C 
ATOM     23  O   LIG d   1      -7.912  90.906 116.656  0.00  0.00    -0.241 OA
ATOM     24  O   LIG d   1      -7.865  93.057 116.472  0.00  0.00    -0.241 OA
ENDBRANCH   3  22
TORSDOF 7
ENDMDL
MODEL 5
REMARK VINA RESULT:      -4.4      2.715      6.237
REMARK  7 active torsions:
REMARK  status: ('A' for Active; 'I' for Inactive)
REMARK    1  A    between atoms: C_2  and  C_3 
REMARK    2  A    between atoms: C_3  and  O_6 
REMARK    3  A    between atoms: C_3  and  C_4 
REMARK    4  A    between atoms: C_7  and  O_6 
REMARK    5  A    between atoms: C_9  and  C_10 
REMARK    6  A    between atoms: N_15  and  C_14 
REMARK    7  A    between atoms: N_20  and  C_19 
REMARK       I    between atoms: C_22  and  N_20 
ROOT
ATOM      1  C   LIG d   1       0.374  89.299 116.890  0.00  0.00     0.161 C 
ATOM      2  C   LIG d   1       1.766  89.482 116.933  0.00  0.00     0.016 C 
ATOM      3  C   LIG d   1       2.380  90.733 117.176  0.00  0.00     0.038 C 
ATOM      4  C   LIG d   1       1.637  91.864 117.545  0.00  0.00     0.028 C 
ATOM      5  C   LIG d   1       0.205  91.846 117.020  0.00  0.00    -0.047 C 
ATOM      6  C   LIG d   1      -0.452  90.499 117.400  0.00  0.00     0.091 C 
ENDROOT
BRANCH   1   7
ATOM      7  O   LIG d   1       0.016  88.103 117.610  0.00  0.00    -0.368 OA
BRANCH   7   8
ATOM      8  C   LIG d   1      -0.242  88.264 119.026  0.00  0.00     0.119 C 
BRANCH   8   9
ATOM      9  C   LIG d   1       0.834  87.465 119.787  0.00  0.00     0.028 C 
ATOM     10  C   LIG d   1       1.806  88.374 120.557  0.00  0.00     0.006 C 
ENDBRANCH   8   9
BRANCH   8  11
ATOM     11  C   LIG d   1      -1.577  87.628 119.425  0.00  0.00     0.028 C 
ATOM     12  C   LIG d   1      -1.452  86.129 119.743  0.00  0.00     0.006 C 
ENDBRANCH   8  11
ENDBRANCH   7   8
ENDBRANCH   1   7
BRANCH   6  13
ATOM     13  N   LIG d   1      -1.827  90.364 116.852  0.00  0.00    -0.311 N 
ATOM     14  C   LIG d   1      -2.924  90.667 117.543  0.00  0.00     0.210 C 
ATOM     15  C   LIG d   1      -4.242  90.436 116.798  0.00  0.00     0.109 C 
ATOM     16  O   LIG d   1      -2.931  91.135 118.692  0.00  0.00    -0.276 OA
ATOM     17  H   LIG d   1      -1.913  90.021 115.916  0.00  0.00     0.149 HD
ENDBRANCH   6  13
BRANCH   5  18
ATOM     18  N   LIG d   1      -0.494  93.012 117.592  0.00  0.00     0.381 N 
ATOM     19  H   LIG d   1       0.157  93.587 118.089  0.00  0.00    -0.090 HD
ATOM     20  H   LIG d   1      -1.189  92.688 118.242  0.00  0.00    -0.090 HD
ATOM     21  H   LIG d   1      -0.928  93.539 116.867  0.00  0.00    -0.090 HD
ENDBRANCH   5  18
BRANCH   3  22
ATOM     22  C   LIG d   1       3.750  90.869 117.012  0.00  0.00     0.382 C 
ATOM     23  O   LIG d   1       4.242  91.997 116.769  0.00  0.00    -0.241 OA
ATOM     24  O   LIG d   1       4.494  89.872 117.058  0.00  0.00    -0.241 OA
ENDBRANCH   3  22
TORSDOF 7
ENDMDL
MODEL 6
REMARK VINA RESULT:      -4.4      3.001      4.941
REMARK  7 active torsions:
REMARK  status: ('A' for Active; 'I' for Inactive)
REMARK    1  A    between atoms: C_2  and  C_3 
REMARK    2  A    between atoms: C_3  and  O_6 
REMARK    3  A    between atoms: C_3  and  C_4 
REMARK    4  A    between atoms: C_7  and  O_6 
REMARK    5  A    between atoms: C_9  and  C_10 
REMARK    6  A    between atoms: N_15  and  C_14 
REMARK    7  A    between atoms: N_20  and  C_19 
REMARK       I    between atoms: C_22  and  N_20 
ROOT
ATOM      1  C   LIG d   1      -5.099  93.648 118.369  0.00  0.00     0.161 C 
ATOM      2  C   LIG d   1      -6.023  94.698 118.496  0.00  0.00     0.016 C 
ATOM      3  C   LIG d   1      -7.384  94.586 118.128  0.00  0.00     0.038 C 
ATOM      4  C   LIG d   1      -7.950  93.360 117.746  0.00  0.00     0.028 C 
ATOM      5  C   LIG d   1      -6.945  92.397 117.122  0.00  0.00    -0.047 C 
ATOM      6  C   LIG d   1      -5.723  92.271 118.060  0.00  0.00     0.091 C 
ENDROOT
BRANCH   1   7
ATOM      7  O   LIG d   1      -4.280  93.572 119.553  0.00  0.00    -0.368 OA
BRANCH   7   8
ATOM      8  C   LIG d   1      -2.908  94.014 119.409  0.00  0.00     0.119 C 
BRANCH   8   9
ATOM      9  C   LIG d   1      -2.786  95.382 120.108  0.00  0.00     0.028 C 
ATOM     10  C   LIG d   1      -2.919  96.557 119.126  0.00  0.00     0.006 C 
ENDBRANCH   8   9
BRANCH   8  11
ATOM     11  C   LIG d   1      -2.559  94.277 117.941  0.00  0.00     0.028 C 
ATOM     12  C   LIG d   1      -1.110  93.900 117.596  0.00  0.00     0.006 C 
ENDBRANCH   8  11
ENDBRANCH   7   8
ENDBRANCH   1   7
BRANCH   6  13
ATOM     13  N   LIG d   1      -4.654  91.412 117.485  0.00  0.00    -0.311 N 
ATOM     14  C   LIG d   1      -4.068  90.423 118.157  0.00  0.00     0.210 C 
ATOM     15  C   LIG d   1      -2.977  89.675 117.385  0.00  0.00     0.109 C 
ATOM     16  O   LIG d   1      -4.370  90.073 119.308  0.00  0.00    -0.276 OA
ATOM     17  H   LIG d   1      -4.369  91.606 116.545  0.00  0.00     0.149 HD
ENDBRANCH   6  13
BRANCH   5  18
ATOM     18  N   LIG d   1      -7.638  91.114 116.900  0.00  0.00     0.381 N 
ATOM     19  H   LIG d   1      -8.271  91.200 116.130  0.00  0.00    -0.090 HD
ATOM     20  H   LIG d   1      -8.169  90.884 117.721  0.00  0.00    -0.090 HD
ATOM     21  H   LIG d   1      -6.973  90.395 116.714  0.00  0.00    -0.090 HD
ENDBRANCH   5  18
BRANCH   3  22
ATOM     22  C   LIG d   1      -8.184  95.717 118.101  0.00  0.00     0.382 C 
ATOM     23  O   LIG d   1      -7.687  96.830 117.802  0.00  0.00    -0.241 OA
ATOM     24  O   LIG d   1      -9.388  95.648 118.415  0.00  0.00    -0.241 OA
ENDBRANCH   3  22
TORSDOF 7
ENDMDL
MODEL 7
REMARK VINA RESULT:      -4.0      2.605      6.669
REMARK  7 active torsions:
REMARK  status: ('A' for Active; 'I' for Inactive)
REMARK    1  A    between atoms: C_2  and  C_3 
REMARK    2  A    between atoms: C_3  and  O_6 
REMARK    3  A    between atoms: C_3  and  C_4 
REMARK    4  A    between atoms: C_7  and  O_6 
REMARK    5  A    between atoms: C_9  and  C_10 
REMARK    6  A    between atoms: N_15  and  C_14 
REMARK    7  A    between atoms: N_20  and  C_19 
REMARK       I    between atoms: C_22  and  N_20 
ROOT
ATOM      1  C   LIG d   1       0.344  91.903 118.262  0.00  0.00     0.161 C 
ATOM      2  C   LIG d   1       1.678  92.000 117.831  0.00  0.00     0.016 C 
ATOM      3  C   LIG d   1       2.337  90.983 117.103  0.00  0.00     0.038 C 
ATOM      4  C   LIG d   1       1.655  89.855 116.623  0.00  0.00     0.028 C 
ATOM      5  C   LIG d   1       0.441  89.477 117.464  0.00  0.00    -0.047 C 
ATOM      6  C   LIG d   1      -0.448  90.728 117.652  0.00  0.00     0.091 C 
ENDROOT
BRANCH   1   7
ATOM      7  O   LIG d   1      -0.340  93.148 118.020  0.00  0.00    -0.368 OA
BRANCH   7   8
ATOM      8  C   LIG d   1      -0.717  93.907 119.196  0.00  0.00     0.119 C 
BRANCH   8   9
ATOM      9  C   LIG d   1      -0.293  93.089 120.431  0.00  0.00     0.028 C 
ATOM     10  C   LIG d   1      -1.473  92.792 121.372  0.00  0.00     0.006 C 
ENDBRANCH   8   9
BRANCH   8  11
ATOM     11  C   LIG d   1      -2.239  94.046 119.305  0.00  0.00     0.028 C 
ATOM     12  C   LIG d   1      -2.929  94.129 117.934  0.00  0.00     0.006 C 
ENDBRANCH   8  11
ENDBRANCH   7   8
ENDBRANCH   1   7
BRANCH   6  13
ATOM     13  N   LIG d   1      -1.615  90.466 118.534  0.00  0.00    -0.311 N 
ATOM     14  C   LIG d   1      -2.874  90.446 118.098  0.00  0.00     0.210 C 
ATOM     15  C   LIG d   1      -3.928  90.177 119.177  0.00  0.00     0.109 C 
ATOM     16  O   LIG d   1      -3.215  90.593 116.915  0.00  0.00    -0.276 OA
ATOM     17  H   LIG d   1      -1.427  90.305 119.504  0.00  0.00     0.149 HD
ENDBRANCH   6  13
BRANCH   5  18
ATOM     18  N   LIG d   1      -0.253  88.373 116.774  0.00  0.00     0.381 N 
ATOM     19  H   LIG d   1      -1.166  88.250 117.164  0.00  0.00    -0.090 HD
ATOM     20  H   LIG d   1       0.267  87.525 116.915  0.00  0.00    -0.090 HD
ATOM     21  H   LIG d   1      -0.323  88.570 115.800  0.00  0.00    -0.090 HD
ENDBRANCH   5  18
BRANCH   3  22
ATOM     22  C   LIG d   1       3.703  91.071 116.883  0.00  0.00     0.382 C 
ATOM     23  O   LIG d   1       4.259  92.195 116.831  0.00  0.00    -0.241 OA
ATOM     24  O   LIG d   1       4.379  90.043 116.692  0.00  0.00    -0.241 OA
ENDBRANCH   3  22
TORSDOF 7
ENDMDL
MODEL 8
REMARK VINA RESULT:      -4.0      3.067      6.065
REMARK  7 active torsions:
REMARK  status: ('A' for Active; 'I' for Inactive)
REMARK    1  A    between atoms: C_2  and  C_3 
REMARK    2  A    between atoms: C_3  and  O_6 
REMARK    3  A    between atoms: C_3  and  C_4 
REMARK    4  A    between atoms: C_7  and  O_6 
REMARK    5  A    between atoms: C_9  and  C_10 
REMARK    6  A    between atoms: N_15  and  C_14 
REMARK    7  A    between atoms: N_20  and  C_19 
REMARK       I    between atoms: C_22  and  N_20 
ROOT
ATOM      1  C   LIG d   1      -5.257  93.223 118.797  0.00  0.00     0.161 C 
ATOM      2  C   LIG d   1      -4.156  92.414 118.468  0.00  0.00     0.016 C 
ATOM      3  C   LIG d   1      -4.251  91.269 117.645  0.00  0.00     0.038 C 
ATOM      4  C   LIG d   1      -5.434  90.939 116.968  0.00  0.00     0.028 C 
ATOM      5  C   LIG d   1      -6.693  91.436 117.669  0.00  0.00    -0.047 C 
ATOM      6  C   LIG d   1      -6.534  92.943 117.977  0.00  0.00     0.091 C 
ENDROOT
BRANCH   1   7
ATOM      7  O   LIG d   1      -4.890  94.613 118.693  0.00  0.00    -0.368 OA
BRANCH   7   8
ATOM      8  C   LIG d   1      -4.789  95.342 119.941  0.00  0.00     0.119 C 
BRANCH   8   9
ATOM      9  C   LIG d   1      -3.293  95.593 120.211  0.00  0.00     0.028 C 
ATOM     10  C   LIG d   1      -2.733  94.675 121.311  0.00  0.00     0.006 C 
ENDBRANCH   8   9
BRANCH   8  11
ATOM     11  C   LIG d   1      -5.278  94.496 121.121  0.00  0.00     0.028 C 
ATOM     12  C   LIG d   1      -6.499  95.106 121.826  0.00  0.00     0.006 C 
ENDBRANCH   8  11
ENDBRANCH   7   8
ENDBRANCH   1   7
BRANCH   6  13
ATOM     13  N   LIG d   1      -7.686  93.491 118.739  0.00  0.00    -0.311 N 
ATOM     14  C   LIG d   1      -8.250  94.667 118.469  0.00  0.00     0.210 C 
ATOM     15  C   LIG d   1      -9.414  95.052 119.388  0.00  0.00     0.109 C 
ATOM     16  O   LIG d   1      -7.918  95.413 117.536  0.00  0.00    -0.276 OA
ATOM     17  H   LIG d   1      -8.040  92.936 119.493  0.00  0.00     0.149 HD
ENDBRANCH   6  13
BRANCH   5  18
ATOM     18  N   LIG d   1      -7.840  91.145 116.787  0.00  0.00     0.381 N 
ATOM     19  H   LIG d   1      -7.512  90.924 115.868  0.00  0.00    -0.090 HD
ATOM     20  H   LIG d   1      -8.420  91.963 116.727  0.00  0.00    -0.090 HD
ATOM     21  H   LIG d   1      -8.366  90.382 117.153  0.00  0.00    -0.090 HD
ENDBRANCH   5  18
BRANCH   3  22
ATOM     22  C   LIG d   1      -3.164  90.417 117.525  0.00  0.00     0.382 C 
ATOM     23  O   LIG d   1      -3.339  89.175 117.512  0.00  0.00    -0.241 OA
ATOM     24  O   LIG d   1      -2.006  90.874 117.475  0.00  0.00    -0.241 OA
ENDBRANCH   3  22
TORSDOF 7
ENDMDL
MODEL 9
REMARK VINA RESULT:      -4.0      2.060      2.912
REMARK  7 active torsions:
REMARK  status: ('A' for Active; 'I' for Inactive)
REMARK    1  A    between atoms: C_2  and  C_3 
REMARK    2  A    between atoms: C_3  and  O_6 
REMARK    3  A    between atoms: C_3  and  C_4 
REMARK    4  A    between atoms: C_7  and  O_6 
REMARK    5  A    between atoms: C_9  and  C_10 
REMARK    6  A    between atoms: N_15  and  C_14 
REMARK    7  A    between atoms: N_20  and  C_19 
REMARK       I    between atoms: C_22  and  N_20 
ROOT
ATOM      1  C   LIG d   1      -4.278  93.262 118.595  0.00  0.00     0.161 C 
ATOM      2  C   LIG d   1      -5.465  93.005 117.889  0.00  0.00     0.016 C 
ATOM      3  C   LIG d   1      -6.550  93.909 117.836  0.00  0.00     0.038 C 
ATOM      4  C   LIG d   1      -6.462  95.206 118.365  0.00  0.00     0.028 C 
ATOM      5  C   LIG d   1      -5.473  95.323 119.520  0.00  0.00    -0.047 C 
ATOM      6  C   LIG d   1      -4.119  94.717 119.085  0.00  0.00     0.091 C 
ENDROOT
BRANCH   1   7
ATOM      7  O   LIG d   1      -3.141  92.876 117.797  0.00  0.00    -0.368 OA
BRANCH   7   8
ATOM      8  C   LIG d   1      -2.316  91.814 118.336  0.00  0.00     0.119 C 
BRANCH   8   9
ATOM      9  C   LIG d   1      -0.845  92.234 118.157  0.00  0.00     0.028 C 
ATOM     10  C   LIG d   1       0.074  91.627 119.230  0.00  0.00     0.006 C 
ENDBRANCH   8   9
BRANCH   8  11
ATOM     11  C   LIG d   1      -2.470  90.523 117.526  0.00  0.00     0.028 C 
ATOM     12  C   LIG d   1      -3.155  89.399 118.320  0.00  0.00     0.006 C 
ENDBRANCH   8  11
ENDBRANCH   7   8
ENDBRANCH   1   7
BRANCH   6  13
ATOM     13  N   LIG d   1      -3.119  94.715 120.185  0.00  0.00    -0.311 N 
ATOM     14  C   LIG d   1      -1.888  95.206 120.057  0.00  0.00     0.210 C 
ATOM     15  C   LIG d   1      -1.011  95.086 121.308  0.00  0.00     0.109 C 
ATOM     16  O   LIG d   1      -1.449  95.759 119.038  0.00  0.00    -0.276 OA
ATOM     17  H   LIG d   1      -3.402  94.313 121.057  0.00  0.00     0.149 HD
ENDBRANCH   6  13
BRANCH   5  18
ATOM     18  N   LIG d   1      -5.378  96.749 119.883  0.00  0.00     0.381 N 
ATOM     19  H   LIG d   1      -5.507  97.315 119.068  0.00  0.00    -0.090 HD
ATOM     20  H   LIG d   1      -4.461  96.931 120.251  0.00  0.00    -0.090 HD
ATOM     21  H   LIG d   1      -6.069  96.974 120.565  0.00  0.00    -0.090 HD
ENDBRANCH   5  18
BRANCH   3  22
ATOM     22  C   LIG d   1      -7.756  93.504 117.284  0.00  0.00     0.382 C 
ATOM     23  O   LIG d   1      -7.837  92.398 116.698  0.00  0.00    -0.241 OA
ATOM     24  O   LIG d   1      -8.752  94.251 117.325  0.00  0.00    -0.241 OA
ENDBRANCH   3  22
TORSDOF 7
ENDMDL
