MODEL 1
REMARK VINA RESULT:      -4.6      0.000      0.000
REMARK  7 active torsions:
REMARK  status: ('A' for Active; 'I' for Inactive)
REMARK    1  A    between atoms: C_2  and  C_3 
REMARK    2  A    between atoms: C_3  and  O_6 
REMARK    3  A    between atoms: C_3  and  C_4 
REMARK    4  A    between atoms: C_7  and  O_6 
REMARK    5  A    between atoms: C_9  and  C_10 
REMARK    6  A    between atoms: N_15  and  C_14 
REMARK    7  A    between atoms: N_20  and  C_19 
REMARK       I    between atoms: C_22  and  N_20 
ROOT
ATOM      1  C   LIG d   1      -2.240  93.259 118.040  0.00  0.00     0.161 C 
ATOM      2  C   LIG d   1      -0.938  92.801 117.779  0.00  0.00     0.016 C 
ATOM      3  C   LIG d   1       0.183  93.155 118.565  0.00  0.00     0.038 C 
ATOM      4  C   LIG d   1       0.052  93.874 119.762  0.00  0.00     0.028 C 
ATOM      5  C   LIG d   1      -1.173  94.781 119.793  0.00  0.00    -0.047 C 
ATOM      6  C   LIG d   1      -2.420  93.954 119.406  0.00  0.00     0.091 C 
ENDROOT
BRANCH   1   7
ATOM      7  O   LIG d   1      -3.177  92.172 117.904  0.00  0.00    -0.368 OA
BRANCH   7   8
ATOM      8  C   LIG d   1      -2.606  90.841 117.855  0.00  0.00     0.119 C 
BRANCH   8   9
ATOM      9  C   LIG d   1      -3.322  90.071 116.728  0.00  0.00     0.028 C 
ATOM     10  C   LIG d   1      -4.721  90.635 116.430  0.00  0.00     0.006 C 
ENDBRANCH   8   9
BRANCH   8  11
ATOM     11  C   LIG d   1      -2.907  90.057 119.136  0.00  0.00     0.028 C 
ATOM     12  C   LIG d   1      -1.861  90.292 120.238  0.00  0.00     0.006 C 
ENDBRANCH   8  11
ENDBRANCH   7   8
ENDBRANCH   1   7
BRANCH   6  13
ATOM     13  N   LIG d   1      -3.650  94.784 119.330  0.00  0.00    -0.311 N 
ATOM     14  C   LIG d   1      -4.497  94.935 120.347  0.00  0.00     0.210 C 
ATOM     15  C   LIG d   1      -5.713  95.818 120.050  0.00  0.00     0.109 C 
ATOM     16  O   LIG d   1      -4.340  94.448 121.476  0.00  0.00    -0.276 OA
ATOM     17  H   LIG d   1      -3.839  95.241 118.459  0.00  0.00     0.149 HD
ENDBRANCH   6  13
BRANCH   5  18
ATOM     18  N   LIG d   1      -1.262  95.364 121.145  0.00  0.00     0.381 N 
ATOM     19  H   LIG d   1      -1.750  94.736 121.753  0.00  0.00    -0.090 HD
ATOM     20  H   LIG d   1      -1.781  96.223 121.095  0.00  0.00    -0.090 HD
ATOM     21  H   LIG d   1      -0.349  95.539 121.502  0.00  0.00    -0.090 HD
ENDBRANCH   5  18
BRANCH   3  22
ATOM     22  C   LIG d   1       1.458  92.822 118.132  0.00  0.00     0.382 C 
ATOM     23  O   LIG d   1       2.462  93.246 118.754  0.00  0.00    -0.241 OA
ATOM     24  O   LIG d   1       1.617  92.139 117.103  0.00  0.00    -0.241 OA
ENDBRANCH   3  22
TORSDOF 7
ENDMDL
MODEL 2
REMARK VINA RESULT:      -4.5      2.323      5.044
REMARK  7 active torsions:
REMARK  status: ('A' for Active; 'I' for Inactive)
REMARK    1  A    between atoms: C_2  and  C_3 
REMARK    2  A    between atoms: C_3  and  O_6 
REMARK    3  A    between atoms: C_3  and  C_4 
REMARK    4  A    between atoms: C_7  and  O_6 
REMARK    5  A    between atoms: C_9  and  C_10 
REMARK    6  A    between atoms: N_15  and  C_14 
REMARK    7  A    between atoms: N_20  and  C_19 
REMARK       I    between atoms: C_22  and  N_20 
ROOT
ATOM      1  C   LIG d   1      -0.884  90.725 119.261  0.00  0.00     0.161 C 
ATOM      2  C   LIG d   1      -1.910  90.412 118.353  0.00  0.00     0.016 C 
ATOM      3  C   LIG d   1      -2.939  91.315 118.001  0.00  0.00     0.038 C 
ATOM      4  C   LIG d   1      -2.928  92.653 118.422  0.00  0.00     0.028 C 
ATOM      5  C   LIG d   1      -2.191  92.868 119.739  0.00  0.00    -0.047 C 
ATOM      6  C   LIG d   1      -0.793  92.217 119.644  0.00  0.00     0.091 C 
ENDROOT
BRANCH   1   7
ATOM      7  O   LIG d   1       0.380  90.261 118.749  0.00  0.00    -0.368 OA
BRANCH   7   8
ATOM      8  C   LIG d   1       1.085  91.171 117.870  0.00  0.00     0.119 C 
BRANCH   8   9
ATOM      9  C   LIG d   1       1.202  90.488 116.493  0.00  0.00     0.028 C 
ATOM     10  C   LIG d   1       2.038  89.199 116.547  0.00  0.00     0.006 C 
ENDBRANCH   8   9
BRANCH   8  11
ATOM     11  C   LIG d   1       2.527  91.392 118.336  0.00  0.00     0.028 C 
ATOM     12  C   LIG d   1       3.074  92.774 117.945  0.00  0.00     0.006 C 
ENDBRANCH   8  11
ENDBRANCH   7   8
ENDBRANCH   1   7
BRANCH   6  13
ATOM     13  N   LIG d   1      -0.037  92.307 120.921  0.00  0.00    -0.311 N 
ATOM     14  C   LIG d   1       0.819  93.289 121.198  0.00  0.00     0.210 C 
ATOM     15  C   LIG d   1       1.507  93.182 122.563  0.00  0.00     0.109 C 
ATOM     16  O   LIG d   1       1.050  94.256 120.457  0.00  0.00    -0.276 OA
ATOM     17  H   LIG d   1      -0.188  91.581 121.593  0.00  0.00     0.149 HD
ENDBRANCH   6  13
BRANCH   5  18
ATOM     18  N   LIG d   1      -2.137  94.321 119.988  0.00  0.00     0.381 N 
ATOM     19  H   LIG d   1      -1.185  94.613 120.081  0.00  0.00    -0.090 HD
ATOM     20  H   LIG d   1      -2.614  94.521 120.850  0.00  0.00    -0.090 HD
ATOM     21  H   LIG d   1      -2.572  94.812 119.238  0.00  0.00    -0.090 HD
ENDBRANCH   5  18
BRANCH   3  22
ATOM     22  C   LIG d   1      -4.017  90.869 117.252  0.00  0.00     0.382 C 
ATOM     23  O   LIG d   1      -3.866  89.933 116.430  0.00  0.00    -0.241 OA
ATOM     24  O   LIG d   1      -5.129  91.421 117.354  0.00  0.00    -0.241 OA
ENDBRANCH   3  22
TORSDOF 7
ENDMDL
MODEL 3
REMARK VINA RESULT:      -4.4      2.452      5.678
REMARK  7 active torsions:
REMARK  status: ('A' for Active; 'I' for Inactive)
REMARK    1  A    between atoms: C_2  and  C_3 
REMARK    2  A    between atoms: C_3  and  O_6 
REMARK    3  A    between atoms: C_3  and  C_4 
REMARK    4  A    between atoms: C_7  and  O_6 
REMARK    5  A    between atoms: C_9  and  C_10 
REMARK    6  A    between atoms: N_15  and  C_14 
REMARK    7  A    between atoms: N_20  and  C_19 
REMARK       I    between atoms: C_22  and  N_20 
ROOT
ATOM      1  C   LIG d   1      -0.627  93.528 117.992  0.00  0.00     0.161 C 
ATOM      2  C   LIG d   1      -1.943  93.038 117.967  0.00  0.00     0.016 C 
ATOM      3  C   LIG d   1      -2.264  91.665 118.074  0.00  0.00     0.038 C 
ATOM      4  C   LIG d   1      -1.293  90.696 118.366  0.00  0.00     0.028 C 
ATOM      5  C   LIG d   1       0.107  91.082 117.898  0.00  0.00    -0.047 C 
ATOM      6  C   LIG d   1       0.439  92.498 118.422  0.00  0.00     0.091 C 
ENDROOT
BRANCH   1   7
ATOM      7  O   LIG d   1      -0.557  94.699 118.829  0.00  0.00    -0.368 OA
BRANCH   7   8
ATOM      8  C   LIG d   1      -1.580  94.815 119.849  0.00  0.00     0.119 C 
BRANCH   8   9
ATOM      9  C   LIG d   1      -2.056  96.280 119.863  0.00  0.00     0.028 C 
ATOM     10  C   LIG d   1      -3.589  96.400 119.831  0.00  0.00     0.006 C 
ENDBRANCH   8   9
BRANCH   8  11
ATOM     11  C   LIG d   1      -1.005  94.563 121.246  0.00  0.00     0.028 C 
ATOM     12  C   LIG d   1      -1.198  93.113 121.717  0.00  0.00     0.006 C 
ENDBRANCH   8  11
ENDBRANCH   7   8
ENDBRANCH   1   7
BRANCH   6  13
ATOM     13  N   LIG d   1       1.757  92.986 117.939  0.00  0.00    -0.311 N 
ATOM     14  C   LIG d   1       2.894  92.813 118.611  0.00  0.00     0.210 C 
ATOM     15  C   LIG d   1       4.136  93.412 117.945  0.00  0.00     0.109 C 
ATOM     16  O   LIG d   1       2.996  92.192 119.680  0.00  0.00    -0.276 OA
ATOM     17  H   LIG d   1       1.770  93.474 117.065  0.00  0.00     0.149 HD
ENDBRANCH   6  13
BRANCH   5  18
ATOM     18  N   LIG d   1       1.040  90.050 118.388  0.00  0.00     0.381 N 
ATOM     19  H   LIG d   1       1.850  90.020 117.801  0.00  0.00    -0.090 HD
ATOM     20  H   LIG d   1       0.587  89.155 118.345  0.00  0.00    -0.090 HD
ATOM     21  H   LIG d   1       1.309  90.251 119.326  0.00  0.00    -0.090 HD
ENDBRANCH   5  18
BRANCH   3  22
ATOM     22  C   LIG d   1      -3.566  91.244 117.847  0.00  0.00     0.382 C 
ATOM     23  O   LIG d   1      -4.517  91.797 118.450  0.00  0.00    -0.241 OA
ATOM     24  O   LIG d   1      -3.797  90.290 117.081  0.00  0.00    -0.241 OA
ENDBRANCH   3  22
TORSDOF 7
ENDMDL
MODEL 4
REMARK VINA RESULT:      -4.3      2.411      4.314
REMARK  7 active torsions:
REMARK  status: ('A' for Active; 'I' for Inactive)
REMARK    1  A    between atoms: C_2  and  C_3 
REMARK    2  A    between atoms: C_3  and  O_6 
REMARK    3  A    between atoms: C_3  and  C_4 
REMARK    4  A    between atoms: C_7  and  O_6 
REMARK    5  A    between atoms: C_9  and  C_10 
REMARK    6  A    between atoms: N_15  and  C_14 
REMARK    7  A    between atoms: N_20  and  C_19 
REMARK       I    between atoms: C_22  and  N_20 
ROOT
ATOM      1  C   LIG d   1      -2.504  93.445 118.748  0.00  0.00     0.161 C 
ATOM      2  C   LIG d   1      -1.754  94.137 119.713  0.00  0.00     0.016 C 
ATOM      3  C   LIG d   1      -2.117  94.205 121.078  0.00  0.00     0.038 C 
ATOM      4  C   LIG d   1      -3.180  93.454 121.601  0.00  0.00     0.028 C 
ATOM      5  C   LIG d   1      -4.265  93.143 120.575  0.00  0.00    -0.047 C 
ATOM      6  C   LIG d   1      -3.606  92.528 119.320  0.00  0.00     0.091 C 
ENDROOT
BRANCH   1   7
ATOM      7  O   LIG d   1      -1.622  92.693 117.890  0.00  0.00    -0.368 OA
BRANCH   7   8
ATOM      8  C   LIG d   1      -0.378  92.251 118.486  0.00  0.00     0.119 C 
BRANCH   8   9
ATOM      9  C   LIG d   1       0.674  92.180 117.362  0.00  0.00     0.028 C 
ATOM     10  C   LIG d   1       2.110  92.334 117.892  0.00  0.00     0.006 C 
ENDBRANCH   8   9
BRANCH   8  11
ATOM     11  C   LIG d   1      -0.495  90.821 119.023  0.00  0.00     0.028 C 
ATOM     12  C   LIG d   1      -0.138  90.714 120.514  0.00  0.00     0.006 C 
ENDBRANCH   8  11
ENDBRANCH   7   8
ENDBRANCH   1   7
BRANCH   6  13
ATOM     13  N   LIG d   1      -4.587  92.272 118.233  0.00  0.00    -0.311 N 
ATOM     14  C   LIG d   1      -4.610  91.149 117.516  0.00  0.00     0.210 C 
ATOM     15  C   LIG d   1      -5.690  91.097 116.431  0.00  0.00     0.109 C 
ATOM     16  O   LIG d   1      -3.860  90.179 117.697  0.00  0.00    -0.276 OA
ATOM     17  H   LIG d   1      -5.253  92.994 118.040  0.00  0.00     0.149 HD
ENDBRANCH   6  13
BRANCH   5  18
ATOM     18  N   LIG d   1      -5.240  92.242 121.217  0.00  0.00     0.381 N 
ATOM     19  H   LIG d   1      -5.716  91.706 120.519  0.00  0.00    -0.090 HD
ATOM     20  H   LIG d   1      -5.920  92.796 121.708  0.00  0.00    -0.090 HD
ATOM     21  H   LIG d   1      -4.775  91.633 121.854  0.00  0.00    -0.090 HD
ENDBRANCH   5  18
BRANCH   3  22
ATOM     22  C   LIG d   1      -1.435  95.063 121.928  0.00  0.00     0.382 C 
ATOM     23  O   LIG d   1      -1.541  94.929 123.171  0.00  0.00    -0.241 OA
ATOM     24  O   LIG d   1      -0.752  95.997 121.467  0.00  0.00    -0.241 OA
ENDBRANCH   3  22
TORSDOF 7
ENDMDL
MODEL 5
REMARK VINA RESULT:      -4.3      1.854      2.435
REMARK  7 active torsions:
REMARK  status: ('A' for Active; 'I' for Inactive)
REMARK    1  A    between atoms: C_2  and  C_3 
REMARK    2  A    between atoms: C_3  and  O_6 
REMARK    3  A    between atoms: C_3  and  C_4 
REMARK    4  A    between atoms: C_7  and  O_6 
REMARK    5  A    between atoms: C_9  and  C_10 
REMARK    6  A    between atoms: N_15  and  C_14 
REMARK    7  A    between atoms: N_20  and  C_19 
REMARK       I    between atoms: C_22  and  N_20 
ROOT
ATOM      1  C   LIG d   1      -0.534  92.559 117.783  0.00  0.00     0.161 C 
ATOM      2  C   LIG d   1       0.288  91.503 117.356  0.00  0.00     0.016 C 
ATOM      3  C   LIG d   1       1.543  91.209 117.939  0.00  0.00     0.038 C 
ATOM      4  C   LIG d   1       1.995  91.863 119.095  0.00  0.00     0.028 C 
ATOM      5  C   LIG d   1       1.430  93.270 119.255  0.00  0.00    -0.047 C 
ATOM      6  C   LIG d   1      -0.108  93.213 119.114  0.00  0.00     0.091 C 
ENDROOT
BRANCH   1   7
ATOM      7  O   LIG d   1      -1.902  92.113 117.859  0.00  0.00    -0.368 OA
BRANCH   7   8
ATOM      8  C   LIG d   1      -2.099  90.706 118.144  0.00  0.00     0.119 C 
BRANCH   8   9
ATOM      9  C   LIG d   1      -3.105  90.161 117.111  0.00  0.00     0.028 C 
ATOM     10  C   LIG d   1      -4.385  91.010 117.035  0.00  0.00     0.006 C 
ENDBRANCH   8   9
BRANCH   8  11
ATOM     11  C   LIG d   1      -2.766  90.502 119.507  0.00  0.00     0.028 C 
ATOM     12  C   LIG d   1      -1.755  90.220 120.629  0.00  0.00     0.006 C 
ENDBRANCH   8  11
ENDBRANCH   7   8
ENDBRANCH   1   7
BRANCH   6  13
ATOM     13  N   LIG d   1      -0.733  94.560 119.174  0.00  0.00    -0.311 N 
ATOM     14  C   LIG d   1      -1.667  94.896 120.062  0.00  0.00     0.210 C 
ATOM     15  C   LIG d   1      -2.193  96.329 119.937  0.00  0.00     0.109 C 
ATOM     16  O   LIG d   1      -2.087  94.153 120.963  0.00  0.00    -0.276 OA
ATOM     17  H   LIG d   1      -0.429  95.234 118.500  0.00  0.00     0.149 HD
ENDBRANCH   6  13
BRANCH   5  18
ATOM     18  N   LIG d   1       1.872  93.781 120.566  0.00  0.00     0.381 N 
ATOM     19  H   LIG d   1       2.439  94.596 120.439  0.00  0.00    -0.090 HD
ATOM     20  H   LIG d   1       2.430  93.078 121.018  0.00  0.00    -0.090 HD
ATOM     21  H   LIG d   1       1.082  94.002 121.130  0.00  0.00    -0.090 HD
ENDBRANCH   5  18
BRANCH   3  22
ATOM     22  C   LIG d   1       2.378  90.278 117.340  0.00  0.00     0.382 C 
ATOM     23  O   LIG d   1       2.380  89.089 117.740  0.00  0.00    -0.241 OA
ATOM     24  O   LIG d   1       3.160  90.622 116.434  0.00  0.00    -0.241 OA
ENDBRANCH   3  22
TORSDOF 7
ENDMDL
MODEL 6
REMARK VINA RESULT:      -4.2      1.843      5.292
REMARK  7 active torsions:
REMARK  status: ('A' for Active; 'I' for Inactive)
REMARK    1  A    between atoms: C_2  and  C_3 
REMARK    2  A    between atoms: C_3  and  O_6 
REMARK    3  A    between atoms: C_3  and  C_4 
REMARK    4  A    between atoms: C_7  and  O_6 
REMARK    5  A    between atoms: C_9  and  C_10 
REMARK    6  A    between atoms: N_15  and  C_14 
REMARK    7  A    between atoms: N_20  and  C_19 
REMARK       I    between atoms: C_22  and  N_20 
ROOT
ATOM      1  C   LIG d   1      -3.644  93.255 119.744  0.00  0.00     0.161 C 
ATOM      2  C   LIG d   1      -5.019  93.504 119.882  0.00  0.00     0.016 C 
ATOM      3  C   LIG d   1      -5.548  94.753 120.282  0.00  0.00     0.038 C 
ATOM      4  C   LIG d   1      -4.738  95.889 120.425  0.00  0.00     0.028 C 
ATOM      5  C   LIG d   1      -3.293  95.560 120.787  0.00  0.00    -0.047 C 
ATOM      6  C   LIG d   1      -2.751  94.513 119.789  0.00  0.00     0.091 C 
ENDROOT
BRANCH   1   7
ATOM      7  O   LIG d   1      -3.401  92.511 118.533  0.00  0.00    -0.368 OA
BRANCH   7   8
ATOM      8  C   LIG d   1      -4.115  91.258 118.401  0.00  0.00     0.119 C 
BRANCH   8   9
ATOM      9  C   LIG d   1      -3.108  90.121 118.659  0.00  0.00     0.028 C 
ATOM     10  C   LIG d   1      -1.677  90.498 118.238  0.00  0.00     0.006 C 
ENDBRANCH   8   9
BRANCH   8  11
ATOM     11  C   LIG d   1      -4.607  91.045 116.966  0.00  0.00     0.028 C 
ATOM     12  C   LIG d   1      -6.123  91.250 116.819  0.00  0.00     0.006 C 
ENDBRANCH   8  11
ENDBRANCH   7   8
ENDBRANCH   1   7
BRANCH   6  13
ATOM     13  N   LIG d   1      -1.371  94.073 120.121  0.00  0.00    -0.311 N 
ATOM     14  C   LIG d   1      -0.358  94.120 119.257  0.00  0.00     0.210 C 
ATOM     15  C   LIG d   1       0.977  93.600 119.798  0.00  0.00     0.109 C 
ATOM     16  O   LIG d   1      -0.432  94.574 118.106  0.00  0.00    -0.276 OA
ATOM     17  H   LIG d   1      -1.215  93.720 121.045  0.00  0.00     0.149 HD
ENDBRANCH   6  13
BRANCH   5  18
ATOM     18  N   LIG d   1      -2.531  96.824 120.770  0.00  0.00     0.381 N 
ATOM     19  H   LIG d   1      -2.887  97.443 121.471  0.00  0.00    -0.090 HD
ATOM     20  H   LIG d   1      -2.648  97.262 119.874  0.00  0.00    -0.090 HD
ATOM     21  H   LIG d   1      -1.566  96.642 120.936  0.00  0.00    -0.090 HD
ENDBRANCH   5  18
BRANCH   3  22
ATOM     22  C   LIG d   1      -6.897  94.864 120.581  0.00  0.00     0.382 C 
ATOM     23  O   LIG d   1      -7.750  94.798 119.663  0.00  0.00    -0.241 OA
ATOM     24  O   LIG d   1      -7.270  95.074 121.751  0.00  0.00    -0.241 OA
ENDBRANCH   3  22
TORSDOF 7
ENDMDL
MODEL 7
REMARK VINA RESULT:      -4.1      2.606      3.906
REMARK  7 active torsions:
REMARK  status: ('A' for Active; 'I' for Inactive)
REMARK    1  A    between atoms: C_2  and  C_3 
REMARK    2  A    between atoms: C_3  and  O_6 
REMARK    3  A    between atoms: C_3  and  C_4 
REMARK    4  A    between atoms: C_7  and  O_6 
REMARK    5  A    between atoms: C_9  and  C_10 
REMARK    6  A    between atoms: N_15  and  C_14 
REMARK    7  A    between atoms: N_20  and  C_19 
REMARK       I    between atoms: C_22  and  N_20 
ROOT
ATOM      1  C   LIG d   1       0.106  90.621 118.650  0.00  0.00     0.161 C 
ATOM      2  C   LIG d   1       1.464  90.936 118.827  0.00  0.00     0.016 C 
ATOM      3  C   LIG d   1       2.024  92.185 118.476  0.00  0.00     0.038 C 
ATOM      4  C   LIG d   1       1.230  93.264 118.061  0.00  0.00     0.028 C 
ATOM      5  C   LIG d   1      -0.070  92.836 117.389  0.00  0.00    -0.047 C 
ATOM      6  C   LIG d   1      -0.797  91.822 118.302  0.00  0.00     0.091 C 
ENDROOT
BRANCH   1   7
ATOM      7  O   LIG d   1      -0.394  89.940 119.818  0.00  0.00    -0.368 OA
BRANCH   7   8
ATOM      8  C   LIG d   1      -0.920  90.784 120.872  0.00  0.00     0.119 C 
BRANCH   8   9
ATOM      9  C   LIG d   1      -0.039  90.572 122.118  0.00  0.00     0.028 C 
ATOM     10  C   LIG d   1      -0.215  89.172 122.730  0.00  0.00     0.006 C 
ENDBRANCH   8   9
BRANCH   8  11
ATOM     11  C   LIG d   1      -2.326  90.343 121.289  0.00  0.00     0.028 C 
ATOM     12  C   LIG d   1      -3.184  91.505 121.812  0.00  0.00     0.006 C 
ENDBRANCH   8  11
ENDBRANCH   7   8
ENDBRANCH   1   7
BRANCH   6  13
ATOM     13  N   LIG d   1      -2.037  91.288 117.682  0.00  0.00    -0.311 N 
ATOM     14  C   LIG d   1      -3.246  91.804 117.898  0.00  0.00     0.210 C 
ATOM     15  C   LIG d   1      -4.393  91.090 117.176  0.00  0.00     0.109 C 
ATOM     16  O   LIG d   1      -3.473  92.806 118.593  0.00  0.00    -0.276 OA
ATOM     17  H   LIG d   1      -1.941  90.495 117.079  0.00  0.00     0.149 HD
ENDBRANCH   6  13
BRANCH   5  18
ATOM     18  N   LIG d   1      -0.862  94.054 117.132  0.00  0.00     0.381 N 
ATOM     19  H   LIG d   1      -1.285  93.998 116.227  0.00  0.00    -0.090 HD
ATOM     20  H   LIG d   1      -0.248  94.849 117.145  0.00  0.00    -0.090 HD
ATOM     21  H   LIG d   1      -1.566  94.156 117.830  0.00  0.00    -0.090 HD
ENDBRANCH   5  18
BRANCH   3  22
ATOM     22  C   LIG d   1       3.401  92.352 118.501  0.00  0.00     0.382 C 
ATOM     23  O   LIG d   1       4.068  91.911 119.467  0.00  0.00    -0.241 OA
ATOM     24  O   LIG d   1       3.978  92.977 117.591  0.00  0.00    -0.241 OA
ENDBRANCH   3  22
TORSDOF 7
ENDMDL
MODEL 8
REMARK VINA RESULT:      -4.0      2.778      4.984
REMARK  7 active torsions:
REMARK  status: ('A' for Active; 'I' for Inactive)
REMARK    1  A    between atoms: C_2  and  C_3 
REMARK    2  A    between atoms: C_3  and  O_6 
REMARK    3  A    between atoms: C_3  and  C_4 
REMARK    4  A    between atoms: C_7  and  O_6 
REMARK    5  A    between atoms: C_9  and  C_10 
REMARK    6  A    between atoms: N_15  and  C_14 
REMARK    7  A    between atoms: N_20  and  C_19 
REMARK       I    between atoms: C_22  and  N_20 
ROOT
ATOM      1  C   LIG d   1       0.916  92.727 118.739  0.00  0.00     0.161 C 
ATOM      2  C   LIG d   1       2.174  93.302 118.494  0.00  0.00     0.016 C 
ATOM      3  C   LIG d   1       3.287  92.568 118.025  0.00  0.00     0.038 C 
ATOM      4  C   LIG d   1       3.175  91.229 117.623  0.00  0.00     0.028 C 
ATOM      5  C   LIG d   1       2.052  90.476 118.327  0.00  0.00    -0.047 C 
ATOM      6  C   LIG d   1       0.745  91.291 118.201  0.00  0.00     0.091 C 
ENDROOT
BRANCH   1   7
ATOM      7  O   LIG d   1      -0.122  93.583 118.222  0.00  0.00    -0.368 OA
BRANCH   7   8
ATOM      8  C   LIG d   1      -0.839  94.378 119.199  0.00  0.00     0.119 C 
BRANCH   8   9
ATOM      9  C   LIG d   1      -0.725  93.657 120.556  0.00  0.00     0.028 C 
ATOM     10  C   LIG d   1      -0.191  94.577 121.666  0.00  0.00     0.006 C 
ENDBRANCH   8   9
BRANCH   8  11
ATOM     11  C   LIG d   1      -2.338  94.424 118.888  0.00  0.00     0.028 C 
ATOM     12  C   LIG d   1      -3.174  93.578 119.861  0.00  0.00     0.006 C 
ENDBRANCH   8  11
ENDBRANCH   7   8
ENDBRANCH   1   7
BRANCH   6  13
ATOM     13  N   LIG d   1      -0.386  90.667 118.935  0.00  0.00    -0.311 N 
ATOM     14  C   LIG d   1      -1.615  90.557 118.433  0.00  0.00     0.210 C 
ATOM     15  C   LIG d   1      -2.638  89.899 119.364  0.00  0.00     0.109 C 
ATOM     16  O   LIG d   1      -1.947  90.913 117.292  0.00  0.00    -0.276 OA
ATOM     17  H   LIG d   1      -0.198  90.323 119.856  0.00  0.00     0.149 HD
ENDBRANCH   6  13
BRANCH   5  18
ATOM     18  N   LIG d   1       1.960  89.137 117.715  0.00  0.00     0.381 N 
ATOM     19  H   LIG d   1       1.619  89.216 116.778  0.00  0.00    -0.090 HD
ATOM     20  H   LIG d   1       1.308  88.583 118.242  0.00  0.00    -0.090 HD
ATOM     21  H   LIG d   1       2.855  88.700 117.715  0.00  0.00    -0.090 HD
ENDBRANCH   5  18
BRANCH   3  22
ATOM     22  C   LIG d   1       4.539  93.163 117.993  0.00  0.00     0.382 C 
ATOM     23  O   LIG d   1       4.716  94.216 117.333  0.00  0.00    -0.241 OA
ATOM     24  O   LIG d   1       5.504  92.636 118.578  0.00  0.00    -0.241 OA
ENDBRANCH   3  22
TORSDOF 7
ENDMDL
MODEL 9
REMARK VINA RESULT:      -3.9      2.448      4.335
REMARK  7 active torsions:
REMARK  status: ('A' for Active; 'I' for Inactive)
REMARK    1  A    between atoms: C_2  and  C_3 
REMARK    2  A    between atoms: C_3  and  O_6 
REMARK    3  A    between atoms: C_3  and  C_4 
REMARK    4  A    between atoms: C_7  and  O_6 
REMARK    5  A    between atoms: C_9  and  C_10 
REMARK    6  A    between atoms: N_15  and  C_14 
REMARK    7  A    between atoms: N_20  and  C_19 
REMARK       I    between atoms: C_22  and  N_20 
ROOT
ATOM      1  C   LIG d   1      -3.768  93.447 120.050  0.00  0.00     0.161 C 
ATOM      2  C   LIG d   1      -4.180  92.335 119.297  0.00  0.00     0.016 C 
ATOM      3  C   LIG d   1      -3.495  91.875 118.149  0.00  0.00     0.038 C 
ATOM      4  C   LIG d   1      -2.256  92.408 117.762  0.00  0.00     0.028 C 
ATOM      5  C   LIG d   1      -2.059  93.857 118.196  0.00  0.00    -0.047 C 
ATOM      6  C   LIG d   1      -2.358  93.973 119.707  0.00  0.00     0.091 C 
ENDROOT
BRANCH   1   7
ATOM      7  O   LIG d   1      -3.862  93.146 121.457  0.00  0.00    -0.368 OA
BRANCH   7   8
ATOM      8  C   LIG d   1      -3.862  91.741 121.810  0.00  0.00     0.119 C 
BRANCH   8   9
ATOM      9  C   LIG d   1      -4.728  91.581 123.074  0.00  0.00     0.028 C 
ATOM     10  C   LIG d   1      -6.200  91.952 122.828  0.00  0.00     0.006 C 
ENDBRANCH   8   9
BRANCH   8  11
ATOM     11  C   LIG d   1      -2.462  91.269 122.215  0.00  0.00     0.028 C 
ATOM     12  C   LIG d   1      -1.874  90.240 121.236  0.00  0.00     0.006 C 
ENDBRANCH   8  11
ENDBRANCH   7   8
ENDBRANCH   1   7
BRANCH   6  13
ATOM     13  N   LIG d   1      -2.270  95.374 120.197  0.00  0.00    -0.311 N 
ATOM     14  C   LIG d   1      -1.590  95.729 121.285  0.00  0.00     0.210 C 
ATOM     15  C   LIG d   1      -1.645  97.221 121.624  0.00  0.00     0.109 C 
ATOM     16  O   LIG d   1      -0.919  94.954 121.984  0.00  0.00    -0.276 OA
ATOM     17  H   LIG d   1      -2.759  96.072 119.672  0.00  0.00     0.149 HD
ENDBRANCH   6  13
BRANCH   5  18
ATOM     18  N   LIG d   1      -0.677  94.241 117.849  0.00  0.00     0.381 N 
ATOM     19  H   LIG d   1      -0.220  94.623 118.653  0.00  0.00    -0.090 HD
ATOM     20  H   LIG d   1      -0.706  94.949 117.136  0.00  0.00    -0.090 HD
ATOM     21  H   LIG d   1      -0.175  93.447 117.518  0.00  0.00    -0.090 HD
ENDBRANCH   5  18
BRANCH   3  22
ATOM     22  C   LIG d   1      -4.068  90.896 117.352  0.00  0.00     0.382 C 
ATOM     23  O   LIG d   1      -5.285  90.964 117.052  0.00  0.00    -0.241 OA
ATOM     24  O   LIG d   1      -3.395  89.921 116.966  0.00  0.00    -0.241 OA
ENDBRANCH   3  22
TORSDOF 7
ENDMDL
