MODEL 1
REMARK VINA RESULT:      -4.3      0.000      0.000
REMARK  7 active torsions:
REMARK  status: ('A' for Active; 'I' for Inactive)
REMARK    1  A    between atoms: C_2  and  C_3 
REMARK    2  A    between atoms: C_3  and  O_6 
REMARK    3  A    between atoms: C_3  and  C_4 
REMARK    4  A    between atoms: C_7  and  O_6 
REMARK    5  A    between atoms: C_9  and  C_10 
REMARK    6  A    between atoms: N_15  and  C_14 
REMARK    7  A    between atoms: N_20  and  C_19 
REMARK       I    between atoms: C_22  and  N_20 
ROOT
ATOM      1  C   LIG d   1      -2.263  93.083 120.285  0.00  0.00     0.161 C 
ATOM      2  C   LIG d   1      -1.816  91.938 120.965  0.00  0.00     0.016 C 
ATOM      3  C   LIG d   1      -2.546  91.316 122.005  0.00  0.00     0.038 C 
ATOM      4  C   LIG d   1      -3.851  91.712 122.333  0.00  0.00     0.028 C 
ATOM      5  C   LIG d   1      -4.138  93.176 122.019  0.00  0.00    -0.047 C 
ATOM      6  C   LIG d   1      -3.734  93.463 120.554  0.00  0.00     0.091 C 
ENDROOT
BRANCH   1   7
ATOM      7  O   LIG d   1      -2.036  92.931 118.870  0.00  0.00    -0.368 OA
BRANCH   7   8
ATOM      8  C   LIG d   1      -1.374  91.709 118.459  0.00  0.00     0.119 C 
BRANCH   8   9
ATOM      9  C   LIG d   1      -0.041  92.106 117.795  0.00  0.00     0.028 C 
ATOM     10  C   LIG d   1       1.180  91.637 118.603  0.00  0.00     0.006 C 
ENDBRANCH   8   9
BRANCH   8  11
ATOM     11  C   LIG d   1      -2.170  90.984 117.370  0.00  0.00     0.028 C 
ATOM     12  C   LIG d   1      -3.684  90.992 117.633  0.00  0.00     0.006 C 
ENDBRANCH   8  11
ENDBRANCH   7   8
ENDBRANCH   1   7
BRANCH   6  13
ATOM     13  N   LIG d   1      -3.903  94.894 120.190  0.00  0.00    -0.311 N 
ATOM     14  C   LIG d   1      -5.036  95.397 119.702  0.00  0.00     0.210 C 
ATOM     15  C   LIG d   1      -4.990  96.893 119.373  0.00  0.00     0.109 C 
ATOM     16  O   LIG d   1      -6.084  94.754 119.541  0.00  0.00    -0.276 OA
ATOM     17  H   LIG d   1      -3.112  95.494 120.318  0.00  0.00     0.149 HD
ENDBRANCH   6  13
BRANCH   5  18
ATOM     18  N   LIG d   1      -5.569  93.417 122.281  0.00  0.00     0.381 N 
ATOM     19  H   LIG d   1      -6.125  92.914 121.618  0.00  0.00    -0.090 HD
ATOM     20  H   LIG d   1      -5.760  94.398 122.172  0.00  0.00    -0.090 HD
ATOM     21  H   LIG d   1      -5.800  93.127 123.206  0.00  0.00    -0.090 HD
ENDBRANCH   5  18
BRANCH   3  22
ATOM     22  C   LIG d   1      -1.954  90.311 122.754  0.00  0.00     0.382 C 
ATOM     23  O   LIG d   1      -0.706  90.189 122.764  0.00  0.00    -0.241 OA
ATOM     24  O   LIG d   1      -2.655  89.497 123.385  0.00  0.00    -0.241 OA
ENDBRANCH   3  22
TORSDOF 7
ENDMDL
MODEL 2
REMARK VINA RESULT:      -4.2      2.272      4.921
REMARK  7 active torsions:
REMARK  status: ('A' for Active; 'I' for Inactive)
REMARK    1  A    between atoms: C_2  and  C_3 
REMARK    2  A    between atoms: C_3  and  O_6 
REMARK    3  A    between atoms: C_3  and  C_4 
REMARK    4  A    between atoms: C_7  and  O_6 
REMARK    5  A    between atoms: C_9  and  C_10 
REMARK    6  A    between atoms: N_15  and  C_14 
REMARK    7  A    between atoms: N_20  and  C_19 
REMARK       I    between atoms: C_22  and  N_20 
ROOT
ATOM      1  C   LIG d   1      -3.010  92.307 120.518  0.00  0.00     0.161 C 
ATOM      2  C   LIG d   1      -4.159  92.936 120.009  0.00  0.00     0.016 C 
ATOM      3  C   LIG d   1      -4.454  94.303 120.215  0.00  0.00     0.038 C 
ATOM      4  C   LIG d   1      -3.537  95.176 120.820  0.00  0.00     0.028 C 
ATOM      5  C   LIG d   1      -2.591  94.482 121.793  0.00  0.00    -0.047 C 
ATOM      6  C   LIG d   1      -1.945  93.269 121.085  0.00  0.00     0.091 C 
ENDROOT
BRANCH   1   7
ATOM      7  O   LIG d   1      -2.431  91.457 119.509  0.00  0.00    -0.368 OA
BRANCH   7   8
ATOM      8  C   LIG d   1      -2.547  91.921 118.141  0.00  0.00     0.119 C 
BRANCH   8   9
ATOM      9  C   LIG d   1      -2.862  90.695 117.262  0.00  0.00     0.028 C 
ATOM     10  C   LIG d   1      -4.275  90.755 116.657  0.00  0.00     0.006 C 
ENDBRANCH   8   9
BRANCH   8  11
ATOM     11  C   LIG d   1      -1.211  92.460 117.621  0.00  0.00     0.028 C 
ATOM     12  C   LIG d   1       0.001  91.724 118.214  0.00  0.00     0.006 C 
ENDBRANCH   8  11
ENDBRANCH   7   8
ENDBRANCH   1   7
BRANCH   6  13
ATOM     13  N   LIG d   1      -1.068  92.484 121.993  0.00  0.00    -0.311 N 
ATOM     14  C   LIG d   1       0.254  92.636 122.048  0.00  0.00     0.210 C 
ATOM     15  C   LIG d   1       0.970  91.713 123.038  0.00  0.00     0.109 C 
ATOM     16  O   LIG d   1       0.898  93.470 121.394  0.00  0.00    -0.276 OA
ATOM     17  H   LIG d   1      -1.511  91.806 122.581  0.00  0.00     0.149 HD
ENDBRANCH   6  13
BRANCH   5  18
ATOM     18  N   LIG d   1      -1.604  95.481 122.244  0.00  0.00     0.381 N 
ATOM     19  H   LIG d   1      -0.992  95.718 121.489  0.00  0.00    -0.090 HD
ATOM     20  H   LIG d   1      -1.052  95.083 122.983  0.00  0.00    -0.090 HD
ATOM     21  H   LIG d   1      -2.071  96.298 122.571  0.00  0.00    -0.090 HD
ENDBRANCH   5  18
BRANCH   3  22
ATOM     22  C   LIG d   1      -5.695  94.801 119.848  0.00  0.00     0.382 C 
ATOM     23  O   LIG d   1      -5.963  96.013 120.032  0.00  0.00    -0.241 OA
ATOM     24  O   LIG d   1      -6.565  94.045 119.378  0.00  0.00    -0.241 OA
ENDBRANCH   3  22
TORSDOF 7
ENDMDL
MODEL 3
REMARK VINA RESULT:      -4.1      3.236      5.523
REMARK  7 active torsions:
REMARK  status: ('A' for Active; 'I' for Inactive)
REMARK    1  A    between atoms: C_2  and  C_3 
REMARK    2  A    between atoms: C_3  and  O_6 
REMARK    3  A    between atoms: C_3  and  C_4 
REMARK    4  A    between atoms: C_7  and  O_6 
REMARK    5  A    between atoms: C_9  and  C_10 
REMARK    6  A    between atoms: N_15  and  C_14 
REMARK    7  A    between atoms: N_20  and  C_19 
REMARK       I    between atoms: C_22  and  N_20 
ROOT
ATOM      1  C   LIG d   1       0.241  92.243 119.566  0.00  0.00     0.161 C 
ATOM      2  C   LIG d   1       1.182  91.796 118.624  0.00  0.00     0.016 C 
ATOM      3  C   LIG d   1       2.555  91.629 118.915  0.00  0.00     0.038 C 
ATOM      4  C   LIG d   1       3.058  91.756 120.218  0.00  0.00     0.028 C 
ATOM      5  C   LIG d   1       2.237  92.696 121.095  0.00  0.00    -0.047 C 
ATOM      6  C   LIG d   1       0.750  92.280 121.022  0.00  0.00     0.091 C 
ENDROOT
BRANCH   1   7
ATOM      7  O   LIG d   1      -0.958  91.449 119.474  0.00  0.00    -0.368 OA
BRANCH   7   8
ATOM      8  C   LIG d   1      -1.992  91.954 118.594  0.00  0.00     0.119 C 
BRANCH   8   9
ATOM      9  C   LIG d   1      -2.680  93.129 119.315  0.00  0.00     0.028 C 
ATOM     10  C   LIG d   1      -3.751  92.659 120.314  0.00  0.00     0.006 C 
ENDBRANCH   8   9
BRANCH   8  11
ATOM     11  C   LIG d   1      -3.094  90.913 118.373  0.00  0.00     0.028 C 
ATOM     12  C   LIG d   1      -3.319  90.589 116.888  0.00  0.00     0.006 C 
ENDBRANCH   8  11
ENDBRANCH   7   8
ENDBRANCH   1   7
BRANCH   6  13
ATOM     13  N   LIG d   1      -0.134  93.200 121.784  0.00  0.00    -0.311 N 
ATOM     14  C   LIG d   1      -0.971  92.790 122.737  0.00  0.00     0.210 C 
ATOM     15  C   LIG d   1      -1.806  93.900 123.384  0.00  0.00     0.109 C 
ATOM     16  O   LIG d   1      -1.077  91.619 123.129  0.00  0.00    -0.276 OA
ATOM     17  H   LIG d   1      -0.089  94.173 121.552  0.00  0.00     0.149 HD
ENDBRANCH   6  13
BRANCH   5  18
ATOM     18  N   LIG d   1       2.790  92.628 122.461  0.00  0.00     0.381 N 
ATOM     19  H   LIG d   1       3.326  91.790 122.568  0.00  0.00    -0.090 HD
ATOM     20  H   LIG d   1       2.030  92.603 123.118  0.00  0.00    -0.090 HD
ATOM     21  H   LIG d   1       3.364  93.423 122.636  0.00  0.00    -0.090 HD
ENDBRANCH   5  18
BRANCH   3  22
ATOM     22  C   LIG d   1       3.449  91.371 117.887  0.00  0.00     0.382 C 
ATOM     23  O   LIG d   1       4.017  92.322 117.296  0.00  0.00    -0.241 OA
ATOM     24  O   LIG d   1       3.661  90.202 117.512  0.00  0.00    -0.241 OA
ENDBRANCH   3  22
TORSDOF 7
ENDMDL
MODEL 4
REMARK VINA RESULT:      -4.0      1.861      4.944
REMARK  7 active torsions:
REMARK  status: ('A' for Active; 'I' for Inactive)
REMARK    1  A    between atoms: C_2  and  C_3 
REMARK    2  A    between atoms: C_3  and  O_6 
REMARK    3  A    between atoms: C_3  and  C_4 
REMARK    4  A    between atoms: C_7  and  O_6 
REMARK    5  A    between atoms: C_9  and  C_10 
REMARK    6  A    between atoms: N_15  and  C_14 
REMARK    7  A    between atoms: N_20  and  C_19 
REMARK       I    between atoms: C_22  and  N_20 
ROOT
ATOM      1  C   LIG d   1      -3.618  92.606 120.536  0.00  0.00     0.161 C 
ATOM      2  C   LIG d   1      -3.732  93.859 119.910  0.00  0.00     0.016 C 
ATOM      3  C   LIG d   1      -3.394  95.078 120.542  0.00  0.00     0.038 C 
ATOM      4  C   LIG d   1      -2.772  95.114 121.799  0.00  0.00     0.028 C 
ATOM      5  C   LIG d   1      -3.102  93.909 122.673  0.00  0.00    -0.047 C 
ATOM      6  C   LIG d   1      -2.837  92.617 121.867  0.00  0.00     0.091 C 
ENDROOT
BRANCH   1   7
ATOM      7  O   LIG d   1      -3.038  91.655 119.622  0.00  0.00    -0.368 OA
BRANCH   7   8
ATOM      8  C   LIG d   1      -2.031  92.172 118.718  0.00  0.00     0.119 C 
BRANCH   8   9
ATOM      9  C   LIG d   1      -2.199  91.441 117.371  0.00  0.00     0.028 C 
ATOM     10  C   LIG d   1      -3.528  90.672 117.283  0.00  0.00     0.006 C 
ENDBRANCH   8   9
BRANCH   8  11
ATOM     11  C   LIG d   1      -0.619  91.821 119.196  0.00  0.00     0.028 C 
ATOM     12  C   LIG d   1       0.410  91.805 118.054  0.00  0.00     0.006 C 
ENDBRANCH   8  11
ENDBRANCH   7   8
ENDBRANCH   1   7
BRANCH   6  13
ATOM     13  N   LIG d   1      -3.215  91.392 122.619  0.00  0.00    -0.311 N 
ATOM     14  C   LIG d   1      -2.386  90.368 122.816  0.00  0.00     0.210 C 
ATOM     15  C   LIG d   1      -2.982  89.195 123.600  0.00  0.00     0.109 C 
ATOM     16  O   LIG d   1      -1.204  90.333 122.442  0.00  0.00    -0.276 OA
ATOM     17  H   LIG d   1      -4.146  91.349 122.984  0.00  0.00     0.149 HD
ENDBRANCH   6  13
BRANCH   5  18
ATOM     18  N   LIG d   1      -2.282  94.006 123.895  0.00  0.00     0.381 N 
ATOM     19  H   LIG d   1      -2.669  93.424 124.611  0.00  0.00    -0.090 HD
ATOM     20  H   LIG d   1      -2.295  94.957 124.221  0.00  0.00    -0.090 HD
ATOM     21  H   LIG d   1      -1.346  93.727 123.700  0.00  0.00    -0.090 HD
ENDBRANCH   5  18
BRANCH   3  22
ATOM     22  C   LIG d   1      -3.715  96.281 119.931  0.00  0.00     0.382 C 
ATOM     23  O   LIG d   1      -2.844  97.176 119.814  0.00  0.00    -0.241 OA
ATOM     24  O   LIG d   1      -4.876  96.499 119.536  0.00  0.00    -0.241 OA
ENDBRANCH   3  22
TORSDOF 7
ENDMDL
MODEL 5
REMARK VINA RESULT:      -4.0      2.905      4.945
REMARK  7 active torsions:
REMARK  status: ('A' for Active; 'I' for Inactive)
REMARK    1  A    between atoms: C_2  and  C_3 
REMARK    2  A    between atoms: C_3  and  O_6 
REMARK    3  A    between atoms: C_3  and  C_4 
REMARK    4  A    between atoms: C_7  and  O_6 
REMARK    5  A    between atoms: C_9  and  C_10 
REMARK    6  A    between atoms: N_15  and  C_14 
REMARK    7  A    between atoms: N_20  and  C_19 
REMARK       I    between atoms: C_22  and  N_20 
ROOT
ATOM      1  C   LIG d   1      -0.420  92.479 120.556  0.00  0.00     0.161 C 
ATOM      2  C   LIG d   1       0.811  92.060 120.024  0.00  0.00     0.016 C 
ATOM      3  C   LIG d   1       0.976  91.641 118.684  0.00  0.00     0.038 C 
ATOM      4  C   LIG d   1      -0.053  91.757 117.738  0.00  0.00     0.028 C 
ATOM      5  C   LIG d   1      -1.448  91.700 118.351  0.00  0.00    -0.047 C 
ATOM      6  C   LIG d   1      -1.529  92.719 119.511  0.00  0.00     0.091 C 
ENDROOT
BRANCH   1   7
ATOM      7  O   LIG d   1      -0.227  93.659 121.361  0.00  0.00    -0.368 OA
BRANCH   7   8
ATOM      8  C   LIG d   1      -0.479  93.511 122.780  0.00  0.00     0.119 C 
BRANCH   8   9
ATOM      9  C   LIG d   1       0.837  93.821 123.519  0.00  0.00     0.028 C 
ATOM     10  C   LIG d   1       1.805  94.659 122.667  0.00  0.00     0.006 C 
ENDBRANCH   8   9
BRANCH   8  11
ATOM     11  C   LIG d   1      -0.813  92.060 123.138  0.00  0.00     0.028 C 
ATOM     12  C   LIG d   1       0.309  91.368 123.929  0.00  0.00     0.006 C 
ENDBRANCH   8  11
ENDBRANCH   7   8
ENDBRANCH   1   7
BRANCH   6  13
ATOM     13  N   LIG d   1      -2.834  92.668 120.220  0.00  0.00    -0.311 N 
ATOM     14  C   LIG d   1      -3.552  93.751 120.513  0.00  0.00     0.210 C 
ATOM     15  C   LIG d   1      -4.858  93.477 121.265  0.00  0.00     0.109 C 
ATOM     16  O   LIG d   1      -3.247  94.909 120.193  0.00  0.00    -0.276 OA
ATOM     17  H   LIG d   1      -3.172  91.765 120.489  0.00  0.00     0.149 HD
ENDBRANCH   6  13
BRANCH   5  18
ATOM     18  N   LIG d   1      -2.420  91.971 117.274  0.00  0.00     0.381 N 
ATOM     19  H   LIG d   1      -3.097  92.636 117.589  0.00  0.00    -0.090 HD
ATOM     20  H   LIG d   1      -2.898  91.118 117.045  0.00  0.00    -0.090 HD
ATOM     21  H   LIG d   1      -1.948  92.322 116.470  0.00  0.00    -0.090 HD
ENDBRANCH   5  18
BRANCH   3  22
ATOM     22  C   LIG d   1       2.172  91.061 118.288  0.00  0.00     0.382 C 
ATOM     23  O   LIG d   1       3.075  91.770 117.782  0.00  0.00    -0.241 OA
ATOM     24  O   LIG d   1       2.341  89.831 118.389  0.00  0.00    -0.241 OA
ENDBRANCH   3  22
TORSDOF 7
ENDMDL
MODEL 6
REMARK VINA RESULT:      -4.0      2.518      4.818
REMARK  7 active torsions:
REMARK  status: ('A' for Active; 'I' for Inactive)
REMARK    1  A    between atoms: C_2  and  C_3 
REMARK    2  A    between atoms: C_3  and  O_6 
REMARK    3  A    between atoms: C_3  and  C_4 
REMARK    4  A    between atoms: C_7  and  O_6 
REMARK    5  A    between atoms: C_9  and  C_10 
REMARK    6  A    between atoms: N_15  and  C_14 
REMARK    7  A    between atoms: N_20  and  C_19 
REMARK       I    between atoms: C_22  and  N_20 
ROOT
ATOM      1  C   LIG d   1      -4.495  94.063 120.706  0.00  0.00     0.161 C 
ATOM      2  C   LIG d   1      -5.778  93.822 120.186  0.00  0.00     0.016 C 
ATOM      3  C   LIG d   1      -6.871  94.699 120.373  0.00  0.00     0.038 C 
ATOM      4  C   LIG d   1      -6.716  95.960 120.969  0.00  0.00     0.028 C 
ATOM      5  C   LIG d   1      -5.554  96.026 121.953  0.00  0.00    -0.047 C 
ATOM      6  C   LIG d   1      -4.280  95.486 121.263  0.00  0.00     0.091 C 
ENDROOT
BRANCH   1   7
ATOM      7  O   LIG d   1      -3.499  93.760 119.709  0.00  0.00    -0.368 OA
BRANCH   7   8
ATOM      8  C   LIG d   1      -3.009  92.396 119.692  0.00  0.00     0.119 C 
BRANCH   8   9
ATOM      9  C   LIG d   1      -1.891  92.292 120.747  0.00  0.00     0.028 C 
ATOM     10  C   LIG d   1      -2.190  91.227 121.816  0.00  0.00     0.006 C 
ENDBRANCH   8   9
BRANCH   8  11
ATOM     11  C   LIG d   1      -2.338  92.062 118.356  0.00  0.00     0.028 C 
ATOM     12  C   LIG d   1      -3.022  90.899 117.620  0.00  0.00     0.006 C 
ENDBRANCH   8  11
ENDBRANCH   7   8
ENDBRANCH   1   7
BRANCH   6  13
ATOM     13  N   LIG d   1      -3.114  95.437 122.184  0.00  0.00    -0.311 N 
ATOM     14  C   LIG d   1      -2.001  96.142 121.994  0.00  0.00     0.210 C 
ATOM     15  C   LIG d   1      -0.913  95.930 123.051  0.00  0.00     0.109 C 
ATOM     16  O   LIG d   1      -1.823  96.948 121.068  0.00  0.00    -0.276 OA
ATOM     17  H   LIG d   1      -3.185  94.832 122.978  0.00  0.00     0.149 HD
ENDBRANCH   6  13
BRANCH   5  18
ATOM     18  N   LIG d   1      -5.422  97.427 122.394  0.00  0.00     0.381 N 
ATOM     19  H   LIG d   1      -5.631  98.043 121.634  0.00  0.00    -0.090 HD
ATOM     20  H   LIG d   1      -4.473  97.591 122.680  0.00  0.00    -0.090 HD
ATOM     21  H   LIG d   1      -6.041  97.605 123.155  0.00  0.00    -0.090 HD
ENDBRANCH   5  18
BRANCH   3  22
ATOM     22  C   LIG d   1      -8.144  94.300 119.996  0.00  0.00     0.382 C 
ATOM     23  O   LIG d   1      -9.071  94.283 120.842  0.00  0.00    -0.241 OA
ATOM     24  O   LIG d   1      -8.367  93.915 118.833  0.00  0.00    -0.241 OA
ENDBRANCH   3  22
TORSDOF 7
ENDMDL
MODEL 7
REMARK VINA RESULT:      -3.8      6.562      9.335
REMARK  7 active torsions:
REMARK  status: ('A' for Active; 'I' for Inactive)
REMARK    1  A    between atoms: C_2  and  C_3 
REMARK    2  A    between atoms: C_3  and  O_6 
REMARK    3  A    between atoms: C_3  and  C_4 
REMARK    4  A    between atoms: C_7  and  O_6 
REMARK    5  A    between atoms: C_9  and  C_10 
REMARK    6  A    between atoms: N_15  and  C_14 
REMARK    7  A    between atoms: N_20  and  C_19 
REMARK       I    between atoms: C_22  and  N_20 
ROOT
ATOM      1  C   LIG d   1       5.099  90.627 116.814  0.00  0.00     0.161 C 
ATOM      2  C   LIG d   1       6.500  90.551 116.759  0.00  0.00     0.016 C 
ATOM      3  C   LIG d   1       7.348  91.081 117.758  0.00  0.00     0.038 C 
ATOM      4  C   LIG d   1       6.845  91.594 118.962  0.00  0.00     0.028 C 
ATOM      5  C   LIG d   1       5.429  92.148 118.840  0.00  0.00    -0.047 C 
ATOM      6  C   LIG d   1       4.529  91.083 118.173  0.00  0.00     0.091 C 
ENDROOT
BRANCH   1   7
ATOM      7  O   LIG d   1       4.525  89.361 116.430  0.00  0.00    -0.368 OA
BRANCH   7   8
ATOM      8  C   LIG d   1       4.534  88.324 117.442  0.00  0.00     0.119 C 
BRANCH   8   9
ATOM      9  C   LIG d   1       5.468  87.203 116.947  0.00  0.00     0.028 C 
ATOM     10  C   LIG d   1       6.656  86.967 117.895  0.00  0.00     0.006 C 
ENDBRANCH   8   9
BRANCH   8  11
ATOM     11  C   LIG d   1       3.156  87.671 117.583  0.00  0.00     0.028 C 
ATOM     12  C   LIG d   1       2.196  88.054 116.445  0.00  0.00     0.006 C 
ENDBRANCH   8  11
ENDBRANCH   7   8
ENDBRANCH   1   7
BRANCH   6  13
ATOM     13  N   LIG d   1       3.147  91.576 117.939  0.00  0.00    -0.311 N 
ATOM     14  C   LIG d   1       2.087  91.135 118.615  0.00  0.00     0.210 C 
ATOM     15  C   LIG d   1       0.751  91.761 118.202  0.00  0.00     0.109 C 
ATOM     16  O   LIG d   1       2.131  90.309 119.538  0.00  0.00    -0.276 OA
ATOM     17  H   LIG d   1       3.024  92.271 117.228  0.00  0.00     0.149 HD
ENDBRANCH   6  13
BRANCH   5  18
ATOM     18  N   LIG d   1       4.978  92.522 120.194  0.00  0.00     0.381 N 
ATOM     19  H   LIG d   1       4.582  93.440 120.177  0.00  0.00    -0.090 HD
ATOM     20  H   LIG d   1       5.772  92.532 120.810  0.00  0.00    -0.090 HD
ATOM     21  H   LIG d   1       4.303  91.867 120.521  0.00  0.00    -0.090 HD
ENDBRANCH   5  18
BRANCH   3  22
ATOM     22  C   LIG d   1       8.716  91.138 117.539  0.00  0.00     0.382 C 
ATOM     23  O   LIG d   1       9.373  90.079 117.397  0.00  0.00    -0.241 OA
ATOM     24  O   LIG d   1       9.309  92.234 117.525  0.00  0.00    -0.241 OA
ENDBRANCH   3  22
TORSDOF 7
ENDMDL
MODEL 8
REMARK VINA RESULT:      -3.8      2.617      4.509
REMARK  7 active torsions:
REMARK  status: ('A' for Active; 'I' for Inactive)
REMARK    1  A    between atoms: C_2  and  C_3 
REMARK    2  A    between atoms: C_3  and  O_6 
REMARK    3  A    between atoms: C_3  and  C_4 
REMARK    4  A    between atoms: C_7  and  O_6 
REMARK    5  A    between atoms: C_9  and  C_10 
REMARK    6  A    between atoms: N_15  and  C_14 
REMARK    7  A    between atoms: N_20  and  C_19 
REMARK       I    between atoms: C_22  and  N_20 
ROOT
ATOM      1  C   LIG d   1      -3.369  93.554 120.342  0.00  0.00     0.161 C 
ATOM      2  C   LIG d   1      -4.673  93.841 119.905  0.00  0.00     0.016 C 
ATOM      3  C   LIG d   1      -5.518  94.779 120.542  0.00  0.00     0.038 C 
ATOM      4  C   LIG d   1      -5.060  95.607 121.576  0.00  0.00     0.028 C 
ATOM      5  C   LIG d   1      -3.914  94.998 122.378  0.00  0.00    -0.047 C 
ATOM      6  C   LIG d   1      -2.813  94.528 121.401  0.00  0.00     0.091 C 
ENDROOT
BRANCH   1   7
ATOM      7  O   LIG d   1      -2.479  93.481 119.211  0.00  0.00    -0.368 OA
BRANCH   7   8
ATOM      8  C   LIG d   1      -1.745  92.242 119.056  0.00  0.00     0.119 C 
BRANCH   8   9
ATOM      9  C   LIG d   1      -0.915  92.354 117.762  0.00  0.00     0.028 C 
ATOM     10  C   LIG d   1       0.497  91.763 117.918  0.00  0.00     0.006 C 
ENDBRANCH   8   9
BRANCH   8  11
ATOM     11  C   LIG d   1      -2.691  91.059 118.828  0.00  0.00     0.028 C 
ATOM     12  C   LIG d   1      -3.166  90.947 117.371  0.00  0.00     0.006 C 
ENDBRANCH   8  11
ENDBRANCH   7   8
ENDBRANCH   1   7
BRANCH   6  13
ATOM     13  N   LIG d   1      -1.692  93.843 122.097  0.00  0.00    -0.311 N 
ATOM     14  C   LIG d   1      -0.571  94.461 122.465  0.00  0.00     0.210 C 
ATOM     15  C   LIG d   1       0.465  93.566 123.152  0.00  0.00     0.109 C 
ATOM     16  O   LIG d   1      -0.349  95.672 122.316  0.00  0.00    -0.276 OA
ATOM     17  H   LIG d   1      -1.801  92.866 122.286  0.00  0.00     0.149 HD
ENDBRANCH   6  13
BRANCH   5  18
ATOM     18  N   LIG d   1      -3.444  96.021 123.331  0.00  0.00     0.381 N 
ATOM     19  H   LIG d   1      -4.218  96.379 123.854  0.00  0.00    -0.090 HD
ATOM     20  H   LIG d   1      -3.033  96.780 122.817  0.00  0.00    -0.090 HD
ATOM     21  H   LIG d   1      -2.770  95.626 123.950  0.00  0.00    -0.090 HD
ENDBRANCH   5  18
BRANCH   3  22
ATOM     22  C   LIG d   1      -6.852  94.865 120.170  0.00  0.00     0.382 C 
ATOM     23  O   LIG d   1      -7.603  95.705 120.722  0.00  0.00    -0.241 OA
ATOM     24  O   LIG d   1      -7.323  94.084 119.322  0.00  0.00    -0.241 OA
ENDBRANCH   3  22
TORSDOF 7
ENDMDL
MODEL 9
REMARK VINA RESULT:      -3.8      2.420      5.172
REMARK  7 active torsions:
REMARK  status: ('A' for Active; 'I' for Inactive)
REMARK    1  A    between atoms: C_2  and  C_3 
REMARK    2  A    between atoms: C_3  and  O_6 
REMARK    3  A    between atoms: C_3  and  C_4 
REMARK    4  A    between atoms: C_7  and  O_6 
REMARK    5  A    between atoms: C_9  and  C_10 
REMARK    6  A    between atoms: N_15  and  C_14 
REMARK    7  A    between atoms: N_20  and  C_19 
REMARK       I    between atoms: C_22  and  N_20 
ROOT
ATOM      1  C   LIG d   1      -3.476  93.250 120.228  0.00  0.00     0.161 C 
ATOM      2  C   LIG d   1      -4.464  93.313 121.225  0.00  0.00     0.016 C 
ATOM      3  C   LIG d   1      -4.384  92.605 122.446  0.00  0.00     0.038 C 
ATOM      4  C   LIG d   1      -3.231  91.898 122.819  0.00  0.00     0.028 C 
ATOM      5  C   LIG d   1      -2.418  91.395 121.630  0.00  0.00    -0.047 C 
ATOM      6  C   LIG d   1      -2.160  92.573 120.663  0.00  0.00     0.091 C 
ENDROOT
BRANCH   1   7
ATOM      7  O   LIG d   1      -3.214  94.571 119.715  0.00  0.00    -0.368 OA
BRANCH   7   8
ATOM      8  C   LIG d   1      -3.886  95.662 120.391  0.00  0.00     0.119 C 
BRANCH   8   9
ATOM      9  C   LIG d   1      -4.702  96.430 119.334  0.00  0.00     0.028 C 
ATOM     10  C   LIG d   1      -6.088  96.849 119.852  0.00  0.00     0.006 C 
ENDBRANCH   8   9
BRANCH   8  11
ATOM     11  C   LIG d   1      -2.881  96.677 120.945  0.00  0.00     0.028 C 
ATOM     12  C   LIG d   1      -2.078  96.131 122.136  0.00  0.00     0.006 C 
ENDBRANCH   8  11
ENDBRANCH   7   8
ENDBRANCH   1   7
BRANCH   6  13
ATOM     13  N   LIG d   1      -1.443  92.149 119.432  0.00  0.00    -0.311 N 
ATOM     14  C   LIG d   1      -0.119  92.199 119.301  0.00  0.00     0.210 C 
ATOM     15  C   LIG d   1       0.415  91.733 117.943  0.00  0.00     0.109 C 
ATOM     16  O   LIG d   1       0.667  92.553 120.193  0.00  0.00    -0.276 OA
ATOM     17  H   LIG d   1      -2.002  91.818 118.670  0.00  0.00     0.149 HD
ENDBRANCH   6  13
BRANCH   5  18
ATOM     18  N   LIG d   1      -1.177  90.799 122.160  0.00  0.00     0.381 N 
ATOM     19  H   LIG d   1      -0.573  91.520 122.500  0.00  0.00    -0.090 HD
ATOM     20  H   LIG d   1      -0.705  90.316 121.416  0.00  0.00    -0.090 HD
ATOM     21  H   LIG d   1      -1.391  90.161 122.895  0.00  0.00    -0.090 HD
ENDBRANCH   5  18
BRANCH   3  22
ATOM     22  C   LIG d   1      -5.482  92.566 123.291  0.00  0.00     0.382 C 
ATOM     23  O   LIG d   1      -5.781  91.500 123.882  0.00  0.00    -0.241 OA
ATOM     24  O   LIG d   1      -6.204  93.571 123.435  0.00  0.00    -0.241 OA
ENDBRANCH   3  22
TORSDOF 7
ENDMDL
