MODEL 1
REMARK VINA RESULT:      -5.0      0.000      0.000
REMARK  7 active torsions:
REMARK  status: ('A' for Active; 'I' for Inactive)
REMARK    1  A    between atoms: C_2  and  C_3 
REMARK    2  A    between atoms: C_3  and  O_6 
REMARK    3  A    between atoms: C_3  and  C_4 
REMARK    4  A    between atoms: C_7  and  O_6 
REMARK    5  A    between atoms: C_9  and  C_10 
REMARK    6  A    between atoms: N_15  and  C_14 
REMARK    7  A    between atoms: N_20  and  C_19 
REMARK       I    between atoms: C_22  and  N_20 
ROOT
ATOM      1  C   LIG d   1      -4.476  92.769 118.688  0.00  0.00     0.161 C 
ATOM      2  C   LIG d   1      -5.703  93.453 118.674  0.00  0.00     0.016 C 
ATOM      3  C   LIG d   1      -6.843  92.992 117.975  0.00  0.00     0.038 C 
ATOM      4  C   LIG d   1      -6.877  91.730 117.363  0.00  0.00     0.028 C 
ATOM      5  C   LIG d   1      -5.504  91.232 116.925  0.00  0.00    -0.047 C 
ATOM      6  C   LIG d   1      -4.528  91.336 118.118  0.00  0.00     0.091 C 
ENDROOT
BRANCH   1   7
ATOM      7  O   LIG d   1      -3.938  92.758 120.025  0.00  0.00    -0.368 OA
BRANCH   7   8
ATOM      8  C   LIG d   1      -2.703  93.488 120.222  0.00  0.00     0.119 C 
BRANCH   8   9
ATOM      9  C   LIG d   1      -2.389  94.229 118.907  0.00  0.00     0.028 C 
ATOM     10  C   LIG d   1      -2.530  95.754 119.045  0.00  0.00     0.006 C 
ENDBRANCH   8   9
BRANCH   8  11
ATOM     11  C   LIG d   1      -1.523  92.538 120.444  0.00  0.00     0.028 C 
ATOM     12  C   LIG d   1      -0.401  92.729 119.410  0.00  0.00     0.006 C 
ENDBRANCH   8  11
ENDBRANCH   7   8
ENDBRANCH   1   7
BRANCH   6  13
ATOM     13  N   LIG d   1      -3.141  90.947 117.751  0.00  0.00    -0.311 N 
ATOM     14  C   LIG d   1      -2.637  89.734 117.971  0.00  0.00     0.210 C 
ATOM     15  C   LIG d   1      -1.180  89.551 117.535  0.00  0.00     0.109 C 
ATOM     16  O   LIG d   1      -3.268  88.784 118.457  0.00  0.00    -0.276 OA
ATOM     17  H   LIG d   1      -2.569  91.649 117.324  0.00  0.00     0.149 HD
ENDBRANCH   6  13
BRANCH   5  18
ATOM     18  N   LIG d   1      -5.668  89.852 116.430  0.00  0.00     0.381 N 
ATOM     19  H   LIG d   1      -5.711  89.218 117.203  0.00  0.00    -0.090 HD
ATOM     20  H   LIG d   1      -4.870  89.611 115.869  0.00  0.00    -0.090 HD
ATOM     21  H   LIG d   1      -6.500  89.781 115.886  0.00  0.00    -0.090 HD
ENDBRANCH   5  18
BRANCH   3  22
ATOM     22  C   LIG d   1      -7.952  93.815 117.850  0.00  0.00     0.382 C 
ATOM     23  O   LIG d   1      -8.664  93.755 116.819  0.00  0.00    -0.241 OA
ATOM     24  O   LIG d   1      -8.224  94.647 118.736  0.00  0.00    -0.241 OA
ENDBRANCH   3  22
TORSDOF 7
ENDMDL
MODEL 2
REMARK VINA RESULT:      -4.8      1.808      4.760
REMARK  7 active torsions:
REMARK  status: ('A' for Active; 'I' for Inactive)
REMARK    1  A    between atoms: C_2  and  C_3 
REMARK    2  A    between atoms: C_3  and  O_6 
REMARK    3  A    between atoms: C_3  and  C_4 
REMARK    4  A    between atoms: C_7  and  O_6 
REMARK    5  A    between atoms: C_9  and  C_10 
REMARK    6  A    between atoms: N_15  and  C_14 
REMARK    7  A    between atoms: N_20  and  C_19 
REMARK       I    between atoms: C_22  and  N_20 
ROOT
ATOM      1  C   LIG d   1      -4.747  92.652 119.014  0.00  0.00     0.161 C 
ATOM      2  C   LIG d   1      -3.713  91.794 118.605  0.00  0.00     0.016 C 
ATOM      3  C   LIG d   1      -3.898  90.735 117.687  0.00  0.00     0.038 C 
ATOM      4  C   LIG d   1      -5.105  90.556 116.995  0.00  0.00     0.028 C 
ATOM      5  C   LIG d   1      -6.320  91.084 117.750  0.00  0.00    -0.047 C 
ATOM      6  C   LIG d   1      -6.044  92.542 118.186  0.00  0.00     0.091 C 
ENDROOT
BRANCH   1   7
ATOM      7  O   LIG d   1      -4.275  94.014 119.027  0.00  0.00    -0.368 OA
BRANCH   7   8
ATOM      8  C   LIG d   1      -3.761  94.499 120.291  0.00  0.00     0.119 C 
BRANCH   8   9
ATOM      9  C   LIG d   1      -4.724  95.591 120.795  0.00  0.00     0.028 C 
ATOM     10  C   LIG d   1      -5.462  96.298 119.646  0.00  0.00     0.006 C 
ENDBRANCH   8   9
BRANCH   8  11
ATOM     11  C   LIG d   1      -2.411  95.200 120.112  0.00  0.00     0.028 C 
ATOM     12  C   LIG d   1      -1.855  95.065 118.686  0.00  0.00     0.006 C 
ENDBRANCH   8  11
ENDBRANCH   7   8
ENDBRANCH   1   7
BRANCH   6  13
ATOM     13  N   LIG d   1      -7.149  93.107 119.004  0.00  0.00    -0.311 N 
ATOM     14  C   LIG d   1      -8.224  93.693 118.479  0.00  0.00     0.210 C 
ATOM     15  C   LIG d   1      -9.233  94.226 119.501  0.00  0.00     0.109 C 
ATOM     16  O   LIG d   1      -8.452  93.795 117.265  0.00  0.00    -0.276 OA
ATOM     17  H   LIG d   1      -7.060  93.040 119.999  0.00  0.00     0.149 HD
ENDBRANCH   6  13
BRANCH   5  18
ATOM     18  N   LIG d   1      -7.488  90.959 116.859  0.00  0.00     0.381 N 
ATOM     19  H   LIG d   1      -7.423  91.628 116.118  0.00  0.00    -0.090 HD
ATOM     20  H   LIG d   1      -8.322  91.152 117.386  0.00  0.00    -0.090 HD
ATOM     21  H   LIG d   1      -7.531  90.038 116.481  0.00  0.00    -0.090 HD
ENDBRANCH   5  18
BRANCH   3  22
ATOM     22  C   LIG d   1      -2.879  89.816 117.482  0.00  0.00     0.382 C 
ATOM     23  O   LIG d   1      -3.148  88.596 117.372  0.00  0.00    -0.241 OA
ATOM     24  O   LIG d   1      -1.691  90.188 117.451  0.00  0.00    -0.241 OA
ENDBRANCH   3  22
TORSDOF 7
ENDMDL
MODEL 3
REMARK VINA RESULT:      -4.8      0.698      1.718
REMARK  7 active torsions:
REMARK  status: ('A' for Active; 'I' for Inactive)
REMARK    1  A    between atoms: C_2  and  C_3 
REMARK    2  A    between atoms: C_3  and  O_6 
REMARK    3  A    between atoms: C_3  and  C_4 
REMARK    4  A    between atoms: C_7  and  O_6 
REMARK    5  A    between atoms: C_9  and  C_10 
REMARK    6  A    between atoms: N_15  and  C_14 
REMARK    7  A    between atoms: N_20  and  C_19 
REMARK       I    between atoms: C_22  and  N_20 
ROOT
ATOM      1  C   LIG d   1      -4.453  92.778 118.673  0.00  0.00     0.161 C 
ATOM      2  C   LIG d   1      -5.686  93.451 118.650  0.00  0.00     0.016 C 
ATOM      3  C   LIG d   1      -6.819  92.975 117.951  0.00  0.00     0.038 C 
ATOM      4  C   LIG d   1      -6.840  91.709 117.347  0.00  0.00     0.028 C 
ATOM      5  C   LIG d   1      -5.462  91.220 116.916  0.00  0.00    -0.047 C 
ATOM      6  C   LIG d   1      -4.490  91.341 118.112  0.00  0.00     0.091 C 
ENDROOT
BRANCH   1   7
ATOM      7  O   LIG d   1      -3.920  92.780 120.012  0.00  0.00    -0.368 OA
BRANCH   7   8
ATOM      8  C   LIG d   1      -2.746  93.601 120.229  0.00  0.00     0.119 C 
BRANCH   8   9
ATOM      9  C   LIG d   1      -1.548  92.653 120.428  0.00  0.00     0.028 C 
ATOM     10  C   LIG d   1      -0.403  92.939 119.442  0.00  0.00     0.006 C 
ENDBRANCH   8   9
BRANCH   8  11
ATOM     11  C   LIG d   1      -2.855  94.395 121.534  0.00  0.00     0.028 C 
ATOM     12  C   LIG d   1      -4.146  95.226 121.620  0.00  0.00     0.006 C 
ENDBRANCH   8  11
ENDBRANCH   7   8
ENDBRANCH   1   7
BRANCH   6  13
ATOM     13  N   LIG d   1      -3.098  90.962 117.753  0.00  0.00    -0.311 N 
ATOM     14  C   LIG d   1      -2.583  89.757 117.988  0.00  0.00     0.210 C 
ATOM     15  C   LIG d   1      -1.123  89.583 117.556  0.00  0.00     0.109 C 
ATOM     16  O   LIG d   1      -3.205  88.806 118.483  0.00  0.00    -0.276 OA
ATOM     17  H   LIG d   1      -2.533  91.665 117.318  0.00  0.00     0.149 HD
ENDBRANCH   6  13
BRANCH   5  18
ATOM     18  N   LIG d   1      -5.611  89.835 116.430  0.00  0.00     0.381 N 
ATOM     19  H   LIG d   1      -6.544  89.693 116.096  0.00  0.00    -0.090 HD
ATOM     20  H   LIG d   1      -5.450  89.203 117.195  0.00  0.00    -0.090 HD
ATOM     21  H   LIG d   1      -4.958  89.658 115.700  0.00  0.00    -0.090 HD
ENDBRANCH   5  18
BRANCH   3  22
ATOM     22  C   LIG d   1      -7.935  93.787 117.817  0.00  0.00     0.382 C 
ATOM     23  O   LIG d   1      -8.226  94.607 118.721  0.00  0.00    -0.241 OA
ATOM     24  O   LIG d   1      -8.679  93.680 116.824  0.00  0.00    -0.241 OA
ENDBRANCH   3  22
TORSDOF 7
ENDMDL
MODEL 4
REMARK VINA RESULT:      -4.8      1.352      1.908
REMARK  7 active torsions:
REMARK  status: ('A' for Active; 'I' for Inactive)
REMARK    1  A    between atoms: C_2  and  C_3 
REMARK    2  A    between atoms: C_3  and  O_6 
REMARK    3  A    between atoms: C_3  and  C_4 
REMARK    4  A    between atoms: C_7  and  O_6 
REMARK    5  A    between atoms: C_9  and  C_10 
REMARK    6  A    between atoms: N_15  and  C_14 
REMARK    7  A    between atoms: N_20  and  C_19 
REMARK       I    between atoms: C_22  and  N_20 
ROOT
ATOM      1  C   LIG d   1      -4.190  92.876 118.698  0.00  0.00     0.161 C 
ATOM      2  C   LIG d   1      -5.387  93.612 118.702  0.00  0.00     0.016 C 
ATOM      3  C   LIG d   1      -6.560  93.193 118.032  0.00  0.00     0.038 C 
ATOM      4  C   LIG d   1      -6.661  91.928 117.434  0.00  0.00     0.028 C 
ATOM      5  C   LIG d   1      -5.320  91.368 116.972  0.00  0.00    -0.047 C 
ATOM      6  C   LIG d   1      -4.315  91.442 118.144  0.00  0.00     0.091 C 
ENDROOT
BRANCH   1   7
ATOM      7  O   LIG d   1      -3.625  92.855 120.024  0.00  0.00    -0.368 OA
BRANCH   7   8
ATOM      8  C   LIG d   1      -4.148  91.846 120.922  0.00  0.00     0.119 C 
BRANCH   8   9
ATOM      9  C   LIG d   1      -4.830  92.578 122.094  0.00  0.00     0.028 C 
ATOM     10  C   LIG d   1      -6.361  92.437 122.063  0.00  0.00     0.006 C 
ENDBRANCH   8   9
BRANCH   8  11
ATOM     11  C   LIG d   1      -3.020  91.027 121.557  0.00  0.00     0.028 C 
ATOM     12  C   LIG d   1      -1.623  91.506 121.131  0.00  0.00     0.006 C 
ENDBRANCH   8  11
ENDBRANCH   7   8
ENDBRANCH   1   7
BRANCH   6  13
ATOM     13  N   LIG d   1      -2.954  90.991 117.753  0.00  0.00    -0.311 N 
ATOM     14  C   LIG d   1      -2.504  89.754 117.958  0.00  0.00     0.210 C 
ATOM     15  C   LIG d   1      -1.064  89.505 117.496  0.00  0.00     0.109 C 
ATOM     16  O   LIG d   1      -3.171  88.831 118.448  0.00  0.00    -0.276 OA
ATOM     17  H   LIG d   1      -2.356  91.668 117.320  0.00  0.00     0.149 HD
ENDBRANCH   6  13
BRANCH   5  18
ATOM     18  N   LIG d   1      -5.553  89.992 116.495  0.00  0.00     0.381 N 
ATOM     19  H   LIG d   1      -5.309  89.923 115.528  0.00  0.00    -0.090 HD
ATOM     20  H   LIG d   1      -6.529  89.775 116.591  0.00  0.00    -0.090 HD
ATOM     21  H   LIG d   1      -5.009  89.349 117.029  0.00  0.00    -0.090 HD
ENDBRANCH   5  18
BRANCH   3  22
ATOM     22  C   LIG d   1      -7.635  94.062 117.922  0.00  0.00     0.382 C 
ATOM     23  O   LIG d   1      -8.690  93.685 117.356  0.00  0.00    -0.241 OA
ATOM     24  O   LIG d   1      -7.548  95.231 118.341  0.00  0.00    -0.241 OA
ENDBRANCH   3  22
TORSDOF 7
ENDMDL
MODEL 5
REMARK VINA RESULT:      -4.5      2.386      4.122
REMARK  7 active torsions:
REMARK  status: ('A' for Active; 'I' for Inactive)
REMARK    1  A    between atoms: C_2  and  C_3 
REMARK    2  A    between atoms: C_3  and  O_6 
REMARK    3  A    between atoms: C_3  and  C_4 
REMARK    4  A    between atoms: C_7  and  O_6 
REMARK    5  A    between atoms: C_9  and  C_10 
REMARK    6  A    between atoms: N_15  and  C_14 
REMARK    7  A    between atoms: N_20  and  C_19 
REMARK       I    between atoms: C_22  and  N_20 
ROOT
ATOM      1  C   LIG d   1      -4.868  93.120 119.234  0.00  0.00     0.161 C 
ATOM      2  C   LIG d   1      -6.170  93.042 118.714  0.00  0.00     0.016 C 
ATOM      3  C   LIG d   1      -7.030  94.158 118.598  0.00  0.00     0.038 C 
ATOM      4  C   LIG d   1      -6.589  95.464 118.856  0.00  0.00     0.028 C 
ATOM      5  C   LIG d   1      -5.445  95.529 119.862  0.00  0.00    -0.047 C 
ATOM      6  C   LIG d   1      -4.330  94.555 119.417  0.00  0.00     0.091 C 
ENDROOT
BRANCH   1   7
ATOM      7  O   LIG d   1      -3.967  92.348 118.415  0.00  0.00    -0.368 OA
BRANCH   7   8
ATOM      8  C   LIG d   1      -3.728  90.985 118.842  0.00  0.00     0.119 C 
BRANCH   8   9
ATOM      9  C   LIG d   1      -2.326  90.938 119.479  0.00  0.00     0.028 C 
ATOM     10  C   LIG d   1      -2.380  90.919 121.016  0.00  0.00     0.006 C 
ENDBRANCH   8   9
BRANCH   8  11
ATOM     11  C   LIG d   1      -3.662  90.030 117.646  0.00  0.00     0.028 C 
ATOM     12  C   LIG d   1      -2.448  89.090 117.700  0.00  0.00     0.006 C 
ENDBRANCH   8  11
ENDBRANCH   7   8
ENDBRANCH   1   7
BRANCH   6  13
ATOM     13  N   LIG d   1      -3.209  94.494 120.391  0.00  0.00    -0.311 N 
ATOM     14  C   LIG d   1      -1.931  94.644 120.048  0.00  0.00     0.210 C 
ATOM     15  C   LIG d   1      -0.933  94.526 121.204  0.00  0.00     0.109 C 
ATOM     16  O   LIG d   1      -1.531  94.897 118.901  0.00  0.00    -0.276 OA
ATOM     17  H   LIG d   1      -3.446  94.324 121.349  0.00  0.00     0.149 HD
ENDBRANCH   6  13
BRANCH   5  18
ATOM     18  N   LIG d   1      -4.993  96.931 119.933  0.00  0.00     0.381 N 
ATOM     19  H   LIG d   1      -5.332  97.437 119.139  0.00  0.00    -0.090 HD
ATOM     20  H   LIG d   1      -3.989  96.951 119.914  0.00  0.00    -0.090 HD
ATOM     21  H   LIG d   1      -5.325  97.355 120.771  0.00  0.00    -0.090 HD
ENDBRANCH   5  18
BRANCH   3  22
ATOM     22  C   LIG d   1      -8.361  93.967 118.257  0.00  0.00     0.382 C 
ATOM     23  O   LIG d   1      -8.682  93.790 117.057  0.00  0.00    -0.241 OA
ATOM     24  O   LIG d   1      -9.249  94.014 119.129  0.00  0.00    -0.241 OA
ENDBRANCH   3  22
TORSDOF 7
ENDMDL
MODEL 6
REMARK VINA RESULT:      -4.4      2.464      4.321
REMARK  7 active torsions:
REMARK  status: ('A' for Active; 'I' for Inactive)
REMARK    1  A    between atoms: C_2  and  C_3 
REMARK    2  A    between atoms: C_3  and  O_6 
REMARK    3  A    between atoms: C_3  and  C_4 
REMARK    4  A    between atoms: C_7  and  O_6 
REMARK    5  A    between atoms: C_9  and  C_10 
REMARK    6  A    between atoms: N_15  and  C_14 
REMARK    7  A    between atoms: N_20  and  C_19 
REMARK       I    between atoms: C_22  and  N_20 
ROOT
ATOM      1  C   LIG d   1      -3.912  92.027 118.627  0.00  0.00     0.161 C 
ATOM      2  C   LIG d   1      -4.604  91.154 117.771  0.00  0.00     0.016 C 
ATOM      3  C   LIG d   1      -5.961  91.328 117.414  0.00  0.00     0.038 C 
ATOM      4  C   LIG d   1      -6.680  92.478 117.770  0.00  0.00     0.028 C 
ATOM      5  C   LIG d   1      -6.174  93.136 119.050  0.00  0.00    -0.047 C 
ATOM      6  C   LIG d   1      -4.647  93.347 118.936  0.00  0.00     0.091 C 
ENDROOT
BRANCH   1   7
ATOM      7  O   LIG d   1      -2.601  92.296 118.093  0.00  0.00    -0.368 OA
BRANCH   7   8
ATOM      8  C   LIG d   1      -1.499  91.599 118.725  0.00  0.00     0.119 C 
BRANCH   8   9
ATOM      9  C   LIG d   1      -1.281  90.283 117.953  0.00  0.00     0.028 C 
ATOM     10  C   LIG d   1      -0.033  90.330 117.055  0.00  0.00     0.006 C 
ENDBRANCH   8   9
BRANCH   8  11
ATOM     11  C   LIG d   1      -1.853  91.177 120.154  0.00  0.00     0.028 C 
ATOM     12  C   LIG d   1      -1.768  89.657 120.365  0.00  0.00     0.006 C 
ENDBRANCH   8  11
ENDBRANCH   7   8
ENDBRANCH   1   7
BRANCH   6  13
ATOM     13  N   LIG d   1      -4.059  93.909 120.180  0.00  0.00    -0.311 N 
ATOM     14  C   LIG d   1      -3.875  95.213 120.380  0.00  0.00     0.210 C 
ATOM     15  C   LIG d   1      -3.235  95.577 121.723  0.00  0.00     0.109 C 
ATOM     16  O   LIG d   1      -4.211  96.105 119.586  0.00  0.00    -0.276 OA
ATOM     17  H   LIG d   1      -3.787  93.258 120.890  0.00  0.00     0.149 HD
ENDBRANCH   6  13
BRANCH   5  18
ATOM     18  N   LIG d   1      -6.921  94.396 119.228  0.00  0.00     0.381 N 
ATOM     19  H   LIG d   1      -6.586  94.876 120.040  0.00  0.00    -0.090 HD
ATOM     20  H   LIG d   1      -7.892  94.181 119.367  0.00  0.00    -0.090 HD
ATOM     21  H   LIG d   1      -6.812  94.973 118.424  0.00  0.00    -0.090 HD
ENDBRANCH   5  18
BRANCH   3  22
ATOM     22  C   LIG d   1      -6.624  90.324 116.725  0.00  0.00     0.382 C 
ATOM     23  O   LIG d   1      -7.836  90.461 116.430  0.00  0.00    -0.241 OA
ATOM     24  O   LIG d   1      -6.038  89.265 116.432  0.00  0.00    -0.241 OA
ENDBRANCH   3  22
TORSDOF 7
ENDMDL
MODEL 7
REMARK VINA RESULT:      -4.3      2.452      5.396
REMARK  7 active torsions:
REMARK  status: ('A' for Active; 'I' for Inactive)
REMARK    1  A    between atoms: C_2  and  C_3 
REMARK    2  A    between atoms: C_3  and  O_6 
REMARK    3  A    between atoms: C_3  and  C_4 
REMARK    4  A    between atoms: C_7  and  O_6 
REMARK    5  A    between atoms: C_9  and  C_10 
REMARK    6  A    between atoms: N_15  and  C_14 
REMARK    7  A    between atoms: N_20  and  C_19 
REMARK       I    between atoms: C_22  and  N_20 
ROOT
ATOM      1  C   LIG d   1      -4.859  93.018 118.908  0.00  0.00     0.161 C 
ATOM      2  C   LIG d   1      -4.874  91.673 118.503  0.00  0.00     0.016 C 
ATOM      3  C   LIG d   1      -3.717  90.972 118.090  0.00  0.00     0.038 C 
ATOM      4  C   LIG d   1      -2.434  91.529 118.200  0.00  0.00     0.028 C 
ATOM      5  C   LIG d   1      -2.427  93.052 118.127  0.00  0.00    -0.047 C 
ATOM      6  C   LIG d   1      -3.453  93.609 119.140  0.00  0.00     0.091 C 
ENDROOT
BRANCH   1   7
ATOM      7  O   LIG d   1      -5.672  93.182 120.087  0.00  0.00    -0.368 OA
BRANCH   7   8
ATOM      8  C   LIG d   1      -7.037  93.615 119.866  0.00  0.00     0.119 C 
BRANCH   8   9
ATOM      9  C   LIG d   1      -7.066  94.391 118.535  0.00  0.00     0.028 C 
ATOM     10  C   LIG d   1      -8.091  93.817 117.543  0.00  0.00     0.006 C 
ENDBRANCH   8   9
BRANCH   8  11
ATOM     11  C   LIG d   1      -7.483  94.620 120.931  0.00  0.00     0.028 C 
ATOM     12  C   LIG d   1      -6.589  95.868 120.984  0.00  0.00     0.006 C 
ENDBRANCH   8  11
ENDBRANCH   7   8
ENDBRANCH   1   7
BRANCH   6  13
ATOM     13  N   LIG d   1      -3.570  95.089 119.074  0.00  0.00    -0.311 N 
ATOM     14  C   LIG d   1      -2.857  95.915 119.839  0.00  0.00     0.210 C 
ATOM     15  C   LIG d   1      -3.147  97.404 119.625  0.00  0.00     0.109 C 
ATOM     16  O   LIG d   1      -1.991  95.558 120.650  0.00  0.00    -0.276 OA
ATOM     17  H   LIG d   1      -4.227  95.466 118.420  0.00  0.00     0.149 HD
ENDBRANCH   6  13
BRANCH   5  18
ATOM     18  N   LIG d   1      -1.048  93.504 118.392  0.00  0.00     0.381 N 
ATOM     19  H   LIG d   1      -0.858  93.455 119.373  0.00  0.00    -0.090 HD
ATOM     20  H   LIG d   1      -0.958  94.462 118.102  0.00  0.00    -0.090 HD
ATOM     21  H   LIG d   1      -0.400  92.936 117.893  0.00  0.00    -0.090 HD
ENDBRANCH   5  18
BRANCH   3  22
ATOM     22  C   LIG d   1      -3.843  89.713 117.523  0.00  0.00     0.382 C 
ATOM     23  O   LIG d   1      -4.760  89.486 116.698  0.00  0.00    -0.241 OA
ATOM     24  O   LIG d   1      -3.077  88.790 117.860  0.00  0.00    -0.241 OA
ENDBRANCH   3  22
TORSDOF 7
ENDMDL
MODEL 8
REMARK VINA RESULT:      -4.3      2.775      6.479
REMARK  7 active torsions:
REMARK  status: ('A' for Active; 'I' for Inactive)
REMARK    1  A    between atoms: C_2  and  C_3 
REMARK    2  A    between atoms: C_3  and  O_6 
REMARK    3  A    between atoms: C_3  and  C_4 
REMARK    4  A    between atoms: C_7  and  O_6 
REMARK    5  A    between atoms: C_9  and  C_10 
REMARK    6  A    between atoms: N_15  and  C_14 
REMARK    7  A    between atoms: N_20  and  C_19 
REMARK       I    between atoms: C_22  and  N_20 
ROOT
ATOM      1  C   LIG d   1      -2.546  92.774 118.320  0.00  0.00     0.161 C 
ATOM      2  C   LIG d   1      -1.278  92.170 118.285  0.00  0.00     0.016 C 
ATOM      3  C   LIG d   1      -0.147  92.696 118.952  0.00  0.00     0.038 C 
ATOM      4  C   LIG d   1      -0.245  93.786 119.829  0.00  0.00     0.028 C 
ATOM      5  C   LIG d   1      -1.397  94.728 119.498  0.00  0.00    -0.047 C 
ATOM      6  C   LIG d   1      -2.697  93.902 119.361  0.00  0.00     0.091 C 
ENDROOT
BRANCH   1   7
ATOM      7  O   LIG d   1      -3.560  91.769 118.519  0.00  0.00    -0.368 OA
BRANCH   7   8
ATOM      8  C   LIG d   1      -4.516  91.606 117.443  0.00  0.00     0.119 C 
BRANCH   8   9
ATOM      9  C   LIG d   1      -5.916  91.895 118.020  0.00  0.00     0.028 C 
ATOM     10  C   LIG d   1      -6.867  92.502 116.976  0.00  0.00     0.006 C 
ENDBRANCH   8   9
BRANCH   8  11
ATOM     11  C   LIG d   1      -4.569  90.154 116.959  0.00  0.00     0.028 C 
ATOM     12  C   LIG d   1      -3.389  89.312 117.471  0.00  0.00     0.006 C 
ENDBRANCH   8  11
ENDBRANCH   7   8
ENDBRANCH   1   7
BRANCH   6  13
ATOM     13  N   LIG d   1      -3.858  94.736 118.955  0.00  0.00    -0.311 N 
ATOM     14  C   LIG d   1      -4.736  95.240 119.821  0.00  0.00     0.210 C 
ATOM     15  C   LIG d   1      -5.870  96.055 119.190  0.00  0.00     0.109 C 
ATOM     16  O   LIG d   1      -4.665  95.118 121.053  0.00  0.00    -0.276 OA
ATOM     17  H   LIG d   1      -3.974  94.911 117.977  0.00  0.00     0.149 HD
ENDBRANCH   6  13
BRANCH   5  18
ATOM     18  N   LIG d   1      -1.467  95.741 120.569  0.00  0.00     0.381 N 
ATOM     19  H   LIG d   1      -2.268  95.572 121.144  0.00  0.00    -0.090 HD
ATOM     20  H   LIG d   1      -1.565  96.649 120.151  0.00  0.00    -0.090 HD
ATOM     21  H   LIG d   1      -0.639  95.709 121.122  0.00  0.00    -0.090 HD
ENDBRANCH   5  18
BRANCH   3  22
ATOM     22  C   LIG d   1       1.106  92.152 118.713  0.00  0.00     0.382 C 
ATOM     23  O   LIG d   1       1.264  90.908 118.734  0.00  0.00    -0.241 OA
ATOM     24  O   LIG d   1       2.089  92.893 118.521  0.00  0.00    -0.241 OA
ENDBRANCH   3  22
TORSDOF 7
ENDMDL
MODEL 9
REMARK VINA RESULT:      -4.3      2.612      3.745
REMARK  7 active torsions:
REMARK  status: ('A' for Active; 'I' for Inactive)
REMARK    1  A    between atoms: C_2  and  C_3 
REMARK    2  A    between atoms: C_3  and  O_6 
REMARK    3  A    between atoms: C_3  and  C_4 
REMARK    4  A    between atoms: C_7  and  O_6 
REMARK    5  A    between atoms: C_9  and  C_10 
REMARK    6  A    between atoms: N_15  and  C_14 
REMARK    7  A    between atoms: N_20  and  C_19 
REMARK       I    between atoms: C_22  and  N_20 
ROOT
ATOM      1  C   LIG d   1      -2.418  92.705 117.985  0.00  0.00     0.161 C 
ATOM      2  C   LIG d   1      -3.711  92.213 117.743  0.00  0.00     0.016 C 
ATOM      3  C   LIG d   1      -4.006  90.839 117.595  0.00  0.00     0.038 C 
ATOM      4  C   LIG d   1      -3.045  89.845 117.832  0.00  0.00     0.028 C 
ATOM      5  C   LIG d   1      -1.615  90.313 117.582  0.00  0.00    -0.047 C 
ATOM      6  C   LIG d   1      -1.376  91.629 118.357  0.00  0.00     0.091 C 
ENDROOT
BRANCH   1   7
ATOM      7  O   LIG d   1      -2.466  93.727 119.000  0.00  0.00    -0.368 OA
BRANCH   7   8
ATOM      8  C   LIG d   1      -3.674  93.777 119.797  0.00  0.00     0.119 C 
BRANCH   8   9
ATOM      9  C   LIG d   1      -4.111  95.253 119.883  0.00  0.00     0.028 C 
ATOM     10  C   LIG d   1      -2.962  96.181 120.311  0.00  0.00     0.006 C 
ENDBRANCH   8   9
BRANCH   8  11
ATOM     11  C   LIG d   1      -3.406  93.349 121.243  0.00  0.00     0.028 C 
ATOM     12  C   LIG d   1      -3.567  91.836 121.456  0.00  0.00     0.006 C 
ENDBRANCH   8  11
ENDBRANCH   7   8
ENDBRANCH   1   7
BRANCH   6  13
ATOM     13  N   LIG d   1      -0.028  92.200 118.100  0.00  0.00    -0.311 N 
ATOM     14  C   LIG d   1       1.030  91.958 118.872  0.00  0.00     0.210 C 
ATOM     15  C   LIG d   1       2.320  92.663 118.441  0.00  0.00     0.109 C 
ATOM     16  O   LIG d   1       1.030  91.201 119.855  0.00  0.00    -0.276 OA
ATOM     17  H   LIG d   1       0.069  92.801 117.305  0.00  0.00     0.149 HD
ENDBRANCH   6  13
BRANCH   5  18
ATOM     18  N   LIG d   1      -0.711  89.224 117.999  0.00  0.00     0.381 N 
ATOM     19  H   LIG d   1       0.177  89.332 117.551  0.00  0.00    -0.090 HD
ATOM     20  H   LIG d   1      -1.105  88.346 117.711  0.00  0.00    -0.090 HD
ATOM     21  H   LIG d   1      -0.595  89.237 118.988  0.00  0.00    -0.090 HD
ENDBRANCH   5  18
BRANCH   3  22
ATOM     22  C   LIG d   1      -5.266  90.448 117.168  0.00  0.00     0.382 C 
ATOM     23  O   LIG d   1      -6.274  91.120 117.492  0.00  0.00    -0.241 OA
ATOM     24  O   LIG d   1      -5.412  89.407 116.499  0.00  0.00    -0.241 OA
ENDBRANCH   3  22
TORSDOF 7
ENDMDL
