MODEL 1
REMARK VINA RESULT:      -4.7      0.000      0.000
REMARK  7 active torsions:
REMARK  status: ('A' for Active; 'I' for Inactive)
REMARK    1  A    between atoms: C_2  and  C_3 
REMARK    2  A    between atoms: C_3  and  O_6 
REMARK    3  A    between atoms: C_3  and  C_4 
REMARK    4  A    between atoms: C_7  and  O_6 
REMARK    5  A    between atoms: C_9  and  C_10 
REMARK    6  A    between atoms: N_15  and  C_14 
REMARK    7  A    between atoms: N_20  and  C_19 
REMARK       I    between atoms: C_22  and  N_20 
ROOT
ATOM      1  C   LIG d   1      -5.987  92.674 119.333  0.00  0.00     0.161 C 
ATOM      2  C   LIG d   1      -7.280  93.193 119.156  0.00  0.00     0.016 C 
ATOM      3  C   LIG d   1      -7.541  94.558 118.893  0.00  0.00     0.038 C 
ATOM      4  C   LIG d   1      -6.510  95.474 118.637  0.00  0.00     0.028 C 
ATOM      5  C   LIG d   1      -5.190  95.101 119.303  0.00  0.00    -0.047 C 
ATOM      6  C   LIG d   1      -4.845  93.637 118.948  0.00  0.00     0.091 C 
ENDROOT
BRANCH   1   7
ATOM      7  O   LIG d   1      -5.857  91.430 118.616  0.00  0.00    -0.368 OA
BRANCH   7   8
ATOM      8  C   LIG d   1      -5.560  91.538 117.202  0.00  0.00     0.119 C 
BRANCH   8   9
ATOM      9  C   LIG d   1      -6.856  91.220 116.431  0.00  0.00     0.028 C 
ATOM     10  C   LIG d   1      -7.622  90.031 117.036  0.00  0.00     0.006 C 
ENDBRANCH   8   9
BRANCH   8  11
ATOM     11  C   LIG d   1      -4.554  90.472 116.761  0.00  0.00     0.028 C 
ATOM     12  C   LIG d   1      -3.955  89.693 117.942  0.00  0.00     0.006 C 
ENDBRANCH   8  11
ENDBRANCH   7   8
ENDBRANCH   1   7
BRANCH   6  13
ATOM     13  N   LIG d   1      -3.610  93.165 119.628  0.00  0.00    -0.311 N 
ATOM     14  C   LIG d   1      -2.486  92.864 118.980  0.00  0.00     0.210 C 
ATOM     15  C   LIG d   1      -1.338  92.377 119.869  0.00  0.00     0.109 C 
ATOM     16  O   LIG d   1      -2.321  92.984 117.756  0.00  0.00    -0.276 OA
ATOM     17  H   LIG d   1      -3.646  93.068 120.623  0.00  0.00     0.149 HD
ENDBRANCH   6  13
BRANCH   5  18
ATOM     18  N   LIG d   1      -4.171  96.063 118.842  0.00  0.00     0.381 N 
ATOM     19  H   LIG d   1      -4.573  96.688 118.173  0.00  0.00    -0.090 HD
ATOM     20  H   LIG d   1      -3.426  95.559 118.395  0.00  0.00    -0.090 HD
ATOM     21  H   LIG d   1      -3.814  96.579 119.616  0.00  0.00    -0.090 HD
ENDBRANCH   5  18
BRANCH   3  22
ATOM     22  C   LIG d   1      -8.846  95.026 118.922  0.00  0.00     0.382 C 
ATOM     23  O   LIG d   1      -9.802  94.215 118.975  0.00  0.00    -0.241 OA
ATOM     24  O   LIG d   1      -9.080  96.247 118.853  0.00  0.00    -0.241 OA
ENDBRANCH   3  22
TORSDOF 7
ENDMDL
MODEL 2
REMARK VINA RESULT:      -4.5      1.593      1.766
REMARK  7 active torsions:
REMARK  status: ('A' for Active; 'I' for Inactive)
REMARK    1  A    between atoms: C_2  and  C_3 
REMARK    2  A    between atoms: C_3  and  O_6 
REMARK    3  A    between atoms: C_3  and  C_4 
REMARK    4  A    between atoms: C_7  and  O_6 
REMARK    5  A    between atoms: C_9  and  C_10 
REMARK    6  A    between atoms: N_15  and  C_14 
REMARK    7  A    between atoms: N_20  and  C_19 
REMARK       I    between atoms: C_22  and  N_20 
ROOT
ATOM      1  C   LIG d   1      -6.834  92.875 118.779  0.00  0.00     0.161 C 
ATOM      2  C   LIG d   1      -8.161  93.326 118.887  0.00  0.00     0.016 C 
ATOM      3  C   LIG d   1      -8.630  94.113 119.963  0.00  0.00     0.038 C 
ATOM      4  C   LIG d   1      -7.762  94.634 120.934  0.00  0.00     0.028 C 
ATOM      5  C   LIG d   1      -6.510  93.790 121.143  0.00  0.00    -0.047 C 
ATOM      6  C   LIG d   1      -5.848  93.526 119.771  0.00  0.00     0.091 C 
ENDROOT
BRANCH   1   7
ATOM      7  O   LIG d   1      -6.369  93.045 117.426  0.00  0.00    -0.368 OA
BRANCH   7   8
ATOM      8  C   LIG d   1      -6.201  91.832 116.652  0.00  0.00     0.119 C 
BRANCH   8   9
ATOM      9  C   LIG d   1      -6.747  90.665 117.497  0.00  0.00     0.028 C 
ATOM     10  C   LIG d   1      -7.839  89.869 116.763  0.00  0.00     0.006 C 
ENDBRANCH   8   9
BRANCH   8  11
ATOM     11  C   LIG d   1      -4.720  91.513 116.430  0.00  0.00     0.028 C 
ATOM     12  C   LIG d   1      -4.301  90.167 117.043  0.00  0.00     0.006 C 
ENDBRANCH   8  11
ENDBRANCH   7   8
ENDBRANCH   1   7
BRANCH   6  13
ATOM     13  N   LIG d   1      -4.662  92.636 119.875  0.00  0.00    -0.311 N 
ATOM     14  C   LIG d   1      -3.437  93.001 119.503  0.00  0.00     0.210 C 
ATOM     15  C   LIG d   1      -2.361  91.924 119.676  0.00  0.00     0.109 C 
ATOM     16  O   LIG d   1      -3.133  94.125 119.075  0.00  0.00    -0.276 OA
ATOM     17  H   LIG d   1      -4.813  91.716 120.241  0.00  0.00     0.149 HD
ENDBRANCH   6  13
BRANCH   5  18
ATOM     18  N   LIG d   1      -5.632  94.518 122.078  0.00  0.00     0.381 N 
ATOM     19  H   LIG d   1      -5.329  95.375 121.660  0.00  0.00    -0.090 HD
ATOM     20  H   LIG d   1      -4.821  93.955 122.268  0.00  0.00    -0.090 HD
ATOM     21  H   LIG d   1      -6.120  94.708 122.926  0.00  0.00    -0.090 HD
ENDBRANCH   5  18
BRANCH   3  22
ATOM     22  C   LIG d   1      -9.989  94.354 120.097  0.00  0.00     0.382 C 
ATOM     23  O   LIG d   1     -10.789  93.393 120.204  0.00  0.00    -0.241 OA
ATOM     24  O   LIG d   1     -10.430  95.519 120.067  0.00  0.00    -0.241 OA
ENDBRANCH   3  22
TORSDOF 7
ENDMDL
MODEL 3
REMARK VINA RESULT:      -4.5      0.805      1.832
REMARK  7 active torsions:
REMARK  status: ('A' for Active; 'I' for Inactive)
REMARK    1  A    between atoms: C_2  and  C_3 
REMARK    2  A    between atoms: C_3  and  O_6 
REMARK    3  A    between atoms: C_3  and  C_4 
REMARK    4  A    between atoms: C_7  and  O_6 
REMARK    5  A    between atoms: C_9  and  C_10 
REMARK    6  A    between atoms: N_15  and  C_14 
REMARK    7  A    between atoms: N_20  and  C_19 
REMARK       I    between atoms: C_22  and  N_20 
ROOT
ATOM      1  C   LIG d   1      -5.626  92.857 118.621  0.00  0.00     0.161 C 
ATOM      2  C   LIG d   1      -6.924  93.349 118.406  0.00  0.00     0.016 C 
ATOM      3  C   LIG d   1      -7.327  94.659 118.752  0.00  0.00     0.038 C 
ATOM      4  C   LIG d   1      -6.412  95.622 119.203  0.00  0.00     0.028 C 
ATOM      5  C   LIG d   1      -5.201  95.022 119.910  0.00  0.00    -0.047 C 
ATOM      6  C   LIG d   1      -4.585  93.928 119.009  0.00  0.00     0.091 C 
ENDROOT
BRANCH   1   7
ATOM      7  O   LIG d   1      -5.182  92.124 117.462  0.00  0.00    -0.368 OA
BRANCH   7   8
ATOM      8  C   LIG d   1      -5.180  90.680 117.584  0.00  0.00     0.119 C 
BRANCH   8   9
ATOM      9  C   LIG d   1      -3.723  90.204 117.425  0.00  0.00     0.028 C 
ATOM     10  C   LIG d   1      -3.395  89.005 118.330  0.00  0.00     0.006 C 
ENDBRANCH   8   9
BRANCH   8  11
ATOM     11  C   LIG d   1      -5.950  90.023 116.435  0.00  0.00     0.028 C 
ATOM     12  C   LIG d   1      -7.472  90.049 116.645  0.00  0.00     0.006 C 
ENDBRANCH   8  11
ENDBRANCH   7   8
ENDBRANCH   1   7
BRANCH   6  13
ATOM     13  N   LIG d   1      -3.445  93.232 119.661  0.00  0.00    -0.311 N 
ATOM     14  C   LIG d   1      -2.217  93.196 119.148  0.00  0.00     0.210 C 
ATOM     15  C   LIG d   1      -1.194  92.407 119.972  0.00  0.00     0.109 C 
ATOM     16  O   LIG d   1      -1.869  93.769 118.104  0.00  0.00    -0.276 OA
ATOM     17  H   LIG d   1      -3.631  92.767 120.528  0.00  0.00     0.149 HD
ENDBRANCH   6  13
BRANCH   5  18
ATOM     18  N   LIG d   1      -4.265  96.124 120.203  0.00  0.00     0.381 N 
ATOM     19  H   LIG d   1      -3.825  95.969 121.088  0.00  0.00    -0.090 HD
ATOM     20  H   LIG d   1      -4.782  96.985 120.255  0.00  0.00    -0.090 HD
ATOM     21  H   LIG d   1      -3.575  96.186 119.487  0.00  0.00    -0.090 HD
ENDBRANCH   5  18
BRANCH   3  22
ATOM     22  C   LIG d   1      -8.668  95.005 118.687  0.00  0.00     0.382 C 
ATOM     23  O   LIG d   1      -9.006  96.213 118.715  0.00  0.00    -0.241 OA
ATOM     24  O   LIG d   1      -9.547  94.123 118.646  0.00  0.00    -0.241 OA
ENDBRANCH   3  22
TORSDOF 7
ENDMDL
MODEL 4
REMARK VINA RESULT:      -4.4      2.340      4.951
REMARK  7 active torsions:
REMARK  status: ('A' for Active; 'I' for Inactive)
REMARK    1  A    between atoms: C_2  and  C_3 
REMARK    2  A    between atoms: C_3  and  O_6 
REMARK    3  A    between atoms: C_3  and  C_4 
REMARK    4  A    between atoms: C_7  and  O_6 
REMARK    5  A    between atoms: C_9  and  C_10 
REMARK    6  A    between atoms: N_15  and  C_14 
REMARK    7  A    between atoms: N_20  and  C_19 
REMARK       I    between atoms: C_22  and  N_20 
ROOT
ATOM      1  C   LIG d   1      -5.984  92.064 119.792  0.00  0.00     0.161 C 
ATOM      2  C   LIG d   1      -5.849  91.042 118.838  0.00  0.00     0.016 C 
ATOM      3  C   LIG d   1      -6.497  91.061 117.581  0.00  0.00     0.038 C 
ATOM      4  C   LIG d   1      -7.209  92.183 117.130  0.00  0.00     0.028 C 
ATOM      5  C   LIG d   1      -7.789  93.026 118.261  0.00  0.00    -0.047 C 
ATOM      6  C   LIG d   1      -6.666  93.347 119.274  0.00  0.00     0.091 C 
ENDROOT
BRANCH   1   7
ATOM      7  O   LIG d   1      -4.696  92.375 120.360  0.00  0.00    -0.368 OA
BRANCH   7   8
ATOM      8  C   LIG d   1      -3.802  93.151 119.524  0.00  0.00     0.119 C 
BRANCH   8   9
ATOM      9  C   LIG d   1      -2.475  92.376 119.421  0.00  0.00     0.028 C 
ATOM     10  C   LIG d   1      -2.371  91.559 118.122  0.00  0.00     0.006 C 
ENDBRANCH   8   9
BRANCH   8  11
ATOM     11  C   LIG d   1      -3.443  94.486 120.183  0.00  0.00     0.028 C 
ATOM     12  C   LIG d   1      -3.735  94.504 121.691  0.00  0.00     0.006 C 
ENDBRANCH   8  11
ENDBRANCH   7   8
ENDBRANCH   1   7
BRANCH   6  13
ATOM     13  N   LIG d   1      -7.167  94.098 120.455  0.00  0.00    -0.311 N 
ATOM     14  C   LIG d   1      -7.141  95.427 120.543  0.00  0.00     0.210 C 
ATOM     15  C   LIG d   1      -7.688  95.999 121.855  0.00  0.00     0.109 C 
ATOM     16  O   LIG d   1      -6.748  96.188 119.646  0.00  0.00    -0.276 OA
ATOM     17  H   LIG d   1      -7.532  93.561 121.216  0.00  0.00     0.149 HD
ENDBRANCH   6  13
BRANCH   5  18
ATOM     18  N   LIG d   1      -8.384  94.233 117.656  0.00  0.00     0.381 N 
ATOM     19  H   LIG d   1      -8.962  94.698 118.327  0.00  0.00    -0.090 HD
ATOM     20  H   LIG d   1      -8.960  93.957 116.880  0.00  0.00    -0.090 HD
ATOM     21  H   LIG d   1      -7.665  94.848 117.343  0.00  0.00    -0.090 HD
ENDBRANCH   5  18
BRANCH   3  22
ATOM     22  C   LIG d   1      -6.470  89.931 116.777  0.00  0.00     0.382 C 
ATOM     23  O   LIG d   1      -7.543  89.383 116.430  0.00  0.00    -0.241 OA
ATOM     24  O   LIG d   1      -5.384  89.429 116.430  0.00  0.00    -0.241 OA
ENDBRANCH   3  22
TORSDOF 7
ENDMDL
MODEL 5
REMARK VINA RESULT:      -4.4      2.397      6.061
REMARK  7 active torsions:
REMARK  status: ('A' for Active; 'I' for Inactive)
REMARK    1  A    between atoms: C_2  and  C_3 
REMARK    2  A    between atoms: C_3  and  O_6 
REMARK    3  A    between atoms: C_3  and  C_4 
REMARK    4  A    between atoms: C_7  and  O_6 
REMARK    5  A    between atoms: C_9  and  C_10 
REMARK    6  A    between atoms: N_15  and  C_14 
REMARK    7  A    between atoms: N_20  and  C_19 
REMARK       I    between atoms: C_22  and  N_20 
ROOT
ATOM      1  C   LIG d   1      -5.838  93.420 119.011  0.00  0.00     0.161 C 
ATOM      2  C   LIG d   1      -4.598  92.931 118.567  0.00  0.00     0.016 C 
ATOM      3  C   LIG d   1      -4.445  91.703 117.884  0.00  0.00     0.038 C 
ATOM      4  C   LIG d   1      -5.549  90.947 117.463  0.00  0.00     0.028 C 
ATOM      5  C   LIG d   1      -6.788  91.149 118.329  0.00  0.00    -0.047 C 
ATOM      6  C   LIG d   1      -7.065  92.663 118.463  0.00  0.00     0.091 C 
ENDROOT
BRANCH   1   7
ATOM      7  O   LIG d   1      -5.943  94.827 118.714  0.00  0.00    -0.368 OA
BRANCH   7   8
ATOM      8  C   LIG d   1      -5.469  95.732 119.741  0.00  0.00     0.119 C 
BRANCH   8   9
ATOM      9  C   LIG d   1      -6.694  96.481 120.301  0.00  0.00     0.028 C 
ATOM     10  C   LIG d   1      -7.190  95.884 121.629  0.00  0.00     0.006 C 
ENDBRANCH   8   9
BRANCH   8  11
ATOM     11  C   LIG d   1      -4.564  96.819 119.152  0.00  0.00     0.028 C 
ATOM     12  C   LIG d   1      -3.100  96.683 119.599  0.00  0.00     0.006 C 
ENDBRANCH   8  11
ENDBRANCH   7   8
ENDBRANCH   1   7
BRANCH   6  13
ATOM     13  N   LIG d   1      -8.211  92.952 119.364  0.00  0.00    -0.311 N 
ATOM     14  C   LIG d   1      -9.133  93.878 119.104  0.00  0.00     0.210 C 
ATOM     15  C   LIG d   1     -10.218  94.028 120.175  0.00  0.00     0.109 C 
ATOM     16  O   LIG d   1      -9.174  94.566 118.074  0.00  0.00    -0.276 OA
ATOM     17  H   LIG d   1      -8.273  92.418 120.209  0.00  0.00     0.149 HD
ENDBRANCH   6  13
BRANCH   5  18
ATOM     18  N   LIG d   1      -7.898  90.411 117.698  0.00  0.00     0.381 N 
ATOM     19  H   LIG d   1      -8.160  90.859 116.842  0.00  0.00    -0.090 HD
ATOM     20  H   LIG d   1      -8.691  90.425 118.316  0.00  0.00    -0.090 HD
ATOM     21  H   LIG d   1      -7.624  89.470 117.519  0.00  0.00    -0.090 HD
ENDBRANCH   5  18
BRANCH   3  22
ATOM     22  C   LIG d   1      -3.175  91.200 117.651  0.00  0.00     0.382 C 
ATOM     23  O   LIG d   1      -3.030  90.008 117.287  0.00  0.00    -0.241 OA
ATOM     24  O   LIG d   1      -2.169  91.909 117.842  0.00  0.00    -0.241 OA
ENDBRANCH   3  22
TORSDOF 7
ENDMDL
MODEL 6
REMARK VINA RESULT:      -4.3      2.594      4.795
REMARK  7 active torsions:
REMARK  status: ('A' for Active; 'I' for Inactive)
REMARK    1  A    between atoms: C_2  and  C_3 
REMARK    2  A    between atoms: C_3  and  O_6 
REMARK    3  A    between atoms: C_3  and  C_4 
REMARK    4  A    between atoms: C_7  and  O_6 
REMARK    5  A    between atoms: C_9  and  C_10 
REMARK    6  A    between atoms: N_15  and  C_14 
REMARK    7  A    between atoms: N_20  and  C_19 
REMARK       I    between atoms: C_22  and  N_20 
ROOT
ATOM      1  C   LIG d   1      -3.526  92.302 117.600  0.00  0.00     0.161 C 
ATOM      2  C   LIG d   1      -4.879  92.005 117.366  0.00  0.00     0.016 C 
ATOM      3  C   LIG d   1      -5.373  90.688 117.223  0.00  0.00     0.038 C 
ATOM      4  C   LIG d   1      -4.567  89.564 117.457  0.00  0.00     0.028 C 
ATOM      5  C   LIG d   1      -3.085  89.818 117.199  0.00  0.00    -0.047 C 
ATOM      6  C   LIG d   1      -2.651  91.086 117.968  0.00  0.00     0.091 C 
ENDROOT
BRANCH   1   7
ATOM      7  O   LIG d   1      -3.418  93.322 118.612  0.00  0.00    -0.368 OA
BRANCH   7   8
ATOM      8  C   LIG d   1      -4.555  93.462 119.500  0.00  0.00     0.119 C 
BRANCH   8   9
ATOM      9  C   LIG d   1      -4.771  94.968 119.742  0.00  0.00     0.028 C 
ATOM     10  C   LIG d   1      -5.818  95.571 118.789  0.00  0.00     0.006 C 
ENDBRANCH   8   9
BRANCH   8  11
ATOM     11  C   LIG d   1      -4.259  92.868 120.881  0.00  0.00     0.028 C 
ATOM     12  C   LIG d   1      -5.118  91.633 121.195  0.00  0.00     0.006 C 
ENDBRANCH   8  11
ENDBRANCH   7   8
ENDBRANCH   1   7
BRANCH   6  13
ATOM     13  N   LIG d   1      -1.236  91.453 117.703  0.00  0.00    -0.311 N 
ATOM     14  C   LIG d   1      -0.300  91.495 118.650  0.00  0.00     0.210 C 
ATOM     15  C   LIG d   1       1.091  91.917 118.166  0.00  0.00     0.109 C 
ATOM     16  O   LIG d   1      -0.482  91.191 119.838  0.00  0.00    -0.276 OA
ATOM     17  H   LIG d   1      -0.994  91.684 116.760  0.00  0.00     0.149 HD
ENDBRANCH   6  13
BRANCH   5  18
ATOM     18  N   LIG d   1      -2.348  88.609 117.613  0.00  0.00     0.381 N 
ATOM     19  H   LIG d   1      -2.095  88.074 116.807  0.00  0.00    -0.090 HD
ATOM     20  H   LIG d   1      -2.946  88.045 118.191  0.00  0.00    -0.090 HD
ATOM     21  H   LIG d   1      -1.530  88.866 118.120  0.00  0.00    -0.090 HD
ENDBRANCH   5  18
BRANCH   3  22
ATOM     22  C   LIG d   1      -6.679  90.486 116.803  0.00  0.00     0.382 C 
ATOM     23  O   LIG d   1      -7.503  91.431 116.841  0.00  0.00    -0.241 OA
ATOM     24  O   LIG d   1      -7.055  89.358 116.430  0.00  0.00    -0.241 OA
ENDBRANCH   3  22
TORSDOF 7
ENDMDL
MODEL 7
REMARK VINA RESULT:      -4.2      2.595      5.108
REMARK  7 active torsions:
REMARK  status: ('A' for Active; 'I' for Inactive)
REMARK    1  A    between atoms: C_2  and  C_3 
REMARK    2  A    between atoms: C_3  and  O_6 
REMARK    3  A    between atoms: C_3  and  C_4 
REMARK    4  A    between atoms: C_7  and  O_6 
REMARK    5  A    between atoms: C_9  and  C_10 
REMARK    6  A    between atoms: N_15  and  C_14 
REMARK    7  A    between atoms: N_20  and  C_19 
REMARK       I    between atoms: C_22  and  N_20 
ROOT
ATOM      1  C   LIG d   1      -3.624  92.503 118.194  0.00  0.00     0.161 C 
ATOM      2  C   LIG d   1      -5.020  92.349 118.167  0.00  0.00     0.016 C 
ATOM      3  C   LIG d   1      -5.662  91.125 117.871  0.00  0.00     0.038 C 
ATOM      4  C   LIG d   1      -4.946  89.927 117.729  0.00  0.00     0.028 C 
ATOM      5  C   LIG d   1      -3.513  90.131 117.249  0.00  0.00    -0.047 C 
ATOM      6  C   LIG d   1      -2.827  91.182 118.151  0.00  0.00     0.091 C 
ENDROOT
BRANCH   1   7
ATOM      7  O   LIG d   1      -3.240  93.283 119.344  0.00  0.00    -0.368 OA
BRANCH   7   8
ATOM      8  C   LIG d   1      -2.592  94.548 119.069  0.00  0.00     0.119 C 
BRANCH   8   9
ATOM      9  C   LIG d   1      -1.185  94.494 119.695  0.00  0.00     0.028 C 
ATOM     10  C   LIG d   1      -0.081  94.873 118.693  0.00  0.00     0.006 C 
ENDBRANCH   8   9
BRANCH   8  11
ATOM     11  C   LIG d   1      -3.305  95.705 119.774  0.00  0.00     0.028 C 
ATOM     12  C   LIG d   1      -4.764  95.871 119.322  0.00  0.00     0.006 C 
ENDBRANCH   8  11
ENDBRANCH   7   8
ENDBRANCH   1   7
BRANCH   6  13
ATOM     13  N   LIG d   1      -1.448  91.504 117.699  0.00  0.00    -0.311 N 
ATOM     14  C   LIG d   1      -0.360  90.903 118.179  0.00  0.00     0.210 C 
ATOM     15  C   LIG d   1       0.965  91.398 117.591  0.00  0.00     0.109 C 
ATOM     16  O   LIG d   1      -0.369  89.985 119.013  0.00  0.00    -0.276 OA
ATOM     17  H   LIG d   1      -1.351  92.215 117.002  0.00  0.00     0.149 HD
ENDBRANCH   6  13
BRANCH   5  18
ATOM     18  N   LIG d   1      -2.842  88.818 117.278  0.00  0.00     0.381 N 
ATOM     19  H   LIG d   1      -2.669  88.506 116.343  0.00  0.00    -0.090 HD
ATOM     20  H   LIG d   1      -3.448  88.153 117.725  0.00  0.00    -0.090 HD
ATOM     21  H   LIG d   1      -1.983  88.885 117.778  0.00  0.00    -0.090 HD
ENDBRANCH   5  18
BRANCH   3  22
ATOM     22  C   LIG d   1      -7.035  91.099 117.674  0.00  0.00     0.382 C 
ATOM     23  O   LIG d   1      -7.601  90.028 117.350  0.00  0.00    -0.241 OA
ATOM     24  O   LIG d   1      -7.707  92.143 117.773  0.00  0.00    -0.241 OA
ENDBRANCH   3  22
TORSDOF 7
ENDMDL
MODEL 8
REMARK VINA RESULT:      -3.8      2.437      6.136
REMARK  7 active torsions:
REMARK  status: ('A' for Active; 'I' for Inactive)
REMARK    1  A    between atoms: C_2  and  C_3 
REMARK    2  A    between atoms: C_3  and  O_6 
REMARK    3  A    between atoms: C_3  and  C_4 
REMARK    4  A    between atoms: C_7  and  O_6 
REMARK    5  A    between atoms: C_9  and  C_10 
REMARK    6  A    between atoms: N_15  and  C_14 
REMARK    7  A    between atoms: N_20  and  C_19 
REMARK       I    between atoms: C_22  and  N_20 
ROOT
ATOM      1  C   LIG d   1      -2.243  91.335 118.138  0.00  0.00     0.161 C 
ATOM      2  C   LIG d   1      -0.855  91.115 118.148  0.00  0.00     0.016 C 
ATOM      3  C   LIG d   1       0.096  92.152 118.284  0.00  0.00     0.038 C 
ATOM      4  C   LIG d   1      -0.282  93.472 118.573  0.00  0.00     0.028 C 
ATOM      5  C   LIG d   1      -1.677  93.826 118.070  0.00  0.00    -0.047 C 
ATOM      6  C   LIG d   1      -2.675  92.754 118.564  0.00  0.00     0.091 C 
ENDROOT
BRANCH   1   7
ATOM      7  O   LIG d   1      -2.900  90.345 118.954  0.00  0.00    -0.368 OA
BRANCH   7   8
ATOM      8  C   LIG d   1      -3.674  89.347 118.244  0.00  0.00     0.119 C 
BRANCH   8   9
ATOM      9  C   LIG d   1      -2.788  88.095 118.094  0.00  0.00     0.028 C 
ATOM     10  C   LIG d   1      -2.420  87.471 119.450  0.00  0.00     0.006 C 
ENDBRANCH   8   9
BRANCH   8  11
ATOM     11  C   LIG d   1      -3.986  89.797 116.814  0.00  0.00     0.028 C 
ATOM     12  C   LIG d   1      -5.489  90.001 116.568  0.00  0.00     0.006 C 
ENDBRANCH   8  11
ENDBRANCH   7   8
ENDBRANCH   1   7
BRANCH   6  13
ATOM     13  N   LIG d   1      -4.050  92.979 118.046  0.00  0.00    -0.311 N 
ATOM     14  C   LIG d   1      -5.007  93.586 118.747  0.00  0.00     0.210 C 
ATOM     15  C   LIG d   1      -6.359  93.697 118.034  0.00  0.00     0.109 C 
ATOM     16  O   LIG d   1      -4.856  94.071 119.878  0.00  0.00    -0.276 OA
ATOM     17  H   LIG d   1      -4.251  92.644 117.124  0.00  0.00     0.149 HD
ENDBRANCH   6  13
BRANCH   5  18
ATOM     18  N   LIG d   1      -1.996  95.181 118.559  0.00  0.00     0.381 N 
ATOM     19  H   LIG d   1      -1.212  95.556 119.054  0.00  0.00    -0.090 HD
ATOM     20  H   LIG d   1      -2.773  95.123 119.194  0.00  0.00    -0.090 HD
ATOM     21  H   LIG d   1      -2.228  95.774 117.792  0.00  0.00    -0.090 HD
ENDBRANCH   5  18
BRANCH   3  22
ATOM     22  C   LIG d   1       1.442  91.880 118.090  0.00  0.00     0.382 C 
ATOM     23  O   LIG d   1       1.840  91.439 116.985  0.00  0.00    -0.241 OA
ATOM     24  O   LIG d   1       2.257  92.028 119.021  0.00  0.00    -0.241 OA
ENDBRANCH   3  22
TORSDOF 7
ENDMDL
MODEL 9
REMARK VINA RESULT:      -3.8      3.147      6.527
REMARK  7 active torsions:
REMARK  status: ('A' for Active; 'I' for Inactive)
REMARK    1  A    between atoms: C_2  and  C_3 
REMARK    2  A    between atoms: C_3  and  O_6 
REMARK    3  A    between atoms: C_3  and  C_4 
REMARK    4  A    between atoms: C_7  and  O_6 
REMARK    5  A    between atoms: C_9  and  C_10 
REMARK    6  A    between atoms: N_15  and  C_14 
REMARK    7  A    between atoms: N_20  and  C_19 
REMARK       I    between atoms: C_22  and  N_20 
ROOT
ATOM      1  C   LIG d   1      -2.759  89.697 117.695  0.00  0.00     0.161 C 
ATOM      2  C   LIG d   1      -1.370  89.893 117.774  0.00  0.00     0.016 C 
ATOM      3  C   LIG d   1      -0.774  91.154 118.006  0.00  0.00     0.038 C 
ATOM      4  C   LIG d   1      -1.537  92.286 118.328  0.00  0.00     0.028 C 
ATOM      5  C   LIG d   1      -2.953  92.244 117.762  0.00  0.00    -0.047 C 
ATOM      6  C   LIG d   1      -3.609  90.900 118.153  0.00  0.00     0.091 C 
ENDROOT
BRANCH   1   7
ATOM      7  O   LIG d   1      -3.128  88.513 118.430  0.00  0.00    -0.368 OA
BRANCH   7   8
ATOM      8  C   LIG d   1      -2.323  88.211 119.597  0.00  0.00     0.119 C 
BRANCH   8   9
ATOM      9  C   LIG d   1      -2.013  86.702 119.567  0.00  0.00     0.028 C 
ATOM     10  C   LIG d   1      -2.593  85.959 120.782  0.00  0.00     0.006 C 
ENDBRANCH   8   9
BRANCH   8  11
ATOM     11  C   LIG d   1      -3.110  88.438 120.891  0.00  0.00     0.028 C 
ATOM     12  C   LIG d   1      -2.768  89.773 121.570  0.00  0.00     0.006 C 
ENDBRANCH   8  11
ENDBRANCH   7   8
ENDBRANCH   1   7
BRANCH   6  13
ATOM     13  N   LIG d   1      -4.966  90.740 117.569  0.00  0.00    -0.311 N 
ATOM     14  C   LIG d   1      -6.085  90.785 118.290  0.00  0.00     0.210 C 
ATOM     15  C   LIG d   1      -7.377  90.577 117.493  0.00  0.00     0.109 C 
ATOM     16  O   LIG d   1      -6.132  91.009 119.509  0.00  0.00    -0.276 OA
ATOM     17  H   LIG d   1      -5.022  90.586 116.581  0.00  0.00     0.149 HD
ENDBRANCH   6  13
BRANCH   5  18
ATOM     18  N   LIG d   1      -3.678  93.416 118.287  0.00  0.00     0.381 N 
ATOM     19  H   LIG d   1      -4.290  93.779 117.583  0.00  0.00    -0.090 HD
ATOM     20  H   LIG d   1      -3.013  94.130 118.526  0.00  0.00    -0.090 HD
ATOM     21  H   LIG d   1      -4.204  93.159 119.093  0.00  0.00    -0.090 HD
ENDBRANCH   5  18
BRANCH   3  22
ATOM     22  C   LIG d   1       0.599  91.299 117.879  0.00  0.00     0.382 C 
ATOM     23  O   LIG d   1       1.283  91.682 118.859  0.00  0.00    -0.241 OA
ATOM     24  O   LIG d   1       1.156  91.096 116.784  0.00  0.00    -0.241 OA
ENDBRANCH   3  22
TORSDOF 7
ENDMDL
