MODEL 1
REMARK VINA RESULT:      -4.5      0.000      0.000
REMARK  7 active torsions:
REMARK  status: ('A' for Active; 'I' for Inactive)
REMARK    1  A    between atoms: C_2  and  C_3 
REMARK    2  A    between atoms: C_3  and  O_6 
REMARK    3  A    between atoms: C_3  and  C_4 
REMARK    4  A    between atoms: C_7  and  O_6 
REMARK    5  A    between atoms: C_9  and  C_10 
REMARK    6  A    between atoms: N_15  and  C_14 
REMARK    7  A    between atoms: N_20  and  C_19 
REMARK       I    between atoms: C_22  and  N_20 
ROOT
ATOM      1  C   LIG d   1      -2.848  92.755 117.907  0.00  0.00     0.161 C 
ATOM      2  C   LIG d   1      -4.115  93.357 117.986  0.00  0.00     0.016 C 
ATOM      3  C   LIG d   1      -5.308  92.713 117.585  0.00  0.00     0.038 C 
ATOM      4  C   LIG d   1      -5.333  91.360 117.217  0.00  0.00     0.028 C 
ATOM      5  C   LIG d   1      -4.011  90.864 116.641  0.00  0.00    -0.047 C 
ATOM      6  C   LIG d   1      -2.869  91.240 117.612  0.00  0.00     0.091 C 
ENDROOT
BRANCH   1   7
ATOM      7  O   LIG d   1      -2.105  93.021 119.113  0.00  0.00    -0.368 OA
BRANCH   7   8
ATOM      8  C   LIG d   1      -1.051  94.010 119.007  0.00  0.00     0.119 C 
BRANCH   8   9
ATOM      9  C   LIG d   1       0.279  93.307 119.339  0.00  0.00     0.028 C 
ATOM     10  C   LIG d   1       0.706  93.521 120.801  0.00  0.00     0.006 C 
ENDBRANCH   8   9
BRANCH   8  11
ATOM     11  C   LIG d   1      -1.207  95.105 120.066  0.00  0.00     0.028 C 
ATOM     12  C   LIG d   1      -2.269  96.151 119.691  0.00  0.00     0.006 C 
ENDBRANCH   8  11
ENDBRANCH   7   8
ENDBRANCH   1   7
BRANCH   6  13
ATOM     13  N   LIG d   1      -1.530  90.866 117.085  0.00  0.00    -0.311 N 
ATOM     14  C   LIG d   1      -0.652  90.133 117.767  0.00  0.00     0.210 C 
ATOM     15  C   LIG d   1       0.676  89.880 117.047  0.00  0.00     0.109 C 
ATOM     16  O   LIG d   1      -0.860  89.642 118.887  0.00  0.00    -0.276 OA
ATOM     17  H   LIG d   1      -1.292  91.197 116.171  0.00  0.00     0.149 HD
ENDBRANCH   6  13
BRANCH   5  18
ATOM     18  N   LIG d   1      -4.134  89.409 116.430  0.00  0.00     0.381 N 
ATOM     19  H   LIG d   1      -4.632  89.231 115.580  0.00  0.00    -0.090 HD
ATOM     20  H   LIG d   1      -4.658  89.013 117.191  0.00  0.00    -0.090 HD
ATOM     21  H   LIG d   1      -3.230  88.993 116.387  0.00  0.00    -0.090 HD
ENDBRANCH   5  18
BRANCH   3  22
ATOM     22  C   LIG d   1      -6.489  93.437 117.512  0.00  0.00     0.382 C 
ATOM     23  O   LIG d   1      -6.975  93.950 118.549  0.00  0.00    -0.241 OA
ATOM     24  O   LIG d   1      -7.097  93.547 116.431  0.00  0.00    -0.241 OA
ENDBRANCH   3  22
TORSDOF 7
ENDMDL
MODEL 2
REMARK VINA RESULT:      -4.5      3.041      5.320
REMARK  7 active torsions:
REMARK  status: ('A' for Active; 'I' for Inactive)
REMARK    1  A    between atoms: C_2  and  C_3 
REMARK    2  A    between atoms: C_3  and  O_6 
REMARK    3  A    between atoms: C_3  and  C_4 
REMARK    4  A    between atoms: C_7  and  O_6 
REMARK    5  A    between atoms: C_9  and  C_10 
REMARK    6  A    between atoms: N_15  and  C_14 
REMARK    7  A    between atoms: N_20  and  C_19 
REMARK       I    between atoms: C_22  and  N_20 
ROOT
ATOM      1  C   LIG d   1      -6.163  92.868 118.241  0.00  0.00     0.161 C 
ATOM      2  C   LIG d   1      -6.283  91.545 117.786  0.00  0.00     0.016 C 
ATOM      3  C   LIG d   1      -5.195  90.789 117.293  0.00  0.00     0.038 C 
ATOM      4  C   LIG d   1      -3.874  91.257 117.365  0.00  0.00     0.028 C 
ATOM      5  C   LIG d   1      -3.770  92.778 117.349  0.00  0.00    -0.047 C 
ATOM      6  C   LIG d   1      -4.711  93.357 118.430  0.00  0.00     0.091 C 
ENDROOT
BRANCH   1   7
ATOM      7  O   LIG d   1      -6.911  93.035 119.461  0.00  0.00    -0.368 OA
BRANCH   7   8
ATOM      8  C   LIG d   1      -6.181  92.806 120.692  0.00  0.00     0.119 C 
BRANCH   8   9
ATOM      9  C   LIG d   1      -6.737  91.516 121.326  0.00  0.00     0.028 C 
ATOM     10  C   LIG d   1      -8.086  91.742 122.029  0.00  0.00     0.006 C 
ENDBRANCH   8   9
BRANCH   8  11
ATOM     11  C   LIG d   1      -6.455  93.911 121.716  0.00  0.00     0.028 C 
ATOM     12  C   LIG d   1      -7.077  95.167 121.085  0.00  0.00     0.006 C 
ENDBRANCH   8  11
ENDBRANCH   7   8
ENDBRANCH   1   7
BRANCH   6  13
ATOM     13  N   LIG d   1      -4.734  94.843 118.425  0.00  0.00    -0.311 N 
ATOM     14  C   LIG d   1      -3.956  95.590 119.207  0.00  0.00     0.210 C 
ATOM     15  C   LIG d   1      -4.152  97.102 119.059  0.00  0.00     0.109 C 
ATOM     16  O   LIG d   1      -3.100  95.145 119.986  0.00  0.00    -0.276 OA
ATOM     17  H   LIG d   1      -5.377  95.288 117.800  0.00  0.00     0.149 HD
ENDBRANCH   6  13
BRANCH   5  18
ATOM     18  N   LIG d   1      -2.354  93.130 117.567  0.00  0.00     0.381 N 
ATOM     19  H   LIG d   1      -2.023  92.699 118.407  0.00  0.00    -0.090 HD
ATOM     20  H   LIG d   1      -2.279  94.127 117.674  0.00  0.00    -0.090 HD
ATOM     21  H   LIG d   1      -1.804  92.830 116.793  0.00  0.00    -0.090 HD
ENDBRANCH   5  18
BRANCH   3  22
ATOM     22  C   LIG d   1      -5.427  89.564 116.686  0.00  0.00     0.382 C 
ATOM     23  O   LIG d   1      -6.601  89.204 116.430  0.00  0.00    -0.241 OA
ATOM     24  O   LIG d   1      -4.480  88.796 116.430  0.00  0.00    -0.241 OA
ENDBRANCH   3  22
TORSDOF 7
ENDMDL
MODEL 3
REMARK VINA RESULT:      -4.4      2.931      5.401
REMARK  7 active torsions:
REMARK  status: ('A' for Active; 'I' for Inactive)
REMARK    1  A    between atoms: C_2  and  C_3 
REMARK    2  A    between atoms: C_3  and  O_6 
REMARK    3  A    between atoms: C_3  and  C_4 
REMARK    4  A    between atoms: C_7  and  O_6 
REMARK    5  A    between atoms: C_9  and  C_10 
REMARK    6  A    between atoms: N_15  and  C_14 
REMARK    7  A    between atoms: N_20  and  C_19 
REMARK       I    between atoms: C_22  and  N_20 
ROOT
ATOM      1  C   LIG d   1      -5.885  93.398 118.342  0.00  0.00     0.161 C 
ATOM      2  C   LIG d   1      -6.204  92.078 117.984  0.00  0.00     0.016 C 
ATOM      3  C   LIG d   1      -5.244  91.135 117.552  0.00  0.00     0.038 C 
ATOM      4  C   LIG d   1      -3.868  91.406 117.594  0.00  0.00     0.028 C 
ATOM      5  C   LIG d   1      -3.539  92.890 117.468  0.00  0.00    -0.047 C 
ATOM      6  C   LIG d   1      -4.376  93.679 118.500  0.00  0.00     0.091 C 
ENDROOT
BRANCH   1   7
ATOM      7  O   LIG d   1      -6.591  93.762 119.545  0.00  0.00    -0.368 OA
BRANCH   7   8
ATOM      8  C   LIG d   1      -7.629  94.763 119.397  0.00  0.00     0.119 C 
BRANCH   8   9
ATOM      9  C   LIG d   1      -7.564  95.286 117.949  0.00  0.00     0.028 C 
ATOM     10  C   LIG d   1      -7.354  96.808 117.884  0.00  0.00     0.006 C 
ENDBRANCH   8   9
BRANCH   8  11
ATOM     11  C   LIG d   1      -7.356  95.983 120.281  0.00  0.00     0.028 C 
ATOM     12  C   LIG d   1      -6.594  95.628 121.568  0.00  0.00     0.006 C 
ENDBRANCH   8  11
ENDBRANCH   7   8
ENDBRANCH   1   7
BRANCH   6  13
ATOM     13  N   LIG d   1      -4.178  95.147 118.388  0.00  0.00    -0.311 N 
ATOM     14  C   LIG d   1      -3.686  95.898 119.372  0.00  0.00     0.210 C 
ATOM     15  C   LIG d   1      -3.582  97.393 119.055  0.00  0.00     0.109 C 
ATOM     16  O   LIG d   1      -3.297  95.463 120.467  0.00  0.00    -0.276 OA
ATOM     17  H   LIG d   1      -4.438  95.578 117.523  0.00  0.00     0.149 HD
ENDBRANCH   6  13
BRANCH   5  18
ATOM     18  N   LIG d   1      -2.085  93.042 117.666  0.00  0.00     0.381 N 
ATOM     19  H   LIG d   1      -1.907  93.478 118.548  0.00  0.00    -0.090 HD
ATOM     20  H   LIG d   1      -1.719  93.635 116.942  0.00  0.00    -0.090 HD
ATOM     21  H   LIG d   1      -1.641  92.151 117.632  0.00  0.00    -0.090 HD
ENDBRANCH   5  18
BRANCH   3  22
ATOM     22  C   LIG d   1      -5.660  89.918 117.034  0.00  0.00     0.382 C 
ATOM     23  O   LIG d   1      -6.874  89.604 117.067  0.00  0.00    -0.241 OA
ATOM     24  O   LIG d   1      -4.830  89.110 116.574  0.00  0.00    -0.241 OA
ENDBRANCH   3  22
TORSDOF 7
ENDMDL
MODEL 4
REMARK VINA RESULT:      -4.3      2.403      4.798
REMARK  7 active torsions:
REMARK  status: ('A' for Active; 'I' for Inactive)
REMARK    1  A    between atoms: C_2  and  C_3 
REMARK    2  A    between atoms: C_3  and  O_6 
REMARK    3  A    between atoms: C_3  and  C_4 
REMARK    4  A    between atoms: C_7  and  O_6 
REMARK    5  A    between atoms: C_9  and  C_10 
REMARK    6  A    between atoms: N_15  and  C_14 
REMARK    7  A    between atoms: N_20  and  C_19 
REMARK       I    between atoms: C_22  and  N_20 
ROOT
ATOM      1  C   LIG d   1      -2.933  90.528 118.310  0.00  0.00     0.161 C 
ATOM      2  C   LIG d   1      -4.068  90.017 117.660  0.00  0.00     0.016 C 
ATOM      3  C   LIG d   1      -5.119  90.829 117.176  0.00  0.00     0.038 C 
ATOM      4  C   LIG d   1      -5.034  92.229 117.175  0.00  0.00     0.028 C 
ATOM      5  C   LIG d   1      -4.136  92.782 118.276  0.00  0.00    -0.047 C 
ATOM      6  C   LIG d   1      -2.770  92.060 118.219  0.00  0.00     0.091 C 
ENDROOT
BRANCH   1   7
ATOM      7  O   LIG d   1      -1.749  89.868 117.818  0.00  0.00    -0.368 OA
BRANCH   7   8
ATOM      8  C   LIG d   1      -1.698  88.432 117.999  0.00  0.00     0.119 C 
BRANCH   8   9
ATOM      9  C   LIG d   1      -1.796  88.152 119.511  0.00  0.00     0.028 C 
ATOM     10  C   LIG d   1      -2.843  87.075 119.843  0.00  0.00     0.006 C 
ENDBRANCH   8   9
BRANCH   8  11
ATOM     11  C   LIG d   1      -0.343  87.864 117.568  0.00  0.00     0.028 C 
ATOM     12  C   LIG d   1      -0.468  86.785 116.480  0.00  0.00     0.006 C 
ENDBRANCH   8  11
ENDBRANCH   7   8
ENDBRANCH   1   7
BRANCH   6  13
ATOM     13  N   LIG d   1      -1.860  92.481 119.316  0.00  0.00    -0.311 N 
ATOM     14  C   LIG d   1      -1.011  93.502 119.213  0.00  0.00     0.210 C 
ATOM     15  C   LIG d   1      -0.149  93.755 120.454  0.00  0.00     0.109 C 
ATOM     16  O   LIG d   1      -0.912  94.242 118.222  0.00  0.00    -0.276 OA
ATOM     17  H   LIG d   1      -1.897  91.955 120.167  0.00  0.00     0.149 HD
ENDBRANCH   6  13
BRANCH   5  18
ATOM     18  N   LIG d   1      -4.028  94.239 118.074  0.00  0.00     0.381 N 
ATOM     19  H   LIG d   1      -3.322  94.613 118.676  0.00  0.00    -0.090 HD
ATOM     20  H   LIG d   1      -4.905  94.666 118.313  0.00  0.00    -0.090 HD
ATOM     21  H   LIG d   1      -3.802  94.436 117.123  0.00  0.00    -0.090 HD
ENDBRANCH   5  18
BRANCH   3  22
ATOM     22  C   LIG d   1      -6.289  90.240 116.721  0.00  0.00     0.382 C 
ATOM     23  O   LIG d   1      -7.343  90.917 116.643  0.00  0.00    -0.241 OA
ATOM     24  O   LIG d   1      -6.316  89.029 116.430  0.00  0.00    -0.241 OA
ENDBRANCH   3  22
TORSDOF 7
ENDMDL
MODEL 5
REMARK VINA RESULT:      -4.3      2.104      3.371
REMARK  7 active torsions:
REMARK  status: ('A' for Active; 'I' for Inactive)
REMARK    1  A    between atoms: C_2  and  C_3 
REMARK    2  A    between atoms: C_3  and  O_6 
REMARK    3  A    between atoms: C_3  and  C_4 
REMARK    4  A    between atoms: C_7  and  O_6 
REMARK    5  A    between atoms: C_9  and  C_10 
REMARK    6  A    between atoms: N_15  and  C_14 
REMARK    7  A    between atoms: N_20  and  C_19 
REMARK       I    between atoms: C_22  and  N_20 
ROOT
ATOM      1  C   LIG d   1      -3.425  92.593 117.542  0.00  0.00     0.161 C 
ATOM      2  C   LIG d   1      -4.649  92.048 117.122  0.00  0.00     0.016 C 
ATOM      3  C   LIG d   1      -5.072  90.739 117.449  0.00  0.00     0.038 C 
ATOM      4  C   LIG d   1      -4.362  89.935 118.353  0.00  0.00     0.028 C 
ATOM      5  C   LIG d   1      -2.871  90.251 118.402  0.00  0.00    -0.047 C 
ATOM      6  C   LIG d   1      -2.687  91.770 118.620  0.00  0.00     0.091 C 
ENDROOT
BRANCH   1   7
ATOM      7  O   LIG d   1      -3.622  93.947 117.994  0.00  0.00    -0.368 OA
BRANCH   7   8
ATOM      8  C   LIG d   1      -4.251  94.102 119.290  0.00  0.00     0.119 C 
BRANCH   8   9
ATOM      9  C   LIG d   1      -5.505  94.975 119.094  0.00  0.00     0.028 C 
ATOM     10  C   LIG d   1      -6.808  94.193 119.331  0.00  0.00     0.006 C 
ENDBRANCH   8   9
BRANCH   8  11
ATOM     11  C   LIG d   1      -3.356  94.888 120.253  0.00  0.00     0.028 C 
ATOM     12  C   LIG d   1      -2.223  95.639 119.535  0.00  0.00     0.006 C 
ENDBRANCH   8  11
ENDBRANCH   7   8
ENDBRANCH   1   7
BRANCH   6  13
ATOM     13  N   LIG d   1      -1.258  92.177 118.596  0.00  0.00    -0.311 N 
ATOM     14  C   LIG d   1      -0.525  92.343 119.696  0.00  0.00     0.210 C 
ATOM     15  C   LIG d   1       0.921  92.785 119.448  0.00  0.00     0.109 C 
ATOM     16  O   LIG d   1      -0.925  92.134 120.851  0.00  0.00    -0.276 OA
ATOM     17  H   LIG d   1      -0.844  92.338 117.699  0.00  0.00     0.149 HD
ENDBRANCH   6  13
BRANCH   5  18
ATOM     18  N   LIG d   1      -2.278  89.437 119.480  0.00  0.00     0.381 N 
ATOM     19  H   LIG d   1      -1.882  88.602 119.095  0.00  0.00    -0.090 HD
ATOM     20  H   LIG d   1      -3.002  89.174 120.124  0.00  0.00    -0.090 HD
ATOM     21  H   LIG d   1      -1.575  89.959 119.954  0.00  0.00    -0.090 HD
ENDBRANCH   5  18
BRANCH   3  22
ATOM     22  C   LIG d   1      -6.199  90.208 116.840  0.00  0.00     0.382 C 
ATOM     23  O   LIG d   1      -7.241  90.899 116.737  0.00  0.00    -0.241 OA
ATOM     24  O   LIG d   1      -6.200  89.032 116.430  0.00  0.00    -0.241 OA
ENDBRANCH   3  22
TORSDOF 7
ENDMDL
MODEL 6
REMARK VINA RESULT:      -4.1      3.151      6.167
REMARK  7 active torsions:
REMARK  status: ('A' for Active; 'I' for Inactive)
REMARK    1  A    between atoms: C_2  and  C_3 
REMARK    2  A    between atoms: C_3  and  O_6 
REMARK    3  A    between atoms: C_3  and  C_4 
REMARK    4  A    between atoms: C_7  and  O_6 
REMARK    5  A    between atoms: C_9  and  C_10 
REMARK    6  A    between atoms: N_15  and  C_14 
REMARK    7  A    between atoms: N_20  and  C_19 
REMARK       I    between atoms: C_22  and  N_20 
ROOT
ATOM      1  C   LIG d   1      -6.250  91.609 118.523  0.00  0.00     0.161 C 
ATOM      2  C   LIG d   1      -5.356  90.536 118.678  0.00  0.00     0.016 C 
ATOM      3  C   LIG d   1      -3.952  90.672 118.577  0.00  0.00     0.038 C 
ATOM      4  C   LIG d   1      -3.335  91.927 118.464  0.00  0.00     0.028 C 
ATOM      5  C   LIG d   1      -4.218  92.978 117.799  0.00  0.00    -0.047 C 
ATOM      6  C   LIG d   1      -5.590  93.004 118.510  0.00  0.00     0.091 C 
ENDROOT
BRANCH   1   7
ATOM      7  O   LIG d   1      -7.269  91.546 119.541  0.00  0.00    -0.368 OA
BRANCH   7   8
ATOM      8  C   LIG d   1      -7.027  92.332 120.734  0.00  0.00     0.119 C 
BRANCH   8   9
ATOM      9  C   LIG d   1      -6.818  91.348 121.902  0.00  0.00     0.028 C 
ATOM     10  C   LIG d   1      -5.360  91.316 122.389  0.00  0.00     0.006 C 
ENDBRANCH   8   9
BRANCH   8  11
ATOM     11  C   LIG d   1      -8.259  93.159 121.116  0.00  0.00     0.028 C 
ATOM     12  C   LIG d   1      -9.061  92.535 122.269  0.00  0.00     0.006 C 
ENDBRANCH   8  11
ENDBRANCH   7   8
ENDBRANCH   1   7
BRANCH   6  13
ATOM     13  N   LIG d   1      -6.544  93.946 117.868  0.00  0.00    -0.311 N 
ATOM     14  C   LIG d   1      -6.728  95.198 118.283  0.00  0.00     0.210 C 
ATOM     15  C   LIG d   1      -7.773  95.994 117.494  0.00  0.00     0.109 C 
ATOM     16  O   LIG d   1      -6.103  95.736 119.210  0.00  0.00    -0.276 OA
ATOM     17  H   LIG d   1      -7.070  93.602 117.089  0.00  0.00     0.149 HD
ENDBRANCH   6  13
BRANCH   5  18
ATOM     18  N   LIG d   1      -3.505  94.268 117.871  0.00  0.00     0.381 N 
ATOM     19  H   LIG d   1      -3.419  94.555 118.826  0.00  0.00    -0.090 HD
ATOM     20  H   LIG d   1      -4.041  94.963 117.380  0.00  0.00    -0.090 HD
ATOM     21  H   LIG d   1      -2.602  94.182 117.460  0.00  0.00    -0.090 HD
ENDBRANCH   5  18
BRANCH   3  22
ATOM     22  C   LIG d   1      -3.152  89.540 118.549  0.00  0.00     0.382 C 
ATOM     23  O   LIG d   1      -3.564  88.469 119.057  0.00  0.00    -0.241 OA
ATOM     24  O   LIG d   1      -2.007  89.588 118.063  0.00  0.00    -0.241 OA
ENDBRANCH   3  22
TORSDOF 7
ENDMDL
MODEL 7
REMARK VINA RESULT:      -4.1      2.094      4.918
REMARK  7 active torsions:
REMARK  status: ('A' for Active; 'I' for Inactive)
REMARK    1  A    between atoms: C_2  and  C_3 
REMARK    2  A    between atoms: C_3  and  O_6 
REMARK    3  A    between atoms: C_3  and  C_4 
REMARK    4  A    between atoms: C_7  and  O_6 
REMARK    5  A    between atoms: C_9  and  C_10 
REMARK    6  A    between atoms: N_15  and  C_14 
REMARK    7  A    between atoms: N_20  and  C_19 
REMARK       I    between atoms: C_22  and  N_20 
ROOT
ATOM      1  C   LIG d   1      -3.623  91.960 118.613  0.00  0.00     0.161 C 
ATOM      2  C   LIG d   1      -2.957  90.736 118.436  0.00  0.00     0.016 C 
ATOM      3  C   LIG d   1      -3.599  89.559 117.984  0.00  0.00     0.038 C 
ATOM      4  C   LIG d   1      -4.927  89.566 117.532  0.00  0.00     0.028 C 
ATOM      5  C   LIG d   1      -5.778  90.661 118.168  0.00  0.00    -0.047 C 
ATOM      6  C   LIG d   1      -5.046  92.015 118.019  0.00  0.00     0.091 C 
ENDROOT
BRANCH   1   7
ATOM      7  O   LIG d   1      -2.819  93.034 118.086  0.00  0.00    -0.368 OA
BRANCH   7   8
ATOM      8  C   LIG d   1      -2.189  93.897 119.064  0.00  0.00     0.119 C 
BRANCH   8   9
ATOM      9  C   LIG d   1      -2.907  95.260 119.010  0.00  0.00     0.028 C 
ATOM     10  C   LIG d   1      -3.673  95.571 120.307  0.00  0.00     0.006 C 
ENDBRANCH   8   9
BRANCH   8  11
ATOM     11  C   LIG d   1      -0.733  94.192 118.692  0.00  0.00     0.028 C 
ATOM     12  C   LIG d   1       0.266  93.283 119.426  0.00  0.00     0.006 C 
ENDBRANCH   8  11
ENDBRANCH   7   8
ENDBRANCH   1   7
BRANCH   6  13
ATOM     13  N   LIG d   1      -5.770  93.127 118.688  0.00  0.00    -0.311 N 
ATOM     14  C   LIG d   1      -6.613  93.939 118.053  0.00  0.00     0.210 C 
ATOM     15  C   LIG d   1      -7.238  95.033 118.926  0.00  0.00     0.109 C 
ATOM     16  O   LIG d   1      -6.927  93.839 116.858  0.00  0.00    -0.276 OA
ATOM     17  H   LIG d   1      -5.598  93.260 119.666  0.00  0.00     0.149 HD
ENDBRANCH   6  13
BRANCH   5  18
ATOM     18  N   LIG d   1      -7.096  90.641 117.507  0.00  0.00     0.381 N 
ATOM     19  H   LIG d   1      -7.470  89.713 117.524  0.00  0.00    -0.090 HD
ATOM     20  H   LIG d   1      -6.983  90.917 116.547  0.00  0.00    -0.090 HD
ATOM     21  H   LIG d   1      -7.719  91.266 117.969  0.00  0.00    -0.090 HD
ENDBRANCH   5  18
BRANCH   3  22
ATOM     22  C   LIG d   1      -2.922  88.350 118.020  0.00  0.00     0.382 C 
ATOM     23  O   LIG d   1      -2.513  87.893 119.114  0.00  0.00    -0.241 OA
ATOM     24  O   LIG d   1      -2.675  87.733 116.967  0.00  0.00    -0.241 OA
ENDBRANCH   3  22
TORSDOF 7
ENDMDL
MODEL 8
REMARK VINA RESULT:      -4.1      4.838      7.581
REMARK  7 active torsions:
REMARK  status: ('A' for Active; 'I' for Inactive)
REMARK    1  A    between atoms: C_2  and  C_3 
REMARK    2  A    between atoms: C_3  and  O_6 
REMARK    3  A    between atoms: C_3  and  C_4 
REMARK    4  A    between atoms: C_7  and  O_6 
REMARK    5  A    between atoms: C_9  and  C_10 
REMARK    6  A    between atoms: N_15  and  C_14 
REMARK    7  A    between atoms: N_20  and  C_19 
REMARK       I    between atoms: C_22  and  N_20 
ROOT
ATOM      1  C   LIG d   1      -7.059  92.693 120.457  0.00  0.00     0.161 C 
ATOM      2  C   LIG d   1      -6.981  91.596 121.331  0.00  0.00     0.016 C 
ATOM      3  C   LIG d   1      -7.847  91.417 122.434  0.00  0.00     0.038 C 
ATOM      4  C   LIG d   1      -8.955  92.250 122.650  0.00  0.00     0.028 C 
ATOM      5  C   LIG d   1      -8.773  93.656 122.089  0.00  0.00    -0.047 C 
ATOM      6  C   LIG d   1      -8.330  93.554 120.612  0.00  0.00     0.091 C 
ENDROOT
BRANCH   1   7
ATOM      7  O   LIG d   1      -6.920  92.244 119.095  0.00  0.00    -0.368 OA
BRANCH   7   8
ATOM      8  C   LIG d   1      -5.565  92.026 118.630  0.00  0.00     0.119 C 
BRANCH   8   9
ATOM      9  C   LIG d   1      -5.304  93.021 117.483  0.00  0.00     0.028 C 
ATOM     10  C   LIG d   1      -6.598  93.673 116.965  0.00  0.00     0.006 C 
ENDBRANCH   8   9
BRANCH   8  11
ATOM     11  C   LIG d   1      -5.407  90.637 118.006  0.00  0.00     0.028 C 
ATOM     12  C   LIG d   1      -6.681  90.154 117.295  0.00  0.00     0.006 C 
ENDBRANCH   8  11
ENDBRANCH   7   8
ENDBRANCH   1   7
BRANCH   6  13
ATOM     13  N   LIG d   1      -8.049  94.884 120.011  0.00  0.00    -0.311 N 
ATOM     14  C   LIG d   1      -8.940  95.569 119.297  0.00  0.00     0.210 C 
ATOM     15  C   LIG d   1      -8.439  96.910 118.752  0.00  0.00     0.109 C 
ATOM     16  O   LIG d   1     -10.109  95.209 119.092  0.00  0.00    -0.276 OA
ATOM     17  H   LIG d   1      -7.134  95.265 120.155  0.00  0.00     0.149 HD
ENDBRANCH   6  13
BRANCH   5  18
ATOM     18  N   LIG d   1     -10.051  94.373 122.261  0.00  0.00     0.381 N 
ATOM     19  H   LIG d   1     -10.737  93.755 122.645  0.00  0.00    -0.090 HD
ATOM     20  H   LIG d   1     -10.374  94.683 121.361  0.00  0.00    -0.090 HD
ATOM     21  H   LIG d   1      -9.924  95.156 122.864  0.00  0.00    -0.090 HD
ENDBRANCH   5  18
BRANCH   3  22
ATOM     22  C   LIG d   1      -7.586  90.416 123.358  0.00  0.00     0.382 C 
ATOM     23  O   LIG d   1      -6.470  90.367 123.930  0.00  0.00    -0.241 OA
ATOM     24  O   LIG d   1      -8.435  89.536 123.594  0.00  0.00    -0.241 OA
ENDBRANCH   3  22
TORSDOF 7
ENDMDL
MODEL 9
REMARK VINA RESULT:      -4.0      3.019      4.675
REMARK  7 active torsions:
REMARK  status: ('A' for Active; 'I' for Inactive)
REMARK    1  A    between atoms: C_2  and  C_3 
REMARK    2  A    between atoms: C_3  and  O_6 
REMARK    3  A    between atoms: C_3  and  C_4 
REMARK    4  A    between atoms: C_7  and  O_6 
REMARK    5  A    between atoms: C_9  and  C_10 
REMARK    6  A    between atoms: N_15  and  C_14 
REMARK    7  A    between atoms: N_20  and  C_19 
REMARK       I    between atoms: C_22  and  N_20 
ROOT
ATOM      1  C   LIG d   1      -4.959  92.783 119.211  0.00  0.00     0.161 C 
ATOM      2  C   LIG d   1      -5.269  91.604 118.513  0.00  0.00     0.016 C 
ATOM      3  C   LIG d   1      -6.093  91.573 117.364  0.00  0.00     0.038 C 
ATOM      4  C   LIG d   1      -6.543  92.748 116.743  0.00  0.00     0.028 C 
ATOM      5  C   LIG d   1      -6.673  93.928 117.700  0.00  0.00    -0.047 C 
ATOM      6  C   LIG d   1      -5.350  94.087 118.484  0.00  0.00     0.091 C 
ENDROOT
BRANCH   1   7
ATOM      7  O   LIG d   1      -3.558  92.798 119.547  0.00  0.00    -0.368 OA
BRANCH   7   8
ATOM      8  C   LIG d   1      -2.763  91.712 119.013  0.00  0.00     0.119 C 
BRANCH   8   9
ATOM      9  C   LIG d   1      -1.876  91.181 120.156  0.00  0.00     0.028 C 
ATOM     10  C   LIG d   1      -0.837  90.159 119.666  0.00  0.00     0.006 C 
ENDBRANCH   8   9
BRANCH   8  11
ATOM     11  C   LIG d   1      -1.788  92.210 117.942  0.00  0.00     0.028 C 
ATOM     12  C   LIG d   1      -1.460  93.705 118.083  0.00  0.00     0.006 C 
ENDBRANCH   8  11
ENDBRANCH   7   8
ENDBRANCH   1   7
BRANCH   6  13
ATOM     13  N   LIG d   1      -5.422  95.166 119.503  0.00  0.00    -0.311 N 
ATOM     14  C   LIG d   1      -4.532  96.154 119.588  0.00  0.00     0.210 C 
ATOM     15  C   LIG d   1      -4.780  97.152 120.724  0.00  0.00     0.109 C 
ATOM     16  O   LIG d   1      -3.580  96.317 118.810  0.00  0.00    -0.276 OA
ATOM     17  H   LIG d   1      -6.180  95.129 120.155  0.00  0.00     0.149 HD
ENDBRANCH   6  13
BRANCH   5  18
ATOM     18  N   LIG d   1      -7.017  95.117 116.898  0.00  0.00     0.381 N 
ATOM     19  H   LIG d   1      -7.044  94.874 115.928  0.00  0.00    -0.090 HD
ATOM     20  H   LIG d   1      -6.305  95.814 117.029  0.00  0.00    -0.090 HD
ATOM     21  H   LIG d   1      -7.901  95.477 117.183  0.00  0.00    -0.090 HD
ENDBRANCH   5  18
BRANCH   3  22
ATOM     22  C   LIG d   1      -6.507  90.355 116.848  0.00  0.00     0.382 C 
ATOM     23  O   LIG d   1      -5.691  89.407 116.746  0.00  0.00    -0.241 OA
ATOM     24  O   LIG d   1      -7.675  90.205 116.442  0.00  0.00    -0.241 OA
ENDBRANCH   3  22
TORSDOF 7
ENDMDL
