MODEL 1
REMARK VINA RESULT:      -4.7      0.000      0.000
REMARK  7 active torsions:
REMARK  status: ('A' for Active; 'I' for Inactive)
REMARK    1  A    between atoms: C_2  and  C_3 
REMARK    2  A    between atoms: C_3  and  O_6 
REMARK    3  A    between atoms: C_3  and  C_4 
REMARK    4  A    between atoms: C_7  and  O_6 
REMARK    5  A    between atoms: C_9  and  C_10 
REMARK    6  A    between atoms: N_15  and  C_14 
REMARK    7  A    between atoms: N_20  and  C_19 
REMARK       I    between atoms: C_22  and  N_20 
ROOT
ATOM      1  C   LIG d   1      -4.305  93.291 118.314  0.00  0.00     0.161 C 
ATOM      2  C   LIG d   1      -5.451  94.099 118.227  0.00  0.00     0.016 C 
ATOM      3  C   LIG d   1      -6.648  93.687 117.598  0.00  0.00     0.038 C 
ATOM      4  C   LIG d   1      -6.831  92.373 117.141  0.00  0.00     0.028 C 
ATOM      5  C   LIG d   1      -5.530  91.679 116.755  0.00  0.00    -0.047 C 
ATOM      6  C   LIG d   1      -4.523  91.815 117.920  0.00  0.00     0.091 C 
ENDROOT
BRANCH   1   7
ATOM      7  O   LIG d   1      -3.745  93.378 119.639  0.00  0.00    -0.368 OA
BRANCH   7   8
ATOM      8  C   LIG d   1      -4.100  92.311 120.553  0.00  0.00     0.119 C 
BRANCH   8   9
ATOM      9  C   LIG d   1      -5.029  92.910 121.626  0.00  0.00     0.028 C 
ATOM     10  C   LIG d   1      -6.501  92.519 121.413  0.00  0.00     0.006 C 
ENDBRANCH   8   9
BRANCH   8  11
ATOM     11  C   LIG d   1      -2.874  91.801 121.317  0.00  0.00     0.028 C 
ATOM     12  C   LIG d   1      -1.548  92.224 120.665  0.00  0.00     0.006 C 
ENDBRANCH   8  11
ENDBRANCH   7   8
ENDBRANCH   1   7
BRANCH   6  13
ATOM     13  N   LIG d   1      -3.195  91.236 117.592  0.00  0.00    -0.311 N 
ATOM     14  C   LIG d   1      -2.828  90.002 117.934  0.00  0.00     0.210 C 
ATOM     15  C   LIG d   1      -1.408  89.610 117.515  0.00  0.00     0.109 C 
ATOM     16  O   LIG d   1      -3.556  89.183 118.515  0.00  0.00    -0.276 OA
ATOM     17  H   LIG d   1      -2.552  91.821 117.094  0.00  0.00     0.149 HD
ENDBRANCH   6  13
BRANCH   5  18
ATOM     18  N   LIG d   1      -5.852  90.277 116.430  0.00  0.00     0.381 N 
ATOM     19  H   LIG d   1      -6.645  89.979 116.962  0.00  0.00    -0.090 HD
ATOM     20  H   LIG d   1      -5.070  89.697 116.679  0.00  0.00    -0.090 HD
ATOM     21  H   LIG d   1      -6.044  90.188 115.456  0.00  0.00    -0.090 HD
ENDBRANCH   5  18
BRANCH   3  22
ATOM     22  C   LIG d   1      -7.664  94.606 117.383  0.00  0.00     0.382 C 
ATOM     23  O   LIG d   1      -8.846  94.212 117.236  0.00  0.00    -0.241 OA
ATOM     24  O   LIG d   1      -7.406  95.822 117.291  0.00  0.00    -0.241 OA
ENDBRANCH   3  22
TORSDOF 7
ENDMDL
MODEL 2
REMARK VINA RESULT:      -4.6      2.044      5.141
REMARK  7 active torsions:
REMARK  status: ('A' for Active; 'I' for Inactive)
REMARK    1  A    between atoms: C_2  and  C_3 
REMARK    2  A    between atoms: C_3  and  O_6 
REMARK    3  A    between atoms: C_3  and  C_4 
REMARK    4  A    between atoms: C_7  and  O_6 
REMARK    5  A    between atoms: C_9  and  C_10 
REMARK    6  A    between atoms: N_15  and  C_14 
REMARK    7  A    between atoms: N_20  and  C_19 
REMARK       I    between atoms: C_22  and  N_20 
ROOT
ATOM      1  C   LIG d   1      -5.591  92.148 119.671  0.00  0.00     0.161 C 
ATOM      2  C   LIG d   1      -4.384  91.526 119.314  0.00  0.00     0.016 C 
ATOM      3  C   LIG d   1      -4.210  90.791 118.118  0.00  0.00     0.038 C 
ATOM      4  C   LIG d   1      -5.195  90.757 117.120  0.00  0.00     0.028 C 
ATOM      5  C   LIG d   1      -6.610  90.949 117.657  0.00  0.00    -0.047 C 
ATOM      6  C   LIG d   1      -6.642  92.215 118.543  0.00  0.00     0.091 C 
ENDROOT
BRANCH   1   7
ATOM      7  O   LIG d   1      -5.327  93.467 120.188  0.00  0.00    -0.368 OA
BRANCH   7   8
ATOM      8  C   LIG d   1      -4.287  94.219 119.515  0.00  0.00     0.119 C 
BRANCH   8   9
ATOM      9  C   LIG d   1      -3.445  94.919 120.600  0.00  0.00     0.028 C 
ATOM     10  C   LIG d   1      -2.155  94.149 120.928  0.00  0.00     0.006 C 
ENDBRANCH   8   9
BRANCH   8  11
ATOM     11  C   LIG d   1      -4.878  95.350 118.668  0.00  0.00     0.028 C 
ATOM     12  C   LIG d   1      -4.534  96.745 119.214  0.00  0.00     0.006 C 
ENDBRANCH   8  11
ENDBRANCH   7   8
ENDBRANCH   1   7
BRANCH   6  13
ATOM     13  N   LIG d   1      -7.969  92.429 119.177  0.00  0.00    -0.311 N 
ATOM     14  C   LIG d   1      -8.709  93.519 118.979  0.00  0.00     0.210 C 
ATOM     15  C   LIG d   1     -10.036  93.548 119.745  0.00  0.00     0.109 C 
ATOM     16  O   LIG d   1      -8.407  94.450 118.217  0.00  0.00    -0.276 OA
ATOM     17  H   LIG d   1      -8.305  91.709 119.787  0.00  0.00     0.149 HD
ENDBRANCH   6  13
BRANCH   5  18
ATOM     18  N   LIG d   1      -7.519  91.030 116.499  0.00  0.00     0.381 N 
ATOM     19  H   LIG d   1      -7.859  90.117 116.271  0.00  0.00    -0.090 HD
ATOM     20  H   LIG d   1      -7.009  91.383 115.709  0.00  0.00    -0.090 HD
ATOM     21  H   LIG d   1      -8.284  91.633 116.708  0.00  0.00    -0.090 HD
ENDBRANCH   5  18
BRANCH   3  22
ATOM     22  C   LIG d   1      -3.055  90.048 117.929  0.00  0.00     0.382 C 
ATOM     23  O   LIG d   1      -1.932  90.599 118.026  0.00  0.00    -0.241 OA
ATOM     24  O   LIG d   1      -3.123  88.843 117.620  0.00  0.00    -0.241 OA
ENDBRANCH   3  22
TORSDOF 7
ENDMDL
MODEL 3
REMARK VINA RESULT:      -4.5      2.772      5.091
REMARK  7 active torsions:
REMARK  status: ('A' for Active; 'I' for Inactive)
REMARK    1  A    between atoms: C_2  and  C_3 
REMARK    2  A    between atoms: C_3  and  O_6 
REMARK    3  A    between atoms: C_3  and  C_4 
REMARK    4  A    between atoms: C_7  and  O_6 
REMARK    5  A    between atoms: C_9  and  C_10 
REMARK    6  A    between atoms: N_15  and  C_14 
REMARK    7  A    between atoms: N_20  and  C_19 
REMARK       I    between atoms: C_22  and  N_20 
ROOT
ATOM      1  C   LIG d   1      -6.563  92.769 119.546  0.00  0.00     0.161 C 
ATOM      2  C   LIG d   1      -6.192  91.673 118.750  0.00  0.00     0.016 C 
ATOM      3  C   LIG d   1      -6.613  91.507 117.410  0.00  0.00     0.038 C 
ATOM      4  C   LIG d   1      -7.316  92.509 116.724  0.00  0.00     0.028 C 
ATOM      5  C   LIG d   1      -8.142  93.405 117.641  0.00  0.00    -0.047 C 
ATOM      6  C   LIG d   1      -7.238  93.927 118.781  0.00  0.00     0.091 C 
ENDROOT
BRANCH   1   7
ATOM      7  O   LIG d   1      -5.419  93.252 120.277  0.00  0.00    -0.368 OA
BRANCH   7   8
ATOM      8  C   LIG d   1      -4.413  93.948 119.500  0.00  0.00     0.119 C 
BRANCH   8   9
ATOM      9  C   LIG d   1      -3.159  93.054 119.459  0.00  0.00     0.028 C 
ATOM     10  C   LIG d   1      -2.998  92.211 120.735  0.00  0.00     0.006 C 
ENDBRANCH   8   9
BRANCH   8  11
ATOM     11  C   LIG d   1      -3.969  95.240 120.193  0.00  0.00     0.028 C 
ATOM     12  C   LIG d   1      -4.876  95.626 121.372  0.00  0.00     0.006 C 
ENDBRANCH   8  11
ENDBRANCH   7   8
ENDBRANCH   1   7
BRANCH   6  13
ATOM     13  N   LIG d   1      -7.988  94.744 119.770  0.00  0.00    -0.311 N 
ATOM     14  C   LIG d   1      -8.107  96.068 119.688  0.00  0.00     0.210 C 
ATOM     15  C   LIG d   1      -8.905  96.717 120.823  0.00  0.00     0.109 C 
ATOM     16  O   LIG d   1      -7.655  96.762 118.765  0.00  0.00    -0.276 OA
ATOM     17  H   LIG d   1      -8.413  94.257 120.535  0.00  0.00     0.149 HD
ENDBRANCH   6  13
BRANCH   5  18
ATOM     18  N   LIG d   1      -8.710  94.486 116.813  0.00  0.00     0.381 N 
ATOM     19  H   LIG d   1      -8.854  94.157 115.879  0.00  0.00    -0.090 HD
ATOM     20  H   LIG d   1      -8.058  95.249 116.782  0.00  0.00    -0.090 HD
ATOM     21  H   LIG d   1      -9.575  94.794 117.201  0.00  0.00    -0.090 HD
ENDBRANCH   5  18
BRANCH   3  22
ATOM     22  C   LIG d   1      -6.365  90.310 116.755  0.00  0.00     0.382 C 
ATOM     23  O   LIG d   1      -7.320  89.564 116.430  0.00  0.00    -0.241 OA
ATOM     24  O   LIG d   1      -5.196  89.946 116.526  0.00  0.00    -0.241 OA
ENDBRANCH   3  22
TORSDOF 7
ENDMDL
MODEL 4
REMARK VINA RESULT:      -4.4      2.650      4.476
REMARK  7 active torsions:
REMARK  status: ('A' for Active; 'I' for Inactive)
REMARK    1  A    between atoms: C_2  and  C_3 
REMARK    2  A    between atoms: C_3  and  O_6 
REMARK    3  A    between atoms: C_3  and  C_4 
REMARK    4  A    between atoms: C_7  and  O_6 
REMARK    5  A    between atoms: C_9  and  C_10 
REMARK    6  A    between atoms: N_15  and  C_14 
REMARK    7  A    between atoms: N_20  and  C_19 
REMARK       I    between atoms: C_22  and  N_20 
ROOT
ATOM      1  C   LIG d   1      -3.643  91.627 119.680  0.00  0.00     0.161 C 
ATOM      2  C   LIG d   1      -4.420  90.948 118.727  0.00  0.00     0.016 C 
ATOM      3  C   LIG d   1      -5.192  91.606 117.741  0.00  0.00     0.038 C 
ATOM      4  C   LIG d   1      -5.119  92.993 117.546  0.00  0.00     0.028 C 
ATOM      5  C   LIG d   1      -4.739  93.763 118.806  0.00  0.00    -0.047 C 
ATOM      6  C   LIG d   1      -3.463  93.136 119.412  0.00  0.00     0.091 C 
ENDROOT
BRANCH   1   7
ATOM      7  O   LIG d   1      -2.359  90.984 119.810  0.00  0.00    -0.368 OA
BRANCH   7   8
ATOM      8  C   LIG d   1      -1.954  90.141 118.704  0.00  0.00     0.119 C 
BRANCH   8   9
ATOM      9  C   LIG d   1      -1.422  88.822 119.298  0.00  0.00     0.028 C 
ATOM     10  C   LIG d   1      -2.478  87.704 119.285  0.00  0.00     0.006 C 
ENDBRANCH   8   9
BRANCH   8  11
ATOM     11  C   LIG d   1      -0.771  90.748 117.943  0.00  0.00     0.028 C 
ATOM     12  C   LIG d   1       0.184  89.685 117.379  0.00  0.00     0.006 C 
ENDBRANCH   8  11
ENDBRANCH   7   8
ENDBRANCH   1   7
BRANCH   6  13
ATOM     13  N   LIG d   1      -3.070  93.777 120.694  0.00  0.00    -0.311 N 
ATOM     14  C   LIG d   1      -1.813  94.097 120.999  0.00  0.00     0.210 C 
ATOM     15  C   LIG d   1      -1.625  94.731 122.381  0.00  0.00     0.109 C 
ATOM     16  O   LIG d   1      -0.842  93.945 120.243  0.00  0.00    -0.276 OA
ATOM     17  H   LIG d   1      -3.800  93.964 121.353  0.00  0.00     0.149 HD
ENDBRANCH   6  13
BRANCH   5  18
ATOM     18  N   LIG d   1      -4.564  95.178 118.428  0.00  0.00     0.381 N 
ATOM     19  H   LIG d   1      -5.408  95.527 118.020  0.00  0.00    -0.090 HD
ATOM     20  H   LIG d   1      -3.832  95.244 117.742  0.00  0.00    -0.090 HD
ATOM     21  H   LIG d   1      -4.326  95.719 119.230  0.00  0.00    -0.090 HD
ENDBRANCH   5  18
BRANCH   3  22
ATOM     22  C   LIG d   1      -6.080  90.878 116.964  0.00  0.00     0.382 C 
ATOM     23  O   LIG d   1      -7.265  91.269 116.832  0.00  0.00    -0.241 OA
ATOM     24  O   LIG d   1      -5.723  89.810 116.430  0.00  0.00    -0.241 OA
ENDBRANCH   3  22
TORSDOF 7
ENDMDL
MODEL 5
REMARK VINA RESULT:      -4.3      2.821      5.033
REMARK  7 active torsions:
REMARK  status: ('A' for Active; 'I' for Inactive)
REMARK    1  A    between atoms: C_2  and  C_3 
REMARK    2  A    between atoms: C_3  and  O_6 
REMARK    3  A    between atoms: C_3  and  C_4 
REMARK    4  A    between atoms: C_7  and  O_6 
REMARK    5  A    between atoms: C_9  and  C_10 
REMARK    6  A    between atoms: N_15  and  C_14 
REMARK    7  A    between atoms: N_20  and  C_19 
REMARK       I    between atoms: C_22  and  N_20 
ROOT
ATOM      1  C   LIG d   1      -6.216  92.446 119.997  0.00  0.00     0.161 C 
ATOM      2  C   LIG d   1      -7.620  92.409 119.990  0.00  0.00     0.016 C 
ATOM      3  C   LIG d   1      -8.428  93.403 120.588  0.00  0.00     0.038 C 
ATOM      4  C   LIG d   1      -7.884  94.588 121.107  0.00  0.00     0.028 C 
ATOM      5  C   LIG d   1      -6.444  94.434 121.587  0.00  0.00    -0.047 C 
ATOM      6  C   LIG d   1      -5.606  93.786 120.460  0.00  0.00     0.091 C 
ENDROOT
BRANCH   1   7
ATOM      7  O   LIG d   1      -5.711  92.090 118.695  0.00  0.00    -0.368 OA
BRANCH   7   8
ATOM      8  C   LIG d   1      -6.686  92.043 117.624  0.00  0.00     0.119 C 
BRANCH   8   9
ATOM      9  C   LIG d   1      -6.448  90.738 116.839  0.00  0.00     0.028 C 
ATOM     10  C   LIG d   1      -4.953  90.416 116.674  0.00  0.00     0.006 C 
ENDBRANCH   8   9
BRANCH   8  11
ATOM     11  C   LIG d   1      -6.459  93.171 116.613  0.00  0.00     0.028 C 
ATOM     12  C   LIG d   1      -7.117  94.493 117.039  0.00  0.00     0.006 C 
ENDBRANCH   8  11
ENDBRANCH   7   8
ENDBRANCH   1   7
BRANCH   6  13
ATOM     13  N   LIG d   1      -4.204  93.522 120.877  0.00  0.00    -0.311 N 
ATOM     14  C   LIG d   1      -3.208  94.384 120.684  0.00  0.00     0.210 C 
ATOM     15  C   LIG d   1      -1.836  93.907 121.171  0.00  0.00     0.109 C 
ATOM     16  O   LIG d   1      -3.335  95.513 120.185  0.00  0.00    -0.276 OA
ATOM     17  H   LIG d   1      -4.017  92.643 121.318  0.00  0.00     0.149 HD
ENDBRANCH   6  13
BRANCH   5  18
ATOM     18  N   LIG d   1      -5.958  95.771 121.973  0.00  0.00     0.381 N 
ATOM     19  H   LIG d   1      -6.477  96.474 121.486  0.00  0.00    -0.090 HD
ATOM     20  H   LIG d   1      -4.991  95.854 121.710  0.00  0.00    -0.090 HD
ATOM     21  H   LIG d   1      -6.054  95.898 122.956  0.00  0.00    -0.090 HD
ENDBRANCH   5  18
BRANCH   3  22
ATOM     22  C   LIG d   1      -9.794  93.199 120.708  0.00  0.00     0.382 C 
ATOM     23  O   LIG d   1     -10.302  93.001 121.838  0.00  0.00    -0.241 OA
ATOM     24  O   LIG d   1     -10.519  93.165 119.695  0.00  0.00    -0.241 OA
ENDBRANCH   3  22
TORSDOF 7
ENDMDL
MODEL 6
REMARK VINA RESULT:      -4.2      1.455      2.073
REMARK  7 active torsions:
REMARK  status: ('A' for Active; 'I' for Inactive)
REMARK    1  A    between atoms: C_2  and  C_3 
REMARK    2  A    between atoms: C_3  and  O_6 
REMARK    3  A    between atoms: C_3  and  C_4 
REMARK    4  A    between atoms: C_7  and  O_6 
REMARK    5  A    between atoms: C_9  and  C_10 
REMARK    6  A    between atoms: N_15  and  C_14 
REMARK    7  A    between atoms: N_20  and  C_19 
REMARK       I    between atoms: C_22  and  N_20 
ROOT
ATOM      1  C   LIG d   1      -4.741  93.466 118.711  0.00  0.00     0.161 C 
ATOM      2  C   LIG d   1      -5.972  94.124 118.551  0.00  0.00     0.016 C 
ATOM      3  C   LIG d   1      -7.026  93.620 117.754  0.00  0.00     0.038 C 
ATOM      4  C   LIG d   1      -6.975  92.341 117.180  0.00  0.00     0.028 C 
ATOM      5  C   LIG d   1      -5.556  91.860 116.898  0.00  0.00    -0.047 C 
ATOM      6  C   LIG d   1      -4.709  92.017 118.182  0.00  0.00     0.091 C 
ENDROOT
BRANCH   1   7
ATOM      7  O   LIG d   1      -4.344  93.503 120.096  0.00  0.00    -0.368 OA
BRANCH   7   8
ATOM      8  C   LIG d   1      -3.284  94.432 120.430  0.00  0.00     0.119 C 
BRANCH   8   9
ATOM      9  C   LIG d   1      -2.288  93.690 121.343  0.00  0.00     0.028 C 
ATOM     10  C   LIG d   1      -1.131  93.054 120.555  0.00  0.00     0.006 C 
ENDBRANCH   8   9
BRANCH   8  11
ATOM     11  C   LIG d   1      -3.811  95.600 121.270  0.00  0.00     0.028 C 
ATOM     12  C   LIG d   1      -2.853  96.802 121.285  0.00  0.00     0.006 C 
ENDBRANCH   8  11
ENDBRANCH   7   8
ENDBRANCH   1   7
BRANCH   6  13
ATOM     13  N   LIG d   1      -3.285  91.647 117.970  0.00  0.00    -0.311 N 
ATOM     14  C   LIG d   1      -2.813  90.415 118.150  0.00  0.00     0.210 C 
ATOM     15  C   LIG d   1      -1.311  90.254 117.897  0.00  0.00     0.109 C 
ATOM     16  O   LIG d   1      -3.502  89.433 118.465  0.00  0.00    -0.276 OA
ATOM     17  H   LIG d   1      -2.662  92.377 117.683  0.00  0.00     0.149 HD
ENDBRANCH   6  13
BRANCH   5  18
ATOM     18  N   LIG d   1      -5.643  90.464 116.431  0.00  0.00     0.381 N 
ATOM     19  H   LIG d   1      -6.358  89.981 116.938  0.00  0.00    -0.090 HD
ATOM     20  H   LIG d   1      -4.766  90.006 116.607  0.00  0.00    -0.090 HD
ATOM     21  H   LIG d   1      -5.847  90.443 115.455  0.00  0.00    -0.090 HD
ENDBRANCH   5  18
BRANCH   3  22
ATOM     22  C   LIG d   1      -8.130  94.417 117.492  0.00  0.00     0.382 C 
ATOM     23  O   LIG d   1      -9.130  93.931 116.909  0.00  0.00    -0.241 OA
ATOM     24  O   LIG d   1      -8.123  95.626 117.792  0.00  0.00    -0.241 OA
ENDBRANCH   3  22
TORSDOF 7
ENDMDL
MODEL 7
REMARK VINA RESULT:      -4.1      1.442      2.214
REMARK  7 active torsions:
REMARK  status: ('A' for Active; 'I' for Inactive)
REMARK    1  A    between atoms: C_2  and  C_3 
REMARK    2  A    between atoms: C_3  and  O_6 
REMARK    3  A    between atoms: C_3  and  C_4 
REMARK    4  A    between atoms: C_7  and  O_6 
REMARK    5  A    between atoms: C_9  and  C_10 
REMARK    6  A    between atoms: N_15  and  C_14 
REMARK    7  A    between atoms: N_20  and  C_19 
REMARK       I    between atoms: C_22  and  N_20 
ROOT
ATOM      1  C   LIG d   1      -5.413  92.626 119.657  0.00  0.00     0.161 C 
ATOM      2  C   LIG d   1      -6.742  93.081 119.678  0.00  0.00     0.016 C 
ATOM      3  C   LIG d   1      -7.703  92.721 118.706  0.00  0.00     0.038 C 
ATOM      4  C   LIG d   1      -7.438  91.755 117.724  0.00  0.00     0.028 C 
ATOM      5  C   LIG d   1      -5.961  91.650 117.360  0.00  0.00    -0.047 C 
ATOM      6  C   LIG d   1      -5.136  91.485 118.657  0.00  0.00     0.091 C 
ENDROOT
BRANCH   1   7
ATOM      7  O   LIG d   1      -5.008  92.239 120.985  0.00  0.00    -0.368 OA
BRANCH   7   8
ATOM      8  C   LIG d   1      -4.130  93.160 121.678  0.00  0.00     0.119 C 
BRANCH   8   9
ATOM      9  C   LIG d   1      -2.761  92.469 121.830  0.00  0.00     0.028 C 
ATOM     10  C   LIG d   1      -2.883  90.938 121.914  0.00  0.00     0.006 C 
ENDBRANCH   8   9
BRANCH   8  11
ATOM     11  C   LIG d   1      -4.613  93.421 123.108  0.00  0.00     0.028 C 
ATOM     12  C   LIG d   1      -5.925  92.691 123.436  0.00  0.00     0.006 C 
ENDBRANCH   8  11
ENDBRANCH   7   8
ENDBRANCH   1   7
BRANCH   6  13
ATOM     13  N   LIG d   1      -3.673  91.459 118.399  0.00  0.00    -0.311 N 
ATOM     14  C   LIG d   1      -2.971  90.334 118.268  0.00  0.00     0.210 C 
ATOM     15  C   LIG d   1      -1.471  90.532 118.025  0.00  0.00     0.109 C 
ATOM     16  O   LIG d   1      -3.453  89.192 118.299  0.00  0.00    -0.276 OA
ATOM     17  H   LIG d   1      -3.206  92.342 118.328  0.00  0.00     0.149 HD
ENDBRANCH   6  13
BRANCH   5  18
ATOM     18  N   LIG d   1      -5.810  90.515 116.431  0.00  0.00     0.381 N 
ATOM     19  H   LIG d   1      -4.985  89.997 116.659  0.00  0.00    -0.090 HD
ATOM     20  H   LIG d   1      -5.710  90.871 115.496  0.00  0.00    -0.090 HD
ATOM     21  H   LIG d   1      -6.609  89.921 116.484  0.00  0.00    -0.090 HD
ENDBRANCH   5  18
BRANCH   3  22
ATOM     22  C   LIG d   1      -8.933  93.360 118.686  0.00  0.00     0.382 C 
ATOM     23  O   LIG d   1      -9.899  92.882 119.328  0.00  0.00    -0.241 OA
ATOM     24  O   LIG d   1      -9.102  94.385 117.997  0.00  0.00    -0.241 OA
ENDBRANCH   3  22
TORSDOF 7
ENDMDL
MODEL 8
REMARK VINA RESULT:      -4.1      2.535      5.291
REMARK  7 active torsions:
REMARK  status: ('A' for Active; 'I' for Inactive)
REMARK    1  A    between atoms: C_2  and  C_3 
REMARK    2  A    between atoms: C_3  and  O_6 
REMARK    3  A    between atoms: C_3  and  C_4 
REMARK    4  A    between atoms: C_7  and  O_6 
REMARK    5  A    between atoms: C_9  and  C_10 
REMARK    6  A    between atoms: N_15  and  C_14 
REMARK    7  A    between atoms: N_20  and  C_19 
REMARK       I    between atoms: C_22  and  N_20 
ROOT
ATOM      1  C   LIG d   1      -5.377  93.942 117.834  0.00  0.00     0.161 C 
ATOM      2  C   LIG d   1      -5.518  92.665 117.266  0.00  0.00     0.016 C 
ATOM      3  C   LIG d   1      -4.931  91.500 117.813  0.00  0.00     0.038 C 
ATOM      4  C   LIG d   1      -4.286  91.511 119.058  0.00  0.00     0.028 C 
ATOM      5  C   LIG d   1      -3.685  92.865 119.418  0.00  0.00    -0.047 C 
ATOM      6  C   LIG d   1      -4.769  93.955 119.253  0.00  0.00     0.091 C 
ENDROOT
BRANCH   1   7
ATOM      7  O   LIG d   1      -6.647  94.622 117.827  0.00  0.00    -0.368 OA
BRANCH   7   8
ATOM      8  C   LIG d   1      -7.501  94.392 118.975  0.00  0.00     0.119 C 
BRANCH   8   9
ATOM      9  C   LIG d   1      -8.667  93.497 118.513  0.00  0.00     0.028 C 
ATOM     10  C   LIG d   1      -9.717  93.285 119.616  0.00  0.00     0.006 C 
ENDBRANCH   8   9
BRANCH   8  11
ATOM     11  C   LIG d   1      -8.152  95.692 119.456  0.00  0.00     0.028 C 
ATOM     12  C   LIG d   1      -7.642  96.929 118.699  0.00  0.00     0.006 C 
ENDBRANCH   8  11
ENDBRANCH   7   8
ENDBRANCH   1   7
BRANCH   6  13
ATOM     13  N   LIG d   1      -4.243  95.322 119.504  0.00  0.00    -0.311 N 
ATOM     14  C   LIG d   1      -4.546  96.037 120.586  0.00  0.00     0.210 C 
ATOM     15  C   LIG d   1      -3.911  97.430 120.639  0.00  0.00     0.109 C 
ATOM     16  O   LIG d   1      -5.254  95.637 121.522  0.00  0.00    -0.276 OA
ATOM     17  H   LIG d   1      -3.635  95.711 118.810  0.00  0.00     0.149 HD
ENDBRANCH   6  13
BRANCH   5  18
ATOM     18  N   LIG d   1      -3.166  92.771 120.796  0.00  0.00     0.381 N 
ATOM     19  H   LIG d   1      -2.529  93.522 120.970  0.00  0.00    -0.090 HD
ATOM     20  H   LIG d   1      -2.667  91.905 120.897  0.00  0.00    -0.090 HD
ATOM     21  H   LIG d   1      -3.919  92.807 121.447  0.00  0.00    -0.090 HD
ENDBRANCH   5  18
BRANCH   3  22
ATOM     22  C   LIG d   1      -4.954  90.316 117.092  0.00  0.00     0.382 C 
ATOM     23  O   LIG d   1      -3.926  89.600 117.032  0.00  0.00    -0.241 OA
ATOM     24  O   LIG d   1      -5.976  89.977 116.466  0.00  0.00    -0.241 OA
ENDBRANCH   3  22
TORSDOF 7
ENDMDL
MODEL 9
REMARK VINA RESULT:      -4.0      2.358      4.868
REMARK  7 active torsions:
REMARK  status: ('A' for Active; 'I' for Inactive)
REMARK    1  A    between atoms: C_2  and  C_3 
REMARK    2  A    between atoms: C_3  and  O_6 
REMARK    3  A    between atoms: C_3  and  C_4 
REMARK    4  A    between atoms: C_7  and  O_6 
REMARK    5  A    between atoms: C_9  and  C_10 
REMARK    6  A    between atoms: N_15  and  C_14 
REMARK    7  A    between atoms: N_20  and  C_19 
REMARK       I    between atoms: C_22  and  N_20 
ROOT
ATOM      1  C   LIG d   1      -3.723  92.483 119.218  0.00  0.00     0.161 C 
ATOM      2  C   LIG d   1      -3.724  93.718 119.887  0.00  0.00     0.016 C 
ATOM      3  C   LIG d   1      -2.608  94.222 120.592  0.00  0.00     0.038 C 
ATOM      4  C   LIG d   1      -1.356  93.590 120.549  0.00  0.00     0.028 C 
ATOM      5  C   LIG d   1      -1.445  92.087 120.306  0.00  0.00    -0.047 C 
ATOM      6  C   LIG d   1      -2.332  91.831 119.066  0.00  0.00     0.091 C 
ENDROOT
BRANCH   1   7
ATOM      7  O   LIG d   1      -4.353  92.624 117.929  0.00  0.00    -0.368 OA
BRANCH   7   8
ATOM      8  C   LIG d   1      -5.799  92.537 117.914  0.00  0.00     0.119 C 
BRANCH   8   9
ATOM      9  C   LIG d   1      -6.171  91.081 117.571  0.00  0.00     0.028 C 
ATOM     10  C   LIG d   1      -5.296  90.501 116.447  0.00  0.00     0.006 C 
ENDBRANCH   8   9
BRANCH   8  11
ATOM     11  C   LIG d   1      -6.397  93.384 116.787  0.00  0.00     0.028 C 
ATOM     12  C   LIG d   1      -7.920  93.549 116.909  0.00  0.00     0.006 C 
ENDBRANCH   8  11
ENDBRANCH   7   8
ENDBRANCH   1   7
BRANCH   6  13
ATOM     13  N   LIG d   1      -2.540  90.382 118.808  0.00  0.00    -0.311 N 
ATOM     14  C   LIG d   1      -1.799  89.676 117.957  0.00  0.00     0.210 C 
ATOM     15  C   LIG d   1      -2.194  88.201 117.824  0.00  0.00     0.109 C 
ATOM     16  O   LIG d   1      -0.830  90.122 117.323  0.00  0.00    -0.276 OA
ATOM     17  H   LIG d   1      -3.285  89.933 119.304  0.00  0.00     0.149 HD
ENDBRANCH   6  13
BRANCH   5  18
ATOM     18  N   LIG d   1      -0.069  91.580 120.147  0.00  0.00     0.381 N 
ATOM     19  H   LIG d   1       0.061  91.240 119.214  0.00  0.00    -0.090 HD
ATOM     20  H   LIG d   1       0.071  90.815 120.783  0.00  0.00    -0.090 HD
ATOM     21  H   LIG d   1       0.587  92.305 120.338  0.00  0.00    -0.090 HD
ENDBRANCH   5  18
BRANCH   3  22
ATOM     22  C   LIG d   1      -2.748  95.352 121.384  0.00  0.00     0.382 C 
ATOM     23  O   LIG d   1      -3.192  95.247 122.553  0.00  0.00    -0.241 OA
ATOM     24  O   LIG d   1      -2.478  96.480 120.930  0.00  0.00    -0.241 OA
ENDBRANCH   3  22
TORSDOF 7
ENDMDL
