MODEL 1
REMARK VINA RESULT:      -5.1      0.000      0.000
REMARK  7 active torsions:
REMARK  status: ('A' for Active; 'I' for Inactive)
REMARK    1  A    between atoms: C_2  and  C_3 
REMARK    2  A    between atoms: C_3  and  O_6 
REMARK    3  A    between atoms: C_3  and  C_4 
REMARK    4  A    between atoms: C_7  and  O_6 
REMARK    5  A    between atoms: C_9  and  C_10 
REMARK    6  A    between atoms: N_15  and  C_14 
REMARK    7  A    between atoms: N_20  and  C_19 
REMARK       I    between atoms: C_22  and  N_20 
ROOT
ATOM      1  C   LIG d   1      -4.114  91.737 118.779  0.00  0.00     0.161 C 
ATOM      2  C   LIG d   1      -4.956  91.017 117.916  0.00  0.00     0.016 C 
ATOM      3  C   LIG d   1      -6.201  91.506 117.455  0.00  0.00     0.038 C 
ATOM      4  C   LIG d   1      -6.620  92.820 117.708  0.00  0.00     0.028 C 
ATOM      5  C   LIG d   1      -6.038  93.406 118.990  0.00  0.00    -0.047 C 
ATOM      6  C   LIG d   1      -4.504  93.217 118.977  0.00  0.00     0.091 C 
ENDROOT
BRANCH   1   7
ATOM      7  O   LIG d   1      -2.749  91.634 118.328  0.00  0.00    -0.368 OA
BRANCH   7   8
ATOM      8  C   LIG d   1      -1.906  90.708 119.056  0.00  0.00     0.119 C 
BRANCH   8   9
ATOM      9  C   LIG d   1      -0.758  91.521 119.683  0.00  0.00     0.028 C 
ATOM     10  C   LIG d   1       0.441  91.676 118.732  0.00  0.00     0.006 C 
ENDBRANCH   8   9
BRANCH   8  11
ATOM     11  C   LIG d   1      -1.227  89.712 118.110  0.00  0.00     0.028 C 
ATOM     12  C   LIG d   1      -1.985  88.379 118.006  0.00  0.00     0.006 C 
ENDBRANCH   8  11
ENDBRANCH   7   8
ENDBRANCH   1   7
BRANCH   6  13
ATOM     13  N   LIG d   1      -3.864  93.687 120.233  0.00  0.00    -0.311 N 
ATOM     14  C   LIG d   1      -2.902  94.608 120.266  0.00  0.00     0.210 C 
ATOM     15  C   LIG d   1      -2.366  94.933 121.664  0.00  0.00     0.109 C 
ATOM     16  O   LIG d   1      -2.464  95.209 119.274  0.00  0.00    -0.276 OA
ATOM     17  H   LIG d   1      -4.180  93.274 121.088  0.00  0.00     0.149 HD
ENDBRANCH   6  13
BRANCH   5  18
ATOM     18  N   LIG d   1      -6.446  94.822 119.059  0.00  0.00     0.381 N 
ATOM     19  H   LIG d   1      -5.907  95.296 119.757  0.00  0.00    -0.090 HD
ATOM     20  H   LIG d   1      -7.414  94.868 119.323  0.00  0.00    -0.090 HD
ATOM     21  H   LIG d   1      -6.314  95.258 118.174  0.00  0.00    -0.090 HD
ENDBRANCH   5  18
BRANCH   3  22
ATOM     22  C   LIG d   1      -7.058  90.662 116.765  0.00  0.00     0.382 C 
ATOM     23  O   LIG d   1      -6.674  89.516 116.431  0.00  0.00    -0.241 OA
ATOM     24  O   LIG d   1      -8.195  91.049 116.435  0.00  0.00    -0.241 OA
ENDBRANCH   3  22
TORSDOF 7
ENDMDL
MODEL 2
REMARK VINA RESULT:      -5.0      1.551      2.186
REMARK  7 active torsions:
REMARK  status: ('A' for Active; 'I' for Inactive)
REMARK    1  A    between atoms: C_2  and  C_3 
REMARK    2  A    between atoms: C_3  and  O_6 
REMARK    3  A    between atoms: C_3  and  C_4 
REMARK    4  A    between atoms: C_7  and  O_6 
REMARK    5  A    between atoms: C_9  and  C_10 
REMARK    6  A    between atoms: N_15  and  C_14 
REMARK    7  A    between atoms: N_20  and  C_19 
REMARK       I    between atoms: C_22  and  N_20 
ROOT
ATOM      1  C   LIG d   1      -5.064  92.452 119.740  0.00  0.00     0.161 C 
ATOM      2  C   LIG d   1      -5.441  91.473 118.806  0.00  0.00     0.016 C 
ATOM      3  C   LIG d   1      -6.402  91.694 117.792  0.00  0.00     0.038 C 
ATOM      4  C   LIG d   1      -6.942  92.965 117.548  0.00  0.00     0.028 C 
ATOM      5  C   LIG d   1      -6.969  93.860 118.782  0.00  0.00    -0.047 C 
ATOM      6  C   LIG d   1      -5.561  93.877 119.420  0.00  0.00     0.091 C 
ENDROOT
BRANCH   1   7
ATOM      7  O   LIG d   1      -3.632  92.446 119.903  0.00  0.00    -0.368 OA
BRANCH   7   8
ATOM      8  C   LIG d   1      -2.852  92.394 118.683  0.00  0.00     0.119 C 
BRANCH   8   9
ATOM      9  C   LIG d   1      -1.700  91.397 118.912  0.00  0.00     0.028 C 
ATOM     10  C   LIG d   1      -1.987  90.017 118.297  0.00  0.00     0.006 C 
ENDBRANCH   8   9
BRANCH   8  11
ATOM     11  C   LIG d   1      -2.175  93.737 118.396  0.00  0.00     0.028 C 
ATOM     12  C   LIG d   1      -0.896  93.593 117.557  0.00  0.00     0.006 C 
ENDBRANCH   8  11
ENDBRANCH   7   8
ENDBRANCH   1   7
BRANCH   6  13
ATOM     13  N   LIG d   1      -5.520  94.662 120.681  0.00  0.00    -0.311 N 
ATOM     14  C   LIG d   1      -4.778  95.757 120.839  0.00  0.00     0.210 C 
ATOM     15  C   LIG d   1      -4.866  96.403 122.226  0.00  0.00     0.109 C 
ATOM     16  O   LIG d   1      -4.081  96.273 119.953  0.00  0.00    -0.276 OA
ATOM     17  H   LIG d   1      -6.080  94.331 121.443  0.00  0.00     0.149 HD
ENDBRANCH   6  13
BRANCH   5  18
ATOM     18  N   LIG d   1      -7.427  95.195 118.355  0.00  0.00     0.381 N 
ATOM     19  H   LIG d   1      -7.335  95.843 119.112  0.00  0.00    -0.090 HD
ATOM     20  H   LIG d   1      -8.398  95.141 118.103  0.00  0.00    -0.090 HD
ATOM     21  H   LIG d   1      -6.891  95.506 117.575  0.00  0.00    -0.090 HD
ENDBRANCH   5  18
BRANCH   3  22
ATOM     22  C   LIG d   1      -6.860  90.626 117.035  0.00  0.00     0.382 C 
ATOM     23  O   LIG d   1      -6.043  89.889 116.432  0.00  0.00    -0.241 OA
ATOM     24  O   LIG d   1      -8.081  90.418 116.911  0.00  0.00    -0.241 OA
ENDBRANCH   3  22
TORSDOF 7
ENDMDL
MODEL 3
REMARK VINA RESULT:      -4.9      2.247      4.970
REMARK  7 active torsions:
REMARK  status: ('A' for Active; 'I' for Inactive)
REMARK    1  A    between atoms: C_2  and  C_3 
REMARK    2  A    between atoms: C_3  and  O_6 
REMARK    3  A    between atoms: C_3  and  C_4 
REMARK    4  A    between atoms: C_7  and  O_6 
REMARK    5  A    between atoms: C_9  and  C_10 
REMARK    6  A    between atoms: N_15  and  C_14 
REMARK    7  A    between atoms: N_20  and  C_19 
REMARK       I    between atoms: C_22  and  N_20 
ROOT
ATOM      1  C   LIG d   1      -5.944  93.591 118.964  0.00  0.00     0.161 C 
ATOM      2  C   LIG d   1      -6.688  92.590 118.317  0.00  0.00     0.016 C 
ATOM      3  C   LIG d   1      -6.100  91.473 117.680  0.00  0.00     0.038 C 
ATOM      4  C   LIG d   1      -4.727  91.202 117.777  0.00  0.00     0.028 C 
ATOM      5  C   LIG d   1      -3.877  92.449 117.989  0.00  0.00    -0.047 C 
ATOM      6  C   LIG d   1      -4.453  93.254 119.176  0.00  0.00     0.091 C 
ENDROOT
BRANCH   1   7
ATOM      7  O   LIG d   1      -6.565  93.927 120.220  0.00  0.00    -0.368 OA
BRANCH   7   8
ATOM      8  C   LIG d   1      -7.282  95.185 120.261  0.00  0.00     0.119 C 
BRANCH   8   9
ATOM      9  C   LIG d   1      -8.748  94.873 120.618  0.00  0.00     0.028 C 
ATOM     10  C   LIG d   1      -8.918  94.462 122.090  0.00  0.00     0.006 C 
ENDBRANCH   8   9
BRANCH   8  11
ATOM     11  C   LIG d   1      -7.332  95.843 118.879  0.00  0.00     0.028 C 
ATOM     12  C   LIG d   1      -8.758  95.923 118.309  0.00  0.00     0.006 C 
ENDBRANCH   8  11
ENDBRANCH   7   8
ENDBRANCH   1   7
BRANCH   6  13
ATOM     13  N   LIG d   1      -3.730  94.533 119.398  0.00  0.00    -0.311 N 
ATOM     14  C   LIG d   1      -2.714  94.663 120.249  0.00  0.00     0.210 C 
ATOM     15  C   LIG d   1      -2.123  96.073 120.341  0.00  0.00     0.109 C 
ATOM     16  O   LIG d   1      -2.225  93.736 120.913  0.00  0.00    -0.276 OA
ATOM     17  H   LIG d   1      -4.041  95.329 118.877  0.00  0.00     0.149 HD
ENDBRANCH   6  13
BRANCH   5  18
ATOM     18  N   LIG d   1      -2.486  92.008 118.210  0.00  0.00     0.381 N 
ATOM     19  H   LIG d   1      -2.482  91.101 118.631  0.00  0.00    -0.090 HD
ATOM     20  H   LIG d   1      -2.038  92.650 118.840  0.00  0.00    -0.090 HD
ATOM     21  H   LIG d   1      -1.995  91.983 117.344  0.00  0.00    -0.090 HD
ENDBRANCH   5  18
BRANCH   3  22
ATOM     22  C   LIG d   1      -6.884  90.635 116.901  0.00  0.00     0.382 C 
ATOM     23  O   LIG d   1      -6.397  89.579 116.430  0.00  0.00    -0.241 OA
ATOM     24  O   LIG d   1      -8.059  90.944 116.627  0.00  0.00    -0.241 OA
ENDBRANCH   3  22
TORSDOF 7
ENDMDL
MODEL 4
REMARK VINA RESULT:      -4.9      2.381      4.650
REMARK  7 active torsions:
REMARK  status: ('A' for Active; 'I' for Inactive)
REMARK    1  A    between atoms: C_2  and  C_3 
REMARK    2  A    between atoms: C_3  and  O_6 
REMARK    3  A    between atoms: C_3  and  C_4 
REMARK    4  A    between atoms: C_7  and  O_6 
REMARK    5  A    between atoms: C_9  and  C_10 
REMARK    6  A    between atoms: N_15  and  C_14 
REMARK    7  A    between atoms: N_20  and  C_19 
REMARK       I    between atoms: C_22  and  N_20 
ROOT
ATOM      1  C   LIG d   1      -5.567  93.146 119.554  0.00  0.00     0.161 C 
ATOM      2  C   LIG d   1      -4.489  92.286 119.283  0.00  0.00     0.016 C 
ATOM      3  C   LIG d   1      -4.438  91.434 118.156  0.00  0.00     0.038 C 
ATOM      4  C   LIG d   1      -5.400  91.494 117.136  0.00  0.00     0.028 C 
ATOM      5  C   LIG d   1      -6.762  91.985 117.616  0.00  0.00    -0.047 C 
ATOM      6  C   LIG d   1      -6.573  93.307 118.395  0.00  0.00     0.091 C 
ENDROOT
BRANCH   1   7
ATOM      7  O   LIG d   1      -5.072  94.434 119.969  0.00  0.00    -0.368 OA
BRANCH   7   8
ATOM      8  C   LIG d   1      -3.679  94.484 120.365  0.00  0.00     0.119 C 
BRANCH   8   9
ATOM      9  C   LIG d   1      -3.618  95.122 121.766  0.00  0.00     0.028 C 
ATOM     10  C   LIG d   1      -4.984  95.660 122.226  0.00  0.00     0.006 C 
ENDBRANCH   8   9
BRANCH   8  11
ATOM     11  C   LIG d   1      -2.875  95.420 119.457  0.00  0.00     0.028 C 
ATOM     12  C   LIG d   1      -1.802  94.683 118.641  0.00  0.00     0.006 C 
ENDBRANCH   8  11
ENDBRANCH   7   8
ENDBRANCH   1   7
BRANCH   6  13
ATOM     13  N   LIG d   1      -7.847  93.811 118.972  0.00  0.00    -0.311 N 
ATOM     14  C   LIG d   1      -8.234  95.083 118.893  0.00  0.00     0.210 C 
ATOM     15  C   LIG d   1      -9.571  95.395 119.572  0.00  0.00     0.109 C 
ATOM     16  O   LIG d   1      -7.613  95.976 118.297  0.00  0.00    -0.276 OA
ATOM     17  H   LIG d   1      -8.427  93.148 119.446  0.00  0.00     0.149 HD
ENDBRANCH   6  13
BRANCH   5  18
ATOM     18  N   LIG d   1      -7.626  92.130 116.430  0.00  0.00     0.381 N 
ATOM     19  H   LIG d   1      -8.126  92.996 116.480  0.00  0.00    -0.090 HD
ATOM     20  H   LIG d   1      -8.295  91.380 116.421  0.00  0.00    -0.090 HD
ATOM     21  H   LIG d   1      -7.075  92.104 115.601  0.00  0.00    -0.090 HD
ENDBRANCH   5  18
BRANCH   3  22
ATOM     22  C   LIG d   1      -3.437  90.480 118.061  0.00  0.00     0.382 C 
ATOM     23  O   LIG d   1      -2.265  90.764 118.408  0.00  0.00    -0.241 OA
ATOM     24  O   LIG d   1      -3.681  89.352 117.591  0.00  0.00    -0.241 OA
ENDBRANCH   3  22
TORSDOF 7
ENDMDL
MODEL 5
REMARK VINA RESULT:      -4.8      2.358      3.761
REMARK  7 active torsions:
REMARK  status: ('A' for Active; 'I' for Inactive)
REMARK    1  A    between atoms: C_2  and  C_3 
REMARK    2  A    between atoms: C_3  and  O_6 
REMARK    3  A    between atoms: C_3  and  C_4 
REMARK    4  A    between atoms: C_7  and  O_6 
REMARK    5  A    between atoms: C_9  and  C_10 
REMARK    6  A    between atoms: N_15  and  C_14 
REMARK    7  A    between atoms: N_20  and  C_19 
REMARK       I    between atoms: C_22  and  N_20 
ROOT
ATOM      1  C   LIG d   1      -5.628  93.166 118.965  0.00  0.00     0.161 C 
ATOM      2  C   LIG d   1      -6.945  93.571 118.694  0.00  0.00     0.016 C 
ATOM      3  C   LIG d   1      -7.452  94.846 119.035  0.00  0.00     0.038 C 
ATOM      4  C   LIG d   1      -6.626  95.863 119.536  0.00  0.00     0.028 C 
ATOM      5  C   LIG d   1      -5.411  95.338 120.293  0.00  0.00    -0.047 C 
ATOM      6  C   LIG d   1      -4.681  94.300 119.411  0.00  0.00     0.091 C 
ENDROOT
BRANCH   1   7
ATOM      7  O   LIG d   1      -5.083  92.479 117.821  0.00  0.00    -0.368 OA
BRANCH   7   8
ATOM      8  C   LIG d   1      -5.227  91.038 117.814  0.00  0.00     0.119 C 
BRANCH   8   9
ATOM      9  C   LIG d   1      -3.820  90.431 117.979  0.00  0.00     0.028 C 
ATOM     10  C   LIG d   1      -3.539  89.986 119.424  0.00  0.00     0.006 C 
ENDBRANCH   8   9
BRANCH   8  11
ATOM     11  C   LIG d   1      -5.729  90.534 116.458  0.00  0.00     0.028 C 
ATOM     12  C   LIG d   1      -7.250  90.310 116.431  0.00  0.00     0.006 C 
ENDBRANCH   8  11
ENDBRANCH   7   8
ENDBRANCH   1   7
BRANCH   6  13
ATOM     13  N   LIG d   1      -3.527  93.674 120.109  0.00  0.00    -0.311 N 
ATOM     14  C   LIG d   1      -2.318  93.555 119.564  0.00  0.00     0.210 C 
ATOM     15  C   LIG d   1      -1.276  92.860 120.447  0.00  0.00     0.109 C 
ATOM     16  O   LIG d   1      -2.000  93.987 118.446  0.00  0.00    -0.276 OA
ATOM     17  H   LIG d   1      -3.689  93.324 121.033  0.00  0.00     0.149 HD
ENDBRANCH   6  13
BRANCH   5  18
ATOM     18  N   LIG d   1      -4.567  96.497 120.640  0.00  0.00     0.381 N 
ATOM     19  H   LIG d   1      -4.832  96.852 121.538  0.00  0.00    -0.090 HD
ATOM     20  H   LIG d   1      -4.713  97.221 119.959  0.00  0.00    -0.090 HD
ATOM     21  H   LIG d   1      -3.608  96.229 120.651  0.00  0.00    -0.090 HD
ENDBRANCH   5  18
BRANCH   3  22
ATOM     22  C   LIG d   1      -8.810  95.102 118.911  0.00  0.00     0.382 C 
ATOM     23  O   LIG d   1      -9.205  96.070 118.217  0.00  0.00    -0.241 OA
ATOM     24  O   LIG d   1      -9.642  94.403 119.519  0.00  0.00    -0.241 OA
ENDBRANCH   3  22
TORSDOF 7
ENDMDL
MODEL 6
REMARK VINA RESULT:      -4.7      2.333      4.216
REMARK  7 active torsions:
REMARK  status: ('A' for Active; 'I' for Inactive)
REMARK    1  A    between atoms: C_2  and  C_3 
REMARK    2  A    between atoms: C_3  and  O_6 
REMARK    3  A    between atoms: C_3  and  C_4 
REMARK    4  A    between atoms: C_7  and  O_6 
REMARK    5  A    between atoms: C_9  and  C_10 
REMARK    6  A    between atoms: N_15  and  C_14 
REMARK    7  A    between atoms: N_20  and  C_19 
REMARK       I    between atoms: C_22  and  N_20 
ROOT
ATOM      1  C   LIG d   1      -4.373  92.738 119.205  0.00  0.00     0.161 C 
ATOM      2  C   LIG d   1      -5.422  93.666 119.318  0.00  0.00     0.016 C 
ATOM      3  C   LIG d   1      -6.602  93.605 118.541  0.00  0.00     0.038 C 
ATOM      4  C   LIG d   1      -6.880  92.517 117.700  0.00  0.00     0.028 C 
ATOM      5  C   LIG d   1      -5.629  91.819 117.179  0.00  0.00    -0.047 C 
ATOM      6  C   LIG d   1      -4.707  91.483 118.373  0.00  0.00     0.091 C 
ENDROOT
BRANCH   1   7
ATOM      7  O   LIG d   1      -3.911  92.362 120.517  0.00  0.00    -0.368 OA
BRANCH   7   8
ATOM      8  C   LIG d   1      -2.630  92.904 120.922  0.00  0.00     0.119 C 
BRANCH   8   9
ATOM      9  C   LIG d   1      -2.908  94.111 121.840  0.00  0.00     0.028 C 
ATOM     10  C   LIG d   1      -2.063  95.340 121.465  0.00  0.00     0.006 C 
ENDBRANCH   8   9
BRANCH   8  11
ATOM     11  C   LIG d   1      -1.863  93.474 119.725  0.00  0.00     0.028 C 
ATOM     12  C   LIG d   1      -0.609  92.656 119.378  0.00  0.00     0.006 C 
ENDBRANCH   8  11
ENDBRANCH   7   8
ENDBRANCH   1   7
BRANCH   6  13
ATOM     13  N   LIG d   1      -3.422  90.873 117.943  0.00  0.00    -0.311 N 
ATOM     14  C   LIG d   1      -2.940  89.741 118.453  0.00  0.00     0.210 C 
ATOM     15  C   LIG d   1      -1.589  89.298 117.883  0.00  0.00     0.109 C 
ATOM     16  O   LIG d   1      -3.520  89.044 119.300  0.00  0.00    -0.276 OA
ATOM     17  H   LIG d   1      -2.901  91.356 117.237  0.00  0.00     0.149 HD
ENDBRANCH   6  13
BRANCH   5  18
ATOM     18  N   LIG d   1      -6.064  90.625 116.430  0.00  0.00     0.381 N 
ATOM     19  H   LIG d   1      -5.953  90.781 115.448  0.00  0.00    -0.090 HD
ATOM     20  H   LIG d   1      -7.038  90.462 116.615  0.00  0.00    -0.090 HD
ATOM     21  H   LIG d   1      -5.529  89.833 116.710  0.00  0.00    -0.090 HD
ENDBRANCH   5  18
BRANCH   3  22
ATOM     22  C   LIG d   1      -7.501  94.660 118.572  0.00  0.00     0.382 C 
ATOM     23  O   LIG d   1      -8.730  94.441 118.446  0.00  0.00    -0.241 OA
ATOM     24  O   LIG d   1      -7.094  95.833 118.679  0.00  0.00    -0.241 OA
ENDBRANCH   3  22
TORSDOF 7
ENDMDL
MODEL 7
REMARK VINA RESULT:      -4.7      2.759      4.517
REMARK  7 active torsions:
REMARK  status: ('A' for Active; 'I' for Inactive)
REMARK    1  A    between atoms: C_2  and  C_3 
REMARK    2  A    between atoms: C_3  and  O_6 
REMARK    3  A    between atoms: C_3  and  C_4 
REMARK    4  A    between atoms: C_7  and  O_6 
REMARK    5  A    between atoms: C_9  and  C_10 
REMARK    6  A    between atoms: N_15  and  C_14 
REMARK    7  A    between atoms: N_20  and  C_19 
REMARK       I    between atoms: C_22  and  N_20 
ROOT
ATOM      1  C   LIG d   1      -4.243  93.049 119.304  0.00  0.00     0.161 C 
ATOM      2  C   LIG d   1      -5.362  93.894 119.381  0.00  0.00     0.016 C 
ATOM      3  C   LIG d   1      -6.536  93.703 118.615  0.00  0.00     0.038 C 
ATOM      4  C   LIG d   1      -6.728  92.559 117.826  0.00  0.00     0.028 C 
ATOM      5  C   LIG d   1      -5.426  91.940 117.329  0.00  0.00    -0.047 C 
ATOM      6  C   LIG d   1      -4.477  91.733 118.532  0.00  0.00     0.091 C 
ENDROOT
BRANCH   1   7
ATOM      7  O   LIG d   1      -3.749  92.771 120.629  0.00  0.00    -0.368 OA
BRANCH   7   8
ATOM      8  C   LIG d   1      -4.480  91.775 121.386  0.00  0.00     0.119 C 
BRANCH   8   9
ATOM      9  C   LIG d   1      -5.094  92.482 122.609  0.00  0.00     0.028 C 
ATOM     10  C   LIG d   1      -6.567  92.100 122.831  0.00  0.00     0.006 C 
ENDBRANCH   8   9
BRANCH   8  11
ATOM     11  C   LIG d   1      -3.540  90.712 121.962  0.00  0.00     0.028 C 
ATOM     12  C   LIG d   1      -2.056  91.083 121.810  0.00  0.00     0.006 C 
ENDBRANCH   8  11
ENDBRANCH   7   8
ENDBRANCH   1   7
BRANCH   6  13
ATOM     13  N   LIG d   1      -3.148  91.210 118.122  0.00  0.00    -0.311 N 
ATOM     14  C   LIG d   1      -2.751  89.959 118.350  0.00  0.00     0.210 C 
ATOM     15  C   LIG d   1      -1.336  89.631 117.863  0.00  0.00     0.109 C 
ATOM     16  O   LIG d   1      -3.448  89.081 118.881  0.00  0.00    -0.276 OA
ATOM     17  H   LIG d   1      -2.531  91.846 117.657  0.00  0.00     0.149 HD
ENDBRANCH   6  13
BRANCH   5  18
ATOM     18  N   LIG d   1      -5.766  90.682 116.638  0.00  0.00     0.381 N 
ATOM     19  H   LIG d   1      -5.108  90.509 115.905  0.00  0.00    -0.090 HD
ATOM     20  H   LIG d   1      -6.679  90.773 116.228  0.00  0.00    -0.090 HD
ATOM     21  H   LIG d   1      -5.759  89.924 117.286  0.00  0.00    -0.090 HD
ENDBRANCH   5  18
BRANCH   3  22
ATOM     22  C   LIG d   1      -7.516  94.684 118.604  0.00  0.00     0.382 C 
ATOM     23  O   LIG d   1      -8.727  94.359 118.555  0.00  0.00    -0.241 OA
ATOM     24  O   LIG d   1      -7.203  95.889 118.597  0.00  0.00    -0.241 OA
ENDBRANCH   3  22
TORSDOF 7
ENDMDL
MODEL 8
REMARK VINA RESULT:      -4.2      1.601      4.611
REMARK  7 active torsions:
REMARK  status: ('A' for Active; 'I' for Inactive)
REMARK    1  A    between atoms: C_2  and  C_3 
REMARK    2  A    between atoms: C_3  and  O_6 
REMARK    3  A    between atoms: C_3  and  C_4 
REMARK    4  A    between atoms: C_7  and  O_6 
REMARK    5  A    between atoms: C_9  and  C_10 
REMARK    6  A    between atoms: N_15  and  C_14 
REMARK    7  A    between atoms: N_20  and  C_19 
REMARK       I    between atoms: C_22  and  N_20 
ROOT
ATOM      1  C   LIG d   1      -3.907  91.949 118.169  0.00  0.00     0.161 C 
ATOM      2  C   LIG d   1      -2.973  92.984 118.341  0.00  0.00     0.016 C 
ATOM      3  C   LIG d   1      -3.224  94.137 119.120  0.00  0.00     0.038 C 
ATOM      4  C   LIG d   1      -4.378  94.263 119.907  0.00  0.00     0.028 C 
ATOM      5  C   LIG d   1      -5.568  93.476 119.368  0.00  0.00    -0.047 C 
ATOM      6  C   LIG d   1      -5.128  92.017 119.109  0.00  0.00     0.091 C 
ENDROOT
BRANCH   1   7
ATOM      7  O   LIG d   1      -3.250  90.672 118.292  0.00  0.00    -0.368 OA
BRANCH   7   8
ATOM      8  C   LIG d   1      -1.937  90.688 118.904  0.00  0.00     0.119 C 
BRANCH   8   9
ATOM      9  C   LIG d   1      -1.037  89.734 118.094  0.00  0.00     0.028 C 
ATOM     10  C   LIG d   1      -1.623  88.316 117.995  0.00  0.00     0.006 C 
ENDBRANCH   8   9
BRANCH   8  11
ATOM     11  C   LIG d   1      -1.975  90.104 120.320  0.00  0.00     0.028 C 
ATOM     12  C   LIG d   1      -1.089  90.879 121.308  0.00  0.00     0.006 C 
ENDBRANCH   8  11
ENDBRANCH   7   8
ENDBRANCH   1   7
BRANCH   6  13
ATOM     13  N   LIG d   1      -6.210  91.198 118.502  0.00  0.00    -0.311 N 
ATOM     14  C   LIG d   1      -6.638  91.361 117.251  0.00  0.00     0.210 C 
ATOM     15  C   LIG d   1      -7.776  90.425 116.831  0.00  0.00     0.109 C 
ATOM     16  O   LIG d   1      -6.161  92.169 116.440  0.00  0.00    -0.276 OA
ATOM     17  H   LIG d   1      -6.631  90.498 119.080  0.00  0.00     0.149 HD
ENDBRANCH   6  13
BRANCH   5  18
ATOM     18  N   LIG d   1      -6.658  93.585 120.356  0.00  0.00     0.381 N 
ATOM     19  H   LIG d   1      -6.484  94.356 120.969  0.00  0.00    -0.090 HD
ATOM     20  H   LIG d   1      -6.683  92.744 120.906  0.00  0.00    -0.090 HD
ATOM     21  H   LIG d   1      -7.529  93.711 119.890  0.00  0.00    -0.090 HD
ENDBRANCH   5  18
BRANCH   3  22
ATOM     22  C   LIG d   1      -2.332  95.198 119.084  0.00  0.00     0.382 C 
ATOM     23  O   LIG d   1      -1.206  95.052 118.550  0.00  0.00    -0.241 OA
ATOM     24  O   LIG d   1      -2.622  96.285 119.618  0.00  0.00    -0.241 OA
ENDBRANCH   3  22
TORSDOF 7
ENDMDL
MODEL 9
REMARK VINA RESULT:      -4.2      2.048      4.181
REMARK  7 active torsions:
REMARK  status: ('A' for Active; 'I' for Inactive)
REMARK    1  A    between atoms: C_2  and  C_3 
REMARK    2  A    between atoms: C_3  and  O_6 
REMARK    3  A    between atoms: C_3  and  C_4 
REMARK    4  A    between atoms: C_7  and  O_6 
REMARK    5  A    between atoms: C_9  and  C_10 
REMARK    6  A    between atoms: N_15  and  C_14 
REMARK    7  A    between atoms: N_20  and  C_19 
REMARK       I    between atoms: C_22  and  N_20 
ROOT
ATOM      1  C   LIG d   1      -3.784  92.739 118.721  0.00  0.00     0.161 C 
ATOM      2  C   LIG d   1      -5.139  92.610 118.376  0.00  0.00     0.016 C 
ATOM      3  C   LIG d   1      -5.687  91.444 117.794  0.00  0.00     0.038 C 
ATOM      4  C   LIG d   1      -4.940  90.264 117.657  0.00  0.00     0.028 C 
ATOM      5  C   LIG d   1      -3.441  90.507 117.526  0.00  0.00    -0.047 C 
ATOM      6  C   LIG d   1      -2.978  91.424 118.681  0.00  0.00     0.091 C 
ENDROOT
BRANCH   1   7
ATOM      7  O   LIG d   1      -3.666  93.360 120.017  0.00  0.00    -0.368 OA
BRANCH   7   8
ATOM      8  C   LIG d   1      -3.105  94.695 120.036  0.00  0.00     0.119 C 
BRANCH   8   9
ATOM      9  C   LIG d   1      -1.775  94.627 120.811  0.00  0.00     0.028 C 
ATOM     10  C   LIG d   1      -1.821  93.615 121.968  0.00  0.00     0.006 C 
ENDBRANCH   8   9
BRANCH   8  11
ATOM     11  C   LIG d   1      -3.989  95.660 120.831  0.00  0.00     0.028 C 
ATOM     12  C   LIG d   1      -5.426  95.735 120.291  0.00  0.00     0.006 C 
ENDBRANCH   8  11
ENDBRANCH   7   8
ENDBRANCH   1   7
BRANCH   6  13
ATOM     13  N   LIG d   1      -1.539  91.781 118.580  0.00  0.00    -0.311 N 
ATOM     14  C   LIG d   1      -0.603  91.289 119.391  0.00  0.00     0.210 C 
ATOM     15  C   LIG d   1       0.815  91.803 119.127  0.00  0.00     0.109 C 
ATOM     16  O   LIG d   1      -0.809  90.452 120.283  0.00  0.00    -0.276 OA
ATOM     17  H   LIG d   1      -1.279  92.430 117.864  0.00  0.00     0.149 HD
ENDBRANCH   6  13
BRANCH   5  18
ATOM     18  N   LIG d   1      -2.774  89.192 117.529  0.00  0.00     0.381 N 
ATOM     19  H   LIG d   1      -3.094  88.651 118.308  0.00  0.00    -0.090 HD
ATOM     20  H   LIG d   1      -1.783  89.329 117.627  0.00  0.00    -0.090 HD
ATOM     21  H   LIG d   1      -2.967  88.709 116.679  0.00  0.00    -0.090 HD
ENDBRANCH   5  18
BRANCH   3  22
ATOM     22  C   LIG d   1      -6.984  91.463 117.306  0.00  0.00     0.382 C 
ATOM     23  O   LIG d   1      -7.637  90.395 117.219  0.00  0.00    -0.241 OA
ATOM     24  O   LIG d   1      -7.495  92.528 116.911  0.00  0.00    -0.241 OA
ENDBRANCH   3  22
TORSDOF 7
ENDMDL
