MODEL 1
REMARK VINA RESULT:      -4.6      0.000      0.000
REMARK  7 active torsions:
REMARK  status: ('A' for Active; 'I' for Inactive)
REMARK    1  A    between atoms: C_2  and  C_3 
REMARK    2  A    between atoms: C_3  and  O_6 
REMARK    3  A    between atoms: C_3  and  C_4 
REMARK    4  A    between atoms: C_7  and  O_6 
REMARK    5  A    between atoms: C_9  and  C_10 
REMARK    6  A    between atoms: N_15  and  C_14 
REMARK    7  A    between atoms: N_20  and  C_19 
REMARK       I    between atoms: C_22  and  N_20 
ROOT
ATOM      1  C   LIG d   1      -6.273  93.385 119.643  0.00  0.00     0.161 C 
ATOM      2  C   LIG d   1      -5.054  92.737 119.384  0.00  0.00     0.016 C 
ATOM      3  C   LIG d   1      -4.823  91.943 118.237  0.00  0.00     0.038 C 
ATOM      4  C   LIG d   1      -5.753  91.866 117.189  0.00  0.00     0.028 C 
ATOM      5  C   LIG d   1      -7.192  92.094 117.639  0.00  0.00    -0.047 C 
ATOM      6  C   LIG d   1      -7.261  93.403 118.458  0.00  0.00     0.091 C 
ENDROOT
BRANCH   1   7
ATOM      7  O   LIG d   1      -6.024  94.726 120.109  0.00  0.00    -0.368 OA
BRANCH   7   8
ATOM      8  C   LIG d   1      -5.906  94.891 121.543  0.00  0.00     0.119 C 
BRANCH   8   9
ATOM      9  C   LIG d   1      -7.148  95.668 122.023  0.00  0.00     0.028 C 
ATOM     10  C   LIG d   1      -8.187  94.755 122.696  0.00  0.00     0.006 C 
ENDBRANCH   8   9
BRANCH   8  11
ATOM     11  C   LIG d   1      -4.710  95.776 121.906  0.00  0.00     0.028 C 
ATOM     12  C   LIG d   1      -3.936  96.267 120.672  0.00  0.00     0.006 C 
ENDBRANCH   8  11
ENDBRANCH   7   8
ENDBRANCH   1   7
BRANCH   6  13
ATOM     13  N   LIG d   1      -8.618  93.657 119.007  0.00  0.00    -0.311 N 
ATOM     14  C   LIG d   1      -9.170  94.868 119.067  0.00  0.00     0.210 C 
ATOM     15  C   LIG d   1     -10.569  94.911 119.689  0.00  0.00     0.109 C 
ATOM     16  O   LIG d   1      -8.646  95.906 118.635  0.00  0.00    -0.276 OA
ATOM     17  H   LIG d   1      -9.126  92.866 119.352  0.00  0.00     0.149 HD
ENDBRANCH   6  13
BRANCH   5  18
ATOM     18  N   LIG d   1      -8.037  92.123 116.430  0.00  0.00     0.381 N 
ATOM     19  H   LIG d   1      -7.857  91.313 115.871  0.00  0.00    -0.090 HD
ATOM     20  H   LIG d   1      -7.804  92.937 115.890  0.00  0.00    -0.090 HD
ATOM     21  H   LIG d   1      -8.999  92.150 116.687  0.00  0.00    -0.090 HD
ENDBRANCH   5  18
BRANCH   3  22
ATOM     22  C   LIG d   1      -3.666  91.183 118.148  0.00  0.00     0.382 C 
ATOM     23  O   LIG d   1      -2.544  91.740 118.218  0.00  0.00    -0.241 OA
ATOM     24  O   LIG d   1      -3.731  89.955 117.954  0.00  0.00    -0.241 OA
ENDBRANCH   3  22
TORSDOF 7
ENDMDL
MODEL 2
REMARK VINA RESULT:      -4.4      1.194      2.250
REMARK  7 active torsions:
REMARK  status: ('A' for Active; 'I' for Inactive)
REMARK    1  A    between atoms: C_2  and  C_3 
REMARK    2  A    between atoms: C_3  and  O_6 
REMARK    3  A    between atoms: C_3  and  C_4 
REMARK    4  A    between atoms: C_7  and  O_6 
REMARK    5  A    between atoms: C_9  and  C_10 
REMARK    6  A    between atoms: N_15  and  C_14 
REMARK    7  A    between atoms: N_20  and  C_19 
REMARK       I    between atoms: C_22  and  N_20 
ROOT
ATOM      1  C   LIG d   1      -5.738  93.550 120.353  0.00  0.00     0.161 C 
ATOM      2  C   LIG d   1      -4.649  92.829 119.836  0.00  0.00     0.016 C 
ATOM      3  C   LIG d   1      -4.690  92.134 118.606  0.00  0.00     0.038 C 
ATOM      4  C   LIG d   1      -5.782  92.238 117.731  0.00  0.00     0.028 C 
ATOM      5  C   LIG d   1      -7.098  92.543 118.439  0.00  0.00    -0.047 C 
ATOM      6  C   LIG d   1      -6.900  93.767 119.361  0.00  0.00     0.091 C 
ENDROOT
BRANCH   1   7
ATOM      7  O   LIG d   1      -5.283  94.814 120.876  0.00  0.00    -0.368 OA
BRANCH   7   8
ATOM      8  C   LIG d   1      -4.914  95.814 119.895  0.00  0.00     0.119 C 
BRANCH   8   9
ATOM      9  C   LIG d   1      -3.479  96.273 120.219  0.00  0.00     0.028 C 
ATOM     10  C   LIG d   1      -2.449  95.734 119.212  0.00  0.00     0.006 C 
ENDBRANCH   8   9
BRANCH   8  11
ATOM     11  C   LIG d   1      -5.781  97.070 120.026  0.00  0.00     0.028 C 
ATOM     12  C   LIG d   1      -6.514  97.150 121.375  0.00  0.00     0.006 C 
ENDBRANCH   8  11
ENDBRANCH   7   8
ENDBRANCH   1   7
BRANCH   6  13
ATOM     13  N   LIG d   1      -8.116  94.082 120.155  0.00  0.00    -0.311 N 
ATOM     14  C   LIG d   1      -9.052  94.940 119.753  0.00  0.00     0.210 C 
ATOM     15  C   LIG d   1     -10.215  95.134 120.731  0.00  0.00     0.109 C 
ATOM     16  O   LIG d   1      -9.046  95.535 118.664  0.00  0.00    -0.276 OA
ATOM     17  H   LIG d   1      -8.217  93.620 121.037  0.00  0.00     0.149 HD
ENDBRANCH   6  13
BRANCH   5  18
ATOM     18  N   LIG d   1      -8.122  92.761 117.400  0.00  0.00     0.381 N 
ATOM     19  H   LIG d   1      -7.891  92.235 116.581  0.00  0.00    -0.090 HD
ATOM     20  H   LIG d   1      -8.135  93.736 117.156  0.00  0.00    -0.090 HD
ATOM     21  H   LIG d   1      -9.017  92.484 117.740  0.00  0.00    -0.090 HD
ENDBRANCH   5  18
BRANCH   3  22
ATOM     22  C   LIG d   1      -3.646  91.290 118.258  0.00  0.00     0.382 C 
ATOM     23  O   LIG d   1      -3.881  90.100 117.939  0.00  0.00    -0.241 OA
ATOM     24  O   LIG d   1      -2.468  91.692 118.303  0.00  0.00    -0.241 OA
ENDBRANCH   3  22
TORSDOF 7
ENDMDL
MODEL 3
REMARK VINA RESULT:      -4.4      2.745      5.451
REMARK  7 active torsions:
REMARK  status: ('A' for Active; 'I' for Inactive)
REMARK    1  A    between atoms: C_2  and  C_3 
REMARK    2  A    between atoms: C_3  and  O_6 
REMARK    3  A    between atoms: C_3  and  C_4 
REMARK    4  A    between atoms: C_7  and  O_6 
REMARK    5  A    between atoms: C_9  and  C_10 
REMARK    6  A    between atoms: N_15  and  C_14 
REMARK    7  A    between atoms: N_20  and  C_19 
REMARK       I    between atoms: C_22  and  N_20 
ROOT
ATOM      1  C   LIG d   1      -4.003  92.480 118.705  0.00  0.00     0.161 C 
ATOM      2  C   LIG d   1      -4.849  91.886 117.754  0.00  0.00     0.016 C 
ATOM      3  C   LIG d   1      -6.233  92.162 117.664  0.00  0.00     0.038 C 
ATOM      4  C   LIG d   1      -6.839  93.171 118.428  0.00  0.00     0.028 C 
ATOM      5  C   LIG d   1      -6.128  93.439 119.750  0.00  0.00    -0.047 C 
ATOM      6  C   LIG d   1      -4.624  93.665 119.473  0.00  0.00     0.091 C 
ENDROOT
BRANCH   1   7
ATOM      7  O   LIG d   1      -2.768  92.881 118.078  0.00  0.00    -0.368 OA
BRANCH   7   8
ATOM      8  C   LIG d   1      -1.552  92.391 118.693  0.00  0.00     0.119 C 
BRANCH   8   9
ATOM      9  C   LIG d   1      -0.375  93.172 118.078  0.00  0.00     0.028 C 
ATOM     10  C   LIG d   1      -0.780  94.585 117.626  0.00  0.00     0.006 C 
ENDBRANCH   8   9
BRANCH   8  11
ATOM     11  C   LIG d   1      -1.297  90.924 118.335  0.00  0.00     0.028 C 
ATOM     12  C   LIG d   1      -0.102  90.741 117.386  0.00  0.00     0.006 C 
ENDBRANCH   8  11
ENDBRANCH   7   8
ENDBRANCH   1   7
BRANCH   6  13
ATOM     13  N   LIG d   1      -3.839  93.851 120.722  0.00  0.00    -0.311 N 
ATOM     14  C   LIG d   1      -3.070  94.914 120.953  0.00  0.00     0.210 C 
ATOM     15  C   LIG d   1      -2.332  94.899 122.295  0.00  0.00     0.109 C 
ATOM     16  O   LIG d   1      -2.954  95.883 120.188  0.00  0.00    -0.276 OA
ATOM     17  H   LIG d   1      -3.900  93.127 121.411  0.00  0.00     0.149 HD
ENDBRANCH   6  13
BRANCH   5  18
ATOM     18  N   LIG d   1      -6.781  94.603 120.379  0.00  0.00     0.381 N 
ATOM     19  H   LIG d   1      -7.774  94.523 120.290  0.00  0.00    -0.090 HD
ATOM     20  H   LIG d   1      -6.488  95.437 119.902  0.00  0.00    -0.090 HD
ATOM     21  H   LIG d   1      -6.529  94.656 121.341  0.00  0.00    -0.090 HD
ENDBRANCH   5  18
BRANCH   3  22
ATOM     22  C   LIG d   1      -7.034  91.396 116.831  0.00  0.00     0.382 C 
ATOM     23  O   LIG d   1      -8.176  91.804 116.510  0.00  0.00    -0.241 OA
ATOM     24  O   LIG d   1      -6.646  90.282 116.430  0.00  0.00    -0.241 OA
ENDBRANCH   3  22
TORSDOF 7
ENDMDL
MODEL 4
REMARK VINA RESULT:      -4.4      2.121      3.328
REMARK  7 active torsions:
REMARK  status: ('A' for Active; 'I' for Inactive)
REMARK    1  A    between atoms: C_2  and  C_3 
REMARK    2  A    between atoms: C_3  and  O_6 
REMARK    3  A    between atoms: C_3  and  C_4 
REMARK    4  A    between atoms: C_7  and  O_6 
REMARK    5  A    between atoms: C_9  and  C_10 
REMARK    6  A    between atoms: N_15  and  C_14 
REMARK    7  A    between atoms: N_20  and  C_19 
REMARK       I    between atoms: C_22  and  N_20 
ROOT
ATOM      1  C   LIG d   1      -5.283  93.650 119.733  0.00  0.00     0.161 C 
ATOM      2  C   LIG d   1      -4.958  92.614 118.841  0.00  0.00     0.016 C 
ATOM      3  C   LIG d   1      -5.852  92.120 117.863  0.00  0.00     0.038 C 
ATOM      4  C   LIG d   1      -7.086  92.736 117.609  0.00  0.00     0.028 C 
ATOM      5  C   LIG d   1      -7.662  93.462 118.820  0.00  0.00    -0.047 C 
ATOM      6  C   LIG d   1      -6.584  94.408 119.397  0.00  0.00     0.091 C 
ENDROOT
BRANCH   1   7
ATOM      7  O   LIG d   1      -4.179  94.571 119.835  0.00  0.00    -0.368 OA
BRANCH   7   8
ATOM      8  C   LIG d   1      -2.871  94.036 119.514  0.00  0.00     0.119 C 
BRANCH   8   9
ATOM      9  C   LIG d   1      -2.102  93.868 120.840  0.00  0.00     0.028 C 
ATOM     10  C   LIG d   1      -2.156  92.425 121.370  0.00  0.00     0.006 C 
ENDBRANCH   8   9
BRANCH   8  11
ATOM     11  C   LIG d   1      -2.048  95.032 118.692  0.00  0.00     0.028 C 
ATOM     12  C   LIG d   1      -1.312  94.369 117.517  0.00  0.00     0.006 C 
ENDBRANCH   8  11
ENDBRANCH   7   8
ENDBRANCH   1   7
BRANCH   6  13
ATOM     13  N   LIG d   1      -7.037  95.096 120.634  0.00  0.00    -0.311 N 
ATOM     14  C   LIG d   1      -6.896  96.404 120.840  0.00  0.00     0.210 C 
ATOM     15  C   LIG d   1      -7.412  96.906 122.192  0.00  0.00     0.109 C 
ATOM     16  O   LIG d   1      -6.421  97.202 120.018  0.00  0.00    -0.276 OA
ATOM     17  H   LIG d   1      -7.462  94.528 121.342  0.00  0.00     0.149 HD
ENDBRANCH   6  13
BRANCH   5  18
ATOM     18  N   LIG d   1      -8.877  94.172 118.378  0.00  0.00     0.381 N 
ATOM     19  H   LIG d   1      -9.645  93.931 118.972  0.00  0.00    -0.090 HD
ATOM     20  H   LIG d   1      -9.100  93.882 117.442  0.00  0.00    -0.090 HD
ATOM     21  H   LIG d   1      -8.725  95.156 118.402  0.00  0.00    -0.090 HD
ENDBRANCH   5  18
BRANCH   3  22
ATOM     22  C   LIG d   1      -5.529  90.973 117.154  0.00  0.00     0.382 C 
ATOM     23  O   LIG d   1      -6.392  90.420 116.430  0.00  0.00    -0.241 OA
ATOM     24  O   LIG d   1      -4.400  90.459 117.265  0.00  0.00    -0.241 OA
ENDBRANCH   3  22
TORSDOF 7
ENDMDL
MODEL 5
REMARK VINA RESULT:      -4.2      5.097      7.985
REMARK  7 active torsions:
REMARK  status: ('A' for Active; 'I' for Inactive)
REMARK    1  A    between atoms: C_2  and  C_3 
REMARK    2  A    between atoms: C_3  and  O_6 
REMARK    3  A    between atoms: C_3  and  C_4 
REMARK    4  A    between atoms: C_7  and  O_6 
REMARK    5  A    between atoms: C_9  and  C_10 
REMARK    6  A    between atoms: N_15  and  C_14 
REMARK    7  A    between atoms: N_20  and  C_19 
REMARK       I    between atoms: C_22  and  N_20 
ROOT
ATOM      1  C   LIG d   1       0.097  90.380 117.915  0.00  0.00     0.161 C 
ATOM      2  C   LIG d   1       1.498  90.322 117.834  0.00  0.00     0.016 C 
ATOM      3  C   LIG d   1       2.325  91.468 117.815  0.00  0.00     0.038 C 
ATOM      4  C   LIG d   1       1.812  92.756 118.029  0.00  0.00     0.028 C 
ATOM      5  C   LIG d   1       0.353  92.904 117.610  0.00  0.00    -0.047 C 
ATOM      6  C   LIG d   1      -0.473  91.771 118.261  0.00  0.00     0.091 C 
ENDROOT
BRANCH   1   7
ATOM      7  O   LIG d   1      -0.380  89.395 118.853  0.00  0.00    -0.368 OA
BRANCH   7   8
ATOM      8  C   LIG d   1      -1.241  88.363 118.312  0.00  0.00     0.119 C 
BRANCH   8   9
ATOM      9  C   LIG d   1      -2.527  88.342 119.160  0.00  0.00     0.028 C 
ATOM     10  C   LIG d   1      -2.321  88.956 120.555  0.00  0.00     0.006 C 
ENDBRANCH   8   9
BRANCH   8  11
ATOM     11  C   LIG d   1      -0.620  86.974 118.482  0.00  0.00     0.028 C 
ATOM     12  C   LIG d   1       0.175  86.521 117.246  0.00  0.00     0.006 C 
ENDBRANCH   8  11
ENDBRANCH   7   8
ENDBRANCH   1   7
BRANCH   6  13
ATOM     13  N   LIG d   1      -1.897  91.792 117.836  0.00  0.00    -0.311 N 
ATOM     14  C   LIG d   1      -2.902  92.099 118.655  0.00  0.00     0.210 C 
ATOM     15  C   LIG d   1      -4.295  92.041 118.019  0.00  0.00     0.109 C 
ATOM     16  O   LIG d   1      -2.770  92.446 119.838  0.00  0.00    -0.276 OA
ATOM     17  H   LIG d   1      -2.093  91.554 116.883  0.00  0.00     0.149 HD
ENDBRANCH   6  13
BRANCH   5  18
ATOM     18  N   LIG d   1      -0.093  94.251 118.016  0.00  0.00     0.381 N 
ATOM     19  H   LIG d   1       0.110  94.908 117.289  0.00  0.00    -0.090 HD
ATOM     20  H   LIG d   1       0.412  94.526 118.839  0.00  0.00    -0.090 HD
ATOM     21  H   LIG d   1      -1.071  94.244 118.204  0.00  0.00    -0.090 HD
ENDBRANCH   5  18
BRANCH   3  22
ATOM     22  C   LIG d   1       3.677  91.336 117.539  0.00  0.00     0.382 C 
ATOM     23  O   LIG d   1       4.284  92.245 116.923  0.00  0.00    -0.241 OA
ATOM     24  O   LIG d   1       4.289  90.299 117.860  0.00  0.00    -0.241 OA
ENDBRANCH   3  22
TORSDOF 7
ENDMDL
MODEL 6
REMARK VINA RESULT:      -4.2      2.639      5.485
REMARK  7 active torsions:
REMARK  status: ('A' for Active; 'I' for Inactive)
REMARK    1  A    between atoms: C_2  and  C_3 
REMARK    2  A    between atoms: C_3  and  O_6 
REMARK    3  A    between atoms: C_3  and  C_4 
REMARK    4  A    between atoms: C_7  and  O_6 
REMARK    5  A    between atoms: C_9  and  C_10 
REMARK    6  A    between atoms: N_15  and  C_14 
REMARK    7  A    between atoms: N_20  and  C_19 
REMARK       I    between atoms: C_22  and  N_20 
ROOT
ATOM      1  C   LIG d   1      -3.831  92.916 119.226  0.00  0.00     0.161 C 
ATOM      2  C   LIG d   1      -5.102  93.496 119.371  0.00  0.00     0.016 C 
ATOM      3  C   LIG d   1      -6.227  93.106 118.608  0.00  0.00     0.038 C 
ATOM      4  C   LIG d   1      -6.192  91.998 117.749  0.00  0.00     0.028 C 
ATOM      5  C   LIG d   1      -4.801  91.702 117.197  0.00  0.00    -0.047 C 
ATOM      6  C   LIG d   1      -3.800  91.631 118.373  0.00  0.00     0.091 C 
ENDROOT
BRANCH   1   7
ATOM      7  O   LIG d   1      -3.255  92.670 120.524  0.00  0.00    -0.368 OA
BRANCH   7   8
ATOM      8  C   LIG d   1      -2.136  93.512 120.895  0.00  0.00     0.119 C 
BRANCH   8   9
ATOM      9  C   LIG d   1      -2.640  94.515 121.950  0.00  0.00     0.028 C 
ATOM     10  C   LIG d   1      -2.783  95.938 121.386  0.00  0.00     0.006 C 
ENDBRANCH   8   9
BRANCH   8  11
ATOM     11  C   LIG d   1      -1.666  94.367 119.715  0.00  0.00     0.028 C 
ATOM     12  C   LIG d   1      -0.235  94.031 119.267  0.00  0.00     0.006 C 
ENDBRANCH   8  11
ENDBRANCH   7   8
ENDBRANCH   1   7
BRANCH   6  13
ATOM     13  N   LIG d   1      -2.401  91.429 117.914  0.00  0.00    -0.311 N 
ATOM     14  C   LIG d   1      -1.631  90.424 118.329  0.00  0.00     0.210 C 
ATOM     15  C   LIG d   1      -0.214  90.412 117.747  0.00  0.00     0.109 C 
ATOM     16  O   LIG d   1      -1.998  89.523 119.098  0.00  0.00    -0.276 OA
ATOM     17  H   LIG d   1      -2.032  92.096 117.265  0.00  0.00     0.149 HD
ENDBRANCH   6  13
BRANCH   5  18
ATOM     18  N   LIG d   1      -4.883  90.445 116.431  0.00  0.00     0.381 N 
ATOM     19  H   LIG d   1      -4.639  90.614 115.475  0.00  0.00    -0.090 HD
ATOM     20  H   LIG d   1      -5.830  90.108 116.459  0.00  0.00    -0.090 HD
ATOM     21  H   LIG d   1      -4.269  89.766 116.823  0.00  0.00    -0.090 HD
ENDBRANCH   5  18
BRANCH   3  22
ATOM     22  C   LIG d   1      -7.393  93.854 118.672  0.00  0.00     0.382 C 
ATOM     23  O   LIG d   1      -8.433  93.443 118.102  0.00  0.00    -0.241 OA
ATOM     24  O   LIG d   1      -7.406  94.955 119.253  0.00  0.00    -0.241 OA
ENDBRANCH   3  22
TORSDOF 7
ENDMDL
MODEL 7
REMARK VINA RESULT:      -4.1      2.363      4.107
REMARK  7 active torsions:
REMARK  status: ('A' for Active; 'I' for Inactive)
REMARK    1  A    between atoms: C_2  and  C_3 
REMARK    2  A    between atoms: C_3  and  O_6 
REMARK    3  A    between atoms: C_3  and  C_4 
REMARK    4  A    between atoms: C_7  and  O_6 
REMARK    5  A    between atoms: C_9  and  C_10 
REMARK    6  A    between atoms: N_15  and  C_14 
REMARK    7  A    between atoms: N_20  and  C_19 
REMARK       I    between atoms: C_22  and  N_20 
ROOT
ATOM      1  C   LIG d   1      -5.277  93.557 119.761  0.00  0.00     0.161 C 
ATOM      2  C   LIG d   1      -5.523  92.552 118.811  0.00  0.00     0.016 C 
ATOM      3  C   LIG d   1      -6.668  92.530 117.981  0.00  0.00     0.038 C 
ATOM      4  C   LIG d   1      -7.574  93.600 117.940  0.00  0.00     0.028 C 
ATOM      5  C   LIG d   1      -7.634  94.393 119.241  0.00  0.00    -0.047 C 
ATOM      6  C   LIG d   1      -6.198  94.789 119.653  0.00  0.00     0.091 C 
ENDROOT
BRANCH   1   7
ATOM      7  O   LIG d   1      -3.894  93.958 119.701  0.00  0.00    -0.368 OA
BRANCH   7   8
ATOM      8  C   LIG d   1      -2.978  93.001 119.113  0.00  0.00     0.119 C 
BRANCH   8   9
ATOM      9  C   LIG d   1      -2.086  92.458 120.246  0.00  0.00     0.028 C 
ATOM     10  C   LIG d   1      -1.990  90.923 120.233  0.00  0.00     0.006 C 
ENDBRANCH   8   9
BRANCH   8  11
ATOM     11  C   LIG d   1      -2.017  93.680 118.131  0.00  0.00     0.028 C 
ATOM     12  C   LIG d   1      -1.731  95.146 118.494  0.00  0.00     0.006 C 
ENDBRANCH   8  11
ENDBRANCH   7   8
ENDBRANCH   1   7
BRANCH   6  13
ATOM     13  N   LIG d   1      -6.158  95.497 120.960  0.00  0.00    -0.311 N 
ATOM     14  C   LIG d   1      -5.662  96.723 121.115  0.00  0.00     0.210 C 
ATOM     15  C   LIG d   1      -5.699  97.258 122.550  0.00  0.00     0.109 C 
ATOM     16  O   LIG d   1      -5.224  97.430 120.195  0.00  0.00    -0.276 OA
ATOM     17  H   LIG d   1      -6.522  95.008 121.754  0.00  0.00     0.149 HD
ENDBRANCH   6  13
BRANCH   5  18
ATOM     18  N   LIG d   1      -8.512  95.557 119.013  0.00  0.00     0.381 N 
ATOM     19  H   LIG d   1      -9.102  95.696 119.809  0.00  0.00    -0.090 HD
ATOM     20  H   LIG d   1      -9.096  95.372 118.216  0.00  0.00    -0.090 HD
ATOM     21  H   LIG d   1      -7.963  96.372 118.850  0.00  0.00    -0.090 HD
ENDBRANCH   5  18
BRANCH   3  22
ATOM     22  C   LIG d   1      -6.935  91.410 117.208  0.00  0.00     0.382 C 
ATOM     23  O   LIG d   1      -5.996  90.663 116.841  0.00  0.00    -0.241 OA
ATOM     24  O   LIG d   1      -8.098  91.161 116.838  0.00  0.00    -0.241 OA
ENDBRANCH   3  22
TORSDOF 7
ENDMDL
MODEL 8
REMARK VINA RESULT:      -4.1      3.517      6.005
REMARK  7 active torsions:
REMARK  status: ('A' for Active; 'I' for Inactive)
REMARK    1  A    between atoms: C_2  and  C_3 
REMARK    2  A    between atoms: C_3  and  O_6 
REMARK    3  A    between atoms: C_3  and  C_4 
REMARK    4  A    between atoms: C_7  and  O_6 
REMARK    5  A    between atoms: C_9  and  C_10 
REMARK    6  A    between atoms: N_15  and  C_14 
REMARK    7  A    between atoms: N_20  and  C_19 
REMARK       I    between atoms: C_22  and  N_20 
ROOT
ATOM      1  C   LIG d   1      -2.898  92.654 119.637  0.00  0.00     0.161 C 
ATOM      2  C   LIG d   1      -2.758  94.010 119.297  0.00  0.00     0.016 C 
ATOM      3  C   LIG d   1      -1.821  94.482 118.350  0.00  0.00     0.038 C 
ATOM      4  C   LIG d   1      -1.057  93.608 117.563  0.00  0.00     0.028 C 
ATOM      5  C   LIG d   1      -0.803  92.259 118.228  0.00  0.00    -0.047 C 
ATOM      6  C   LIG d   1      -2.151  91.674 118.708  0.00  0.00     0.091 C 
ENDROOT
BRANCH   1   7
ATOM      7  O   LIG d   1      -4.296  92.309 119.708  0.00  0.00    -0.368 OA
BRANCH   7   8
ATOM      8  C   LIG d   1      -5.162  92.959 118.746  0.00  0.00     0.119 C 
BRANCH   8   9
ATOM      9  C   LIG d   1      -6.452  93.364 119.484  0.00  0.00     0.028 C 
ATOM     10  C   LIG d   1      -6.347  94.757 120.129  0.00  0.00     0.006 C 
ENDBRANCH   8   9
BRANCH   8  11
ATOM     11  C   LIG d   1      -5.610  91.984 117.652  0.00  0.00     0.028 C 
ATOM     12  C   LIG d   1      -7.048  92.244 117.175  0.00  0.00     0.006 C 
ENDBRANCH   8  11
ENDBRANCH   7   8
ENDBRANCH   1   7
BRANCH   6  13
ATOM     13  N   LIG d   1      -1.983  90.394 119.445  0.00  0.00    -0.311 N 
ATOM     14  C   LIG d   1      -2.697  89.300 119.186  0.00  0.00     0.210 C 
ATOM     15  C   LIG d   1      -2.379  88.095 120.077  0.00  0.00     0.109 C 
ATOM     16  O   LIG d   1      -3.540  89.203 118.281  0.00  0.00    -0.276 OA
ATOM     17  H   LIG d   1      -1.298  90.375 120.175  0.00  0.00     0.149 HD
ENDBRANCH   6  13
BRANCH   5  18
ATOM     18  N   LIG d   1      -0.116  91.400 117.245  0.00  0.00     0.381 N 
ATOM     19  H   LIG d   1      -0.791  90.947 116.661  0.00  0.00    -0.090 HD
ATOM     20  H   LIG d   1       0.400  90.692 117.737  0.00  0.00    -0.090 HD
ATOM     21  H   LIG d   1       0.503  91.946 116.688  0.00  0.00    -0.090 HD
ENDBRANCH   5  18
BRANCH   3  22
ATOM     22  C   LIG d   1      -1.611  95.846 118.212  0.00  0.00     0.382 C 
ATOM     23  O   LIG d   1      -2.473  96.658 118.627  0.00  0.00    -0.241 OA
ATOM     24  O   LIG d   1      -0.592  96.273 117.637  0.00  0.00    -0.241 OA
ENDBRANCH   3  22
TORSDOF 7
ENDMDL
MODEL 9
REMARK VINA RESULT:      -3.9      3.663      6.363
REMARK  7 active torsions:
REMARK  status: ('A' for Active; 'I' for Inactive)
REMARK    1  A    between atoms: C_2  and  C_3 
REMARK    2  A    between atoms: C_3  and  O_6 
REMARK    3  A    between atoms: C_3  and  C_4 
REMARK    4  A    between atoms: C_7  and  O_6 
REMARK    5  A    between atoms: C_9  and  C_10 
REMARK    6  A    between atoms: N_15  and  C_14 
REMARK    7  A    between atoms: N_20  and  C_19 
REMARK       I    between atoms: C_22  and  N_20 
ROOT
ATOM      1  C   LIG d   1      -2.115  91.556 118.253  0.00  0.00     0.161 C 
ATOM      2  C   LIG d   1      -0.729  91.760 118.366  0.00  0.00     0.016 C 
ATOM      3  C   LIG d   1      -0.151  93.007 118.698  0.00  0.00     0.038 C 
ATOM      4  C   LIG d   1      -0.930  94.105 119.090  0.00  0.00     0.028 C 
ATOM      5  C   LIG d   1      -2.338  94.089 118.503  0.00  0.00    -0.047 C 
ATOM      6  C   LIG d   1      -2.984  92.714 118.786  0.00  0.00     0.091 C 
ENDROOT
BRANCH   1   7
ATOM      7  O   LIG d   1      -2.480  90.318 118.895  0.00  0.00    -0.368 OA
BRANCH   7   8
ATOM      8  C   LIG d   1      -1.409  89.365 119.097  0.00  0.00     0.119 C 
BRANCH   8   9
ATOM      9  C   LIG d   1      -1.792  88.073 118.349  0.00  0.00     0.028 C 
ATOM     10  C   LIG d   1      -0.566  87.337 117.782  0.00  0.00     0.006 C 
ENDBRANCH   8   9
BRANCH   8  11
ATOM     11  C   LIG d   1      -1.292  88.961 120.569  0.00  0.00     0.028 C 
ATOM     12  C   LIG d   1      -2.600  88.387 121.135  0.00  0.00     0.006 C 
ENDBRANCH   8  11
ENDBRANCH   7   8
ENDBRANCH   1   7
BRANCH   6  13
ATOM     13  N   LIG d   1      -4.332  92.584 118.172  0.00  0.00    -0.311 N 
ATOM     14  C   LIG d   1      -5.464  92.811 118.835  0.00  0.00     0.210 C 
ATOM     15  C   LIG d   1      -6.744  92.600 118.020  0.00  0.00     0.109 C 
ATOM     16  O   LIG d   1      -5.530  93.197 120.012  0.00  0.00    -0.276 OA
ATOM     17  H   LIG d   1      -4.370  92.305 117.212  0.00  0.00     0.149 HD
ENDBRANCH   6  13
BRANCH   5  18
ATOM     18  N   LIG d   1      -3.083  95.213 119.102  0.00  0.00     0.381 N 
ATOM     19  H   LIG d   1      -3.468  94.933 119.982  0.00  0.00    -0.090 HD
ATOM     20  H   LIG d   1      -3.841  95.463 118.492  0.00  0.00    -0.090 HD
ATOM     21  H   LIG d   1      -2.478  95.994 119.230  0.00  0.00    -0.090 HD
ENDBRANCH   5  18
BRANCH   3  22
ATOM     22  C   LIG d   1       1.222  93.175 118.600  0.00  0.00     0.382 C 
ATOM     23  O   LIG d   1       1.823  93.913 119.418  0.00  0.00    -0.241 OA
ATOM     24  O   LIG d   1       1.861  92.633 117.678  0.00  0.00    -0.241 OA
ENDBRANCH   3  22
TORSDOF 7
ENDMDL
