MODEL 1
REMARK VINA RESULT:      -4.8      0.000      0.000
REMARK  7 active torsions:
REMARK  status: ('A' for Active; 'I' for Inactive)
REMARK    1  A    between atoms: C_2  and  C_3 
REMARK    2  A    between atoms: C_3  and  O_6 
REMARK    3  A    between atoms: C_3  and  C_4 
REMARK    4  A    between atoms: C_7  and  O_6 
REMARK    5  A    between atoms: C_9  and  C_10 
REMARK    6  A    between atoms: N_15  and  C_14 
REMARK    7  A    between atoms: N_20  and  C_19 
REMARK       I    between atoms: C_22  and  N_20 
ROOT
ATOM      1  C   LIG d   1      -4.586  92.847 117.872  0.00  0.00     0.161 C 
ATOM      2  C   LIG d   1      -5.560  93.853 117.758  0.00  0.00     0.016 C 
ATOM      3  C   LIG d   1      -6.858  93.625 117.247  0.00  0.00     0.038 C 
ATOM      4  C   LIG d   1      -7.323  92.334 116.953  0.00  0.00     0.028 C 
ATOM      5  C   LIG d   1      -6.211  91.361 116.576  0.00  0.00    -0.047 C 
ATOM      6  C   LIG d   1      -5.111  91.411 117.661  0.00  0.00     0.091 C 
ENDROOT
BRANCH   1   7
ATOM      7  O   LIG d   1      -3.919  92.954 119.146  0.00  0.00    -0.368 OA
BRANCH   7   8
ATOM      8  C   LIG d   1      -4.696  93.528 120.225  0.00  0.00     0.119 C 
BRANCH   8   9
ATOM      9  C   LIG d   1      -3.739  94.377 121.083  0.00  0.00     0.028 C 
ATOM     10  C   LIG d   1      -2.832  95.280 120.231  0.00  0.00     0.006 C 
ENDBRANCH   8   9
BRANCH   8  11
ATOM     11  C   LIG d   1      -5.229  92.443 121.166  0.00  0.00     0.028 C 
ATOM     12  C   LIG d   1      -6.731  92.178 120.979  0.00  0.00     0.006 C 
ENDBRANCH   8  11
ENDBRANCH   7   8
ENDBRANCH   1   7
BRANCH   6  13
ATOM     13  N   LIG d   1      -3.946  90.551 117.327  0.00  0.00    -0.311 N 
ATOM     14  C   LIG d   1      -3.371  89.725 118.199  0.00  0.00     0.210 C 
ATOM     15  C   LIG d   1      -2.171  88.943 117.655  0.00  0.00     0.109 C 
ATOM     16  O   LIG d   1      -3.761  89.541 119.362  0.00  0.00    -0.276 OA
ATOM     17  H   LIG d   1      -3.585  90.614 116.395  0.00  0.00     0.149 HD
ENDBRANCH   6  13
BRANCH   5  18
ATOM     18  N   LIG d   1      -6.819  90.025 116.430  0.00  0.00     0.381 N 
ATOM     19  H   LIG d   1      -7.812  90.111 116.350  0.00  0.00    -0.090 HD
ATOM     20  H   LIG d   1      -6.615  89.483 117.252  0.00  0.00    -0.090 HD
ATOM     21  H   LIG d   1      -6.452  89.569 115.624  0.00  0.00    -0.090 HD
ENDBRANCH   5  18
BRANCH   3  22
ATOM     22  C   LIG d   1      -7.693  94.701 116.987  0.00  0.00     0.382 C 
ATOM     23  O   LIG d   1      -8.802  94.514 116.431  0.00  0.00    -0.241 OA
ATOM     24  O   LIG d   1      -7.332  95.861 117.261  0.00  0.00    -0.241 OA
ENDBRANCH   3  22
TORSDOF 7
ENDMDL
MODEL 2
REMARK VINA RESULT:      -4.8      1.268      1.988
REMARK  7 active torsions:
REMARK  status: ('A' for Active; 'I' for Inactive)
REMARK    1  A    between atoms: C_2  and  C_3 
REMARK    2  A    between atoms: C_3  and  O_6 
REMARK    3  A    between atoms: C_3  and  C_4 
REMARK    4  A    between atoms: C_7  and  O_6 
REMARK    5  A    between atoms: C_9  and  C_10 
REMARK    6  A    between atoms: N_15  and  C_14 
REMARK    7  A    between atoms: N_20  and  C_19 
REMARK       I    between atoms: C_22  and  N_20 
ROOT
ATOM      1  C   LIG d   1      -4.598  92.863 117.913  0.00  0.00     0.161 C 
ATOM      2  C   LIG d   1      -5.552  93.884 117.762  0.00  0.00     0.016 C 
ATOM      3  C   LIG d   1      -6.839  93.671 117.218  0.00  0.00     0.038 C 
ATOM      4  C   LIG d   1      -7.318  92.386 116.925  0.00  0.00     0.028 C 
ATOM      5  C   LIG d   1      -6.213  91.390 116.589  0.00  0.00    -0.047 C 
ATOM      6  C   LIG d   1      -5.141  91.435 117.702  0.00  0.00     0.091 C 
ENDROOT
BRANCH   1   7
ATOM      7  O   LIG d   1      -3.964  92.974 119.202  0.00  0.00    -0.368 OA
BRANCH   7   8
ATOM      8  C   LIG d   1      -2.713  93.704 119.238  0.00  0.00     0.119 C 
BRANCH   8   9
ATOM      9  C   LIG d   1      -1.592  92.687 119.527  0.00  0.00     0.028 C 
ATOM     10  C   LIG d   1      -0.735  92.390 118.285  0.00  0.00     0.006 C 
ENDBRANCH   8   9
BRANCH   8  11
ATOM     11  C   LIG d   1      -2.677  94.691 120.408  0.00  0.00     0.028 C 
ATOM     12  C   LIG d   1      -3.441  95.992 120.114  0.00  0.00     0.006 C 
ENDBRANCH   8  11
ENDBRANCH   7   8
ENDBRANCH   1   7
BRANCH   6  13
ATOM     13  N   LIG d   1      -3.982  90.551 117.409  0.00  0.00    -0.311 N 
ATOM     14  C   LIG d   1      -3.416  89.759 118.318  0.00  0.00     0.210 C 
ATOM     15  C   LIG d   1      -2.221  88.946 117.812  0.00  0.00     0.109 C 
ATOM     16  O   LIG d   1      -3.811  89.628 119.486  0.00  0.00    -0.276 OA
ATOM     17  H   LIG d   1      -3.618  90.572 116.477  0.00  0.00     0.149 HD
ENDBRANCH   6  13
BRANCH   5  18
ATOM     18  N   LIG d   1      -6.838  90.063 116.441  0.00  0.00     0.381 N 
ATOM     19  H   LIG d   1      -6.130  89.363 116.340  0.00  0.00    -0.090 HD
ATOM     20  H   LIG d   1      -7.404  90.060 115.611  0.00  0.00    -0.090 HD
ATOM     21  H   LIG d   1      -7.403  89.861 117.237  0.00  0.00    -0.090 HD
ENDBRANCH   5  18
BRANCH   3  22
ATOM     22  C   LIG d   1      -7.649  94.758 116.924  0.00  0.00     0.382 C 
ATOM     23  O   LIG d   1      -7.240  95.923 117.147  0.00  0.00    -0.241 OA
ATOM     24  O   LIG d   1      -8.800  94.586 116.479  0.00  0.00    -0.241 OA
ENDBRANCH   3  22
TORSDOF 7
ENDMDL
MODEL 3
REMARK VINA RESULT:      -4.7      1.086      1.782
REMARK  7 active torsions:
REMARK  status: ('A' for Active; 'I' for Inactive)
REMARK    1  A    between atoms: C_2  and  C_3 
REMARK    2  A    between atoms: C_3  and  O_6 
REMARK    3  A    between atoms: C_3  and  C_4 
REMARK    4  A    between atoms: C_7  and  O_6 
REMARK    5  A    between atoms: C_9  and  C_10 
REMARK    6  A    between atoms: N_15  and  C_14 
REMARK    7  A    between atoms: N_20  and  C_19 
REMARK       I    between atoms: C_22  and  N_20 
ROOT
ATOM      1  C   LIG d   1      -4.487  93.678 118.178  0.00  0.00     0.161 C 
ATOM      2  C   LIG d   1      -5.603  94.501 117.955  0.00  0.00     0.016 C 
ATOM      3  C   LIG d   1      -6.802  94.044 117.361  0.00  0.00     0.038 C 
ATOM      4  C   LIG d   1      -7.022  92.686 117.086  0.00  0.00     0.028 C 
ATOM      5  C   LIG d   1      -5.738  91.904 116.829  0.00  0.00    -0.047 C 
ATOM      6  C   LIG d   1      -4.748  92.169 117.987  0.00  0.00     0.091 C 
ENDROOT
BRANCH   1   7
ATOM      7  O   LIG d   1      -3.948  93.931 119.491  0.00  0.00    -0.368 OA
BRANCH   7   8
ATOM      8  C   LIG d   1      -4.543  93.181 120.579  0.00  0.00     0.119 C 
BRANCH   8   9
ATOM      9  C   LIG d   1      -5.195  94.196 121.538  0.00  0.00     0.028 C 
ATOM     10  C   LIG d   1      -6.731  94.160 121.473  0.00  0.00     0.006 C 
ENDBRANCH   8   9
BRANCH   8  11
ATOM     11  C   LIG d   1      -3.474  92.465 121.412  0.00  0.00     0.028 C 
ATOM     12  C   LIG d   1      -2.048  92.730 120.904  0.00  0.00     0.006 C 
ENDBRANCH   8  11
ENDBRANCH   7   8
ENDBRANCH   1   7
BRANCH   6  13
ATOM     13  N   LIG d   1      -3.434  91.509 117.772  0.00  0.00    -0.311 N 
ATOM     14  C   LIG d   1      -3.138  90.297 118.240  0.00  0.00     0.210 C 
ATOM     15  C   LIG d   1      -1.720  89.811 117.922  0.00  0.00     0.109 C 
ATOM     16  O   LIG d   1      -3.924  89.566 118.860  0.00  0.00    -0.276 OA
ATOM     17  H   LIG d   1      -2.747  92.019 117.253  0.00  0.00     0.149 HD
ENDBRANCH   6  13
BRANCH   5  18
ATOM     18  N   LIG d   1      -6.102  90.481 116.694  0.00  0.00     0.381 N 
ATOM     19  H   LIG d   1      -5.289  89.944 116.468  0.00  0.00    -0.090 HD
ATOM     20  H   LIG d   1      -6.763  90.385 115.943  0.00  0.00    -0.090 HD
ATOM     21  H   LIG d   1      -6.502  90.149 117.544  0.00  0.00    -0.090 HD
ENDBRANCH   5  18
BRANCH   3  22
ATOM     22  C   LIG d   1      -7.781  94.956 116.999  0.00  0.00     0.382 C 
ATOM     23  O   LIG d   1      -7.610  96.180 117.217  0.00  0.00    -0.241 OA
ATOM     24  O   LIG d   1      -8.853  94.566 116.498  0.00  0.00    -0.241 OA
ENDBRANCH   3  22
TORSDOF 7
ENDMDL
MODEL 4
REMARK VINA RESULT:      -4.3      2.462      4.791
REMARK  7 active torsions:
REMARK  status: ('A' for Active; 'I' for Inactive)
REMARK    1  A    between atoms: C_2  and  C_3 
REMARK    2  A    between atoms: C_3  and  O_6 
REMARK    3  A    between atoms: C_3  and  C_4 
REMARK    4  A    between atoms: C_7  and  O_6 
REMARK    5  A    between atoms: C_9  and  C_10 
REMARK    6  A    between atoms: N_15  and  C_14 
REMARK    7  A    between atoms: N_20  and  C_19 
REMARK       I    between atoms: C_22  and  N_20 
ROOT
ATOM      1  C   LIG d   1      -4.565  91.974 119.881  0.00  0.00     0.161 C 
ATOM      2  C   LIG d   1      -5.359  91.357 118.900  0.00  0.00     0.016 C 
ATOM      3  C   LIG d   1      -5.844  92.030 117.755  0.00  0.00     0.038 C 
ATOM      4  C   LIG d   1      -5.440  93.334 117.435  0.00  0.00     0.028 C 
ATOM      5  C   LIG d   1      -5.046  94.163 118.653  0.00  0.00    -0.047 C 
ATOM      6  C   LIG d   1      -4.022  93.365 119.492  0.00  0.00     0.091 C 
ENDROOT
BRANCH   1   7
ATOM      7  O   LIG d   1      -3.482  91.099 120.254  0.00  0.00    -0.368 OA
BRANCH   7   8
ATOM      8  C   LIG d   1      -2.738  90.505 119.162  0.00  0.00     0.119 C 
BRANCH   8   9
ATOM      9  C   LIG d   1      -2.699  88.984 119.402  0.00  0.00     0.028 C 
ATOM     10  C   LIG d   1      -1.867  88.243 118.341  0.00  0.00     0.006 C 
ENDBRANCH   8   9
BRANCH   8  11
ATOM     11  C   LIG d   1      -1.274  90.955 119.176  0.00  0.00     0.028 C 
ATOM     12  C   LIG d   1      -0.942  91.938 118.042  0.00  0.00     0.006 C 
ENDBRANCH   8  11
ENDBRANCH   7   8
ENDBRANCH   1   7
BRANCH   6  13
ATOM     13  N   LIG d   1      -3.647  94.068 120.747  0.00  0.00    -0.311 N 
ATOM     14  C   LIG d   1      -2.567  94.839 120.861  0.00  0.00     0.210 C 
ATOM     15  C   LIG d   1      -2.355  95.454 122.248  0.00  0.00     0.109 C 
ATOM     16  O   LIG d   1      -1.783  95.099 119.936  0.00  0.00    -0.276 OA
ATOM     17  H   LIG d   1      -4.246  93.938 121.539  0.00  0.00     0.149 HD
ENDBRANCH   6  13
BRANCH   5  18
ATOM     18  N   LIG d   1      -4.516  95.450 118.165  0.00  0.00     0.381 N 
ATOM     19  H   LIG d   1      -4.918  95.666 117.275  0.00  0.00    -0.090 HD
ATOM     20  H   LIG d   1      -3.521  95.369 118.050  0.00  0.00    -0.090 HD
ATOM     21  H   LIG d   1      -4.724  96.174 118.816  0.00  0.00    -0.090 HD
ENDBRANCH   5  18
BRANCH   3  22
ATOM     22  C   LIG d   1      -6.777  91.410 116.937  0.00  0.00     0.382 C 
ATOM     23  O   LIG d   1      -7.710  92.079 116.431  0.00  0.00    -0.241 OA
ATOM     24  O   LIG d   1      -6.722  90.182 116.734  0.00  0.00    -0.241 OA
ENDBRANCH   3  22
TORSDOF 7
ENDMDL
MODEL 5
REMARK VINA RESULT:      -4.3      2.687      4.552
REMARK  7 active torsions:
REMARK  status: ('A' for Active; 'I' for Inactive)
REMARK    1  A    between atoms: C_2  and  C_3 
REMARK    2  A    between atoms: C_3  and  O_6 
REMARK    3  A    between atoms: C_3  and  C_4 
REMARK    4  A    between atoms: C_7  and  O_6 
REMARK    5  A    between atoms: C_9  and  C_10 
REMARK    6  A    between atoms: N_15  and  C_14 
REMARK    7  A    between atoms: N_20  and  C_19 
REMARK       I    between atoms: C_22  and  N_20 
ROOT
ATOM      1  C   LIG d   1      -3.619  91.452 118.751  0.00  0.00     0.161 C 
ATOM      2  C   LIG d   1      -4.730  90.993 118.023  0.00  0.00     0.016 C 
ATOM      3  C   LIG d   1      -5.636  91.852 117.361  0.00  0.00     0.038 C 
ATOM      4  C   LIG d   1      -5.405  93.232 117.254  0.00  0.00     0.028 C 
ATOM      5  C   LIG d   1      -4.571  93.797 118.399  0.00  0.00    -0.047 C 
ATOM      6  C   LIG d   1      -3.290  92.946 118.554  0.00  0.00     0.091 C 
ENDROOT
BRANCH   1   7
ATOM      7  O   LIG d   1      -2.467  90.640 118.449  0.00  0.00    -0.368 OA
BRANCH   7   8
ATOM      8  C   LIG d   1      -2.313  89.434 119.236  0.00  0.00     0.119 C 
BRANCH   8   9
ATOM      9  C   LIG d   1      -1.292  89.735 120.350  0.00  0.00     0.028 C 
ATOM     10  C   LIG d   1      -1.939  89.779 121.744  0.00  0.00     0.006 C 
ENDBRANCH   8   9
BRANCH   8  11
ATOM     11  C   LIG d   1      -1.691  88.305 118.409  0.00  0.00     0.028 C 
ATOM     12  C   LIG d   1      -1.361  87.062 119.250  0.00  0.00     0.006 C 
ENDBRANCH   8  11
ENDBRANCH   7   8
ENDBRANCH   1   7
BRANCH   6  13
ATOM     13  N   LIG d   1      -2.457  93.380 119.706  0.00  0.00    -0.311 N 
ATOM     14  C   LIG d   1      -1.127  93.432 119.671  0.00  0.00     0.210 C 
ATOM     15  C   LIG d   1      -0.463  93.887 120.974  0.00  0.00     0.109 C 
ATOM     16  O   LIG d   1      -0.435  93.177 118.673  0.00  0.00    -0.276 OA
ATOM     17  H   LIG d   1      -2.939  93.635 120.546  0.00  0.00     0.149 HD
ENDBRANCH   6  13
BRANCH   5  18
ATOM     18  N   LIG d   1      -4.292  95.212 118.091  0.00  0.00     0.381 N 
ATOM     19  H   LIG d   1      -3.439  95.284 117.574  0.00  0.00    -0.090 HD
ATOM     20  H   LIG d   1      -4.182  95.717 118.953  0.00  0.00    -0.090 HD
ATOM     21  H   LIG d   1      -5.043  95.601 117.564  0.00  0.00    -0.090 HD
ENDBRANCH   5  18
BRANCH   3  22
ATOM     22  C   LIG d   1      -6.808  91.337 116.829  0.00  0.00     0.382 C 
ATOM     23  O   LIG d   1      -6.949  90.097 116.706  0.00  0.00    -0.241 OA
ATOM     24  O   LIG d   1      -7.709  92.099 116.431  0.00  0.00    -0.241 OA
ENDBRANCH   3  22
TORSDOF 7
ENDMDL
MODEL 6
REMARK VINA RESULT:      -4.3      2.380      3.684
REMARK  7 active torsions:
REMARK  status: ('A' for Active; 'I' for Inactive)
REMARK    1  A    between atoms: C_2  and  C_3 
REMARK    2  A    between atoms: C_3  and  O_6 
REMARK    3  A    between atoms: C_3  and  C_4 
REMARK    4  A    between atoms: C_7  and  O_6 
REMARK    5  A    between atoms: C_9  and  C_10 
REMARK    6  A    between atoms: N_15  and  C_14 
REMARK    7  A    between atoms: N_20  and  C_19 
REMARK       I    between atoms: C_22  and  N_20 
ROOT
ATOM      1  C   LIG d   1      -4.262  93.661 117.946  0.00  0.00     0.161 C 
ATOM      2  C   LIG d   1      -5.408  93.065 117.394  0.00  0.00     0.016 C 
ATOM      3  C   LIG d   1      -5.706  91.688 117.519  0.00  0.00     0.038 C 
ATOM      4  C   LIG d   1      -4.950  90.837 118.339  0.00  0.00     0.028 C 
ATOM      5  C   LIG d   1      -3.502  91.286 118.506  0.00  0.00    -0.047 C 
ATOM      6  C   LIG d   1      -3.483  92.770 118.937  0.00  0.00     0.091 C 
ENDROOT
BRANCH   1   7
ATOM      7  O   LIG d   1      -4.613  94.913 118.568  0.00  0.00    -0.368 OA
BRANCH   7   8
ATOM      8  C   LIG d   1      -5.978  95.030 119.039  0.00  0.00     0.119 C 
BRANCH   8   9
ATOM      9  C   LIG d   1      -6.484  96.432 118.647  0.00  0.00     0.028 C 
ATOM     10  C   LIG d   1      -7.398  96.401 117.410  0.00  0.00     0.006 C 
ENDBRANCH   8   9
BRANCH   8  11
ATOM     11  C   LIG d   1      -6.045  94.987 120.568  0.00  0.00     0.028 C 
ATOM     12  C   LIG d   1      -6.730  93.718 121.099  0.00  0.00     0.006 C 
ENDBRANCH   8  11
ENDBRANCH   7   8
ENDBRANCH   1   7
BRANCH   6  13
ATOM     13  N   LIG d   1      -2.103  93.312 119.041  0.00  0.00    -0.311 N 
ATOM     14  C   LIG d   1      -1.414  93.348 120.180  0.00  0.00     0.210 C 
ATOM     15  C   LIG d   1      -0.017  93.967 120.071  0.00  0.00     0.109 C 
ATOM     16  O   LIG d   1      -1.814  92.898 121.264  0.00  0.00    -0.276 OA
ATOM     17  H   LIG d   1      -1.690  93.671 118.203  0.00  0.00     0.149 HD
ENDBRANCH   6  13
BRANCH   5  18
ATOM     18  N   LIG d   1      -2.868  90.389 119.491  0.00  0.00     0.381 N 
ATOM     19  H   LIG d   1      -3.559  90.043 120.126  0.00  0.00    -0.090 HD
ATOM     20  H   LIG d   1      -2.189  90.911 120.016  0.00  0.00    -0.090 HD
ATOM     21  H   LIG d   1      -2.425  89.629 119.024  0.00  0.00    -0.090 HD
ENDBRANCH   5  18
BRANCH   3  22
ATOM     22  C   LIG d   1      -6.749  91.142 116.787  0.00  0.00     0.382 C 
ATOM     23  O   LIG d   1      -6.709  89.937 116.441  0.00  0.00    -0.241 OA
ATOM     24  O   LIG d   1      -7.710  91.851 116.430  0.00  0.00    -0.241 OA
ENDBRANCH   3  22
TORSDOF 7
ENDMDL
MODEL 7
REMARK VINA RESULT:      -4.2      4.474      7.784
REMARK  7 active torsions:
REMARK  status: ('A' for Active; 'I' for Inactive)
REMARK    1  A    between atoms: C_2  and  C_3 
REMARK    2  A    between atoms: C_3  and  O_6 
REMARK    3  A    between atoms: C_3  and  C_4 
REMARK    4  A    between atoms: C_7  and  O_6 
REMARK    5  A    between atoms: C_9  and  C_10 
REMARK    6  A    between atoms: N_15  and  C_14 
REMARK    7  A    between atoms: N_20  and  C_19 
REMARK       I    between atoms: C_22  and  N_20 
ROOT
ATOM      1  C   LIG d   1       0.029  91.277 116.974  0.00  0.00     0.161 C 
ATOM      2  C   LIG d   1       1.421  91.153 116.835  0.00  0.00     0.016 C 
ATOM      3  C   LIG d   1       2.349  91.923 117.573  0.00  0.00     0.038 C 
ATOM      4  C   LIG d   1       1.946  92.769 118.617  0.00  0.00     0.028 C 
ATOM      5  C   LIG d   1       0.527  93.302 118.451  0.00  0.00    -0.047 C 
ATOM      6  C   LIG d   1      -0.428  92.114 118.187  0.00  0.00     0.091 C 
ENDROOT
BRANCH   1   7
ATOM      7  O   LIG d   1      -0.577  89.969 117.012  0.00  0.00    -0.368 OA
BRANCH   7   8
ATOM      8  C   LIG d   1      -0.323  89.183 118.202  0.00  0.00     0.119 C 
BRANCH   8   9
ATOM      9  C   LIG d   1       0.295  87.846 117.750  0.00  0.00     0.028 C 
ATOM     10  C   LIG d   1      -0.115  86.673 118.656  0.00  0.00     0.006 C 
ENDBRANCH   8   9
BRANCH   8  11
ATOM     11  C   LIG d   1      -1.627  88.808 118.911  0.00  0.00     0.028 C 
ATOM     12  C   LIG d   1      -2.876  89.163 118.089  0.00  0.00     0.006 C 
ENDBRANCH   8  11
ENDBRANCH   7   8
ENDBRANCH   1   7
BRANCH   6  13
ATOM     13  N   LIG d   1      -1.823  92.555 117.930  0.00  0.00    -0.311 N 
ATOM     14  C   LIG d   1      -2.751  92.645 118.881  0.00  0.00     0.210 C 
ATOM     15  C   LIG d   1      -4.131  93.101 118.398  0.00  0.00     0.109 C 
ATOM     16  O   LIG d   1      -2.554  92.421 120.085  0.00  0.00    -0.276 OA
ATOM     17  H   LIG d   1      -2.062  92.787 116.985  0.00  0.00     0.149 HD
ENDBRANCH   6  13
BRANCH   5  18
ATOM     18  N   LIG d   1       0.188  94.055 119.674  0.00  0.00     0.381 N 
ATOM     19  H   LIG d   1       0.178  93.437 120.461  0.00  0.00    -0.090 HD
ATOM     20  H   LIG d   1      -0.731  94.447 119.569  0.00  0.00    -0.090 HD
ATOM     21  H   LIG d   1       0.852  94.782 119.821  0.00  0.00    -0.090 HD
ENDBRANCH   5  18
BRANCH   3  22
ATOM     22  C   LIG d   1       3.695  91.881 117.242  0.00  0.00     0.382 C 
ATOM     23  O   LIG d   1       4.258  90.777 117.046  0.00  0.00    -0.241 OA
ATOM     24  O   LIG d   1       4.363  92.930 117.180  0.00  0.00    -0.241 OA
ENDBRANCH   3  22
TORSDOF 7
ENDMDL
MODEL 8
REMARK VINA RESULT:      -3.9      1.962      2.549
REMARK  7 active torsions:
REMARK  status: ('A' for Active; 'I' for Inactive)
REMARK    1  A    between atoms: C_2  and  C_3 
REMARK    2  A    between atoms: C_3  and  O_6 
REMARK    3  A    between atoms: C_3  and  C_4 
REMARK    4  A    between atoms: C_7  and  O_6 
REMARK    5  A    between atoms: C_9  and  C_10 
REMARK    6  A    between atoms: N_15  and  C_14 
REMARK    7  A    between atoms: N_20  and  C_19 
REMARK       I    between atoms: C_22  and  N_20 
ROOT
ATOM      1  C   LIG d   1      -5.145  93.469 119.414  0.00  0.00     0.161 C 
ATOM      2  C   LIG d   1      -6.524  93.719 119.514  0.00  0.00     0.016 C 
ATOM      3  C   LIG d   1      -7.487  93.118 118.672  0.00  0.00     0.038 C 
ATOM      4  C   LIG d   1      -7.149  92.103 117.765  0.00  0.00     0.028 C 
ATOM      5  C   LIG d   1      -5.705  92.182 117.279  0.00  0.00    -0.047 C 
ATOM      6  C   LIG d   1      -4.768  92.281 118.504  0.00  0.00     0.091 C 
ENDROOT
BRANCH   1   7
ATOM      7  O   LIG d   1      -4.584  93.291 120.729  0.00  0.00    -0.368 OA
BRANCH   7   8
ATOM      8  C   LIG d   1      -3.572  94.248 121.126  0.00  0.00     0.119 C 
BRANCH   8   9
ATOM      9  C   LIG d   1      -2.558  93.507 122.019  0.00  0.00     0.028 C 
ATOM     10  C   LIG d   1      -3.009  92.076 122.356  0.00  0.00     0.006 C 
ENDBRANCH   8   9
BRANCH   8  11
ATOM     11  C   LIG d   1      -4.163  95.350 122.011  0.00  0.00     0.028 C 
ATOM     12  C   LIG d   1      -3.212  95.783 123.138  0.00  0.00     0.006 C 
ENDBRANCH   8  11
ENDBRANCH   7   8
ENDBRANCH   1   7
BRANCH   6  13
ATOM     13  N   LIG d   1      -3.343  92.447 118.116  0.00  0.00    -0.311 N 
ATOM     14  C   LIG d   1      -2.372  91.633 118.525  0.00  0.00     0.210 C 
ATOM     15  C   LIG d   1      -0.970  91.994 118.024  0.00  0.00     0.109 C 
ATOM     16  O   LIG d   1      -2.543  90.626 119.228  0.00  0.00    -0.276 OA
ATOM     17  H   LIG d   1      -3.120  93.221 117.520  0.00  0.00     0.149 HD
ENDBRANCH   6  13
BRANCH   5  18
ATOM     18  N   LIG d   1      -5.448  90.989 116.450  0.00  0.00     0.381 N 
ATOM     19  H   LIG d   1      -5.507  90.165 117.014  0.00  0.00    -0.090 HD
ATOM     20  H   LIG d   1      -4.518  91.049 116.074  0.00  0.00    -0.090 HD
ATOM     21  H   LIG d   1      -6.111  90.941 115.708  0.00  0.00    -0.090 HD
ENDBRANCH   5  18
BRANCH   3  22
ATOM     22  C   LIG d   1      -8.801  93.560 118.706  0.00  0.00     0.382 C 
ATOM     23  O   LIG d   1      -9.117  94.632 118.135  0.00  0.00    -0.241 OA
ATOM     24  O   LIG d   1      -9.666  92.924 119.337  0.00  0.00    -0.241 OA
ENDBRANCH   3  22
TORSDOF 7
ENDMDL
MODEL 9
REMARK VINA RESULT:      -3.8      1.862      2.649
REMARK  7 active torsions:
REMARK  status: ('A' for Active; 'I' for Inactive)
REMARK    1  A    between atoms: C_2  and  C_3 
REMARK    2  A    between atoms: C_3  and  O_6 
REMARK    3  A    between atoms: C_3  and  C_4 
REMARK    4  A    between atoms: C_7  and  O_6 
REMARK    5  A    between atoms: C_9  and  C_10 
REMARK    6  A    between atoms: N_15  and  C_14 
REMARK    7  A    between atoms: N_20  and  C_19 
REMARK       I    between atoms: C_22  and  N_20 
ROOT
ATOM      1  C   LIG d   1      -4.610  93.453 118.259  0.00  0.00     0.161 C 
ATOM      2  C   LIG d   1      -5.575  94.289 117.673  0.00  0.00     0.016 C 
ATOM      3  C   LIG d   1      -6.931  94.312 118.072  0.00  0.00     0.038 C 
ATOM      4  C   LIG d   1      -7.384  93.605 119.196  0.00  0.00     0.028 C 
ATOM      5  C   LIG d   1      -6.556  92.362 119.505  0.00  0.00    -0.047 C 
ATOM      6  C   LIG d   1      -5.062  92.756 119.560  0.00  0.00     0.091 C 
ENDROOT
BRANCH   1   7
ATOM      7  O   LIG d   1      -3.394  94.194 118.485  0.00  0.00    -0.368 OA
BRANCH   7   8
ATOM      8  C   LIG d   1      -3.220  94.743 119.814  0.00  0.00     0.119 C 
BRANCH   8   9
ATOM      9  C   LIG d   1      -3.497  96.257 119.730  0.00  0.00     0.028 C 
ATOM     10  C   LIG d   1      -4.848  96.642 120.355  0.00  0.00     0.006 C 
ENDBRANCH   8   9
BRANCH   8  11
ATOM     11  C   LIG d   1      -1.766  94.622 120.281  0.00  0.00     0.028 C 
ATOM     12  C   LIG d   1      -1.343  95.766 121.216  0.00  0.00     0.006 C 
ENDBRANCH   8  11
ENDBRANCH   7   8
ENDBRANCH   1   7
BRANCH   6  13
ATOM     13  N   LIG d   1      -4.174  91.584 119.774  0.00  0.00    -0.311 N 
ATOM     14  C   LIG d   1      -4.136  90.534 118.956  0.00  0.00     0.210 C 
ATOM     15  C   LIG d   1      -3.165  89.425 119.372  0.00  0.00     0.109 C 
ATOM     16  O   LIG d   1      -4.791  90.430 117.908  0.00  0.00    -0.276 OA
ATOM     17  H   LIG d   1      -3.586  91.599 120.584  0.00  0.00     0.149 HD
ENDBRANCH   6  13
BRANCH   5  18
ATOM     18  N   LIG d   1      -7.052  91.800 120.775  0.00  0.00     0.381 N 
ATOM     19  H   LIG d   1      -6.961  92.479 121.505  0.00  0.00    -0.090 HD
ATOM     20  H   LIG d   1      -6.494  91.000 121.017  0.00  0.00    -0.090 HD
ATOM     21  H   LIG d   1      -8.007  91.532 120.679  0.00  0.00    -0.090 HD
ENDBRANCH   5  18
BRANCH   3  22
ATOM     22  C   LIG d   1      -7.857  95.018 117.320  0.00  0.00     0.382 C 
ATOM     23  O   LIG d   1      -8.751  94.404 116.690  0.00  0.00    -0.241 OA
ATOM     24  O   LIG d   1      -7.783  96.258 117.228  0.00  0.00    -0.241 OA
ENDBRANCH   3  22
TORSDOF 7
ENDMDL
