MODEL 1
REMARK VINA RESULT:      -5.0      0.000      0.000
REMARK  7 active torsions:
REMARK  status: ('A' for Active; 'I' for Inactive)
REMARK    1  A    between atoms: C_2  and  C_3 
REMARK    2  A    between atoms: C_3  and  O_6 
REMARK    3  A    between atoms: C_3  and  C_4 
REMARK    4  A    between atoms: C_7  and  O_6 
REMARK    5  A    between atoms: C_9  and  C_10 
REMARK    6  A    between atoms: N_15  and  C_14 
REMARK    7  A    between atoms: N_20  and  C_19 
REMARK       I    between atoms: C_22  and  N_20 
ROOT
ATOM      1  C   LIG d   1      -4.617  93.792 117.250  0.00  0.00     0.161 C 
ATOM      2  C   LIG d   1      -5.932  93.319 117.111  0.00  0.00     0.016 C 
ATOM      3  C   LIG d   1      -6.258  91.948 116.997  0.00  0.00     0.038 C 
ATOM      4  C   LIG d   1      -5.296  90.940 117.166  0.00  0.00     0.028 C 
ATOM      5  C   LIG d   1      -3.883  91.385 116.805  0.00  0.00    -0.047 C 
ATOM      6  C   LIG d   1      -3.566  92.702 117.549  0.00  0.00     0.091 C 
ENDROOT
BRANCH   1   7
ATOM      7  O   LIG d   1      -4.572  94.821 118.258  0.00  0.00    -0.368 OA
BRANCH   7   8
ATOM      8  C   LIG d   1      -5.657  94.821 119.218  0.00  0.00     0.119 C 
BRANCH   8   9
ATOM      9  C   LIG d   1      -6.042  96.290 119.482  0.00  0.00     0.028 C 
ATOM     10  C   LIG d   1      -6.921  96.876 118.363  0.00  0.00     0.006 C 
ENDBRANCH   8   9
BRANCH   8  11
ATOM     11  C   LIG d   1      -5.203  94.272 120.573  0.00  0.00     0.028 C 
ATOM     12  C   LIG d   1      -5.610  92.806 120.789  0.00  0.00     0.006 C 
ENDBRANCH   8  11
ENDBRANCH   7   8
ENDBRANCH   1   7
BRANCH   6  13
ATOM     13  N   LIG d   1      -2.233  93.252 117.186  0.00  0.00    -0.311 N 
ATOM     14  C   LIG d   1      -1.126  93.009 117.884  0.00  0.00     0.210 C 
ATOM     15  C   LIG d   1       0.138  93.689 117.348  0.00  0.00     0.109 C 
ATOM     16  O   LIG d   1      -1.064  92.269 118.877  0.00  0.00    -0.276 OA
ATOM     17  H   LIG d   1      -2.187  93.837 116.375  0.00  0.00     0.149 HD
ENDBRANCH   6  13
BRANCH   5  18
ATOM     18  N   LIG d   1      -2.966  90.286 117.158  0.00  0.00     0.381 N 
ATOM     19  H   LIG d   1      -2.261  90.621 117.785  0.00  0.00    -0.090 HD
ATOM     20  H   LIG d   1      -2.514  89.957 116.323  0.00  0.00    -0.090 HD
ATOM     21  H   LIG d   1      -3.473  89.542 117.585  0.00  0.00    -0.090 HD
ENDBRANCH   5  18
BRANCH   3  22
ATOM     22  C   LIG d   1      -7.553  91.574 116.670  0.00  0.00     0.382 C 
ATOM     23  O   LIG d   1      -7.848  90.358 116.570  0.00  0.00    -0.241 OA
ATOM     24  O   LIG d   1      -8.418  92.437 116.430  0.00  0.00    -0.241 OA
ENDBRANCH   3  22
TORSDOF 7
ENDMDL
MODEL 2
REMARK VINA RESULT:      -5.0      0.961      1.491
REMARK  7 active torsions:
REMARK  status: ('A' for Active; 'I' for Inactive)
REMARK    1  A    between atoms: C_2  and  C_3 
REMARK    2  A    between atoms: C_3  and  O_6 
REMARK    3  A    between atoms: C_3  and  C_4 
REMARK    4  A    between atoms: C_7  and  O_6 
REMARK    5  A    between atoms: C_9  and  C_10 
REMARK    6  A    between atoms: N_15  and  C_14 
REMARK    7  A    between atoms: N_20  and  C_19 
REMARK       I    between atoms: C_22  and  N_20 
ROOT
ATOM      1  C   LIG d   1      -4.567  93.795 117.259  0.00  0.00     0.161 C 
ATOM      2  C   LIG d   1      -5.880  93.318 117.119  0.00  0.00     0.016 C 
ATOM      3  C   LIG d   1      -6.202  91.946 117.006  0.00  0.00     0.038 C 
ATOM      4  C   LIG d   1      -5.238  90.941 117.178  0.00  0.00     0.028 C 
ATOM      5  C   LIG d   1      -3.826  91.389 116.818  0.00  0.00    -0.047 C 
ATOM      6  C   LIG d   1      -3.513  92.708 117.561  0.00  0.00     0.091 C 
ENDROOT
BRANCH   1   7
ATOM      7  O   LIG d   1      -4.526  94.826 118.265  0.00  0.00    -0.368 OA
BRANCH   7   8
ATOM      8  C   LIG d   1      -4.385  94.374 119.635  0.00  0.00     0.119 C 
BRANCH   8   9
ATOM      9  C   LIG d   1      -5.651  94.810 120.398  0.00  0.00     0.028 C 
ATOM     10  C   LIG d   1      -6.348  96.012 119.740  0.00  0.00     0.006 C 
ENDBRANCH   8   9
BRANCH   8  11
ATOM     11  C   LIG d   1      -3.223  95.082 120.338  0.00  0.00     0.028 C 
ATOM     12  C   LIG d   1      -2.552  96.147 119.456  0.00  0.00     0.006 C 
ENDBRANCH   8  11
ENDBRANCH   7   8
ENDBRANCH   1   7
BRANCH   6  13
ATOM     13  N   LIG d   1      -2.181  93.261 117.199  0.00  0.00    -0.311 N 
ATOM     14  C   LIG d   1      -1.085  93.068 117.930  0.00  0.00     0.210 C 
ATOM     15  C   LIG d   1       0.180  93.742 117.389  0.00  0.00     0.109 C 
ATOM     16  O   LIG d   1      -1.033  92.377 118.959  0.00  0.00    -0.276 OA
ATOM     17  H   LIG d   1      -2.127  93.808 116.363  0.00  0.00     0.149 HD
ENDBRANCH   6  13
BRANCH   5  18
ATOM     18  N   LIG d   1      -2.906  90.293 117.175  0.00  0.00     0.381 N 
ATOM     19  H   LIG d   1      -2.523  89.888 116.345  0.00  0.00    -0.090 HD
ATOM     20  H   LIG d   1      -3.421  89.582 117.664  0.00  0.00    -0.090 HD
ATOM     21  H   LIG d   1      -2.172  90.638 117.754  0.00  0.00    -0.090 HD
ENDBRANCH   5  18
BRANCH   3  22
ATOM     22  C   LIG d   1      -7.495  91.568 116.677  0.00  0.00     0.382 C 
ATOM     23  O   LIG d   1      -8.360  92.442 116.430  0.00  0.00    -0.241 OA
ATOM     24  O   LIG d   1      -7.819  90.365 116.669  0.00  0.00    -0.241 OA
ENDBRANCH   3  22
TORSDOF 7
ENDMDL
MODEL 3
REMARK VINA RESULT:      -4.8      1.130      1.871
REMARK  7 active torsions:
REMARK  status: ('A' for Active; 'I' for Inactive)
REMARK    1  A    between atoms: C_2  and  C_3 
REMARK    2  A    between atoms: C_3  and  O_6 
REMARK    3  A    between atoms: C_3  and  C_4 
REMARK    4  A    between atoms: C_7  and  O_6 
REMARK    5  A    between atoms: C_9  and  C_10 
REMARK    6  A    between atoms: N_15  and  C_14 
REMARK    7  A    between atoms: N_20  and  C_19 
REMARK       I    between atoms: C_22  and  N_20 
ROOT
ATOM      1  C   LIG d   1      -4.764  94.012 117.727  0.00  0.00     0.161 C 
ATOM      2  C   LIG d   1      -6.035  93.432 117.580  0.00  0.00     0.016 C 
ATOM      3  C   LIG d   1      -6.237  92.091 117.181  0.00  0.00     0.038 C 
ATOM      4  C   LIG d   1      -5.171  91.188 117.047  0.00  0.00     0.028 C 
ATOM      5  C   LIG d   1      -3.849  91.861 116.695  0.00  0.00    -0.047 C 
ATOM      6  C   LIG d   1      -3.589  93.012 117.693  0.00  0.00     0.091 C 
ENDROOT
BRANCH   1   7
ATOM      7  O   LIG d   1      -4.721  94.795 118.936  0.00  0.00    -0.368 OA
BRANCH   7   8
ATOM      8  C   LIG d   1      -4.959  96.216 118.784  0.00  0.00     0.119 C 
BRANCH   8   9
ATOM      9  C   LIG d   1      -3.670  96.949 119.205  0.00  0.00     0.028 C 
ATOM     10  C   LIG d   1      -2.804  96.111 120.160  0.00  0.00     0.006 C 
ENDBRANCH   8   9
BRANCH   8  11
ATOM     11  C   LIG d   1      -6.039  96.707 119.753  0.00  0.00     0.028 C 
ATOM     12  C   LIG d   1      -7.457  96.597 119.170  0.00  0.00     0.006 C 
ENDBRANCH   8  11
ENDBRANCH   7   8
ENDBRANCH   1   7
BRANCH   6  13
ATOM     13  N   LIG d   1      -2.357  93.776 117.369  0.00  0.00    -0.311 N 
ATOM     14  C   LIG d   1      -1.174  93.533 117.931  0.00  0.00     0.210 C 
ATOM     15  C   LIG d   1      -0.038  94.451 117.469  0.00  0.00     0.109 C 
ATOM     16  O   LIG d   1      -0.951  92.622 118.743  0.00  0.00    -0.276 OA
ATOM     17  H   LIG d   1      -2.441  94.513 116.697  0.00  0.00     0.149 HD
ENDBRANCH   6  13
BRANCH   5  18
ATOM     18  N   LIG d   1      -2.800  90.824 116.723  0.00  0.00     0.381 N 
ATOM     19  H   LIG d   1      -3.167  89.982 117.121  0.00  0.00    -0.090 HD
ATOM     20  H   LIG d   1      -2.043  91.143 117.301  0.00  0.00    -0.090 HD
ATOM     21  H   LIG d   1      -2.471  90.647 115.799  0.00  0.00    -0.090 HD
ENDBRANCH   5  18
BRANCH   3  22
ATOM     22  C   LIG d   1      -7.515  91.651 116.872  0.00  0.00     0.382 C 
ATOM     23  O   LIG d   1      -8.367  92.459 116.431  0.00  0.00    -0.241 OA
ATOM     24  O   LIG d   1      -7.841  90.465 117.072  0.00  0.00    -0.241 OA
ENDBRANCH   3  22
TORSDOF 7
ENDMDL
MODEL 4
REMARK VINA RESULT:      -4.7      2.097      4.233
REMARK  7 active torsions:
REMARK  status: ('A' for Active; 'I' for Inactive)
REMARK    1  A    between atoms: C_2  and  C_3 
REMARK    2  A    between atoms: C_3  and  O_6 
REMARK    3  A    between atoms: C_3  and  C_4 
REMARK    4  A    between atoms: C_7  and  O_6 
REMARK    5  A    between atoms: C_9  and  C_10 
REMARK    6  A    between atoms: N_15  and  C_14 
REMARK    7  A    between atoms: N_20  and  C_19 
REMARK       I    between atoms: C_22  and  N_20 
ROOT
ATOM      1  C   LIG d   1      -3.874  91.945 117.829  0.00  0.00     0.161 C 
ATOM      2  C   LIG d   1      -5.123  91.513 117.353  0.00  0.00     0.016 C 
ATOM      3  C   LIG d   1      -6.207  92.387 117.106  0.00  0.00     0.038 C 
ATOM      4  C   LIG d   1      -6.065  93.781 117.176  0.00  0.00     0.028 C 
ATOM      5  C   LIG d   1      -4.972  94.231 118.139  0.00  0.00    -0.047 C 
ATOM      6  C   LIG d   1      -3.666  93.473 117.805  0.00  0.00     0.091 C 
ENDROOT
BRANCH   1   7
ATOM      7  O   LIG d   1      -2.819  91.284 117.102  0.00  0.00    -0.368 OA
BRANCH   7   8
ATOM      8  C   LIG d   1      -2.255  90.106 117.728  0.00  0.00     0.119 C 
BRANCH   8   9
ATOM      9  C   LIG d   1      -2.500  90.225 119.245  0.00  0.00     0.028 C 
ATOM     10  C   LIG d   1      -3.109  88.946 119.843  0.00  0.00     0.006 C 
ENDBRANCH   8   9
BRANCH   8  11
ATOM     11  C   LIG d   1      -0.732  90.064 117.566  0.00  0.00     0.028 C 
ATOM     12  C   LIG d   1       0.008  90.791 118.700  0.00  0.00     0.006 C 
ENDBRANCH   8  11
ENDBRANCH   7   8
ENDBRANCH   1   7
BRANCH   6  13
ATOM     13  N   LIG d   1      -2.567  93.793 118.753  0.00  0.00    -0.311 N 
ATOM     14  C   LIG d   1      -1.367  94.221 118.367  0.00  0.00     0.210 C 
ATOM     15  C   LIG d   1      -0.373  94.473 119.505  0.00  0.00     0.109 C 
ATOM     16  O   LIG d   1      -1.041  94.447 117.192  0.00  0.00    -0.276 OA
ATOM     17  H   LIG d   1      -2.756  93.667 119.729  0.00  0.00     0.149 HD
ENDBRANCH   6  13
BRANCH   5  18
ATOM     18  N   LIG d   1      -4.840  95.695 118.010  0.00  0.00     0.381 N 
ATOM     19  H   LIG d   1      -5.467  96.031 117.307  0.00  0.00    -0.090 HD
ATOM     20  H   LIG d   1      -3.901  95.913 117.726  0.00  0.00    -0.090 HD
ATOM     21  H   LIG d   1      -5.041  96.133 118.882  0.00  0.00    -0.090 HD
ENDBRANCH   5  18
BRANCH   3  22
ATOM     22  C   LIG d   1      -7.460  91.865 116.824  0.00  0.00     0.382 C 
ATOM     23  O   LIG d   1      -8.382  92.623 116.438  0.00  0.00    -0.241 OA
ATOM     24  O   LIG d   1      -7.693  90.653 116.993  0.00  0.00    -0.241 OA
ENDBRANCH   3  22
TORSDOF 7
ENDMDL
MODEL 5
REMARK VINA RESULT:      -4.3      2.605      6.142
REMARK  7 active torsions:
REMARK  status: ('A' for Active; 'I' for Inactive)
REMARK    1  A    between atoms: C_2  and  C_3 
REMARK    2  A    between atoms: C_3  and  O_6 
REMARK    3  A    between atoms: C_3  and  C_4 
REMARK    4  A    between atoms: C_7  and  O_6 
REMARK    5  A    between atoms: C_9  and  C_10 
REMARK    6  A    between atoms: N_15  and  C_14 
REMARK    7  A    between atoms: N_20  and  C_19 
REMARK       I    between atoms: C_22  and  N_20 
ROOT
ATOM      1  C   LIG d   1      -2.746  91.286 117.253  0.00  0.00     0.161 C 
ATOM      2  C   LIG d   1      -1.499  91.885 117.497  0.00  0.00     0.016 C 
ATOM      3  C   LIG d   1      -1.337  93.264 117.765  0.00  0.00     0.038 C 
ATOM      4  C   LIG d   1      -2.434  94.116 117.957  0.00  0.00     0.028 C 
ATOM      5  C   LIG d   1      -3.691  93.660 117.223  0.00  0.00    -0.047 C 
ATOM      6  C   LIG d   1      -3.965  92.179 117.569  0.00  0.00     0.091 C 
ENDROOT
BRANCH   1   7
ATOM      7  O   LIG d   1      -2.839  90.040 117.971  0.00  0.00    -0.368 OA
BRANCH   7   8
ATOM      8  C   LIG d   1      -2.192  90.002 119.267  0.00  0.00     0.119 C 
BRANCH   8   9
ATOM      9  C   LIG d   1      -1.439  88.661 119.369  0.00  0.00     0.028 C 
ATOM     10  C   LIG d   1      -2.216  87.612 120.184  0.00  0.00     0.006 C 
ENDBRANCH   8   9
BRANCH   8  11
ATOM     11  C   LIG d   1      -3.220  89.977 120.402  0.00  0.00     0.028 C 
ATOM     12  C   LIG d   1      -3.443  91.360 121.034  0.00  0.00     0.006 C 
ENDBRANCH   8  11
ENDBRANCH   7   8
ENDBRANCH   1   7
BRANCH   6  13
ATOM     13  N   LIG d   1      -5.129  91.629 116.826  0.00  0.00    -0.311 N 
ATOM     14  C   LIG d   1      -6.338  91.482 117.364  0.00  0.00     0.210 C 
ATOM     15  C   LIG d   1      -7.392  90.878 116.431  0.00  0.00     0.109 C 
ATOM     16  O   LIG d   1      -6.647  91.823 118.516  0.00  0.00    -0.276 OA
ATOM     17  H   LIG d   1      -4.976  91.355 115.875  0.00  0.00     0.149 HD
ENDBRANCH   6  13
BRANCH   5  18
ATOM     18  N   LIG d   1      -4.790  94.560 117.620  0.00  0.00     0.381 N 
ATOM     19  H   LIG d   1      -4.730  95.416 117.107  0.00  0.00    -0.090 HD
ATOM     20  H   LIG d   1      -4.700  94.771 118.599  0.00  0.00    -0.090 HD
ATOM     21  H   LIG d   1      -5.668  94.122 117.448  0.00  0.00    -0.090 HD
ENDBRANCH   5  18
BRANCH   3  22
ATOM     22  C   LIG d   1      -0.063  93.811 117.803  0.00  0.00     0.382 C 
ATOM     23  O   LIG d   1       0.886  93.231 117.223  0.00  0.00    -0.241 OA
ATOM     24  O   LIG d   1       0.157  94.854 118.447  0.00  0.00    -0.241 OA
ENDBRANCH   3  22
TORSDOF 7
ENDMDL
MODEL 6
REMARK VINA RESULT:      -4.3      3.131      7.130
REMARK  7 active torsions:
REMARK  status: ('A' for Active; 'I' for Inactive)
REMARK    1  A    between atoms: C_2  and  C_3 
REMARK    2  A    between atoms: C_3  and  O_6 
REMARK    3  A    between atoms: C_3  and  C_4 
REMARK    4  A    between atoms: C_7  and  O_6 
REMARK    5  A    between atoms: C_9  and  C_10 
REMARK    6  A    between atoms: N_15  and  C_14 
REMARK    7  A    between atoms: N_20  and  C_19 
REMARK       I    between atoms: C_22  and  N_20 
ROOT
ATOM      1  C   LIG d   1      -0.462  91.052 116.957  0.00  0.00     0.161 C 
ATOM      2  C   LIG d   1       0.918  90.789 116.988  0.00  0.00     0.016 C 
ATOM      3  C   LIG d   1       1.876  91.712 117.464  0.00  0.00     0.038 C 
ATOM      4  C   LIG d   1       1.503  92.912 118.088  0.00  0.00     0.028 C 
ATOM      5  C   LIG d   1       0.151  93.442 117.622  0.00  0.00    -0.047 C 
ATOM      6  C   LIG d   1      -0.897  92.312 117.736  0.00  0.00     0.091 C 
ENDROOT
BRANCH   1   7
ATOM      7  O   LIG d   1      -1.190  89.899 117.423  0.00  0.00    -0.368 OA
BRANCH   7   8
ATOM      8  C   LIG d   1      -1.406  89.817 118.853  0.00  0.00     0.119 C 
BRANCH   8   9
ATOM      9  C   LIG d   1      -0.319  88.891 119.433  0.00  0.00     0.028 C 
ATOM     10  C   LIG d   1       0.556  89.598 120.482  0.00  0.00     0.006 C 
ENDBRANCH   8   9
BRANCH   8  11
ATOM     11  C   LIG d   1      -2.737  89.132 119.177  0.00  0.00     0.028 C 
ATOM     12  C   LIG d   1      -3.891  90.130 119.365  0.00  0.00     0.006 C 
ENDBRANCH   8  11
ENDBRANCH   7   8
ENDBRANCH   1   7
BRANCH   6  13
ATOM     13  N   LIG d   1      -2.230  92.721 117.221  0.00  0.00    -0.311 N 
ATOM     14  C   LIG d   1      -3.158  93.307 117.974  0.00  0.00     0.210 C 
ATOM     15  C   LIG d   1      -4.470  93.628 117.251  0.00  0.00     0.109 C 
ATOM     16  O   LIG d   1      -3.008  93.621 119.165  0.00  0.00    -0.276 OA
ATOM     17  H   LIG d   1      -2.424  92.531 116.257  0.00  0.00     0.149 HD
ENDBRANCH   6  13
BRANCH   5  18
ATOM     18  N   LIG d   1      -0.175  94.619 118.450  0.00  0.00     0.381 N 
ATOM     19  H   LIG d   1       0.124  95.453 117.985  0.00  0.00    -0.090 HD
ATOM     20  H   LIG d   1       0.318  94.549 119.322  0.00  0.00    -0.090 HD
ATOM     21  H   LIG d   1      -1.157  94.657 118.616  0.00  0.00    -0.090 HD
ENDBRANCH   5  18
BRANCH   3  22
ATOM     22  C   LIG d   1       3.227  91.456 117.283  0.00  0.00     0.382 C 
ATOM     23  O   LIG d   1       3.809  90.616 118.011  0.00  0.00    -0.241 OA
ATOM     24  O   LIG d   1       3.880  92.086 116.430  0.00  0.00    -0.241 OA
ENDBRANCH   3  22
TORSDOF 7
ENDMDL
MODEL 7
REMARK VINA RESULT:      -4.2      2.400      4.218
REMARK  7 active torsions:
REMARK  status: ('A' for Active; 'I' for Inactive)
REMARK    1  A    between atoms: C_2  and  C_3 
REMARK    2  A    between atoms: C_3  and  O_6 
REMARK    3  A    between atoms: C_3  and  C_4 
REMARK    4  A    between atoms: C_7  and  O_6 
REMARK    5  A    between atoms: C_9  and  C_10 
REMARK    6  A    between atoms: N_15  and  C_14 
REMARK    7  A    between atoms: N_20  and  C_19 
REMARK       I    between atoms: C_22  and  N_20 
ROOT
ATOM      1  C   LIG d   1      -5.671  92.877 119.526  0.00  0.00     0.161 C 
ATOM      2  C   LIG d   1      -7.055  93.092 119.630  0.00  0.00     0.016 C 
ATOM      3  C   LIG d   1      -7.668  94.344 119.397  0.00  0.00     0.038 C 
ATOM      4  C   LIG d   1      -6.950  95.439 118.894  0.00  0.00     0.028 C 
ATOM      5  C   LIG d   1      -5.469  95.410 119.257  0.00  0.00    -0.047 C 
ATOM      6  C   LIG d   1      -4.885  94.032 118.871  0.00  0.00     0.091 C 
ENDROOT
BRANCH   1   7
ATOM      7  O   LIG d   1      -5.418  91.641 118.830  0.00  0.00    -0.368 OA
BRANCH   7   8
ATOM      8  C   LIG d   1      -5.403  91.716 117.383  0.00  0.00     0.119 C 
BRANCH   8   9
ATOM      9  C   LIG d   1      -6.736  91.135 116.875  0.00  0.00     0.028 C 
ATOM     10  C   LIG d   1      -7.722  92.228 116.431  0.00  0.00     0.006 C 
ENDBRANCH   8   9
BRANCH   8  11
ATOM     11  C   LIG d   1      -4.316  90.815 116.790  0.00  0.00     0.028 C 
ATOM     12  C   LIG d   1      -3.433  90.160 117.864  0.00  0.00     0.006 C 
ENDBRANCH   8  11
ENDBRANCH   7   8
ENDBRANCH   1   7
BRANCH   6  13
ATOM     13  N   LIG d   1      -3.460  93.889 119.269  0.00  0.00    -0.311 N 
ATOM     14  C   LIG d   1      -2.459  93.810 118.393  0.00  0.00     0.210 C 
ATOM     15  C   LIG d   1      -1.068  93.645 119.015  0.00  0.00     0.109 C 
ATOM     16  O   LIG d   1      -2.587  93.892 117.163  0.00  0.00    -0.276 OA
ATOM     17  H   LIG d   1      -3.262  93.845 120.249  0.00  0.00     0.149 HD
ENDBRANCH   6  13
BRANCH   5  18
ATOM     18  N   LIG d   1      -4.816  96.532 118.555  0.00  0.00     0.381 N 
ATOM     19  H   LIG d   1      -5.152  97.401 118.920  0.00  0.00    -0.090 HD
ATOM     20  H   LIG d   1      -5.053  96.487 117.580  0.00  0.00    -0.090 HD
ATOM     21  H   LIG d   1      -3.828  96.475 118.668  0.00  0.00    -0.090 HD
ENDBRANCH   5  18
BRANCH   3  22
ATOM     22  C   LIG d   1      -9.008  94.522 119.706  0.00  0.00     0.382 C 
ATOM     23  O   LIG d   1      -9.344  95.355 120.582  0.00  0.00    -0.241 OA
ATOM     24  O   LIG d   1      -9.882  93.828 119.152  0.00  0.00    -0.241 OA
ENDBRANCH   3  22
TORSDOF 7
ENDMDL
MODEL 8
REMARK VINA RESULT:      -4.2      2.502      6.067
REMARK  7 active torsions:
REMARK  status: ('A' for Active; 'I' for Inactive)
REMARK    1  A    between atoms: C_2  and  C_3 
REMARK    2  A    between atoms: C_3  and  O_6 
REMARK    3  A    between atoms: C_3  and  C_4 
REMARK    4  A    between atoms: C_7  and  O_6 
REMARK    5  A    between atoms: C_9  and  C_10 
REMARK    6  A    between atoms: N_15  and  C_14 
REMARK    7  A    between atoms: N_20  and  C_19 
REMARK       I    between atoms: C_22  and  N_20 
ROOT
ATOM      1  C   LIG d   1      -2.264  91.889 117.577  0.00  0.00     0.161 C 
ATOM      2  C   LIG d   1      -0.901  91.825 117.913  0.00  0.00     0.016 C 
ATOM      3  C   LIG d   1      -0.128  92.960 118.247  0.00  0.00     0.038 C 
ATOM      4  C   LIG d   1      -0.705  94.227 118.415  0.00  0.00     0.028 C 
ATOM      5  C   LIG d   1      -1.975  94.428 117.595  0.00  0.00    -0.047 C 
ATOM      6  C   LIG d   1      -2.937  93.248 117.863  0.00  0.00     0.091 C 
ENDROOT
BRANCH   1   7
ATOM      7  O   LIG d   1      -2.980  90.826 118.236  0.00  0.00    -0.368 OA
BRANCH   7   8
ATOM      8  C   LIG d   1      -3.386  91.083 119.603  0.00  0.00     0.119 C 
BRANCH   8   9
ATOM      9  C   LIG d   1      -2.783  89.970 120.482  0.00  0.00     0.028 C 
ATOM     10  C   LIG d   1      -2.541  88.669 119.697  0.00  0.00     0.006 C 
ENDBRANCH   8   9
BRANCH   8  11
ATOM     11  C   LIG d   1      -4.903  90.953 119.768  0.00  0.00     0.028 C 
ATOM     12  C   LIG d   1      -5.457  91.829 120.902  0.00  0.00     0.006 C 
ENDBRANCH   8  11
ENDBRANCH   7   8
ENDBRANCH   1   7
BRANCH   6  13
ATOM     13  N   LIG d   1      -4.169  93.322 117.036  0.00  0.00    -0.311 N 
ATOM     14  C   LIG d   1      -5.294  93.905 117.447  0.00  0.00     0.210 C 
ATOM     15  C   LIG d   1      -6.453  93.853 116.446  0.00  0.00     0.109 C 
ATOM     16  O   LIG d   1      -5.432  94.490 118.532  0.00  0.00    -0.276 OA
ATOM     17  H   LIG d   1      -4.136  92.900 116.128  0.00  0.00     0.149 HD
ENDBRANCH   6  13
BRANCH   5  18
ATOM     18  N   LIG d   1      -2.546  95.735 117.970  0.00  0.00     0.381 N 
ATOM     19  H   LIG d   1      -2.782  95.736 118.942  0.00  0.00    -0.090 HD
ATOM     20  H   LIG d   1      -3.387  95.887 117.441  0.00  0.00    -0.090 HD
ATOM     21  H   LIG d   1      -1.890  96.461 117.780  0.00  0.00    -0.090 HD
ENDBRANCH   5  18
BRANCH   3  22
ATOM     22  C   LIG d   1       1.248  92.840 118.377  0.00  0.00     0.382 C 
ATOM     23  O   LIG d   1       1.794  93.055 119.486  0.00  0.00    -0.241 OA
ATOM     24  O   LIG d   1       1.954  92.563 117.389  0.00  0.00    -0.241 OA
ENDBRANCH   3  22
TORSDOF 7
ENDMDL
MODEL 9
REMARK VINA RESULT:      -4.1      2.080      2.882
REMARK  7 active torsions:
REMARK  status: ('A' for Active; 'I' for Inactive)
REMARK    1  A    between atoms: C_2  and  C_3 
REMARK    2  A    between atoms: C_3  and  O_6 
REMARK    3  A    between atoms: C_3  and  C_4 
REMARK    4  A    between atoms: C_7  and  O_6 
REMARK    5  A    between atoms: C_9  and  C_10 
REMARK    6  A    between atoms: N_15  and  C_14 
REMARK    7  A    between atoms: N_20  and  C_19 
REMARK       I    between atoms: C_22  and  N_20 
ROOT
ATOM      1  C   LIG d   1      -4.589  92.800 119.569  0.00  0.00     0.161 C 
ATOM      2  C   LIG d   1      -5.857  92.461 119.067  0.00  0.00     0.016 C 
ATOM      3  C   LIG d   1      -6.051  91.704 117.889  0.00  0.00     0.038 C 
ATOM      4  C   LIG d   1      -4.981  91.103 117.209  0.00  0.00     0.028 C 
ATOM      5  C   LIG d   1      -3.657  91.838 117.393  0.00  0.00    -0.047 C 
ATOM      6  C   LIG d   1      -3.411  92.059 118.903  0.00  0.00     0.091 C 
ENDROOT
BRANCH   1   7
ATOM      7  O   LIG d   1      -4.561  92.605 120.997  0.00  0.00    -0.368 OA
BRANCH   7   8
ATOM      8  C   LIG d   1      -4.786  91.251 121.460  0.00  0.00     0.119 C 
BRANCH   8   9
ATOM      9  C   LIG d   1      -5.851  91.313 122.572  0.00  0.00     0.028 C 
ATOM     10  C   LIG d   1      -6.364  92.742 122.814  0.00  0.00     0.006 C 
ENDBRANCH   8   9
BRANCH   8  11
ATOM     11  C   LIG d   1      -3.534  90.676 122.130  0.00  0.00     0.028 C 
ATOM     12  C   LIG d   1      -2.625  91.763 122.726  0.00  0.00     0.006 C 
ENDBRANCH   8  11
ENDBRANCH   7   8
ENDBRANCH   1   7
BRANCH   6  13
ATOM     13  N   LIG d   1      -2.178  92.845 119.167  0.00  0.00    -0.311 N 
ATOM     14  C   LIG d   1      -0.999  92.290 119.439  0.00  0.00     0.210 C 
ATOM     15  C   LIG d   1       0.139  93.283 119.700  0.00  0.00     0.109 C 
ATOM     16  O   LIG d   1      -0.779  91.070 119.458  0.00  0.00    -0.276 OA
ATOM     17  H   LIG d   1      -2.259  93.843 119.141  0.00  0.00     0.149 HD
ENDBRANCH   6  13
BRANCH   5  18
ATOM     18  N   LIG d   1      -2.606  91.029 116.748  0.00  0.00     0.381 N 
ATOM     19  H   LIG d   1      -1.836  90.911 117.376  0.00  0.00    -0.090 HD
ATOM     20  H   LIG d   1      -2.276  91.515 115.933  0.00  0.00    -0.090 HD
ATOM     21  H   LIG d   1      -2.971  90.140 116.488  0.00  0.00    -0.090 HD
ENDBRANCH   5  18
BRANCH   3  22
ATOM     22  C   LIG d   1      -7.325  91.577 117.356  0.00  0.00     0.382 C 
ATOM     23  O   LIG d   1      -7.766  90.443 117.051  0.00  0.00    -0.241 OA
ATOM     24  O   LIG d   1      -8.021  92.586 117.134  0.00  0.00    -0.241 OA
ENDBRANCH   3  22
TORSDOF 7
ENDMDL
