MODEL 1
REMARK VINA RESULT:      -4.8      0.000      0.000
REMARK  7 active torsions:
REMARK  status: ('A' for Active; 'I' for Inactive)
REMARK    1  A    between atoms: C_2  and  C_3 
REMARK    2  A    between atoms: C_3  and  O_6 
REMARK    3  A    between atoms: C_3  and  C_4 
REMARK    4  A    between atoms: C_7  and  O_6 
REMARK    5  A    between atoms: C_9  and  C_10 
REMARK    6  A    between atoms: N_15  and  C_14 
REMARK    7  A    between atoms: N_20  and  C_19 
REMARK       I    between atoms: C_22  and  N_20 
ROOT
ATOM      1  C   LIG d   1      -1.331  91.695 117.496  0.00  0.00     0.161 C 
ATOM      2  C   LIG d   1       0.061  91.791 117.657  0.00  0.00     0.016 C 
ATOM      3  C   LIG d   1       0.748  93.021 117.777  0.00  0.00     0.038 C 
ATOM      4  C   LIG d   1       0.067  94.242 117.895  0.00  0.00     0.028 C 
ATOM      5  C   LIG d   1      -1.306  94.237 117.231  0.00  0.00    -0.047 C 
ATOM      6  C   LIG d   1      -2.102  93.011 117.734  0.00  0.00     0.091 C 
ENDROOT
BRANCH   1   7
ATOM      7  O   LIG d   1      -1.850  90.650 118.342  0.00  0.00    -0.368 OA
BRANCH   7   8
ATOM      8  C   LIG d   1      -1.009  89.481 118.500  0.00  0.00     0.119 C 
BRANCH   8   9
ATOM      9  C   LIG d   1      -1.416  88.467 117.414  0.00  0.00     0.028 C 
ATOM     10  C   LIG d   1      -0.209  87.946 116.615  0.00  0.00     0.006 C 
ENDBRANCH   8   9
BRANCH   8  11
ATOM     11  C   LIG d   1      -1.278  88.778 119.834  0.00  0.00     0.028 C 
ATOM     12  C   LIG d   1      -2.168  87.534 119.682  0.00  0.00     0.006 C 
ENDBRANCH   8  11
ENDBRANCH   7   8
ENDBRANCH   1   7
BRANCH   6  13
ATOM     13  N   LIG d   1      -3.425  92.883 117.070  0.00  0.00    -0.311 N 
ATOM     14  C   LIG d   1      -4.570  92.742 117.738  0.00  0.00     0.210 C 
ATOM     15  C   LIG d   1      -5.818  92.607 116.860  0.00  0.00     0.109 C 
ATOM     16  O   LIG d   1      -4.673  92.749 118.973  0.00  0.00    -0.276 OA
ATOM     17  H   LIG d   1      -3.437  92.899 116.069  0.00  0.00     0.149 HD
ENDBRANCH   6  13
BRANCH   5  18
ATOM     18  N   LIG d   1      -1.960  95.520 117.549  0.00  0.00     0.381 N 
ATOM     19  H   LIG d   1      -1.590  95.887 118.403  0.00  0.00    -0.090 HD
ATOM     20  H   LIG d   1      -2.944  95.362 117.674  0.00  0.00    -0.090 HD
ATOM     21  H   LIG d   1      -1.812  96.170 116.808  0.00  0.00    -0.090 HD
ENDBRANCH   5  18
BRANCH   3  22
ATOM     22  C   LIG d   1       2.134  93.041 117.739  0.00  0.00     0.382 C 
ATOM     23  O   LIG d   1       2.786  93.279 118.783  0.00  0.00    -0.241 OA
ATOM     24  O   LIG d   1       2.739  92.868 116.664  0.00  0.00    -0.241 OA
ENDBRANCH   3  22
TORSDOF 7
ENDMDL
MODEL 2
REMARK VINA RESULT:      -4.8      1.537      2.334
REMARK  7 active torsions:
REMARK  status: ('A' for Active; 'I' for Inactive)
REMARK    1  A    between atoms: C_2  and  C_3 
REMARK    2  A    between atoms: C_3  and  O_6 
REMARK    3  A    between atoms: C_3  and  C_4 
REMARK    4  A    between atoms: C_7  and  O_6 
REMARK    5  A    between atoms: C_9  and  C_10 
REMARK    6  A    between atoms: N_15  and  C_14 
REMARK    7  A    between atoms: N_20  and  C_19 
REMARK       I    between atoms: C_22  and  N_20 
ROOT
ATOM      1  C   LIG d   1      -1.618  92.117 117.747  0.00  0.00     0.161 C 
ATOM      2  C   LIG d   1      -0.331  91.708 117.358  0.00  0.00     0.016 C 
ATOM      3  C   LIG d   1       0.789  92.571 117.347  0.00  0.00     0.038 C 
ATOM      4  C   LIG d   1       0.729  93.871 117.871  0.00  0.00     0.028 C 
ATOM      5  C   LIG d   1      -0.664  94.487 117.806  0.00  0.00    -0.047 C 
ATOM      6  C   LIG d   1      -1.679  93.500 118.428  0.00  0.00     0.091 C 
ENDROOT
BRANCH   1   7
ATOM      7  O   LIG d   1      -2.213  91.115 118.595  0.00  0.00    -0.368 OA
BRANCH   7   8
ATOM      8  C   LIG d   1      -3.210  90.266 117.975  0.00  0.00     0.119 C 
BRANCH   8   9
ATOM      9  C   LIG d   1      -2.469  89.089 117.312  0.00  0.00     0.028 C 
ATOM     10  C   LIG d   1      -1.853  88.128 118.344  0.00  0.00     0.006 C 
ENDBRANCH   8   9
BRANCH   8  11
ATOM     11  C   LIG d   1      -3.925  90.990 116.831  0.00  0.00     0.028 C 
ATOM     12  C   LIG d   1      -5.363  91.399 117.190  0.00  0.00     0.006 C 
ENDBRANCH   8  11
ENDBRANCH   7   8
ENDBRANCH   1   7
BRANCH   6  13
ATOM     13  N   LIG d   1      -3.079  93.989 118.328  0.00  0.00    -0.311 N 
ATOM     14  C   LIG d   1      -3.844  94.244 119.389  0.00  0.00     0.210 C 
ATOM     15  C   LIG d   1      -5.263  94.720 119.063  0.00  0.00     0.109 C 
ATOM     16  O   LIG d   1      -3.471  94.151 120.568  0.00  0.00    -0.276 OA
ATOM     17  H   LIG d   1      -3.451  94.122 117.408  0.00  0.00     0.149 HD
ENDBRANCH   6  13
BRANCH   5  18
ATOM     18  N   LIG d   1      -0.612  95.782 118.509  0.00  0.00     0.381 N 
ATOM     19  H   LIG d   1      -0.234  95.655 119.426  0.00  0.00    -0.090 HD
ATOM     20  H   LIG d   1      -1.547  96.141 118.600  0.00  0.00    -0.090 HD
ATOM     21  H   LIG d   1      -0.050  96.426 117.996  0.00  0.00    -0.090 HD
ENDBRANCH   5  18
BRANCH   3  22
ATOM     22  C   LIG d   1       1.976  92.148 116.769  0.00  0.00     0.382 C 
ATOM     23  O   LIG d   1       2.116  90.948 116.430  0.00  0.00    -0.241 OA
ATOM     24  O   LIG d   1       2.926  92.941 116.624  0.00  0.00    -0.241 OA
ENDBRANCH   3  22
TORSDOF 7
ENDMDL
MODEL 3
REMARK VINA RESULT:      -4.6      1.720      4.908
REMARK  7 active torsions:
REMARK  status: ('A' for Active; 'I' for Inactive)
REMARK    1  A    between atoms: C_2  and  C_3 
REMARK    2  A    between atoms: C_3  and  O_6 
REMARK    3  A    between atoms: C_3  and  C_4 
REMARK    4  A    between atoms: C_7  and  O_6 
REMARK    5  A    between atoms: C_9  and  C_10 
REMARK    6  A    between atoms: N_15  and  C_14 
REMARK    7  A    between atoms: N_20  and  C_19 
REMARK       I    between atoms: C_22  and  N_20 
ROOT
ATOM      1  C   LIG d   1      -1.831  91.280 118.892  0.00  0.00     0.161 C 
ATOM      2  C   LIG d   1      -3.168  91.028 118.541  0.00  0.00     0.016 C 
ATOM      3  C   LIG d   1      -3.948  91.912 117.761  0.00  0.00     0.038 C 
ATOM      4  C   LIG d   1      -3.394  93.045 117.147  0.00  0.00     0.028 C 
ATOM      5  C   LIG d   1      -2.183  93.603 117.887  0.00  0.00    -0.047 C 
ATOM      6  C   LIG d   1      -1.176  92.457 118.139  0.00  0.00     0.091 C 
ENDROOT
BRANCH   1   7
ATOM      7  O   LIG d   1      -1.048  90.082 118.726  0.00  0.00    -0.368 OA
BRANCH   7   8
ATOM      8  C   LIG d   1      -0.976  89.548 117.381  0.00  0.00     0.119 C 
BRANCH   8   9
ATOM      9  C   LIG d   1      -1.209  88.027 117.473  0.00  0.00     0.028 C 
ATOM     10  C   LIG d   1      -1.712  87.594 118.861  0.00  0.00     0.006 C 
ENDBRANCH   8   9
BRANCH   8  11
ATOM     11  C   LIG d   1       0.428  89.708 116.792  0.00  0.00     0.028 C 
ATOM     12  C   LIG d   1       1.536  89.580 117.850  0.00  0.00     0.006 C 
ENDBRANCH   8  11
ENDBRANCH   7   8
ENDBRANCH   1   7
BRANCH   6  13
ATOM     13  N   LIG d   1      -0.000  92.900 118.932  0.00  0.00    -0.311 N 
ATOM     14  C   LIG d   1       1.159  93.261 118.385  0.00  0.00     0.210 C 
ATOM     15  C   LIG d   1       2.248  93.664 119.384  0.00  0.00     0.109 C 
ATOM     16  O   LIG d   1       1.379  93.316 117.166  0.00  0.00    -0.276 OA
ATOM     17  H   LIG d   1      -0.101  92.915 119.928  0.00  0.00     0.149 HD
ENDBRANCH   6  13
BRANCH   5  18
ATOM     18  N   LIG d   1      -1.623  94.694 117.067  0.00  0.00     0.381 N 
ATOM     19  H   LIG d   1      -1.736  95.567 117.542  0.00  0.00    -0.090 HD
ATOM     20  H   LIG d   1      -2.127  94.740 116.199  0.00  0.00    -0.090 HD
ATOM     21  H   LIG d   1      -0.657  94.527 116.890  0.00  0.00    -0.090 HD
ENDBRANCH   5  18
BRANCH   3  22
ATOM     22  C   LIG d   1      -5.309  91.687 117.621  0.00  0.00     0.382 C 
ATOM     23  O   LIG d   1      -5.717  90.721 116.931  0.00  0.00    -0.241 OA
ATOM     24  O   LIG d   1      -6.134  92.462 118.139  0.00  0.00    -0.241 OA
ENDBRANCH   3  22
TORSDOF 7
ENDMDL
MODEL 4
REMARK VINA RESULT:      -4.5      2.947      5.389
REMARK  7 active torsions:
REMARK  status: ('A' for Active; 'I' for Inactive)
REMARK    1  A    between atoms: C_2  and  C_3 
REMARK    2  A    between atoms: C_3  and  O_6 
REMARK    3  A    between atoms: C_3  and  C_4 
REMARK    4  A    between atoms: C_7  and  O_6 
REMARK    5  A    between atoms: C_9  and  C_10 
REMARK    6  A    between atoms: N_15  and  C_14 
REMARK    7  A    between atoms: N_20  and  C_19 
REMARK       I    between atoms: C_22  and  N_20 
ROOT
ATOM      1  C   LIG d   1      -3.806  92.261 119.570  0.00  0.00     0.161 C 
ATOM      2  C   LIG d   1      -2.869  91.421 118.946  0.00  0.00     0.016 C 
ATOM      3  C   LIG d   1      -3.115  90.753 117.724  0.00  0.00     0.038 C 
ATOM      4  C   LIG d   1      -4.267  91.002 116.962  0.00  0.00     0.028 C 
ATOM      5  C   LIG d   1      -5.460  91.454 117.797  0.00  0.00    -0.047 C 
ATOM      6  C   LIG d   1      -5.024  92.632 118.698  0.00  0.00     0.091 C 
ENDROOT
BRANCH   1   7
ATOM      7  O   LIG d   1      -3.151  93.452 120.048  0.00  0.00    -0.368 OA
BRANCH   7   8
ATOM      8  C   LIG d   1      -3.195  94.601 119.167  0.00  0.00     0.119 C 
BRANCH   8   9
ATOM      9  C   LIG d   1      -1.754  94.879 118.696  0.00  0.00     0.028 C 
ATOM     10  C   LIG d   1      -1.515  94.431 117.244  0.00  0.00     0.006 C 
ENDBRANCH   8   9
BRANCH   8  11
ATOM     11  C   LIG d   1      -3.626  95.864 119.918  0.00  0.00     0.028 C 
ATOM     12  C   LIG d   1      -3.359  97.152 119.123  0.00  0.00     0.006 C 
ENDBRANCH   8  11
ENDBRANCH   7   8
ENDBRANCH   1   7
BRANCH   6  13
ATOM     13  N   LIG d   1      -6.109  93.080 119.609  0.00  0.00    -0.311 N 
ATOM     14  C   LIG d   1      -6.944  94.077 119.320  0.00  0.00     0.210 C 
ATOM     15  C   LIG d   1      -7.977  94.391 120.407  0.00  0.00     0.109 C 
ATOM     16  O   LIG d   1      -6.947  94.710 118.254  0.00  0.00    -0.276 OA
ATOM     17  H   LIG d   1      -6.198  92.600 120.484  0.00  0.00     0.149 HD
ENDBRANCH   6  13
BRANCH   5  18
ATOM     18  N   LIG d   1      -6.547  91.809 116.866  0.00  0.00     0.381 N 
ATOM     19  H   LIG d   1      -6.511  91.216 116.061  0.00  0.00    -0.090 HD
ATOM     20  H   LIG d   1      -6.418  92.759 116.563  0.00  0.00    -0.090 HD
ATOM     21  H   LIG d   1      -7.429  91.714 117.319  0.00  0.00    -0.090 HD
ENDBRANCH   5  18
BRANCH   3  22
ATOM     22  C   LIG d   1      -2.221  89.794 117.272  0.00  0.00     0.382 C 
ATOM     23  O   LIG d   1      -2.565  88.589 117.225  0.00  0.00    -0.241 OA
ATOM     24  O   LIG d   1      -1.060  90.114 116.954  0.00  0.00    -0.241 OA
ENDBRANCH   3  22
TORSDOF 7
ENDMDL
MODEL 5
REMARK VINA RESULT:      -4.4      2.474      6.148
REMARK  7 active torsions:
REMARK  status: ('A' for Active; 'I' for Inactive)
REMARK    1  A    between atoms: C_2  and  C_3 
REMARK    2  A    between atoms: C_3  and  O_6 
REMARK    3  A    between atoms: C_3  and  C_4 
REMARK    4  A    between atoms: C_7  and  O_6 
REMARK    5  A    between atoms: C_9  and  C_10 
REMARK    6  A    between atoms: N_15  and  C_14 
REMARK    7  A    between atoms: N_20  and  C_19 
REMARK       I    between atoms: C_22  and  N_20 
ROOT
ATOM      1  C   LIG d   1      -2.299  93.170 117.507  0.00  0.00     0.161 C 
ATOM      2  C   LIG d   1      -3.686  92.953 117.541  0.00  0.00     0.016 C 
ATOM      3  C   LIG d   1      -4.277  91.675 117.404  0.00  0.00     0.038 C 
ATOM      4  C   LIG d   1      -3.509  90.502 117.374  0.00  0.00     0.028 C 
ATOM      5  C   LIG d   1      -2.101  90.715 116.829  0.00  0.00    -0.047 C 
ATOM      6  C   LIG d   1      -1.441  91.890 117.586  0.00  0.00     0.091 C 
ENDROOT
BRANCH   1   7
ATOM      7  O   LIG d   1      -1.923  94.091 118.550  0.00  0.00    -0.368 OA
BRANCH   7   8
ATOM      8  C   LIG d   1      -1.953  93.569 119.901  0.00  0.00     0.119 C 
BRANCH   8   9
ATOM      9  C   LIG d   1      -2.865  94.493 120.733  0.00  0.00     0.028 C 
ATOM     10  C   LIG d   1      -3.203  95.801 119.998  0.00  0.00     0.006 C 
ENDBRANCH   8   9
BRANCH   8  11
ATOM     11  C   LIG d   1      -0.575  93.657 120.564  0.00  0.00     0.028 C 
ATOM     12  C   LIG d   1       0.380  94.609 119.828  0.00  0.00     0.006 C 
ENDBRANCH   8  11
ENDBRANCH   7   8
ENDBRANCH   1   7
BRANCH   6  13
ATOM     13  N   LIG d   1      -0.092  92.219 117.057  0.00  0.00    -0.311 N 
ATOM     14  C   LIG d   1       1.037  91.757 117.591  0.00  0.00     0.210 C 
ATOM     15  C   LIG d   1       2.320  92.235 116.904  0.00  0.00     0.109 C 
ATOM     16  O   LIG d   1       1.097  90.972 118.549  0.00  0.00    -0.276 OA
ATOM     17  H   LIG d   1      -0.049  92.826 116.262  0.00  0.00     0.149 HD
ENDBRANCH   6  13
BRANCH   5  18
ATOM     18  N   LIG d   1      -1.367  89.444 116.982  0.00  0.00     0.381 N 
ATOM     19  H   LIG d   1      -0.416  89.565 116.696  0.00  0.00    -0.090 HD
ATOM     20  H   LIG d   1      -1.789  88.752 116.388  0.00  0.00    -0.090 HD
ATOM     21  H   LIG d   1      -1.401  89.143 117.931  0.00  0.00    -0.090 HD
ENDBRANCH   5  18
BRANCH   3  22
ATOM     22  C   LIG d   1      -5.652  91.567 117.256  0.00  0.00     0.382 C 
ATOM     23  O   LIG d   1      -6.140  90.590 116.638  0.00  0.00    -0.241 OA
ATOM     24  O   LIG d   1      -6.407  92.456 117.693  0.00  0.00    -0.241 OA
ENDBRANCH   3  22
TORSDOF 7
ENDMDL
MODEL 6
REMARK VINA RESULT:      -4.3      1.801      4.834
REMARK  7 active torsions:
REMARK  status: ('A' for Active; 'I' for Inactive)
REMARK    1  A    between atoms: C_2  and  C_3 
REMARK    2  A    between atoms: C_3  and  O_6 
REMARK    3  A    between atoms: C_3  and  C_4 
REMARK    4  A    between atoms: C_7  and  O_6 
REMARK    5  A    between atoms: C_9  and  C_10 
REMARK    6  A    between atoms: N_15  and  C_14 
REMARK    7  A    between atoms: N_20  and  C_19 
REMARK       I    between atoms: C_22  and  N_20 
ROOT
ATOM      1  C   LIG d   1      -0.807  91.352 117.711  0.00  0.00     0.161 C 
ATOM      2  C   LIG d   1      -2.191  91.466 117.499  0.00  0.00     0.016 C 
ATOM      3  C   LIG d   1      -2.880  92.700 117.506  0.00  0.00     0.038 C 
ATOM      4  C   LIG d   1      -2.204  93.927 117.577  0.00  0.00     0.028 C 
ATOM      5  C   LIG d   1      -0.863  93.838 118.298  0.00  0.00    -0.047 C 
ATOM      6  C   LIG d   1      -0.036  92.688 117.679  0.00  0.00     0.091 C 
ENDROOT
BRANCH   1   7
ATOM      7  O   LIG d   1      -0.242  90.425 116.763  0.00  0.00    -0.368 OA
BRANCH   7   8
ATOM      8  C   LIG d   1       0.400  89.253 117.323  0.00  0.00     0.119 C 
BRANCH   8   9
ATOM      9  C   LIG d   1       1.701  89.015 116.532  0.00  0.00     0.028 C 
ATOM     10  C   LIG d   1       2.804  88.377 117.394  0.00  0.00     0.006 C 
ENDBRANCH   8   9
BRANCH   8  11
ATOM     11  C   LIG d   1      -0.445  87.995 117.101  0.00  0.00     0.028 C 
ATOM     12  C   LIG d   1      -1.080  87.468 118.397  0.00  0.00     0.006 C 
ENDBRANCH   8  11
ENDBRANCH   7   8
ENDBRANCH   1   7
BRANCH   6  13
ATOM     13  N   LIG d   1       1.257  92.478 118.382  0.00  0.00    -0.311 N 
ATOM     14  C   LIG d   1       2.438  92.501 117.766  0.00  0.00     0.210 C 
ATOM     15  C   LIG d   1       3.645  92.241 118.673  0.00  0.00     0.109 C 
ATOM     16  O   LIG d   1       2.603  92.744 116.561  0.00  0.00    -0.276 OA
ATOM     17  H   LIG d   1       1.218  92.306 119.367  0.00  0.00     0.149 HD
ENDBRANCH   6  13
BRANCH   5  18
ATOM     18  N   LIG d   1      -0.205  95.153 118.178  0.00  0.00     0.381 N 
ATOM     19  H   LIG d   1      -0.068  95.547 119.087  0.00  0.00    -0.090 HD
ATOM     20  H   LIG d   1      -0.801  95.769 117.654  0.00  0.00    -0.090 HD
ATOM     21  H   LIG d   1       0.672  95.055 117.715  0.00  0.00    -0.090 HD
ENDBRANCH   5  18
BRANCH   3  22
ATOM     22  C   LIG d   1      -4.267  92.713 117.482  0.00  0.00     0.382 C 
ATOM     23  O   LIG d   1      -4.878  92.406 116.430  0.00  0.00    -0.241 OA
ATOM     24  O   LIG d   1      -4.913  93.070 118.485  0.00  0.00    -0.241 OA
ENDBRANCH   3  22
TORSDOF 7
ENDMDL
MODEL 7
REMARK VINA RESULT:      -4.3      2.588      4.977
REMARK  7 active torsions:
REMARK  status: ('A' for Active; 'I' for Inactive)
REMARK    1  A    between atoms: C_2  and  C_3 
REMARK    2  A    between atoms: C_3  and  O_6 
REMARK    3  A    between atoms: C_3  and  C_4 
REMARK    4  A    between atoms: C_7  and  O_6 
REMARK    5  A    between atoms: C_9  and  C_10 
REMARK    6  A    between atoms: N_15  and  C_14 
REMARK    7  A    between atoms: N_20  and  C_19 
REMARK       I    between atoms: C_22  and  N_20 
ROOT
ATOM      1  C   LIG d   1      -2.817  92.625 119.075  0.00  0.00     0.161 C 
ATOM      2  C   LIG d   1      -2.770  94.029 119.103  0.00  0.00     0.016 C 
ATOM      3  C   LIG d   1      -1.883  94.794 118.312  0.00  0.00     0.038 C 
ATOM      4  C   LIG d   1      -1.082  94.209 117.320  0.00  0.00     0.028 C 
ATOM      5  C   LIG d   1      -0.730  92.753 117.606  0.00  0.00    -0.047 C 
ATOM      6  C   LIG d   1      -2.029  91.975 117.919  0.00  0.00     0.091 C 
ENDROOT
BRANCH   1   7
ATOM      7  O   LIG d   1      -4.189  92.183 119.057  0.00  0.00    -0.368 OA
BRANCH   7   8
ATOM      8  C   LIG d   1      -5.194  93.225 119.015  0.00  0.00     0.119 C 
BRANCH   8   9
ATOM      9  C   LIG d   1      -6.264  92.879 120.069  0.00  0.00     0.028 C 
ATOM     10  C   LIG d   1      -5.891  93.388 121.472  0.00  0.00     0.006 C 
ENDBRANCH   8   9
BRANCH   8  11
ATOM     11  C   LIG d   1      -5.934  93.232 117.674  0.00  0.00     0.028 C 
ATOM     12  C   LIG d   1      -5.722  91.940 116.869  0.00  0.00     0.006 C 
ENDBRANCH   8  11
ENDBRANCH   7   8
ENDBRANCH   1   7
BRANCH   6  13
ATOM     13  N   LIG d   1      -1.766  90.561 118.293  0.00  0.00    -0.311 N 
ATOM     14  C   LIG d   1      -2.377  89.526 117.719  0.00  0.00     0.210 C 
ATOM     15  C   LIG d   1      -1.975  88.153 118.268  0.00  0.00     0.109 C 
ATOM     16  O   LIG d   1      -3.190  89.612 116.786  0.00  0.00    -0.276 OA
ATOM     17  H   LIG d   1      -1.098  90.398 119.020  0.00  0.00     0.149 HD
ENDBRANCH   6  13
BRANCH   5  18
ATOM     18  N   LIG d   1      -0.011  92.229 116.430  0.00  0.00     0.381 N 
ATOM     19  H   LIG d   1      -0.611  91.622 115.908  0.00  0.00    -0.090 HD
ATOM     20  H   LIG d   1       0.781  91.695 116.744  0.00  0.00    -0.090 HD
ATOM     21  H   LIG d   1       0.295  92.982 115.854  0.00  0.00    -0.090 HD
ENDBRANCH   5  18
BRANCH   3  22
ATOM     22  C   LIG d   1      -1.762  96.157 118.537  0.00  0.00     0.382 C 
ATOM     23  O   LIG d   1      -1.893  96.964 117.584  0.00  0.00    -0.241 OA
ATOM     24  O   LIG d   1      -1.480  96.588 119.671  0.00  0.00    -0.241 OA
ENDBRANCH   3  22
TORSDOF 7
ENDMDL
MODEL 8
REMARK VINA RESULT:      -4.0      1.617      2.313
REMARK  7 active torsions:
REMARK  status: ('A' for Active; 'I' for Inactive)
REMARK    1  A    between atoms: C_2  and  C_3 
REMARK    2  A    between atoms: C_3  and  O_6 
REMARK    3  A    between atoms: C_3  and  C_4 
REMARK    4  A    between atoms: C_7  and  O_6 
REMARK    5  A    between atoms: C_9  and  C_10 
REMARK    6  A    between atoms: N_15  and  C_14 
REMARK    7  A    between atoms: N_20  and  C_19 
REMARK       I    between atoms: C_22  and  N_20 
ROOT
ATOM      1  C   LIG d   1       0.375  90.483 117.190  0.00  0.00     0.161 C 
ATOM      2  C   LIG d   1       1.756  90.735 117.204  0.00  0.00     0.016 C 
ATOM      3  C   LIG d   1       2.310  92.025 117.370  0.00  0.00     0.038 C 
ATOM      4  C   LIG d   1       1.516  93.138 117.686  0.00  0.00     0.028 C 
ATOM      5  C   LIG d   1       0.082  93.021 117.182  0.00  0.00    -0.047 C 
ATOM      6  C   LIG d   1      -0.504  91.667 117.644  0.00  0.00     0.091 C 
ENDROOT
BRANCH   1   7
ATOM      7  O   LIG d   1       0.083  89.312 117.978  0.00  0.00    -0.368 OA
BRANCH   7   8
ATOM      8  C   LIG d   1      -0.519  88.200 117.271  0.00  0.00     0.119 C 
BRANCH   8   9
ATOM      9  C   LIG d   1      -1.600  87.597 118.189  0.00  0.00     0.028 C 
ATOM     10  C   LIG d   1      -1.971  88.534 119.351  0.00  0.00     0.006 C 
ENDBRANCH   8   9
BRANCH   8  11
ATOM     11  C   LIG d   1       0.491  87.073 117.039  0.00  0.00     0.028 C 
ATOM     12  C   LIG d   1       0.564  86.087 118.216  0.00  0.00     0.006 C 
ENDBRANCH   8  11
ENDBRANCH   7   8
ENDBRANCH   1   7
BRANCH   6  13
ATOM     13  N   LIG d   1      -1.876  91.435 117.122  0.00  0.00    -0.311 N 
ATOM     14  C   LIG d   1      -2.980  91.727 117.807  0.00  0.00     0.210 C 
ATOM     15  C   LIG d   1      -4.293  91.390 117.093  0.00  0.00     0.109 C 
ATOM     16  O   LIG d   1      -2.998  92.263 118.925  0.00  0.00    -0.276 OA
ATOM     17  H   LIG d   1      -1.955  91.032 116.208  0.00  0.00     0.149 HD
ENDBRANCH   6  13
BRANCH   5  18
ATOM     18  N   LIG d   1      -0.668  94.182 117.698  0.00  0.00     0.381 N 
ATOM     19  H   LIG d   1      -0.256  94.498 118.553  0.00  0.00    -0.090 HD
ATOM     20  H   LIG d   1      -1.613  93.899 117.888  0.00  0.00    -0.090 HD
ATOM     21  H   LIG d   1      -0.663  94.917 117.026  0.00  0.00    -0.090 HD
ENDBRANCH   5  18
BRANCH   3  22
ATOM     22  C   LIG d   1       3.670  92.219 117.181  0.00  0.00     0.382 C 
ATOM     23  O   LIG d   1       4.314  91.448 116.430  0.00  0.00    -0.241 OA
ATOM     24  O   LIG d   1       4.269  93.129 117.785  0.00  0.00    -0.241 OA
ENDBRANCH   3  22
TORSDOF 7
ENDMDL
MODEL 9
REMARK VINA RESULT:      -3.9      3.688      6.585
REMARK  7 active torsions:
REMARK  status: ('A' for Active; 'I' for Inactive)
REMARK    1  A    between atoms: C_2  and  C_3 
REMARK    2  A    between atoms: C_3  and  O_6 
REMARK    3  A    between atoms: C_3  and  C_4 
REMARK    4  A    between atoms: C_7  and  O_6 
REMARK    5  A    between atoms: C_9  and  C_10 
REMARK    6  A    between atoms: N_15  and  C_14 
REMARK    7  A    between atoms: N_20  and  C_19 
REMARK       I    between atoms: C_22  and  N_20 
ROOT
ATOM      1  C   LIG d   1      -5.120  93.298 119.682  0.00  0.00     0.161 C 
ATOM      2  C   LIG d   1      -6.395  92.948 120.157  0.00  0.00     0.016 C 
ATOM      3  C   LIG d   1      -7.515  93.809 120.085  0.00  0.00     0.038 C 
ATOM      4  C   LIG d   1      -7.471  95.027 119.391  0.00  0.00     0.028 C 
ATOM      5  C   LIG d   1      -6.076  95.642 119.336  0.00  0.00    -0.047 C 
ATOM      6  C   LIG d   1      -5.079  94.578 118.823  0.00  0.00     0.091 C 
ENDROOT
BRANCH   1   7
ATOM      7  O   LIG d   1      -4.548  92.190 118.959  0.00  0.00    -0.368 OA
BRANCH   7   8
ATOM      8  C   LIG d   1      -3.159  91.893 119.243  0.00  0.00     0.119 C 
BRANCH   8   9
ATOM      9  C   LIG d   1      -2.858  90.494 118.672  0.00  0.00     0.028 C 
ATOM     10  C   LIG d   1      -3.293  90.354 117.203  0.00  0.00     0.006 C 
ENDBRANCH   8   9
BRANCH   8  11
ATOM     11  C   LIG d   1      -2.910  91.778 120.750  0.00  0.00     0.028 C 
ATOM     12  C   LIG d   1      -1.571  92.395 121.182  0.00  0.00     0.006 C 
ENDBRANCH   8  11
ENDBRANCH   7   8
ENDBRANCH   1   7
BRANCH   6  13
ATOM     13  N   LIG d   1      -3.677  95.072 118.818  0.00  0.00    -0.311 N 
ATOM     14  C   LIG d   1      -3.058  95.532 119.904  0.00  0.00     0.210 C 
ATOM     15  C   LIG d   1      -1.621  96.010 119.675  0.00  0.00     0.109 C 
ATOM     16  O   LIG d   1      -3.552  95.559 121.041  0.00  0.00    -0.276 OA
ATOM     17  H   LIG d   1      -3.191  95.056 117.943  0.00  0.00     0.149 HD
ENDBRANCH   6  13
BRANCH   5  18
ATOM     18  N   LIG d   1      -6.149  96.833 118.469  0.00  0.00     0.381 N 
ATOM     19  H   LIG d   1      -5.604  97.573 118.864  0.00  0.00    -0.090 HD
ATOM     20  H   LIG d   1      -7.104  97.139 118.415  0.00  0.00    -0.090 HD
ATOM     21  H   LIG d   1      -5.811  96.613 117.558  0.00  0.00    -0.090 HD
ENDBRANCH   5  18
BRANCH   3  22
ATOM     22  C   LIG d   1      -8.686  93.469 120.746  0.00  0.00     0.382 C 
ATOM     23  O   LIG d   1      -9.785  93.525 120.144  0.00  0.00    -0.241 OA
ATOM     24  O   LIG d   1      -8.662  93.151 121.950  0.00  0.00    -0.241 OA
ENDBRANCH   3  22
TORSDOF 7
ENDMDL
