MODEL 1
REMARK VINA RESULT:      -4.9      0.000      0.000
REMARK  7 active torsions:
REMARK  status: ('A' for Active; 'I' for Inactive)
REMARK    1  A    between atoms: C_2  and  C_3 
REMARK    2  A    between atoms: C_3  and  O_6 
REMARK    3  A    between atoms: C_3  and  C_4 
REMARK    4  A    between atoms: C_7  and  O_6 
REMARK    5  A    between atoms: C_9  and  C_10 
REMARK    6  A    between atoms: N_15  and  C_14 
REMARK    7  A    between atoms: N_20  and  C_19 
REMARK       I    between atoms: C_22  and  N_20 
ROOT
ATOM      1  C   LIG d   1      -4.428  92.767 118.797  0.00  0.00     0.161 C 
ATOM      2  C   LIG d   1      -5.679  93.403 118.871  0.00  0.00     0.016 C 
ATOM      3  C   LIG d   1      -6.830  92.937 118.195  0.00  0.00     0.038 C 
ATOM      4  C   LIG d   1      -6.845  91.710 117.515  0.00  0.00     0.028 C 
ATOM      5  C   LIG d   1      -5.475  91.290 116.994  0.00  0.00    -0.047 C 
ATOM      6  C   LIG d   1      -4.453  91.366 118.151  0.00  0.00     0.091 C 
ENDROOT
BRANCH   1   7
ATOM      7  O   LIG d   1      -3.834  92.704 120.109  0.00  0.00    -0.368 OA
BRANCH   7   8
ATOM      8  C   LIG d   1      -2.631  93.488 120.302  0.00  0.00     0.119 C 
BRANCH   8   9
ATOM      9  C   LIG d   1      -2.359  94.250 118.990  0.00  0.00     0.028 C 
ATOM     10  C   LIG d   1      -0.902  94.106 118.519  0.00  0.00     0.006 C 
ENDBRANCH   8   9
BRANCH   8  11
ATOM     11  C   LIG d   1      -1.408  92.590 120.511  0.00  0.00     0.028 C 
ATOM     12  C   LIG d   1      -1.764  91.236 121.144  0.00  0.00     0.006 C 
ENDBRANCH   8  11
ENDBRANCH   7   8
ENDBRANCH   1   7
BRANCH   6  13
ATOM     13  N   LIG d   1      -3.070  91.052 117.707  0.00  0.00    -0.311 N 
ATOM     14  C   LIG d   1      -2.524  89.841 117.810  0.00  0.00     0.210 C 
ATOM     15  C   LIG d   1      -1.079  89.739 117.311  0.00  0.00     0.109 C 
ATOM     16  O   LIG d   1      -3.110  88.835 118.238  0.00  0.00    -0.276 OA
ATOM     17  H   LIG d   1      -2.533  91.803 117.318  0.00  0.00     0.149 HD
ENDBRANCH   6  13
BRANCH   5  18
ATOM     18  N   LIG d   1      -5.610  89.933 116.430  0.00  0.00     0.381 N 
ATOM     19  H   LIG d   1      -5.283  89.926 115.484  0.00  0.00    -0.090 HD
ATOM     20  H   LIG d   1      -6.581  89.676 116.431  0.00  0.00    -0.090 HD
ATOM     21  H   LIG d   1      -5.086  89.284 116.975  0.00  0.00    -0.090 HD
ENDBRANCH   5  18
BRANCH   3  22
ATOM     22  C   LIG d   1      -7.972  93.723 118.161  0.00  0.00     0.382 C 
ATOM     23  O   LIG d   1      -8.384  94.275 119.210  0.00  0.00    -0.241 OA
ATOM     24  O   LIG d   1      -8.620  93.850 117.105  0.00  0.00    -0.241 OA
ENDBRANCH   3  22
TORSDOF 7
ENDMDL
MODEL 2
REMARK VINA RESULT:      -4.9      1.366      2.189
REMARK  7 active torsions:
REMARK  status: ('A' for Active; 'I' for Inactive)
REMARK    1  A    between atoms: C_2  and  C_3 
REMARK    2  A    between atoms: C_3  and  O_6 
REMARK    3  A    between atoms: C_3  and  C_4 
REMARK    4  A    between atoms: C_7  and  O_6 
REMARK    5  A    between atoms: C_9  and  C_10 
REMARK    6  A    between atoms: N_15  and  C_14 
REMARK    7  A    between atoms: N_20  and  C_19 
REMARK       I    between atoms: C_22  and  N_20 
ROOT
ATOM      1  C   LIG d   1      -4.434  92.924 118.850  0.00  0.00     0.161 C 
ATOM      2  C   LIG d   1      -5.768  93.364 118.870  0.00  0.00     0.016 C 
ATOM      3  C   LIG d   1      -6.806  92.736 118.143  0.00  0.00     0.038 C 
ATOM      4  C   LIG d   1      -6.606  91.526 117.462  0.00  0.00     0.028 C 
ATOM      5  C   LIG d   1      -5.167  91.320 117.001  0.00  0.00    -0.047 C 
ATOM      6  C   LIG d   1      -4.219  91.541 118.202  0.00  0.00     0.091 C 
ENDROOT
BRANCH   1   7
ATOM      7  O   LIG d   1      -3.894  92.941 120.186  0.00  0.00    -0.368 OA
BRANCH   7   8
ATOM      8  C   LIG d   1      -4.198  91.789 121.011  0.00  0.00     0.119 C 
BRANCH   8   9
ATOM      9  C   LIG d   1      -5.041  92.282 122.202  0.00  0.00     0.028 C 
ATOM     10  C   LIG d   1      -6.451  91.668 122.218  0.00  0.00     0.006 C 
ENDBRANCH   8   9
BRANCH   8  11
ATOM     11  C   LIG d   1      -2.929  91.196 121.629  0.00  0.00     0.028 C 
ATOM     12  C   LIG d   1      -1.662  91.983 121.258  0.00  0.00     0.006 C 
ENDBRANCH   8  11
ENDBRANCH   7   8
ENDBRANCH   1   7
BRANCH   6  13
ATOM     13  N   LIG d   1      -2.787  91.441 117.818  0.00  0.00    -0.311 N 
ATOM     14  C   LIG d   1      -2.077  90.319 117.920  0.00  0.00     0.210 C 
ATOM     15  C   LIG d   1      -0.612  90.439 117.489  0.00  0.00     0.109 C 
ATOM     16  O   LIG d   1      -2.530  89.227 118.295  0.00  0.00    -0.276 OA
ATOM     17  H   LIG d   1      -2.348  92.273 117.474  0.00  0.00     0.149 HD
ENDBRANCH   6  13
BRANCH   5  18
ATOM     18  N   LIG d   1      -5.072  89.963 116.430  0.00  0.00     0.381 N 
ATOM     19  H   LIG d   1      -4.215  89.534 116.719  0.00  0.00    -0.090 HD
ATOM     20  H   LIG d   1      -5.068  90.032 115.428  0.00  0.00    -0.090 HD
ATOM     21  H   LIG d   1      -5.846  89.412 116.730  0.00  0.00    -0.090 HD
ENDBRANCH   5  18
BRANCH   3  22
ATOM     22  C   LIG d   1      -8.050  93.341 118.060  0.00  0.00     0.382 C 
ATOM     23  O   LIG d   1      -8.457  93.792 116.962  0.00  0.00    -0.241 OA
ATOM     24  O   LIG d   1      -8.754  93.481 119.079  0.00  0.00    -0.241 OA
ENDBRANCH   3  22
TORSDOF 7
ENDMDL
MODEL 3
REMARK VINA RESULT:      -4.6      2.110      3.015
REMARK  7 active torsions:
REMARK  status: ('A' for Active; 'I' for Inactive)
REMARK    1  A    between atoms: C_2  and  C_3 
REMARK    2  A    between atoms: C_3  and  O_6 
REMARK    3  A    between atoms: C_3  and  C_4 
REMARK    4  A    between atoms: C_7  and  O_6 
REMARK    5  A    between atoms: C_9  and  C_10 
REMARK    6  A    between atoms: N_15  and  C_14 
REMARK    7  A    between atoms: N_20  and  C_19 
REMARK       I    between atoms: C_22  and  N_20 
ROOT
ATOM      1  C   LIG d   1      -3.402  92.626 118.021  0.00  0.00     0.161 C 
ATOM      2  C   LIG d   1      -4.765  92.322 117.863  0.00  0.00     0.016 C 
ATOM      3  C   LIG d   1      -5.239  91.040 117.500  0.00  0.00     0.038 C 
ATOM      4  C   LIG d   1      -4.385  89.930 117.418  0.00  0.00     0.028 C 
ATOM      5  C   LIG d   1      -2.945  90.297 117.075  0.00  0.00    -0.047 C 
ATOM      6  C   LIG d   1      -2.464  91.401 118.045  0.00  0.00     0.091 C 
ENDROOT
BRANCH   1   7
ATOM      7  O   LIG d   1      -3.215  93.424 119.208  0.00  0.00    -0.368 OA
BRANCH   7   8
ATOM      8  C   LIG d   1      -2.568  94.706 119.018  0.00  0.00     0.119 C 
BRANCH   8   9
ATOM      9  C   LIG d   1      -1.294  94.715 119.884  0.00  0.00     0.028 C 
ATOM     10  C   LIG d   1      -1.352  93.685 121.025  0.00  0.00     0.006 C 
ENDBRANCH   8   9
BRANCH   8  11
ATOM     11  C   LIG d   1      -3.432  95.851 119.556  0.00  0.00     0.028 C 
ATOM     12  C   LIG d   1      -4.801  95.374 120.067  0.00  0.00     0.006 C 
ENDBRANCH   8  11
ENDBRANCH   7   8
ENDBRANCH   1   7
BRANCH   6  13
ATOM     13  N   LIG d   1      -1.094  91.878 117.725  0.00  0.00    -0.311 N 
ATOM     14  C   LIG d   1       0.001  91.420 118.329  0.00  0.00     0.210 C 
ATOM     15  C   LIG d   1       1.313  92.061 117.864  0.00  0.00     0.109 C 
ATOM     16  O   LIG d   1       0.014  90.520 119.182  0.00  0.00    -0.276 OA
ATOM     17  H   LIG d   1      -1.009  92.586 117.022  0.00  0.00     0.149 HD
ENDBRANCH   6  13
BRANCH   5  18
ATOM     18  N   LIG d   1      -2.139  89.065 117.158  0.00  0.00     0.381 N 
ATOM     19  H   LIG d   1      -2.684  88.331 117.565  0.00  0.00    -0.090 HD
ATOM     20  H   LIG d   1      -1.345  89.234 117.750  0.00  0.00    -0.090 HD
ATOM     21  H   LIG d   1      -1.833  88.796 116.248  0.00  0.00    -0.090 HD
ENDBRANCH   5  18
BRANCH   3  22
ATOM     22  C   LIG d   1      -6.576  90.869 117.176  0.00  0.00     0.382 C 
ATOM     23  O   LIG d   1      -7.385  91.815 117.330  0.00  0.00    -0.241 OA
ATOM     24  O   LIG d   1      -6.991  89.766 116.774  0.00  0.00    -0.241 OA
ENDBRANCH   3  22
TORSDOF 7
ENDMDL
MODEL 4
REMARK VINA RESULT:      -4.6      1.979      5.015
REMARK  7 active torsions:
REMARK  status: ('A' for Active; 'I' for Inactive)
REMARK    1  A    between atoms: C_2  and  C_3 
REMARK    2  A    between atoms: C_3  and  O_6 
REMARK    3  A    between atoms: C_3  and  C_4 
REMARK    4  A    between atoms: C_7  and  O_6 
REMARK    5  A    between atoms: C_9  and  C_10 
REMARK    6  A    between atoms: N_15  and  C_14 
REMARK    7  A    between atoms: N_20  and  C_19 
REMARK       I    between atoms: C_22  and  N_20 
ROOT
ATOM      1  C   LIG d   1      -4.614  92.639 119.113  0.00  0.00     0.161 C 
ATOM      2  C   LIG d   1      -3.489  91.931 118.659  0.00  0.00     0.016 C 
ATOM      3  C   LIG d   1      -3.566  90.837 117.767  0.00  0.00     0.038 C 
ATOM      4  C   LIG d   1      -4.769  90.469 117.146  0.00  0.00     0.028 C 
ATOM      5  C   LIG d   1      -6.006  90.832 117.960  0.00  0.00    -0.047 C 
ATOM      6  C   LIG d   1      -5.924  92.323 118.360  0.00  0.00     0.091 C 
ENDROOT
BRANCH   1   7
ATOM      7  O   LIG d   1      -4.346  94.055 119.081  0.00  0.00    -0.368 OA
BRANCH   7   8
ATOM      8  C   LIG d   1      -3.908  94.649 120.327  0.00  0.00     0.119 C 
BRANCH   8   9
ATOM      9  C   LIG d   1      -5.126  95.351 120.959  0.00  0.00     0.028 C 
ATOM     10  C   LIG d   1      -5.939  96.155 119.930  0.00  0.00     0.006 C 
ENDBRANCH   8   9
BRANCH   8  11
ATOM     11  C   LIG d   1      -2.881  95.759 120.084  0.00  0.00     0.028 C 
ATOM     12  C   LIG d   1      -2.394  96.415 121.386  0.00  0.00     0.006 C 
ENDBRANCH   8  11
ENDBRANCH   7   8
ENDBRANCH   1   7
BRANCH   6  13
ATOM     13  N   LIG d   1      -7.054  92.740 119.231  0.00  0.00    -0.311 N 
ATOM     14  C   LIG d   1      -8.156  93.329 118.770  0.00  0.00     0.210 C 
ATOM     15  C   LIG d   1      -9.190  93.695 119.839  0.00  0.00     0.109 C 
ATOM     16  O   LIG d   1      -8.389  93.554 117.573  0.00  0.00    -0.276 OA
ATOM     17  H   LIG d   1      -6.962  92.566 120.213  0.00  0.00     0.149 HD
ENDBRANCH   6  13
BRANCH   5  18
ATOM     18  N   LIG d   1      -7.189  90.519 117.137  0.00  0.00     0.381 N 
ATOM     19  H   LIG d   1      -8.012  90.532 117.707  0.00  0.00    -0.090 HD
ATOM     20  H   LIG d   1      -7.085  89.596 116.755  0.00  0.00    -0.090 HD
ATOM     21  H   LIG d   1      -7.278  91.183 116.400  0.00  0.00    -0.090 HD
ENDBRANCH   5  18
BRANCH   3  22
ATOM     22  C   LIG d   1      -2.436  90.072 117.518  0.00  0.00     0.382 C 
ATOM     23  O   LIG d   1      -1.297  90.591 117.599  0.00  0.00    -0.241 OA
ATOM     24  O   LIG d   1      -2.544  88.881 117.171  0.00  0.00    -0.241 OA
ENDBRANCH   3  22
TORSDOF 7
ENDMDL
MODEL 5
REMARK VINA RESULT:      -4.6      2.186      3.023
REMARK  7 active torsions:
REMARK  status: ('A' for Active; 'I' for Inactive)
REMARK    1  A    between atoms: C_2  and  C_3 
REMARK    2  A    between atoms: C_3  and  O_6 
REMARK    3  A    between atoms: C_3  and  C_4 
REMARK    4  A    between atoms: C_7  and  O_6 
REMARK    5  A    between atoms: C_9  and  C_10 
REMARK    6  A    between atoms: N_15  and  C_14 
REMARK    7  A    between atoms: N_20  and  C_19 
REMARK       I    between atoms: C_22  and  N_20 
ROOT
ATOM      1  C   LIG d   1      -3.282  92.691 117.977  0.00  0.00     0.161 C 
ATOM      2  C   LIG d   1      -4.638  92.352 117.832  0.00  0.00     0.016 C 
ATOM      3  C   LIG d   1      -5.083  91.054 117.491  0.00  0.00     0.038 C 
ATOM      4  C   LIG d   1      -4.204  89.964 117.420  0.00  0.00     0.028 C 
ATOM      5  C   LIG d   1      -2.775  90.360 117.062  0.00  0.00    -0.047 C 
ATOM      6  C   LIG d   1      -2.315  91.490 118.012  0.00  0.00     0.091 C 
ENDROOT
BRANCH   1   7
ATOM      7  O   LIG d   1      -3.106  93.511 119.150  0.00  0.00    -0.368 OA
BRANCH   7   8
ATOM      8  C   LIG d   1      -2.864  92.803 120.391  0.00  0.00     0.119 C 
BRANCH   8   9
ATOM      9  C   LIG d   1      -4.049  93.098 121.331  0.00  0.00     0.028 C 
ATOM     10  C   LIG d   1      -4.747  94.427 120.996  0.00  0.00     0.006 C 
ENDBRANCH   8   9
BRANCH   8  11
ATOM     11  C   LIG d   1      -1.629  93.350 121.112  0.00  0.00     0.028 C 
ATOM     12  C   LIG d   1      -0.963  94.511 120.356  0.00  0.00     0.006 C 
ENDBRANCH   8  11
ENDBRANCH   7   8
ENDBRANCH   1   7
BRANCH   6  13
ATOM     13  N   LIG d   1      -0.958  91.995 117.677  0.00  0.00    -0.311 N 
ATOM     14  C   LIG d   1       0.151  91.571 118.280  0.00  0.00     0.210 C 
ATOM     15  C   LIG d   1       1.444  92.236 117.797  0.00  0.00     0.109 C 
ATOM     16  O   LIG d   1       0.191  90.685 119.147  0.00  0.00    -0.276 OA
ATOM     17  H   LIG d   1      -0.895  92.693 116.963  0.00  0.00     0.149 HD
ENDBRANCH   6  13
BRANCH   5  18
ATOM     18  N   LIG d   1      -1.939  89.148 117.158  0.00  0.00     0.381 N 
ATOM     19  H   LIG d   1      -1.002  89.361 116.880  0.00  0.00    -0.090 HD
ATOM     20  H   LIG d   1      -2.303  88.452 116.531  0.00  0.00    -0.090 HD
ATOM     21  H   LIG d   1      -1.947  88.802 118.092  0.00  0.00    -0.090 HD
ENDBRANCH   5  18
BRANCH   3  22
ATOM     22  C   LIG d   1      -6.418  90.846 117.179  0.00  0.00     0.382 C 
ATOM     23  O   LIG d   1      -7.255  91.763 117.360  0.00  0.00    -0.241 OA
ATOM     24  O   LIG d   1      -6.803  89.738 116.759  0.00  0.00    -0.241 OA
ENDBRANCH   3  22
TORSDOF 7
ENDMDL
MODEL 6
REMARK VINA RESULT:      -4.4      2.500      5.646
REMARK  7 active torsions:
REMARK  status: ('A' for Active; 'I' for Inactive)
REMARK    1  A    between atoms: C_2  and  C_3 
REMARK    2  A    between atoms: C_3  and  O_6 
REMARK    3  A    between atoms: C_3  and  C_4 
REMARK    4  A    between atoms: C_7  and  O_6 
REMARK    5  A    between atoms: C_9  and  C_10 
REMARK    6  A    between atoms: N_15  and  C_14 
REMARK    7  A    between atoms: N_20  and  C_19 
REMARK       I    between atoms: C_22  and  N_20 
ROOT
ATOM      1  C   LIG d   1      -2.749  92.584 118.011  0.00  0.00     0.161 C 
ATOM      2  C   LIG d   1      -1.377  92.713 118.282  0.00  0.00     0.016 C 
ATOM      3  C   LIG d   1      -0.863  93.491 119.345  0.00  0.00     0.038 C 
ATOM      4  C   LIG d   1      -1.700  94.075 120.308  0.00  0.00     0.028 C 
ATOM      5  C   LIG d   1      -3.097  94.389 119.786  0.00  0.00    -0.047 C 
ATOM      6  C   LIG d   1      -3.680  93.123 119.118  0.00  0.00     0.091 C 
ENDROOT
BRANCH   1   7
ATOM      7  O   LIG d   1      -3.062  91.207 117.720  0.00  0.00    -0.368 OA
BRANCH   7   8
ATOM      8  C   LIG d   1      -2.146  90.219 118.252  0.00  0.00     0.119 C 
BRANCH   8   9
ATOM      9  C   LIG d   1      -1.721  89.306 117.086  0.00  0.00     0.028 C 
ATOM     10  C   LIG d   1      -0.240  89.484 116.711  0.00  0.00     0.006 C 
ENDBRANCH   8   9
BRANCH   8  11
ATOM     11  C   LIG d   1      -2.844  89.296 119.256  0.00  0.00     0.028 C 
ATOM     12  C   LIG d   1      -2.619  89.724 120.715  0.00  0.00     0.006 C 
ENDBRANCH   8  11
ENDBRANCH   7   8
ENDBRANCH   1   7
BRANCH   6  13
ATOM     13  N   LIG d   1      -5.012  93.367 118.505  0.00  0.00    -0.311 N 
ATOM     14  C   LIG d   1      -6.042  92.532 118.633  0.00  0.00     0.210 C 
ATOM     15  C   LIG d   1      -7.319  92.964 117.905  0.00  0.00     0.109 C 
ATOM     16  O   LIG d   1      -6.029  91.491 119.306  0.00  0.00    -0.276 OA
ATOM     17  H   LIG d   1      -5.120  94.205 117.967  0.00  0.00     0.149 HD
ENDBRANCH   6  13
BRANCH   5  18
ATOM     18  N   LIG d   1      -3.903  94.864 120.927  0.00  0.00     0.381 N 
ATOM     19  H   LIG d   1      -3.301  95.117 121.685  0.00  0.00    -0.090 HD
ATOM     20  H   LIG d   1      -4.502  94.118 121.234  0.00  0.00    -0.090 HD
ATOM     21  H   LIG d   1      -4.452  95.649 120.653  0.00  0.00    -0.090 HD
ENDBRANCH   5  18
BRANCH   3  22
ATOM     22  C   LIG d   1       0.501  93.724 119.430  0.00  0.00     0.382 C 
ATOM     23  O   LIG d   1       1.270  93.270 118.548  0.00  0.00    -0.241 OA
ATOM     24  O   LIG d   1       0.977  94.345 120.399  0.00  0.00    -0.241 OA
ENDBRANCH   3  22
TORSDOF 7
ENDMDL
MODEL 7
REMARK VINA RESULT:      -4.3      2.500      5.484
REMARK  7 active torsions:
REMARK  status: ('A' for Active; 'I' for Inactive)
REMARK    1  A    between atoms: C_2  and  C_3 
REMARK    2  A    between atoms: C_3  and  O_6 
REMARK    3  A    between atoms: C_3  and  C_4 
REMARK    4  A    between atoms: C_7  and  O_6 
REMARK    5  A    between atoms: C_9  and  C_10 
REMARK    6  A    between atoms: N_15  and  C_14 
REMARK    7  A    between atoms: N_20  and  C_19 
REMARK       I    between atoms: C_22  and  N_20 
ROOT
ATOM      1  C   LIG d   1      -1.790  92.704 118.762  0.00  0.00     0.161 C 
ATOM      2  C   LIG d   1      -0.887  93.402 119.581  0.00  0.00     0.016 C 
ATOM      3  C   LIG d   1      -1.250  94.527 120.357  0.00  0.00     0.038 C 
ATOM      4  C   LIG d   1      -2.584  94.942 120.483  0.00  0.00     0.028 C 
ATOM      5  C   LIG d   1      -3.448  94.579 119.280  0.00  0.00    -0.047 C 
ATOM      6  C   LIG d   1      -3.274  93.074 118.973  0.00  0.00     0.091 C 
ENDROOT
BRANCH   1   7
ATOM      7  O   LIG d   1      -1.600  91.285 118.923  0.00  0.00    -0.368 OA
BRANCH   7   8
ATOM      8  C   LIG d   1      -1.239  90.550 117.727  0.00  0.00     0.119 C 
BRANCH   8   9
ATOM      9  C   LIG d   1      -2.192  89.345 117.619  0.00  0.00     0.028 C 
ATOM     10  C   LIG d   1      -3.064  89.171 118.874  0.00  0.00     0.006 C 
ENDBRANCH   8   9
BRANCH   8  11
ATOM     11  C   LIG d   1       0.164  89.948 117.846  0.00  0.00     0.028 C 
ATOM     12  C   LIG d   1       0.471  88.929 116.738  0.00  0.00     0.006 C 
ENDBRANCH   8  11
ENDBRANCH   7   8
ENDBRANCH   1   7
BRANCH   6  13
ATOM     13  N   LIG d   1      -4.019  92.654 117.758  0.00  0.00    -0.311 N 
ATOM     14  C   LIG d   1      -5.220  92.078 117.797  0.00  0.00     0.210 C 
ATOM     15  C   LIG d   1      -5.803  91.705 116.430  0.00  0.00     0.109 C 
ATOM     16  O   LIG d   1      -5.871  91.870 118.831  0.00  0.00    -0.276 OA
ATOM     17  H   LIG d   1      -3.578  92.814 116.873  0.00  0.00     0.149 HD
ENDBRANCH   6  13
BRANCH   5  18
ATOM     18  N   LIG d   1      -4.839  94.946 119.603  0.00  0.00     0.381 N 
ATOM     19  H   LIG d   1      -5.231  95.482 118.855  0.00  0.00    -0.090 HD
ATOM     20  H   LIG d   1      -4.841  95.514 120.432  0.00  0.00    -0.090 HD
ATOM     21  H   LIG d   1      -5.383  94.125 119.752  0.00  0.00    -0.090 HD
ENDBRANCH   5  18
BRANCH   3  22
ATOM     22  C   LIG d   1      -0.265  95.275 120.985  0.00  0.00     0.382 C 
ATOM     23  O   LIG d   1      -0.573  96.320 121.607  0.00  0.00    -0.241 OA
ATOM     24  O   LIG d   1       0.932  94.941 120.901  0.00  0.00    -0.241 OA
ENDBRANCH   3  22
TORSDOF 7
ENDMDL
MODEL 8
REMARK VINA RESULT:      -4.2      2.577      4.623
REMARK  7 active torsions:
REMARK  status: ('A' for Active; 'I' for Inactive)
REMARK    1  A    between atoms: C_2  and  C_3 
REMARK    2  A    between atoms: C_3  and  O_6 
REMARK    3  A    between atoms: C_3  and  C_4 
REMARK    4  A    between atoms: C_7  and  O_6 
REMARK    5  A    between atoms: C_9  and  C_10 
REMARK    6  A    between atoms: N_15  and  C_14 
REMARK    7  A    between atoms: N_20  and  C_19 
REMARK       I    between atoms: C_22  and  N_20 
ROOT
ATOM      1  C   LIG d   1      -5.494  92.429 119.607  0.00  0.00     0.161 C 
ATOM      2  C   LIG d   1      -5.471  91.361 118.695  0.00  0.00     0.016 C 
ATOM      3  C   LIG d   1      -6.251  91.327 117.516  0.00  0.00     0.038 C 
ATOM      4  C   LIG d   1      -6.997  92.436 117.089  0.00  0.00     0.028 C 
ATOM      5  C   LIG d   1      -7.444  93.341 118.231  0.00  0.00    -0.047 C 
ATOM      6  C   LIG d   1      -6.217  93.695 119.101  0.00  0.00     0.091 C 
ENDROOT
BRANCH   1   7
ATOM      7  O   LIG d   1      -4.149  92.750 120.016  0.00  0.00    -0.368 OA
BRANCH   7   8
ATOM      8  C   LIG d   1      -3.093  92.338 119.115  0.00  0.00     0.119 C 
BRANCH   8   9
ATOM      9  C   LIG d   1      -2.001  91.656 119.962  0.00  0.00     0.028 C 
ATOM     10  C   LIG d   1      -2.142  90.124 119.980  0.00  0.00     0.006 C 
ENDBRANCH   8   9
BRANCH   8  11
ATOM     11  C   LIG d   1      -2.409  93.546 118.468  0.00  0.00     0.028 C 
ATOM     12  C   LIG d   1      -0.878  93.502 118.595  0.00  0.00     0.006 C 
ENDBRANCH   8  11
ENDBRANCH   7   8
ENDBRANCH   1   7
BRANCH   6  13
ATOM     13  N   LIG d   1      -6.580  94.510 120.290  0.00  0.00    -0.311 N 
ATOM     14  C   LIG d   1      -7.663  94.282 121.032  0.00  0.00     0.210 C 
ATOM     15  C   LIG d   1      -7.862  95.252 122.200  0.00  0.00     0.109 C 
ATOM     16  O   LIG d   1      -8.459  93.348 120.853  0.00  0.00    -0.276 OA
ATOM     17  H   LIG d   1      -5.972  95.269 120.526  0.00  0.00     0.149 HD
ENDBRANCH   6  13
BRANCH   5  18
ATOM     18  N   LIG d   1      -8.091  94.525 117.635  0.00  0.00     0.381 N 
ATOM     19  H   LIG d   1      -7.855  95.342 118.162  0.00  0.00    -0.090 HD
ATOM     20  H   LIG d   1      -9.088  94.404 117.670  0.00  0.00    -0.090 HD
ATOM     21  H   LIG d   1      -7.795  94.635 116.689  0.00  0.00    -0.090 HD
ENDBRANCH   5  18
BRANCH   3  22
ATOM     22  C   LIG d   1      -6.320  90.160 116.771  0.00  0.00     0.382 C 
ATOM     23  O   LIG d   1      -7.436  89.672 116.473  0.00  0.00    -0.241 OA
ATOM     24  O   LIG d   1      -5.280  89.565 116.431  0.00  0.00    -0.241 OA
ENDBRANCH   3  22
TORSDOF 7
ENDMDL
MODEL 9
REMARK VINA RESULT:      -4.2      2.735      6.216
REMARK  7 active torsions:
REMARK  status: ('A' for Active; 'I' for Inactive)
REMARK    1  A    between atoms: C_2  and  C_3 
REMARK    2  A    between atoms: C_3  and  O_6 
REMARK    3  A    between atoms: C_3  and  C_4 
REMARK    4  A    between atoms: C_7  and  O_6 
REMARK    5  A    between atoms: C_9  and  C_10 
REMARK    6  A    between atoms: N_15  and  C_14 
REMARK    7  A    between atoms: N_20  and  C_19 
REMARK       I    between atoms: C_22  and  N_20 
ROOT
ATOM      1  C   LIG d   1      -2.863  93.340 118.075  0.00  0.00     0.161 C 
ATOM      2  C   LIG d   1      -1.510  92.965 118.043  0.00  0.00     0.016 C 
ATOM      3  C   LIG d   1      -0.597  93.255 119.083  0.00  0.00     0.038 C 
ATOM      4  C   LIG d   1      -1.013  93.813 120.301  0.00  0.00     0.028 C 
ATOM      5  C   LIG d   1      -2.271  94.665 120.178  0.00  0.00    -0.047 C 
ATOM      6  C   LIG d   1      -3.360  93.850 119.444  0.00  0.00     0.091 C 
ENDROOT
BRANCH   1   7
ATOM      7  O   LIG d   1      -3.684  92.246 117.620  0.00  0.00    -0.368 OA
BRANCH   7   8
ATOM      8  C   LIG d   1      -4.131  91.317 118.638  0.00  0.00     0.119 C 
BRANCH   8   9
ATOM      9  C   LIG d   1      -3.554  89.932 118.286  0.00  0.00     0.028 C 
ATOM     10  C   LIG d   1      -2.492  89.465 119.295  0.00  0.00     0.006 C 
ENDBRANCH   8   9
BRANCH   8  11
ATOM     11  C   LIG d   1      -5.652  91.143 118.605  0.00  0.00     0.028 C 
ATOM     12  C   LIG d   1      -6.318  91.934 117.468  0.00  0.00     0.006 C 
ENDBRANCH   8  11
ENDBRANCH   7   8
ENDBRANCH   1   7
BRANCH   6  13
ATOM     13  N   LIG d   1      -4.597  94.640 119.207  0.00  0.00    -0.311 N 
ATOM     14  C   LIG d   1      -5.654  94.607 120.017  0.00  0.00     0.210 C 
ATOM     15  C   LIG d   1      -6.832  95.482 119.578  0.00  0.00     0.109 C 
ATOM     16  O   LIG d   1      -5.715  93.961 121.074  0.00  0.00    -0.276 OA
ATOM     17  H   LIG d   1      -4.621  95.216 118.389  0.00  0.00     0.149 HD
ENDBRANCH   6  13
BRANCH   5  18
ATOM     18  N   LIG d   1      -2.671  95.069 121.540  0.00  0.00     0.381 N 
ATOM     19  H   LIG d   1      -3.666  95.160 121.588  0.00  0.00    -0.090 HD
ATOM     20  H   LIG d   1      -2.261  95.963 121.747  0.00  0.00    -0.090 HD
ATOM     21  H   LIG d   1      -2.360  94.392 122.201  0.00  0.00    -0.090 HD
ENDBRANCH   5  18
BRANCH   3  22
ATOM     22  C   LIG d   1       0.757  93.024 118.893  0.00  0.00     0.382 C 
ATOM     23  O   LIG d   1       1.602  93.639 119.588  0.00  0.00    -0.241 OA
ATOM     24  O   LIG d   1       1.146  92.243 118.004  0.00  0.00    -0.241 OA
ENDBRANCH   3  22
TORSDOF 7
ENDMDL
