MODEL 1
REMARK VINA RESULT:      -4.8      0.000      0.000
REMARK  7 active torsions:
REMARK  status: ('A' for Active; 'I' for Inactive)
REMARK    1  A    between atoms: C_2  and  C_3 
REMARK    2  A    between atoms: C_3  and  O_6 
REMARK    3  A    between atoms: C_3  and  C_4 
REMARK    4  A    between atoms: C_7  and  O_6 
REMARK    5  A    between atoms: C_9  and  C_10 
REMARK    6  A    between atoms: N_15  and  C_14 
REMARK    7  A    between atoms: N_20  and  C_19 
REMARK       I    between atoms: C_22  and  N_20 
ROOT
ATOM      1  C   LIG d   1      -2.290  93.185 118.025  0.00  0.00     0.161 C 
ATOM      2  C   LIG d   1      -1.132  92.397 117.918  0.00  0.00     0.016 C 
ATOM      3  C   LIG d   1       0.062  92.668 118.626  0.00  0.00     0.038 C 
ATOM      4  C   LIG d   1       0.129  93.665 119.611  0.00  0.00     0.028 C 
ATOM      5  C   LIG d   1      -0.860  94.804 119.389  0.00  0.00    -0.047 C 
ATOM      6  C   LIG d   1      -2.271  94.210 119.178  0.00  0.00     0.091 C 
ENDROOT
BRANCH   1   7
ATOM      7  O   LIG d   1      -3.450  92.335 118.129  0.00  0.00    -0.368 OA
BRANCH   7   8
ATOM      8  C   LIG d   1      -3.195  90.910 118.168  0.00  0.00     0.119 C 
BRANCH   8   9
ATOM      9  C   LIG d   1      -3.975  90.268 117.004  0.00  0.00     0.028 C 
ATOM     10  C   LIG d   1      -5.050  91.206 116.430  0.00  0.00     0.006 C 
ENDBRANCH   8   9
BRANCH   8  11
ATOM     11  C   LIG d   1      -3.768  90.276 119.439  0.00  0.00     0.028 C 
ATOM     12  C   LIG d   1      -2.981  90.659 120.702  0.00  0.00     0.006 C 
ENDBRANCH   8  11
ENDBRANCH   7   8
ENDBRANCH   1   7
BRANCH   6  13
ATOM     13  N   LIG d   1      -3.285  95.252 118.870  0.00  0.00    -0.311 N 
ATOM     14  C   LIG d   1      -4.047  95.830 119.797  0.00  0.00     0.210 C 
ATOM     15  C   LIG d   1      -5.042  96.865 119.263  0.00  0.00     0.109 C 
ATOM     16  O   LIG d   1      -3.971  95.608 121.015  0.00  0.00    -0.276 OA
ATOM     17  H   LIG d   1      -3.391  95.515 117.910  0.00  0.00     0.149 HD
ENDBRANCH   6  13
BRANCH   5  18
ATOM     18  N   LIG d   1      -0.779  95.699 120.559  0.00  0.00     0.381 N 
ATOM     19  H   LIG d   1      -1.598  96.272 120.604  0.00  0.00    -0.090 HD
ATOM     20  H   LIG d   1       0.020  96.300 120.454  0.00  0.00    -0.090 HD
ATOM     21  H   LIG d   1      -0.693  95.163 121.394  0.00  0.00    -0.090 HD
ENDBRANCH   5  18
BRANCH   3  22
ATOM     22  C   LIG d   1       1.216  91.964 118.322  0.00  0.00     0.382 C 
ATOM     23  O   LIG d   1       1.273  90.729 118.540  0.00  0.00    -0.241 OA
ATOM     24  O   LIG d   1       2.218  92.554 117.875  0.00  0.00    -0.241 OA
ENDBRANCH   3  22
TORSDOF 7
ENDMDL
MODEL 2
REMARK VINA RESULT:      -4.6      2.655      5.345
REMARK  7 active torsions:
REMARK  status: ('A' for Active; 'I' for Inactive)
REMARK    1  A    between atoms: C_2  and  C_3 
REMARK    2  A    between atoms: C_3  and  O_6 
REMARK    3  A    between atoms: C_3  and  C_4 
REMARK    4  A    between atoms: C_7  and  O_6 
REMARK    5  A    between atoms: C_9  and  C_10 
REMARK    6  A    between atoms: N_15  and  C_14 
REMARK    7  A    between atoms: N_20  and  C_19 
REMARK       I    between atoms: C_22  and  N_20 
ROOT
ATOM      1  C   LIG d   1      -4.876  93.109 119.077  0.00  0.00     0.161 C 
ATOM      2  C   LIG d   1      -6.169  93.376 118.596  0.00  0.00     0.016 C 
ATOM      3  C   LIG d   1      -6.859  94.584 118.847  0.00  0.00     0.038 C 
ATOM      4  C   LIG d   1      -6.239  95.675 119.474  0.00  0.00     0.028 C 
ATOM      5  C   LIG d   1      -5.112  95.270 120.419  0.00  0.00    -0.047 C 
ATOM      6  C   LIG d   1      -4.141  94.330 119.668  0.00  0.00     0.091 C 
ENDROOT
BRANCH   1   7
ATOM      7  O   LIG d   1      -4.083  92.502 118.037  0.00  0.00    -0.368 OA
BRANCH   7   8
ATOM      8  C   LIG d   1      -3.497  91.215 118.352  0.00  0.00     0.119 C 
BRANCH   8   9
ATOM      9  C   LIG d   1      -3.621  90.331 117.096  0.00  0.00     0.028 C 
ATOM     10  C   LIG d   1      -5.003  90.446 116.431  0.00  0.00     0.006 C 
ENDBRANCH   8   9
BRANCH   8  11
ATOM     11  C   LIG d   1      -4.294  90.490 119.439  0.00  0.00     0.028 C 
ATOM     12  C   LIG d   1      -3.481  90.263 120.723  0.00  0.00     0.006 C 
ENDBRANCH   8  11
ENDBRANCH   7   8
ENDBRANCH   1   7
BRANCH   6  13
ATOM     13  N   LIG d   1      -3.055  93.820 120.545  0.00  0.00    -0.311 N 
ATOM     14  C   LIG d   1      -1.764  93.876 120.221  0.00  0.00     0.210 C 
ATOM     15  C   LIG d   1      -0.811  93.275 121.259  0.00  0.00     0.109 C 
ATOM     16  O   LIG d   1      -1.316  94.396 119.188  0.00  0.00    -0.276 OA
ATOM     17  H   LIG d   1      -3.327  93.410 121.417  0.00  0.00     0.149 HD
ENDBRANCH   6  13
BRANCH   5  18
ATOM     18  N   LIG d   1      -4.465  96.507 120.896  0.00  0.00     0.381 N 
ATOM     19  H   LIG d   1      -3.515  96.317 121.147  0.00  0.00    -0.090 HD
ATOM     20  H   LIG d   1      -4.948  96.832 121.715  0.00  0.00    -0.090 HD
ATOM     21  H   LIG d   1      -4.495  97.204 120.185  0.00  0.00    -0.090 HD
ENDBRANCH   5  18
BRANCH   3  22
ATOM     22  C   LIG d   1      -8.197  94.695 118.504  0.00  0.00     0.382 C 
ATOM     23  O   LIG d   1      -9.080  94.620 119.393  0.00  0.00    -0.241 OA
ATOM     24  O   LIG d   1      -8.536  94.825 117.313  0.00  0.00    -0.241 OA
ENDBRANCH   3  22
TORSDOF 7
ENDMDL
MODEL 3
REMARK VINA RESULT:      -4.6      2.896      5.974
REMARK  7 active torsions:
REMARK  status: ('A' for Active; 'I' for Inactive)
REMARK    1  A    between atoms: C_2  and  C_3 
REMARK    2  A    between atoms: C_3  and  O_6 
REMARK    3  A    between atoms: C_3  and  C_4 
REMARK    4  A    between atoms: C_7  and  O_6 
REMARK    5  A    between atoms: C_9  and  C_10 
REMARK    6  A    between atoms: N_15  and  C_14 
REMARK    7  A    between atoms: N_20  and  C_19 
REMARK       I    between atoms: C_22  and  N_20 
ROOT
ATOM      1  C   LIG d   1      -6.006  93.027 119.761  0.00  0.00     0.161 C 
ATOM      2  C   LIG d   1      -7.324  93.485 119.603  0.00  0.00     0.016 C 
ATOM      3  C   LIG d   1      -7.653  94.835 119.342  0.00  0.00     0.038 C 
ATOM      4  C   LIG d   1      -6.671  95.799 119.071  0.00  0.00     0.028 C 
ATOM      5  C   LIG d   1      -5.324  95.490 119.716  0.00  0.00    -0.047 C 
ATOM      6  C   LIG d   1      -4.916  94.043 119.357  0.00  0.00     0.091 C 
ENDROOT
BRANCH   1   7
ATOM      7  O   LIG d   1      -5.828  91.791 119.042  0.00  0.00    -0.368 OA
BRANCH   7   8
ATOM      8  C   LIG d   1      -5.158  91.888 117.761  0.00  0.00     0.119 C 
BRANCH   8   9
ATOM      9  C   LIG d   1      -6.220  91.668 116.666  0.00  0.00     0.028 C 
ATOM     10  C   LIG d   1      -6.887  90.286 116.764  0.00  0.00     0.006 C 
ENDBRANCH   8   9
BRANCH   8  11
ATOM     11  C   LIG d   1      -4.144  90.756 117.576  0.00  0.00     0.028 C 
ATOM     12  C   LIG d   1      -3.613  90.207 118.909  0.00  0.00     0.006 C 
ENDBRANCH   8  11
ENDBRANCH   7   8
ENDBRANCH   1   7
BRANCH   6  13
ATOM     13  N   LIG d   1      -3.650  93.631 120.018  0.00  0.00    -0.311 N 
ATOM     14  C   LIG d   1      -2.456  93.717 119.435  0.00  0.00     0.210 C 
ATOM     15  C   LIG d   1      -1.283  93.220 120.285  0.00  0.00     0.109 C 
ATOM     16  O   LIG d   1      -2.254  94.189 118.306  0.00  0.00    -0.276 OA
ATOM     17  H   LIG d   1      -3.719  93.265 120.948  0.00  0.00     0.149 HD
ENDBRANCH   6  13
BRANCH   5  18
ATOM     18  N   LIG d   1      -4.359  96.498 119.239  0.00  0.00     0.381 N 
ATOM     19  H   LIG d   1      -3.753  96.767 119.988  0.00  0.00    -0.090 HD
ATOM     20  H   LIG d   1      -4.864  97.312 118.934  0.00  0.00    -0.090 HD
ATOM     21  H   LIG d   1      -3.824  96.128 118.485  0.00  0.00    -0.090 HD
ENDBRANCH   5  18
BRANCH   3  22
ATOM     22  C   LIG d   1      -8.978  95.241 119.392  0.00  0.00     0.382 C 
ATOM     23  O   LIG d   1      -9.283  96.424 119.104  0.00  0.00    -0.241 OA
ATOM     24  O   LIG d   1      -9.868  94.452 119.763  0.00  0.00    -0.241 OA
ENDBRANCH   3  22
TORSDOF 7
ENDMDL
MODEL 4
REMARK VINA RESULT:      -4.5      2.692      5.655
REMARK  7 active torsions:
REMARK  status: ('A' for Active; 'I' for Inactive)
REMARK    1  A    between atoms: C_2  and  C_3 
REMARK    2  A    between atoms: C_3  and  O_6 
REMARK    3  A    between atoms: C_3  and  C_4 
REMARK    4  A    between atoms: C_7  and  O_6 
REMARK    5  A    between atoms: C_9  and  C_10 
REMARK    6  A    between atoms: N_15  and  C_14 
REMARK    7  A    between atoms: N_20  and  C_19 
REMARK       I    between atoms: C_22  and  N_20 
ROOT
ATOM      1  C   LIG d   1      -4.950  93.447 119.354  0.00  0.00     0.161 C 
ATOM      2  C   LIG d   1      -6.265  93.565 118.873  0.00  0.00     0.016 C 
ATOM      3  C   LIG d   1      -6.963  94.793 118.809  0.00  0.00     0.038 C 
ATOM      4  C   LIG d   1      -6.336  96.017 119.083  0.00  0.00     0.028 C 
ATOM      5  C   LIG d   1      -5.166  95.896 120.053  0.00  0.00    -0.047 C 
ATOM      6  C   LIG d   1      -4.211  94.788 119.552  0.00  0.00     0.091 C 
ENDROOT
BRANCH   1   7
ATOM      7  O   LIG d   1      -4.190  92.579 118.490  0.00  0.00    -0.368 OA
BRANCH   7   8
ATOM      8  C   LIG d   1      -4.690  91.228 118.345  0.00  0.00     0.119 C 
BRANCH   8   9
ATOM      9  C   LIG d   1      -3.644  90.278 118.962  0.00  0.00     0.028 C 
ATOM     10  C   LIG d   1      -3.725  90.235 120.497  0.00  0.00     0.006 C 
ENDBRANCH   8   9
BRANCH   8  11
ATOM     11  C   LIG d   1      -4.784  90.824 116.871  0.00  0.00     0.028 C 
ATOM     12  C   LIG d   1      -6.222  90.504 116.431  0.00  0.00     0.006 C 
ENDBRANCH   8  11
ENDBRANCH   7   8
ENDBRANCH   1   7
BRANCH   6  13
ATOM     13  N   LIG d   1      -3.083  94.546 120.488  0.00  0.00    -0.311 N 
ATOM     14  C   LIG d   1      -1.805  94.726 120.159  0.00  0.00     0.210 C 
ATOM     15  C   LIG d   1      -0.799  94.399 121.267  0.00  0.00     0.109 C 
ATOM     16  O   LIG d   1      -1.411  95.156 119.064  0.00  0.00    -0.276 OA
ATOM     17  H   LIG d   1      -3.314  94.225 121.408  0.00  0.00     0.149 HD
ENDBRANCH   6  13
BRANCH   5  18
ATOM     18  N   LIG d   1      -4.520  97.219 120.141  0.00  0.00     0.381 N 
ATOM     19  H   LIG d   1      -3.579  97.116 120.464  0.00  0.00    -0.090 HD
ATOM     20  H   LIG d   1      -5.022  97.782 120.805  0.00  0.00    -0.090 HD
ATOM     21  H   LIG d   1      -4.526  97.661 119.248  0.00  0.00    -0.090 HD
ENDBRANCH   5  18
BRANCH   3  22
ATOM     22  C   LIG d   1      -8.316  94.799 118.507  0.00  0.00     0.382 C 
ATOM     23  O   LIG d   1      -9.157  94.497 119.388  0.00  0.00    -0.241 OA
ATOM     24  O   LIG d   1      -8.704  95.058 117.352  0.00  0.00    -0.241 OA
ENDBRANCH   3  22
TORSDOF 7
ENDMDL
MODEL 5
REMARK VINA RESULT:      -4.5      1.593      1.753
REMARK  7 active torsions:
REMARK  status: ('A' for Active; 'I' for Inactive)
REMARK    1  A    between atoms: C_2  and  C_3 
REMARK    2  A    between atoms: C_3  and  O_6 
REMARK    3  A    between atoms: C_3  and  C_4 
REMARK    4  A    between atoms: C_7  and  O_6 
REMARK    5  A    between atoms: C_9  and  C_10 
REMARK    6  A    between atoms: N_15  and  C_14 
REMARK    7  A    between atoms: N_20  and  C_19 
REMARK       I    between atoms: C_22  and  N_20 
ROOT
ATOM      1  C   LIG d   1      -3.103  92.227 118.625  0.00  0.00     0.161 C 
ATOM      2  C   LIG d   1      -1.944  91.467 118.393  0.00  0.00     0.016 C 
ATOM      3  C   LIG d   1      -0.640  92.012 118.406  0.00  0.00     0.038 C 
ATOM      4  C   LIG d   1      -0.393  93.335 118.803  0.00  0.00     0.028 C 
ATOM      5  C   LIG d   1      -1.571  94.271 118.554  0.00  0.00    -0.047 C 
ATOM      6  C   LIG d   1      -2.846  93.648 119.168  0.00  0.00     0.091 C 
ENDROOT
BRANCH   1   7
ATOM      7  O   LIG d   1      -3.992  91.508 119.502  0.00  0.00    -0.368 OA
BRANCH   7   8
ATOM      8  C   LIG d   1      -5.203  90.991 118.897  0.00  0.00     0.119 C 
BRANCH   8   9
ATOM      9  C   LIG d   1      -5.226  91.461 117.430  0.00  0.00     0.028 C 
ATOM     10  C   LIG d   1      -6.420  92.382 117.128  0.00  0.00     0.006 C 
ENDBRANCH   8   9
BRANCH   8  11
ATOM     11  C   LIG d   1      -6.452  91.602 119.539  0.00  0.00     0.028 C 
ATOM     12  C   LIG d   1      -6.342  91.715 121.068  0.00  0.00     0.006 C 
ENDBRANCH   8  11
ENDBRANCH   7   8
ENDBRANCH   1   7
BRANCH   6  13
ATOM     13  N   LIG d   1      -4.061  94.460 118.897  0.00  0.00    -0.311 N 
ATOM     14  C   LIG d   1      -4.849  94.943 119.856  0.00  0.00     0.210 C 
ATOM     15  C   LIG d   1      -6.061  95.737 119.359  0.00  0.00     0.109 C 
ATOM     16  O   LIG d   1      -4.642  94.816 121.073  0.00  0.00    -0.276 OA
ATOM     17  H   LIG d   1      -4.286  94.638 117.938  0.00  0.00     0.149 HD
ENDBRANCH   6  13
BRANCH   5  18
ATOM     18  N   LIG d   1      -1.229  95.582 119.139  0.00  0.00     0.381 N 
ATOM     19  H   LIG d   1      -0.310  95.548 119.531  0.00  0.00    -0.090 HD
ATOM     20  H   LIG d   1      -1.880  95.789 119.876  0.00  0.00    -0.090 HD
ATOM     21  H   LIG d   1      -1.274  96.289 118.439  0.00  0.00    -0.090 HD
ENDBRANCH   5  18
BRANCH   3  22
ATOM     22  C   LIG d   1       0.431  91.241 117.980  0.00  0.00     0.382 C 
ATOM     23  O   LIG d   1       0.501  90.872 116.783  0.00  0.00    -0.241 OA
ATOM     24  O   LIG d   1       1.305  90.873 118.788  0.00  0.00    -0.241 OA
ENDBRANCH   3  22
TORSDOF 7
ENDMDL
MODEL 6
REMARK VINA RESULT:      -4.4      3.586      6.635
REMARK  7 active torsions:
REMARK  status: ('A' for Active; 'I' for Inactive)
REMARK    1  A    between atoms: C_2  and  C_3 
REMARK    2  A    between atoms: C_3  and  O_6 
REMARK    3  A    between atoms: C_3  and  C_4 
REMARK    4  A    between atoms: C_7  and  O_6 
REMARK    5  A    between atoms: C_9  and  C_10 
REMARK    6  A    between atoms: N_15  and  C_14 
REMARK    7  A    between atoms: N_20  and  C_19 
REMARK       I    between atoms: C_22  and  N_20 
ROOT
ATOM      1  C   LIG d   1      -5.531  93.951 120.759  0.00  0.00     0.161 C 
ATOM      2  C   LIG d   1      -6.891  93.826 121.089  0.00  0.00     0.016 C 
ATOM      3  C   LIG d   1      -7.862  93.306 120.203  0.00  0.00     0.038 C 
ATOM      4  C   LIG d   1      -7.511  92.732 118.973  0.00  0.00     0.028 C 
ATOM      5  C   LIG d   1      -6.220  93.294 118.388  0.00  0.00    -0.047 C 
ATOM      6  C   LIG d   1      -5.111  93.227 119.463  0.00  0.00     0.091 C 
ENDROOT
BRANCH   1   7
ATOM      7  O   LIG d   1      -4.717  93.512 121.865  0.00  0.00    -0.368 OA
BRANCH   7   8
ATOM      8  C   LIG d   1      -4.664  92.081 122.088  0.00  0.00     0.119 C 
BRANCH   8   9
ATOM      9  C   LIG d   1      -5.274  91.806 123.476  0.00  0.00     0.028 C 
ATOM     10  C   LIG d   1      -6.550  90.951 123.398  0.00  0.00     0.006 C 
ENDBRANCH   8   9
BRANCH   8  11
ATOM     11  C   LIG d   1      -3.218  91.583 122.174  0.00  0.00     0.028 C 
ATOM     12  C   LIG d   1      -2.922  90.441 121.190  0.00  0.00     0.006 C 
ENDBRANCH   8  11
ENDBRANCH   7   8
ENDBRANCH   1   7
BRANCH   6  13
ATOM     13  N   LIG d   1      -3.836  93.836 119.001  0.00  0.00    -0.311 N 
ATOM     14  C   LIG d   1      -2.874  93.146 118.390  0.00  0.00     0.210 C 
ATOM     15  C   LIG d   1      -1.633  93.962 118.014  0.00  0.00     0.109 C 
ATOM     16  O   LIG d   1      -2.944  91.944 118.095  0.00  0.00    -0.276 OA
ATOM     17  H   LIG d   1      -3.709  94.814 119.172  0.00  0.00     0.149 HD
ENDBRANCH   6  13
BRANCH   5  18
ATOM     18  N   LIG d   1      -5.900  92.513 117.178  0.00  0.00     0.381 N 
ATOM     19  H   LIG d   1      -4.911  92.512 117.027  0.00  0.00    -0.090 HD
ATOM     20  H   LIG d   1      -6.340  92.946 116.386  0.00  0.00    -0.090 HD
ATOM     21  H   LIG d   1      -6.229  91.578 117.280  0.00  0.00    -0.090 HD
ENDBRANCH   5  18
BRANCH   3  22
ATOM     22  C   LIG d   1      -9.207  93.394 120.529  0.00  0.00     0.382 C 
ATOM     23  O   LIG d   1      -9.710  92.579 121.341  0.00  0.00    -0.241 OA
ATOM     24  O   LIG d   1      -9.933  94.249 119.989  0.00  0.00    -0.241 OA
ENDBRANCH   3  22
TORSDOF 7
ENDMDL
MODEL 7
REMARK VINA RESULT:      -4.3      2.706      5.270
REMARK  7 active torsions:
REMARK  status: ('A' for Active; 'I' for Inactive)
REMARK    1  A    between atoms: C_2  and  C_3 
REMARK    2  A    between atoms: C_3  and  O_6 
REMARK    3  A    between atoms: C_3  and  C_4 
REMARK    4  A    between atoms: C_7  and  O_6 
REMARK    5  A    between atoms: C_9  and  C_10 
REMARK    6  A    between atoms: N_15  and  C_14 
REMARK    7  A    between atoms: N_20  and  C_19 
REMARK       I    between atoms: C_22  and  N_20 
ROOT
ATOM      1  C   LIG d   1      -4.018  93.001 119.749  0.00  0.00     0.161 C 
ATOM      2  C   LIG d   1      -5.165  92.517 119.097  0.00  0.00     0.016 C 
ATOM      3  C   LIG d   1      -5.118  91.649 117.982  0.00  0.00     0.038 C 
ATOM      4  C   LIG d   1      -3.916  91.081 117.535  0.00  0.00     0.028 C 
ATOM      5  C   LIG d   1      -2.691  91.935 117.844  0.00  0.00    -0.047 C 
ATOM      6  C   LIG d   1      -2.702  92.304 119.345  0.00  0.00     0.091 C 
ENDROOT
BRANCH   1   7
ATOM      7  O   LIG d   1      -4.203  92.932 121.177  0.00  0.00    -0.368 OA
BRANCH   7   8
ATOM      8  C   LIG d   1      -4.872  91.748 121.677  0.00  0.00     0.119 C 
BRANCH   8   9
ATOM      9  C   LIG d   1      -6.070  92.217 122.526  0.00  0.00     0.028 C 
ATOM     10  C   LIG d   1      -7.378  91.508 122.136  0.00  0.00     0.006 C 
ENDBRANCH   8   9
BRANCH   8  11
ATOM     11  C   LIG d   1      -3.974  90.966 122.641  0.00  0.00     0.028 C 
ATOM     12  C   LIG d   1      -3.113  89.910 121.929  0.00  0.00     0.006 C 
ENDBRANCH   8  11
ENDBRANCH   7   8
ENDBRANCH   1   7
BRANCH   6  13
ATOM     13  N   LIG d   1      -1.583  93.208 119.715  0.00  0.00    -0.311 N 
ATOM     14  C   LIG d   1      -0.411  92.774 120.175  0.00  0.00     0.210 C 
ATOM     15  C   LIG d   1       0.599  93.875 120.516  0.00  0.00     0.109 C 
ATOM     16  O   LIG d   1      -0.100  91.580 120.304  0.00  0.00    -0.276 OA
ATOM     17  H   LIG d   1      -1.738  94.192 119.612  0.00  0.00     0.149 HD
ENDBRANCH   6  13
BRANCH   5  18
ATOM     18  N   LIG d   1      -1.498  91.163 117.447  0.00  0.00     0.381 N 
ATOM     19  H   LIG d   1      -1.772  90.250 117.143  0.00  0.00    -0.090 HD
ATOM     20  H   LIG d   1      -0.896  91.062 118.246  0.00  0.00    -0.090 HD
ATOM     21  H   LIG d   1      -1.015  91.634 116.715  0.00  0.00    -0.090 HD
ENDBRANCH   5  18
BRANCH   3  22
ATOM     22  C   LIG d   1      -6.280  91.373 117.277  0.00  0.00     0.382 C 
ATOM     23  O   LIG d   1      -6.822  90.246 117.379  0.00  0.00    -0.241 OA
ATOM     24  O   LIG d   1      -6.769  92.221 116.507  0.00  0.00    -0.241 OA
ENDBRANCH   3  22
TORSDOF 7
ENDMDL
MODEL 8
REMARK VINA RESULT:      -4.3      3.987      6.062
REMARK  7 active torsions:
REMARK  status: ('A' for Active; 'I' for Inactive)
REMARK    1  A    between atoms: C_2  and  C_3 
REMARK    2  A    between atoms: C_3  and  O_6 
REMARK    3  A    between atoms: C_3  and  C_4 
REMARK    4  A    between atoms: C_7  and  O_6 
REMARK    5  A    between atoms: C_9  and  C_10 
REMARK    6  A    between atoms: N_15  and  C_14 
REMARK    7  A    between atoms: N_20  and  C_19 
REMARK       I    between atoms: C_22  and  N_20 
ROOT
ATOM      1  C   LIG d   1      -5.792  93.895 120.152  0.00  0.00     0.161 C 
ATOM      2  C   LIG d   1      -5.591  92.812 121.023  0.00  0.00     0.016 C 
ATOM      3  C   LIG d   1      -6.647  92.101 121.638  0.00  0.00     0.038 C 
ATOM      4  C   LIG d   1      -7.990  92.331 121.302  0.00  0.00     0.028 C 
ATOM      5  C   LIG d   1      -8.257  93.749 120.810  0.00  0.00    -0.047 C 
ATOM      6  C   LIG d   1      -7.251  94.089 119.687  0.00  0.00     0.091 C 
ENDROOT
BRANCH   1   7
ATOM      7  O   LIG d   1      -4.916  93.776 119.014  0.00  0.00    -0.368 OA
BRANCH   7   8
ATOM      8  C   LIG d   1      -4.649  92.429 118.552  0.00  0.00     0.119 C 
BRANCH   8   9
ATOM      9  C   LIG d   1      -3.215  92.407 117.990  0.00  0.00     0.028 C 
ATOM     10  C   LIG d   1      -2.499  91.072 118.257  0.00  0.00     0.006 C 
ENDBRANCH   8   9
BRANCH   8  11
ATOM     11  C   LIG d   1      -5.553  92.055 117.374  0.00  0.00     0.028 C 
ATOM     12  C   LIG d   1      -6.593  90.983 117.737  0.00  0.00     0.006 C 
ENDBRANCH   8  11
ENDBRANCH   7   8
ENDBRANCH   1   7
BRANCH   6  13
ATOM     13  N   LIG d   1      -7.388  95.489 119.207  0.00  0.00    -0.311 N 
ATOM     14  C   LIG d   1      -8.095  95.829 118.131  0.00  0.00     0.210 C 
ATOM     15  C   LIG d   1      -8.089  97.324 117.800  0.00  0.00     0.109 C 
ATOM     16  O   LIG d   1      -8.753  95.038 117.438  0.00  0.00    -0.276 OA
ATOM     17  H   LIG d   1      -6.912  96.198 119.729  0.00  0.00     0.149 HD
ENDBRANCH   6  13
BRANCH   5  18
ATOM     18  N   LIG d   1      -9.662  93.810 120.366  0.00  0.00     0.381 N 
ATOM     19  H   LIG d   1      -9.739  94.404 119.565  0.00  0.00    -0.090 HD
ATOM     20  H   LIG d   1     -10.220  94.202 121.104  0.00  0.00    -0.090 HD
ATOM     21  H   LIG d   1      -9.989  92.895 120.143  0.00  0.00    -0.090 HD
ENDBRANCH   5  18
BRANCH   3  22
ATOM     22  C   LIG d   1      -6.366  91.175 122.631  0.00  0.00     0.382 C 
ATOM     23  O   LIG d   1      -7.302  90.638 123.271  0.00  0.00    -0.241 OA
ATOM     24  O   LIG d   1      -5.186  90.901 122.924  0.00  0.00    -0.241 OA
ENDBRANCH   3  22
TORSDOF 7
ENDMDL
MODEL 9
REMARK VINA RESULT:      -4.1      2.961      5.832
REMARK  7 active torsions:
REMARK  status: ('A' for Active; 'I' for Inactive)
REMARK    1  A    between atoms: C_2  and  C_3 
REMARK    2  A    between atoms: C_3  and  O_6 
REMARK    3  A    between atoms: C_3  and  C_4 
REMARK    4  A    between atoms: C_7  and  O_6 
REMARK    5  A    between atoms: C_9  and  C_10 
REMARK    6  A    between atoms: N_15  and  C_14 
REMARK    7  A    between atoms: N_20  and  C_19 
REMARK       I    between atoms: C_22  and  N_20 
ROOT
ATOM      1  C   LIG d   1      -3.787  92.521 119.649  0.00  0.00     0.161 C 
ATOM      2  C   LIG d   1      -5.074  93.067 119.514  0.00  0.00     0.016 C 
ATOM      3  C   LIG d   1      -5.949  92.744 118.452  0.00  0.00     0.038 C 
ATOM      4  C   LIG d   1      -5.650  91.731 117.528  0.00  0.00     0.028 C 
ATOM      5  C   LIG d   1      -4.154  91.513 117.331  0.00  0.00    -0.047 C 
ATOM      6  C   LIG d   1      -3.487  91.332 118.713  0.00  0.00     0.091 C 
ENDROOT
BRANCH   1   7
ATOM      7  O   LIG d   1      -3.555  92.149 121.022  0.00  0.00    -0.368 OA
BRANCH   7   8
ATOM      8  C   LIG d   1      -4.237  90.956 121.483  0.00  0.00     0.119 C 
BRANCH   8   9
ATOM      9  C   LIG d   1      -5.138  91.364 122.664  0.00  0.00     0.028 C 
ATOM     10  C   LIG d   1      -6.633  91.314 122.306  0.00  0.00     0.006 C 
ENDBRANCH   8   9
BRANCH   8  11
ATOM     11  C   LIG d   1      -3.249  89.937 122.059  0.00  0.00     0.028 C 
ATOM     12  C   LIG d   1      -1.827  90.502 122.202  0.00  0.00     0.006 C 
ENDBRANCH   8  11
ENDBRANCH   7   8
ENDBRANCH   1   7
BRANCH   6  13
ATOM     13  N   LIG d   1      -2.010  91.197 118.617  0.00  0.00    -0.311 N 
ATOM     14  C   LIG d   1      -1.218  92.145 118.120  0.00  0.00     0.210 C 
ATOM     15  C   LIG d   1       0.273  91.794 118.094  0.00  0.00     0.109 C 
ATOM     16  O   LIG d   1      -1.605  93.257 117.729  0.00  0.00    -0.276 OA
ATOM     17  H   LIG d   1      -1.608  90.338 118.940  0.00  0.00     0.149 HD
ENDBRANCH   6  13
BRANCH   5  18
ATOM     18  N   LIG d   1      -3.987  90.341 116.450  0.00  0.00     0.381 N 
ATOM     19  H   LIG d   1      -3.014  90.143 116.331  0.00  0.00    -0.090 HD
ATOM     20  H   LIG d   1      -4.379  90.553 115.549  0.00  0.00    -0.090 HD
ATOM     21  H   LIG d   1      -4.448  89.551 116.844  0.00  0.00    -0.090 HD
ENDBRANCH   5  18
BRANCH   3  22
ATOM     22  C   LIG d   1      -7.120  93.466 118.282  0.00  0.00     0.382 C 
ATOM     23  O   LIG d   1      -7.413  93.931 117.154  0.00  0.00    -0.241 OA
ATOM     24  O   LIG d   1      -7.866  93.696 119.253  0.00  0.00    -0.241 OA
ENDBRANCH   3  22
TORSDOF 7
ENDMDL
