MODEL 1
REMARK VINA RESULT:      -4.7      0.000      0.000
REMARK  7 active torsions:
REMARK  status: ('A' for Active; 'I' for Inactive)
REMARK    1  A    between atoms: C_2  and  C_3 
REMARK    2  A    between atoms: C_3  and  O_6 
REMARK    3  A    between atoms: C_3  and  C_4 
REMARK    4  A    between atoms: C_7  and  O_6 
REMARK    5  A    between atoms: C_9  and  C_10 
REMARK    6  A    between atoms: N_15  and  C_14 
REMARK    7  A    between atoms: N_20  and  C_19 
REMARK       I    between atoms: C_22  and  N_20 
ROOT
ATOM      1  C   LIG d   1      -5.679  92.790 119.844  0.00  0.00     0.161 C 
ATOM      2  C   LIG d   1      -4.560  92.031 119.465  0.00  0.00     0.016 C 
ATOM      3  C   LIG d   1      -4.440  91.395 118.208  0.00  0.00     0.038 C 
ATOM      4  C   LIG d   1      -5.372  91.602 117.181  0.00  0.00     0.028 C 
ATOM      5  C   LIG d   1      -6.766  91.951 117.689  0.00  0.00    -0.047 C 
ATOM      6  C   LIG d   1      -6.656  93.119 118.695  0.00  0.00     0.091 C 
ENDROOT
BRANCH   1   7
ATOM      7  O   LIG d   1      -5.250  94.000 120.499  0.00  0.00    -0.368 OA
BRANCH   7   8
ATOM      8  C   LIG d   1      -4.798  95.069 119.631  0.00  0.00     0.119 C 
BRANCH   8   9
ATOM      9  C   LIG d   1      -3.337  95.383 120.007  0.00  0.00     0.028 C 
ATOM     10  C   LIG d   1      -2.341  94.921 118.929  0.00  0.00     0.006 C 
ENDBRANCH   8   9
BRANCH   8  11
ATOM     11  C   LIG d   1      -5.571  96.364 119.893  0.00  0.00     0.028 C 
ATOM     12  C   LIG d   1      -6.458  96.286 121.146  0.00  0.00     0.006 C 
ENDBRANCH   8  11
ENDBRANCH   7   8
ENDBRANCH   1   7
BRANCH   6  13
ATOM     13  N   LIG d   1      -7.965  93.469 119.305  0.00  0.00    -0.311 N 
ATOM     14  C   LIG d   1      -8.749  94.445 118.850  0.00  0.00     0.210 C 
ATOM     15  C   LIG d   1     -10.047  94.652 119.636  0.00  0.00     0.109 C 
ATOM     16  O   LIG d   1      -8.507  95.138 117.850  0.00  0.00    -0.276 OA
ATOM     17  H   LIG d   1      -8.254  92.936 120.102  0.00  0.00     0.149 HD
ENDBRANCH   6  13
BRANCH   5  18
ATOM     18  N   LIG d   1      -7.600  92.276 116.516  0.00  0.00     0.381 N 
ATOM     19  H   LIG d   1      -7.028  92.655 115.788  0.00  0.00    -0.090 HD
ATOM     20  H   LIG d   1      -8.276  92.971 116.780  0.00  0.00    -0.090 HD
ATOM     21  H   LIG d   1      -8.064  91.457 116.191  0.00  0.00    -0.090 HD
ENDBRANCH   5  18
BRANCH   3  22
ATOM     22  C   LIG d   1      -3.398  90.508 117.983  0.00  0.00     0.382 C 
ATOM     23  O   LIG d   1      -3.415  89.372 118.515  0.00  0.00    -0.241 OA
ATOM     24  O   LIG d   1      -2.419  90.847 117.291  0.00  0.00    -0.241 OA
ENDBRANCH   3  22
TORSDOF 7
ENDMDL
MODEL 2
REMARK VINA RESULT:      -4.3      3.197      5.494
REMARK  7 active torsions:
REMARK  status: ('A' for Active; 'I' for Inactive)
REMARK    1  A    between atoms: C_2  and  C_3 
REMARK    2  A    between atoms: C_3  and  O_6 
REMARK    3  A    between atoms: C_3  and  C_4 
REMARK    4  A    between atoms: C_7  and  O_6 
REMARK    5  A    between atoms: C_9  and  C_10 
REMARK    6  A    between atoms: N_15  and  C_14 
REMARK    7  A    between atoms: N_20  and  C_19 
REMARK       I    between atoms: C_22  and  N_20 
ROOT
ATOM      1  C   LIG d   1      -2.859  89.932 118.037  0.00  0.00     0.161 C 
ATOM      2  C   LIG d   1      -1.491  89.666 117.857  0.00  0.00     0.016 C 
ATOM      3  C   LIG d   1      -0.514  90.678 117.715  0.00  0.00     0.038 C 
ATOM      4  C   LIG d   1      -0.821  92.035 117.895  0.00  0.00     0.028 C 
ATOM      5  C   LIG d   1      -2.273  92.376 117.576  0.00  0.00    -0.047 C 
ATOM      6  C   LIG d   1      -3.196  91.405 118.347  0.00  0.00     0.091 C 
ENDROOT
BRANCH   1   7
ATOM      7  O   LIG d   1      -3.394  89.069 119.061  0.00  0.00    -0.368 OA
BRANCH   7   8
ATOM      8  C   LIG d   1      -2.459  88.631 120.077  0.00  0.00     0.119 C 
BRANCH   8   9
ATOM      9  C   LIG d   1      -2.760  87.150 120.376  0.00  0.00     0.028 C 
ATOM     10  C   LIG d   1      -1.613  86.220 119.948  0.00  0.00     0.006 C 
ENDBRANCH   8   9
BRANCH   8  11
ATOM     11  C   LIG d   1      -2.690  89.367 121.401  0.00  0.00     0.028 C 
ATOM     12  C   LIG d   1      -1.678  90.499 121.638  0.00  0.00     0.006 C 
ENDBRANCH   8  11
ENDBRANCH   7   8
ENDBRANCH   1   7
BRANCH   6  13
ATOM     13  N   LIG d   1      -4.632  91.615 118.027  0.00  0.00    -0.311 N 
ATOM     14  C   LIG d   1      -5.431  92.417 118.730  0.00  0.00     0.210 C 
ATOM     15  C   LIG d   1      -6.882  92.474 118.242  0.00  0.00     0.109 C 
ATOM     16  O   LIG d   1      -5.067  93.111 119.691  0.00  0.00    -0.276 OA
ATOM     17  H   LIG d   1      -5.003  91.114 117.243  0.00  0.00     0.149 HD
ENDBRANCH   6  13
BRANCH   5  18
ATOM     18  N   LIG d   1      -2.488  93.789 117.938  0.00  0.00     0.381 N 
ATOM     19  H   LIG d   1      -3.316  93.874 118.494  0.00  0.00    -0.090 HD
ATOM     20  H   LIG d   1      -2.617  94.324 117.097  0.00  0.00    -0.090 HD
ATOM     21  H   LIG d   1      -1.703  94.136 118.444  0.00  0.00    -0.090 HD
ENDBRANCH   5  18
BRANCH   3  22
ATOM     22  C   LIG d   1       0.779  90.338 117.349  0.00  0.00     0.382 C 
ATOM     23  O   LIG d   1       1.024  89.189 116.907  0.00  0.00    -0.241 OA
ATOM     24  O   LIG d   1       1.712  91.150 117.497  0.00  0.00    -0.241 OA
ENDBRANCH   3  22
TORSDOF 7
ENDMDL
MODEL 3
REMARK VINA RESULT:      -4.2      1.928      5.291
REMARK  7 active torsions:
REMARK  status: ('A' for Active; 'I' for Inactive)
REMARK    1  A    between atoms: C_2  and  C_3 
REMARK    2  A    between atoms: C_3  and  O_6 
REMARK    3  A    between atoms: C_3  and  C_4 
REMARK    4  A    between atoms: C_7  and  O_6 
REMARK    5  A    between atoms: C_9  and  C_10 
REMARK    6  A    between atoms: N_15  and  C_14 
REMARK    7  A    between atoms: N_20  and  C_19 
REMARK       I    between atoms: C_22  and  N_20 
ROOT
ATOM      1  C   LIG d   1      -4.787  93.621 119.118  0.00  0.00     0.161 C 
ATOM      2  C   LIG d   1      -6.030  94.270 119.203  0.00  0.00     0.016 C 
ATOM      3  C   LIG d   1      -7.157  93.897 118.435  0.00  0.00     0.038 C 
ATOM      4  C   LIG d   1      -7.161  92.744 117.635  0.00  0.00     0.028 C 
ATOM      5  C   LIG d   1      -5.776  92.351 117.133  0.00  0.00    -0.047 C 
ATOM      6  C   LIG d   1      -4.804  92.292 118.333  0.00  0.00     0.091 C 
ENDROOT
BRANCH   1   7
ATOM      7  O   LIG d   1      -4.252  93.415 120.440  0.00  0.00    -0.368 OA
BRANCH   7   8
ATOM      8  C   LIG d   1      -4.753  92.261 121.158  0.00  0.00     0.119 C 
BRANCH   8   9
ATOM      9  C   LIG d   1      -5.345  92.764 122.489  0.00  0.00     0.028 C 
ATOM     10  C   LIG d   1      -6.882  92.788 122.477  0.00  0.00     0.006 C 
ENDBRANCH   8   9
BRANCH   8  11
ATOM     11  C   LIG d   1      -3.617  91.313 121.552  0.00  0.00     0.028 C 
ATOM     12  C   LIG d   1      -2.227  91.950 121.394  0.00  0.00     0.006 C 
ENDBRANCH   8  11
ENDBRANCH   7   8
ENDBRANCH   1   7
BRANCH   6  13
ATOM     13  N   LIG d   1      -3.408  91.997 117.919  0.00  0.00    -0.311 N 
ATOM     14  C   LIG d   1      -2.885  90.771 117.924  0.00  0.00     0.210 C 
ATOM     15  C   LIG d   1      -1.422  90.691 117.478  0.00  0.00     0.109 C 
ATOM     16  O   LIG d   1      -3.504  89.740 118.224  0.00  0.00    -0.276 OA
ATOM     17  H   LIG d   1      -2.844  92.772 117.630  0.00  0.00     0.149 HD
ENDBRANCH   6  13
BRANCH   5  18
ATOM     18  N   LIG d   1      -5.906  91.061 116.430  0.00  0.00     0.381 N 
ATOM     19  H   LIG d   1      -6.780  91.026 115.945  0.00  0.00    -0.090 HD
ATOM     20  H   LIG d   1      -5.892  90.319 117.108  0.00  0.00    -0.090 HD
ATOM     21  H   LIG d   1      -5.155  90.946 115.785  0.00  0.00    -0.090 HD
ENDBRANCH   5  18
BRANCH   3  22
ATOM     22  C   LIG d   1      -8.284  94.704 118.432  0.00  0.00     0.382 C 
ATOM     23  O   LIG d   1      -9.231  94.456 117.648  0.00  0.00    -0.241 OA
ATOM     24  O   LIG d   1      -8.348  95.703 119.174  0.00  0.00    -0.241 OA
ENDBRANCH   3  22
TORSDOF 7
ENDMDL
MODEL 4
REMARK VINA RESULT:      -4.2      2.603      5.542
REMARK  7 active torsions:
REMARK  status: ('A' for Active; 'I' for Inactive)
REMARK    1  A    between atoms: C_2  and  C_3 
REMARK    2  A    between atoms: C_3  and  O_6 
REMARK    3  A    between atoms: C_3  and  C_4 
REMARK    4  A    between atoms: C_7  and  O_6 
REMARK    5  A    between atoms: C_9  and  C_10 
REMARK    6  A    between atoms: N_15  and  C_14 
REMARK    7  A    between atoms: N_20  and  C_19 
REMARK       I    between atoms: C_22  and  N_20 
ROOT
ATOM      1  C   LIG d   1      -3.747  91.879 118.350  0.00  0.00     0.161 C 
ATOM      2  C   LIG d   1      -4.865  91.638 117.535  0.00  0.00     0.016 C 
ATOM      3  C   LIG d   1      -6.043  92.420 117.579  0.00  0.00     0.038 C 
ATOM      4  C   LIG d   1      -6.124  93.596 118.340  0.00  0.00     0.028 C 
ATOM      5  C   LIG d   1      -5.206  93.594 119.557  0.00  0.00    -0.047 C 
ATOM      6  C   LIG d   1      -3.774  93.224 119.106  0.00  0.00     0.091 C 
ENDROOT
BRANCH   1   7
ATOM      7  O   LIG d   1      -2.540  91.768 117.569  0.00  0.00    -0.368 OA
BRANCH   7   8
ATOM      8  C   LIG d   1      -1.872  90.482 117.607  0.00  0.00     0.119 C 
BRANCH   8   9
ATOM      9  C   LIG d   1      -2.229  89.815 118.950  0.00  0.00     0.028 C 
ATOM     10  C   LIG d   1      -2.133  88.281 118.886  0.00  0.00     0.006 C 
ENDBRANCH   8   9
BRANCH   8  11
ATOM     11  C   LIG d   1      -0.350  90.646 117.627  0.00  0.00     0.028 C 
ATOM     12  C   LIG d   1       0.149  91.428 118.853  0.00  0.00     0.006 C 
ENDBRANCH   8  11
ENDBRANCH   7   8
ENDBRANCH   1   7
BRANCH   6  13
ATOM     13  N   LIG d   1      -2.830  93.117 120.249  0.00  0.00    -0.311 N 
ATOM     14  C   LIG d   1      -2.072  94.128 120.670  0.00  0.00     0.210 C 
ATOM     15  C   LIG d   1      -1.153  93.799 121.850  0.00  0.00     0.109 C 
ATOM     16  O   LIG d   1      -2.096  95.275 120.198  0.00  0.00    -0.276 OA
ATOM     17  H   LIG d   1      -2.769  92.230 120.709  0.00  0.00     0.149 HD
ENDBRANCH   6  13
BRANCH   5  18
ATOM     18  N   LIG d   1      -5.288  94.929 120.179  0.00  0.00     0.381 N 
ATOM     19  H   LIG d   1      -5.774  95.557 119.570  0.00  0.00    -0.090 HD
ATOM     20  H   LIG d   1      -4.357  95.281 120.319  0.00  0.00    -0.090 HD
ATOM     21  H   LIG d   1      -5.763  94.870 121.053  0.00  0.00    -0.090 HD
ENDBRANCH   5  18
BRANCH   3  22
ATOM     22  C   LIG d   1      -7.170  92.004 116.886  0.00  0.00     0.382 C 
ATOM     23  O   LIG d   1      -7.361  90.783 116.676  0.00  0.00    -0.241 OA
ATOM     24  O   LIG d   1      -7.975  92.839 116.431  0.00  0.00    -0.241 OA
ENDBRANCH   3  22
TORSDOF 7
ENDMDL
MODEL 5
REMARK VINA RESULT:      -4.0      2.994      4.936
REMARK  7 active torsions:
REMARK  status: ('A' for Active; 'I' for Inactive)
REMARK    1  A    between atoms: C_2  and  C_3 
REMARK    2  A    between atoms: C_3  and  O_6 
REMARK    3  A    between atoms: C_3  and  C_4 
REMARK    4  A    between atoms: C_7  and  O_6 
REMARK    5  A    between atoms: C_9  and  C_10 
REMARK    6  A    between atoms: N_15  and  C_14 
REMARK    7  A    between atoms: N_20  and  C_19 
REMARK       I    between atoms: C_22  and  N_20 
ROOT
ATOM      1  C   LIG d   1      -3.098  92.235 117.560  0.00  0.00     0.161 C 
ATOM      2  C   LIG d   1      -2.985  90.840 117.690  0.00  0.00     0.016 C 
ATOM      3  C   LIG d   1      -2.242  90.212 118.717  0.00  0.00     0.038 C 
ATOM      4  C   LIG d   1      -1.683  90.939 119.778  0.00  0.00     0.028 C 
ATOM      5  C   LIG d   1      -1.345  92.381 119.413  0.00  0.00    -0.047 C 
ATOM      6  C   LIG d   1      -2.587  93.041 118.773  0.00  0.00     0.091 C 
ENDROOT
BRANCH   1   7
ATOM      7  O   LIG d   1      -4.463  92.588 117.263  0.00  0.00    -0.368 OA
BRANCH   7   8
ATOM      8  C   LIG d   1      -5.483  91.875 118.005  0.00  0.00     0.119 C 
BRANCH   8   9
ATOM      9  C   LIG d   1      -6.585  91.471 117.006  0.00  0.00     0.028 C 
ATOM     10  C   LIG d   1      -7.329  92.688 116.430  0.00  0.00     0.006 C 
ENDBRANCH   8   9
BRANCH   8  11
ATOM     11  C   LIG d   1      -6.172  92.787 119.023  0.00  0.00     0.028 C 
ATOM     12  C   LIG d   1      -5.689  92.547 120.462  0.00  0.00     0.006 C 
ENDBRANCH   8  11
ENDBRANCH   7   8
ENDBRANCH   1   7
BRANCH   6  13
ATOM     13  N   LIG d   1      -2.317  94.427 118.309  0.00  0.00    -0.311 N 
ATOM     14  C   LIG d   1      -2.519  95.505 119.065  0.00  0.00     0.210 C 
ATOM     15  C   LIG d   1      -2.195  96.840 118.387  0.00  0.00     0.109 C 
ATOM     16  O   LIG d   1      -2.905  95.480 120.243  0.00  0.00    -0.276 OA
ATOM     17  H   LIG d   1      -1.972  94.537 117.376  0.00  0.00     0.149 HD
ENDBRANCH   6  13
BRANCH   5  18
ATOM     18  N   LIG d   1      -0.900  93.060 120.645  0.00  0.00     0.381 N 
ATOM     19  H   LIG d   1      -0.308  92.450 121.173  0.00  0.00    -0.090 HD
ATOM     20  H   LIG d   1      -1.706  93.279 121.204  0.00  0.00    -0.090 HD
ATOM     21  H   LIG d   1      -0.409  93.895 120.416  0.00  0.00    -0.090 HD
ENDBRANCH   5  18
BRANCH   3  22
ATOM     22  C   LIG d   1      -2.019  88.845 118.665  0.00  0.00     0.382 C 
ATOM     23  O   LIG d   1      -1.243  88.368 117.803  0.00  0.00    -0.241 OA
ATOM     24  O   LIG d   1      -2.619  88.077 119.442  0.00  0.00    -0.241 OA
ENDBRANCH   3  22
TORSDOF 7
ENDMDL
MODEL 6
REMARK VINA RESULT:      -4.0      4.175      6.619
REMARK  7 active torsions:
REMARK  status: ('A' for Active; 'I' for Inactive)
REMARK    1  A    between atoms: C_2  and  C_3 
REMARK    2  A    between atoms: C_3  and  O_6 
REMARK    3  A    between atoms: C_3  and  C_4 
REMARK    4  A    between atoms: C_7  and  O_6 
REMARK    5  A    between atoms: C_9  and  C_10 
REMARK    6  A    between atoms: N_15  and  C_14 
REMARK    7  A    between atoms: N_20  and  C_19 
REMARK       I    between atoms: C_22  and  N_20 
ROOT
ATOM      1  C   LIG d   1      -1.807  88.818 117.956  0.00  0.00     0.161 C 
ATOM      2  C   LIG d   1      -0.600  88.199 118.324  0.00  0.00     0.016 C 
ATOM      3  C   LIG d   1       0.647  88.864 118.322  0.00  0.00     0.038 C 
ATOM      4  C   LIG d   1       0.752  90.244 118.095  0.00  0.00     0.028 C 
ATOM      5  C   LIG d   1      -0.371  90.802 117.228  0.00  0.00    -0.047 C 
ATOM      6  C   LIG d   1      -1.729  90.353 117.814  0.00  0.00     0.091 C 
ENDROOT
BRANCH   1   7
ATOM      7  O   LIG d   1      -2.846  88.454 118.886  0.00  0.00    -0.368 OA
BRANCH   7   8
ATOM      8  C   LIG d   1      -2.431  88.255 120.260  0.00  0.00     0.119 C 
BRANCH   8   9
ATOM      9  C   LIG d   1      -3.245  87.075 120.824  0.00  0.00     0.028 C 
ATOM     10  C   LIG d   1      -2.673  86.547 122.150  0.00  0.00     0.006 C 
ENDBRANCH   8   9
BRANCH   8  11
ATOM     11  C   LIG d   1      -2.803  89.458 121.133  0.00  0.00     0.028 C 
ATOM     12  C   LIG d   1      -1.574  90.229 121.639  0.00  0.00     0.006 C 
ENDBRANCH   8  11
ENDBRANCH   7   8
ENDBRANCH   1   7
BRANCH   6  13
ATOM     13  N   LIG d   1      -2.879  90.785 116.977  0.00  0.00    -0.311 N 
ATOM     14  C   LIG d   1      -3.928  91.448 117.460  0.00  0.00     0.210 C 
ATOM     15  C   LIG d   1      -5.012  91.781 116.430  0.00  0.00     0.109 C 
ATOM     16  O   LIG d   1      -4.050  91.820 118.637  0.00  0.00    -0.276 OA
ATOM     17  H   LIG d   1      -2.848  90.552 116.004  0.00  0.00     0.149 HD
ENDBRANCH   6  13
BRANCH   5  18
ATOM     18  N   LIG d   1      -0.216  92.269 117.187  0.00  0.00     0.381 N 
ATOM     19  H   LIG d   1       0.473  92.555 117.853  0.00  0.00    -0.090 HD
ATOM     20  H   LIG d   1      -1.091  92.695 117.435  0.00  0.00    -0.090 HD
ATOM     21  H   LIG d   1       0.055  92.558 116.273  0.00  0.00    -0.090 HD
ENDBRANCH   5  18
BRANCH   3  22
ATOM     22  C   LIG d   1       1.813  88.137 118.509  0.00  0.00     0.382 C 
ATOM     23  O   LIG d   1       1.869  87.261 119.405  0.00  0.00    -0.241 OA
ATOM     24  O   LIG d   1       2.825  88.378 117.823  0.00  0.00    -0.241 OA
ENDBRANCH   3  22
TORSDOF 7
ENDMDL
MODEL 7
REMARK VINA RESULT:      -3.8      4.578      8.099
REMARK  7 active torsions:
REMARK  status: ('A' for Active; 'I' for Inactive)
REMARK    1  A    between atoms: C_2  and  C_3 
REMARK    2  A    between atoms: C_3  and  O_6 
REMARK    3  A    between atoms: C_3  and  C_4 
REMARK    4  A    between atoms: C_7  and  O_6 
REMARK    5  A    between atoms: C_9  and  C_10 
REMARK    6  A    between atoms: N_15  and  C_14 
REMARK    7  A    between atoms: N_20  and  C_19 
REMARK       I    between atoms: C_22  and  N_20 
ROOT
ATOM      1  C   LIG d   1      -1.879  89.006 119.155  0.00  0.00     0.161 C 
ATOM      2  C   LIG d   1      -3.153  89.586 119.034  0.00  0.00     0.016 C 
ATOM      3  C   LIG d   1      -3.410  90.748 118.271  0.00  0.00     0.038 C 
ATOM      4  C   LIG d   1      -2.431  91.326 117.449  0.00  0.00     0.028 C 
ATOM      5  C   LIG d   1      -1.007  91.073 117.932  0.00  0.00    -0.047 C 
ATOM      6  C   LIG d   1      -0.822  89.558 118.177  0.00  0.00     0.091 C 
ENDROOT
BRANCH   1   7
ATOM      7  O   LIG d   1      -1.981  87.574 119.028  0.00  0.00    -0.368 OA
BRANCH   7   8
ATOM      8  C   LIG d   1      -1.720  86.807 120.230  0.00  0.00     0.119 C 
BRANCH   8   9
ATOM      9  C   LIG d   1      -1.184  85.430 119.794  0.00  0.00     0.028 C 
ATOM     10  C   LIG d   1       0.141  85.534 119.021  0.00  0.00     0.006 C 
ENDBRANCH   8   9
BRANCH   8  11
ATOM     11  C   LIG d   1      -3.014  86.515 120.995  0.00  0.00     0.028 C 
ATOM     12  C   LIG d   1      -3.094  87.259 122.338  0.00  0.00     0.006 C 
ENDBRANCH   8  11
ENDBRANCH   7   8
ENDBRANCH   1   7
BRANCH   6  13
ATOM     13  N   LIG d   1       0.518  89.233 118.732  0.00  0.00    -0.311 N 
ATOM     14  C   LIG d   1       1.558  88.881 117.978  0.00  0.00     0.210 C 
ATOM     15  C   LIG d   1       2.842  88.569 118.753  0.00  0.00     0.109 C 
ATOM     16  O   LIG d   1       1.549  88.830 116.739  0.00  0.00    -0.276 OA
ATOM     17  H   LIG d   1       0.623  89.280 119.726  0.00  0.00     0.149 HD
ENDBRANCH   6  13
BRANCH   5  18
ATOM     18  N   LIG d   1      -0.088  91.611 116.912  0.00  0.00     0.381 N 
ATOM     19  H   LIG d   1      -0.503  91.530 116.005  0.00  0.00    -0.090 HD
ATOM     20  H   LIG d   1       0.759  91.070 116.920  0.00  0.00    -0.090 HD
ATOM     21  H   LIG d   1       0.118  92.566 117.107  0.00  0.00    -0.090 HD
ENDBRANCH   5  18
BRANCH   3  22
ATOM     22  C   LIG d   1      -4.647  91.367 118.357  0.00  0.00     0.382 C 
ATOM     23  O   LIG d   1      -4.895  92.145 119.310  0.00  0.00    -0.241 OA
ATOM     24  O   LIG d   1      -5.535  91.124 117.518  0.00  0.00    -0.241 OA
ENDBRANCH   3  22
TORSDOF 7
ENDMDL
MODEL 8
REMARK VINA RESULT:      -3.8      3.345      6.636
REMARK  7 active torsions:
REMARK  status: ('A' for Active; 'I' for Inactive)
REMARK    1  A    between atoms: C_2  and  C_3 
REMARK    2  A    between atoms: C_3  and  O_6 
REMARK    3  A    between atoms: C_3  and  C_4 
REMARK    4  A    between atoms: C_7  and  O_6 
REMARK    5  A    between atoms: C_9  and  C_10 
REMARK    6  A    between atoms: N_15  and  C_14 
REMARK    7  A    between atoms: N_20  and  C_19 
REMARK       I    between atoms: C_22  and  N_20 
ROOT
ATOM      1  C   LIG d   1      -3.049  90.626 118.557  0.00  0.00     0.161 C 
ATOM      2  C   LIG d   1      -4.122  90.737 117.657  0.00  0.00     0.016 C 
ATOM      3  C   LIG d   1      -5.060  91.795 117.691  0.00  0.00     0.038 C 
ATOM      4  C   LIG d   1      -4.899  92.901 118.539  0.00  0.00     0.028 C 
ATOM      5  C   LIG d   1      -4.113  92.584 119.807  0.00  0.00    -0.047 C 
ATOM      6  C   LIG d   1      -2.793  91.882 119.417  0.00  0.00     0.091 C 
ENDROOT
BRANCH   1   7
ATOM      7  O   LIG d   1      -1.852  90.253 117.846  0.00  0.00    -0.368 OA
BRANCH   7   8
ATOM      8  C   LIG d   1      -1.497  88.849 117.888  0.00  0.00     0.119 C 
BRANCH   8   9
ATOM      9  C   LIG d   1      -2.188  88.233 119.119  0.00  0.00     0.028 C 
ATOM     10  C   LIG d   1      -1.194  87.892 120.242  0.00  0.00     0.006 C 
ENDBRANCH   8   9
BRANCH   8  11
ATOM     11  C   LIG d   1       0.004  88.661 118.129  0.00  0.00     0.028 C 
ATOM     12  C   LIG d   1       0.601  87.513 117.299  0.00  0.00     0.006 C 
ENDBRANCH   8  11
ENDBRANCH   7   8
ENDBRANCH   1   7
BRANCH   6  13
ATOM     13  N   LIG d   1      -2.003  91.461 120.603  0.00  0.00    -0.311 N 
ATOM     14  C   LIG d   1      -0.688  91.644 120.710  0.00  0.00     0.210 C 
ATOM     15  C   LIG d   1      -0.065  91.119 122.008  0.00  0.00     0.109 C 
ATOM     16  O   LIG d   1       0.017  92.221 119.869  0.00  0.00    -0.276 OA
ATOM     17  H   LIG d   1      -2.500  91.013 121.347  0.00  0.00     0.149 HD
ENDBRANCH   6  13
BRANCH   5  18
ATOM     18  N   LIG d   1      -3.902  93.853 120.529  0.00  0.00     0.381 N 
ATOM     19  H   LIG d   1      -4.514  93.899 121.319  0.00  0.00    -0.090 HD
ATOM     20  H   LIG d   1      -4.122  94.617 119.915  0.00  0.00    -0.090 HD
ATOM     21  H   LIG d   1      -2.954  93.921 120.829  0.00  0.00    -0.090 HD
ENDBRANCH   5  18
BRANCH   3  22
ATOM     22  C   LIG d   1      -6.196  91.732 116.899  0.00  0.00     0.382 C 
ATOM     23  O   LIG d   1      -6.582  90.628 116.444  0.00  0.00    -0.241 OA
ATOM     24  O   LIG d   1      -6.813  92.770 116.596  0.00  0.00    -0.241 OA
ENDBRANCH   3  22
TORSDOF 7
ENDMDL
MODEL 9
REMARK VINA RESULT:      -3.7      4.724      7.475
REMARK  7 active torsions:
REMARK  status: ('A' for Active; 'I' for Inactive)
REMARK    1  A    between atoms: C_2  and  C_3 
REMARK    2  A    between atoms: C_3  and  O_6 
REMARK    3  A    between atoms: C_3  and  C_4 
REMARK    4  A    between atoms: C_7  and  O_6 
REMARK    5  A    between atoms: C_9  and  C_10 
REMARK    6  A    between atoms: N_15  and  C_14 
REMARK    7  A    between atoms: N_20  and  C_19 
REMARK       I    between atoms: C_22  and  N_20 
ROOT
ATOM      1  C   LIG d   1      -0.549  88.619 117.590  0.00  0.00     0.161 C 
ATOM      2  C   LIG d   1       0.838  88.403 117.524  0.00  0.00     0.016 C 
ATOM      3  C   LIG d   1       1.784  89.448 117.413  0.00  0.00     0.038 C 
ATOM      4  C   LIG d   1       1.413  90.797 117.514  0.00  0.00     0.028 C 
ATOM      5  C   LIG d   1      -0.022  91.066 117.074  0.00  0.00    -0.047 C 
ATOM      6  C   LIG d   1      -0.964  90.088 117.813  0.00  0.00     0.091 C 
ENDROOT
BRANCH   1   7
ATOM      7  O   LIG d   1      -1.127  87.775 118.605  0.00  0.00    -0.368 OA
BRANCH   7   8
ATOM      8  C   LIG d   1      -0.631  87.969 119.953  0.00  0.00     0.119 C 
BRANCH   8   9
ATOM      9  C   LIG d   1      -0.136  86.602 120.465  0.00  0.00     0.028 C 
ATOM     10  C   LIG d   1      -0.602  85.438 119.574  0.00  0.00     0.006 C 
ENDBRANCH   8   9
BRANCH   8  11
ATOM     11  C   LIG d   1      -1.758  88.375 120.908  0.00  0.00     0.028 C 
ATOM     12  C   LIG d   1      -3.155  88.082 120.340  0.00  0.00     0.006 C 
ENDBRANCH   8  11
ENDBRANCH   7   8
ENDBRANCH   1   7
BRANCH   6  13
ATOM     13  N   LIG d   1      -2.379  90.226 117.378  0.00  0.00    -0.311 N 
ATOM     14  C   LIG d   1      -3.261  91.013 117.992  0.00  0.00     0.210 C 
ATOM     15  C   LIG d   1      -4.671  90.993 117.393  0.00  0.00     0.109 C 
ATOM     16  O   LIG d   1      -3.002  91.749 118.955  0.00  0.00    -0.276 OA
ATOM     17  H   LIG d   1      -2.667  89.688 116.584  0.00  0.00     0.149 HD
ENDBRANCH   6  13
BRANCH   5  18
ATOM     18  N   LIG d   1      -0.319  92.482 117.360  0.00  0.00     0.381 N 
ATOM     19  H   LIG d   1      -0.958  92.546 118.127  0.00  0.00    -0.090 HD
ATOM     20  H   LIG d   1      -0.753  92.893 116.552  0.00  0.00    -0.090 HD
ATOM     21  H   LIG d   1       0.523  92.969 117.578  0.00  0.00    -0.090 HD
ENDBRANCH   5  18
BRANCH   3  22
ATOM     22  C   LIG d   1       3.113  89.147 117.160  0.00  0.00     0.382 C 
ATOM     23  O   LIG d   1       3.942  90.072 116.982  0.00  0.00    -0.241 OA
ATOM     24  O   LIG d   1       3.486  87.963 117.063  0.00  0.00    -0.241 OA
ENDBRANCH   3  22
TORSDOF 7
ENDMDL
