MODEL 1
REMARK VINA RESULT:      -5.0      0.000      0.000
REMARK  7 active torsions:
REMARK  status: ('A' for Active; 'I' for Inactive)
REMARK    1  A    between atoms: C_2  and  C_3 
REMARK    2  A    between atoms: C_3  and  O_6 
REMARK    3  A    between atoms: C_3  and  C_4 
REMARK    4  A    between atoms: C_7  and  O_6 
REMARK    5  A    between atoms: C_9  and  C_10 
REMARK    6  A    between atoms: N_15  and  C_14 
REMARK    7  A    between atoms: N_20  and  C_19 
REMARK       I    between atoms: C_22  and  N_20 
ROOT
ATOM      1  C   LIG d   1      -1.760  92.170 118.055  0.00  0.00     0.161 C 
ATOM      2  C   LIG d   1      -0.359  92.191 117.947  0.00  0.00     0.016 C 
ATOM      3  C   LIG d   1       0.399  93.383 117.887  0.00  0.00     0.038 C 
ATOM      4  C   LIG d   1      -0.185  94.643 118.085  0.00  0.00     0.028 C 
ATOM      5  C   LIG d   1      -1.657  94.697 117.693  0.00  0.00    -0.047 C 
ATOM      6  C   LIG d   1      -2.403  93.533 118.384  0.00  0.00     0.091 C 
ENDROOT
BRANCH   1   7
ATOM      7  O   LIG d   1      -2.160  91.180 119.023  0.00  0.00    -0.368 OA
BRANCH   7   8
ATOM      8  C   LIG d   1      -2.879  90.035 118.504  0.00  0.00     0.119 C 
BRANCH   8   9
ATOM      9  C   LIG d   1      -1.898  88.847 118.473  0.00  0.00     0.028 C 
ATOM     10  C   LIG d   1      -1.485  88.391 119.882  0.00  0.00     0.006 C 
ENDBRANCH   8   9
BRANCH   8  11
ATOM     11  C   LIG d   1      -3.297  90.253 117.046  0.00  0.00     0.028 C 
ATOM     12  C   LIG d   1      -4.818  90.160 116.842  0.00  0.00     0.006 C 
ENDBRANCH   8  11
ENDBRANCH   7   8
ENDBRANCH   1   7
BRANCH   6  13
ATOM     13  N   LIG d   1      -3.834  93.462 117.987  0.00  0.00    -0.311 N 
ATOM     14  C   LIG d   1      -4.839  93.475 118.862  0.00  0.00     0.210 C 
ATOM     15  C   LIG d   1      -6.236  93.373 118.243  0.00  0.00     0.109 C 
ATOM     16  O   LIG d   1      -4.706  93.595 120.089  0.00  0.00    -0.276 OA
ATOM     17  H   LIG d   1      -4.033  93.394 117.008  0.00  0.00     0.149 HD
ENDBRANCH   6  13
BRANCH   5  18
ATOM     18  N   LIG d   1      -2.173  96.024 118.079  0.00  0.00     0.381 N 
ATOM     19  H   LIG d   1      -1.547  96.455 118.729  0.00  0.00    -0.090 HD
ATOM     20  H   LIG d   1      -3.064  95.909 118.528  0.00  0.00    -0.090 HD
ATOM     21  H   LIG d   1      -2.272  96.599 117.271  0.00  0.00    -0.090 HD
ENDBRANCH   5  18
BRANCH   3  22
ATOM     22  C   LIG d   1       1.751  93.323 117.587  0.00  0.00     0.382 C 
ATOM     23  O   LIG d   1       2.236  94.090 116.720  0.00  0.00    -0.241 OA
ATOM     24  O   LIG d   1       2.484  92.481 118.140  0.00  0.00    -0.241 OA
ENDBRANCH   3  22
TORSDOF 7
ENDMDL
MODEL 2
REMARK VINA RESULT:      -4.8      0.590      1.815
REMARK  7 active torsions:
REMARK  status: ('A' for Active; 'I' for Inactive)
REMARK    1  A    between atoms: C_2  and  C_3 
REMARK    2  A    between atoms: C_3  and  O_6 
REMARK    3  A    between atoms: C_3  and  C_4 
REMARK    4  A    between atoms: C_7  and  O_6 
REMARK    5  A    between atoms: C_9  and  C_10 
REMARK    6  A    between atoms: N_15  and  C_14 
REMARK    7  A    between atoms: N_20  and  C_19 
REMARK       I    between atoms: C_22  and  N_20 
ROOT
ATOM      1  C   LIG d   1      -1.461  92.370 117.977  0.00  0.00     0.161 C 
ATOM      2  C   LIG d   1      -0.064  92.515 117.931  0.00  0.00     0.016 C 
ATOM      3  C   LIG d   1       0.590  93.768 117.977  0.00  0.00     0.038 C 
ATOM      4  C   LIG d   1      -0.107  94.959 118.227  0.00  0.00     0.028 C 
ATOM      5  C   LIG d   1      -1.564  94.915 117.777  0.00  0.00    -0.047 C 
ATOM      6  C   LIG d   1      -2.232  93.650 118.362  0.00  0.00     0.091 C 
ENDROOT
BRANCH   1   7
ATOM      7  O   LIG d   1      -1.810  91.289 118.865  0.00  0.00    -0.368 OA
BRANCH   7   8
ATOM      8  C   LIG d   1      -2.157  90.032 118.232  0.00  0.00     0.119 C 
BRANCH   8   9
ATOM      9  C   LIG d   1      -3.686  90.014 118.047  0.00  0.00     0.028 C 
ATOM     10  C   LIG d   1      -4.098  90.054 116.565  0.00  0.00     0.006 C 
ENDBRANCH   8   9
BRANCH   8  11
ATOM     11  C   LIG d   1      -1.845  88.844 119.147  0.00  0.00     0.028 C 
ATOM     12  C   LIG d   1      -0.337  88.616 119.336  0.00  0.00     0.006 C 
ENDBRANCH   8  11
ENDBRANCH   7   8
ENDBRANCH   1   7
BRANCH   6  13
ATOM     13  N   LIG d   1      -3.635  93.485 117.901  0.00  0.00    -0.311 N 
ATOM     14  C   LIG d   1      -4.674  93.408 118.730  0.00  0.00     0.210 C 
ATOM     15  C   LIG d   1      -6.033  93.219 118.048  0.00  0.00     0.109 C 
ATOM     16  O   LIG d   1      -4.604  93.510 119.964  0.00  0.00    -0.276 OA
ATOM     17  H   LIG d   1      -3.787  93.425 116.913  0.00  0.00     0.149 HD
ENDBRANCH   6  13
BRANCH   5  18
ATOM     18  N   LIG d   1      -2.206  96.166 118.221  0.00  0.00     0.381 N 
ATOM     19  H   LIG d   1      -2.538  96.062 119.159  0.00  0.00    -0.090 HD
ATOM     20  H   LIG d   1      -2.993  96.356 117.627  0.00  0.00    -0.090 HD
ATOM     21  H   LIG d   1      -1.555  96.919 118.174  0.00  0.00    -0.090 HD
ENDBRANCH   5  18
BRANCH   3  22
ATOM     22  C   LIG d   1       1.953  93.841 117.732  0.00  0.00     0.382 C 
ATOM     23  O   LIG d   1       2.369  94.268 116.628  0.00  0.00    -0.241 OA
ATOM     24  O   LIG d   1       2.770  93.445 118.584  0.00  0.00    -0.241 OA
ENDBRANCH   3  22
TORSDOF 7
ENDMDL
MODEL 3
REMARK VINA RESULT:      -4.7      1.752      2.653
REMARK  7 active torsions:
REMARK  status: ('A' for Active; 'I' for Inactive)
REMARK    1  A    between atoms: C_2  and  C_3 
REMARK    2  A    between atoms: C_3  and  O_6 
REMARK    3  A    between atoms: C_3  and  C_4 
REMARK    4  A    between atoms: C_7  and  O_6 
REMARK    5  A    between atoms: C_9  and  C_10 
REMARK    6  A    between atoms: N_15  and  C_14 
REMARK    7  A    between atoms: N_20  and  C_19 
REMARK       I    between atoms: C_22  and  N_20 
ROOT
ATOM      1  C   LIG d   1      -0.379  91.091 117.179  0.00  0.00     0.161 C 
ATOM      2  C   LIG d   1       0.772  91.861 117.418  0.00  0.00     0.016 C 
ATOM      3  C   LIG d   1       0.731  93.213 117.831  0.00  0.00     0.038 C 
ATOM      4  C   LIG d   1      -0.471  93.845 118.181  0.00  0.00     0.028 C 
ATOM      5  C   LIG d   1      -1.690  93.264 117.474  0.00  0.00    -0.047 C 
ATOM      6  C   LIG d   1      -1.697  91.730 117.664  0.00  0.00     0.091 C 
ENDROOT
BRANCH   1   7
ATOM      7  O   LIG d   1      -0.217  89.780 117.755  0.00  0.00    -0.368 OA
BRANCH   7   8
ATOM      8  C   LIG d   1       0.206  89.740 119.141  0.00  0.00     0.119 C 
BRANCH   8   9
ATOM      9  C   LIG d   1       1.316  88.677 119.256  0.00  0.00     0.028 C 
ATOM     10  C   LIG d   1       1.710  88.090 117.890  0.00  0.00     0.006 C 
ENDBRANCH   8   9
BRANCH   8  11
ATOM     11  C   LIG d   1      -0.922  89.248 120.053  0.00  0.00     0.028 C 
ATOM     12  C   LIG d   1      -1.886  88.284 119.343  0.00  0.00     0.006 C 
ENDBRANCH   8  11
ENDBRANCH   7   8
ENDBRANCH   1   7
BRANCH   6  13
ATOM     13  N   LIG d   1      -2.811  91.073 116.932  0.00  0.00    -0.311 N 
ATOM     14  C   LIG d   1      -3.972  90.751 117.499  0.00  0.00     0.210 C 
ATOM     15  C   LIG d   1      -4.977  90.063 116.571  0.00  0.00     0.109 C 
ATOM     16  O   LIG d   1      -4.277  91.000 118.675  0.00  0.00    -0.276 OA
ATOM     17  H   LIG d   1      -2.660  90.864 115.964  0.00  0.00     0.149 HD
ENDBRANCH   6  13
BRANCH   5  18
ATOM     18  N   LIG d   1      -2.886  93.922 118.034  0.00  0.00     0.381 N 
ATOM     19  H   LIG d   1      -2.756  94.914 118.037  0.00  0.00    -0.090 HD
ATOM     20  H   LIG d   1      -3.010  93.616 118.983  0.00  0.00    -0.090 HD
ATOM     21  H   LIG d   1      -3.689  93.686 117.493  0.00  0.00    -0.090 HD
ENDBRANCH   5  18
BRANCH   3  22
ATOM     22  C   LIG d   1       1.900  93.958 117.858  0.00  0.00     0.382 C 
ATOM     23  O   LIG d   1       2.432  94.329 116.784  0.00  0.00    -0.241 OA
ATOM     24  O   LIG d   1       2.453  94.227 118.941  0.00  0.00    -0.241 OA
ENDBRANCH   3  22
TORSDOF 7
ENDMDL
MODEL 4
REMARK VINA RESULT:      -4.4      2.264      4.516
REMARK  7 active torsions:
REMARK  status: ('A' for Active; 'I' for Inactive)
REMARK    1  A    between atoms: C_2  and  C_3 
REMARK    2  A    between atoms: C_3  and  O_6 
REMARK    3  A    between atoms: C_3  and  C_4 
REMARK    4  A    between atoms: C_7  and  O_6 
REMARK    5  A    between atoms: C_9  and  C_10 
REMARK    6  A    between atoms: N_15  and  C_14 
REMARK    7  A    between atoms: N_20  and  C_19 
REMARK       I    between atoms: C_22  and  N_20 
ROOT
ATOM      1  C   LIG d   1      -2.624  91.980 118.978  0.00  0.00     0.161 C 
ATOM      2  C   LIG d   1      -3.166  91.352 120.112  0.00  0.00     0.016 C 
ATOM      3  C   LIG d   1      -4.379  91.753 120.718  0.00  0.00     0.038 C 
ATOM      4  C   LIG d   1      -5.215  92.718 120.137  0.00  0.00     0.028 C 
ATOM      5  C   LIG d   1      -4.465  93.727 119.274  0.00  0.00    -0.047 C 
ATOM      6  C   LIG d   1      -3.577  92.963 118.266  0.00  0.00     0.091 C 
ENDROOT
BRANCH   1   7
ATOM      7  O   LIG d   1      -2.145  90.985 118.051  0.00  0.00    -0.368 OA
BRANCH   7   8
ATOM      8  C   LIG d   1      -2.914  89.759 117.978  0.00  0.00     0.119 C 
BRANCH   8   9
ATOM      9  C   LIG d   1      -1.920  88.585 118.068  0.00  0.00     0.028 C 
ATOM     10  C   LIG d   1      -1.497  88.283 119.515  0.00  0.00     0.006 C 
ENDBRANCH   8   9
BRANCH   8  11
ATOM     11  C   LIG d   1      -3.597  89.610 116.616  0.00  0.00     0.028 C 
ATOM     12  C   LIG d   1      -5.065  90.064 116.633  0.00  0.00     0.006 C 
ENDBRANCH   8  11
ENDBRANCH   7   8
ENDBRANCH   1   7
BRANCH   6  13
ATOM     13  N   LIG d   1      -2.745  93.874 117.438  0.00  0.00    -0.311 N 
ATOM     14  C   LIG d   1      -1.836  94.704 117.948  0.00  0.00     0.210 C 
ATOM     15  C   LIG d   1      -1.103  95.571 116.920  0.00  0.00     0.109 C 
ATOM     16  O   LIG d   1      -1.545  94.780 119.151  0.00  0.00    -0.276 OA
ATOM     17  H   LIG d   1      -2.894  93.855 116.448  0.00  0.00     0.149 HD
ENDBRANCH   6  13
BRANCH   5  18
ATOM     18  N   LIG d   1      -5.469  94.589 118.622  0.00  0.00     0.381 N 
ATOM     19  H   LIG d   1      -6.375  94.403 119.004  0.00  0.00    -0.090 HD
ATOM     20  H   LIG d   1      -5.492  94.376 117.640  0.00  0.00    -0.090 HD
ATOM     21  H   LIG d   1      -5.234  95.548 118.756  0.00  0.00    -0.090 HD
ENDBRANCH   5  18
BRANCH   3  22
ATOM     22  C   LIG d   1      -4.748  91.212 121.941  0.00  0.00     0.382 C 
ATOM     23  O   LIG d   1      -3.879  91.001 122.821  0.00  0.00    -0.241 OA
ATOM     24  O   LIG d   1      -5.932  90.891 122.158  0.00  0.00    -0.241 OA
ENDBRANCH   3  22
TORSDOF 7
ENDMDL
MODEL 5
REMARK VINA RESULT:      -4.3      2.719      5.929
REMARK  7 active torsions:
REMARK  status: ('A' for Active; 'I' for Inactive)
REMARK    1  A    between atoms: C_2  and  C_3 
REMARK    2  A    between atoms: C_3  and  O_6 
REMARK    3  A    between atoms: C_3  and  C_4 
REMARK    4  A    between atoms: C_7  and  O_6 
REMARK    5  A    between atoms: C_9  and  C_10 
REMARK    6  A    between atoms: N_15  and  C_14 
REMARK    7  A    between atoms: N_20  and  C_19 
REMARK       I    between atoms: C_22  and  N_20 
ROOT
ATOM      1  C   LIG d   1      -3.800  91.818 118.161  0.00  0.00     0.161 C 
ATOM      2  C   LIG d   1      -4.800  92.794 118.009  0.00  0.00     0.016 C 
ATOM      3  C   LIG d   1      -5.626  93.233 119.068  0.00  0.00     0.038 C 
ATOM      4  C   LIG d   1      -5.406  92.834 120.395  0.00  0.00     0.028 C 
ATOM      5  C   LIG d   1      -4.736  91.469 120.513  0.00  0.00    -0.047 C 
ATOM      6  C   LIG d   1      -3.472  91.452 119.624  0.00  0.00     0.091 C 
ENDROOT
BRANCH   1   7
ATOM      7  O   LIG d   1      -2.606  92.230 117.467  0.00  0.00    -0.368 OA
BRANCH   7   8
ATOM      8  C   LIG d   1      -1.735  93.141 118.183  0.00  0.00     0.119 C 
BRANCH   8   9
ATOM      9  C   LIG d   1      -1.586  94.410 117.322  0.00  0.00     0.028 C 
ATOM     10  C   LIG d   1      -1.608  95.697 118.164  0.00  0.00     0.006 C 
ENDBRANCH   8   9
BRANCH   8  11
ATOM     11  C   LIG d   1      -0.320  92.571 118.314  0.00  0.00     0.028 C 
ATOM     12  C   LIG d   1      -0.089  91.338 117.426  0.00  0.00     0.006 C 
ENDBRANCH   8  11
ENDBRANCH   7   8
ENDBRANCH   1   7
BRANCH   6  13
ATOM     13  N   LIG d   1      -2.802  90.126 119.616  0.00  0.00    -0.311 N 
ATOM     14  C   LIG d   1      -1.778  89.817 120.409  0.00  0.00     0.210 C 
ATOM     15  C   LIG d   1      -1.222  88.401 120.226  0.00  0.00     0.109 C 
ATOM     16  O   LIG d   1      -1.298  90.569 121.270  0.00  0.00    -0.276 OA
ATOM     17  H   LIG d   1      -3.148  89.444 118.969  0.00  0.00     0.149 HD
ENDBRANCH   6  13
BRANCH   5  18
ATOM     18  N   LIG d   1      -4.442  91.239 121.940  0.00  0.00     0.381 N 
ATOM     19  H   LIG d   1      -4.457  92.109 122.433  0.00  0.00    -0.090 HD
ATOM     20  H   LIG d   1      -3.521  90.845 122.023  0.00  0.00    -0.090 HD
ATOM     21  H   LIG d   1      -5.114  90.616 122.331  0.00  0.00    -0.090 HD
ENDBRANCH   5  18
BRANCH   3  22
ATOM     22  C   LIG d   1      -6.712  94.052 118.798  0.00  0.00     0.382 C 
ATOM     23  O   LIG d   1      -7.724  93.583 118.223  0.00  0.00    -0.241 OA
ATOM     24  O   LIG d   1      -6.675  95.264 119.083  0.00  0.00    -0.241 OA
ENDBRANCH   3  22
TORSDOF 7
ENDMDL
MODEL 6
REMARK VINA RESULT:      -4.3      2.176      5.336
REMARK  7 active torsions:
REMARK  status: ('A' for Active; 'I' for Inactive)
REMARK    1  A    between atoms: C_2  and  C_3 
REMARK    2  A    between atoms: C_3  and  O_6 
REMARK    3  A    between atoms: C_3  and  C_4 
REMARK    4  A    between atoms: C_7  and  O_6 
REMARK    5  A    between atoms: C_9  and  C_10 
REMARK    6  A    between atoms: N_15  and  C_14 
REMARK    7  A    between atoms: N_20  and  C_19 
REMARK       I    between atoms: C_22  and  N_20 
ROOT
ATOM      1  C   LIG d   1      -0.054  91.802 119.128  0.00  0.00     0.161 C 
ATOM      2  C   LIG d   1      -1.318  91.193 119.194  0.00  0.00     0.016 C 
ATOM      3  C   LIG d   1      -2.454  91.680 118.507  0.00  0.00     0.038 C 
ATOM      4  C   LIG d   1      -2.366  92.729 117.580  0.00  0.00     0.028 C 
ATOM      5  C   LIG d   1      -1.218  93.693 117.863  0.00  0.00    -0.047 C 
ATOM      6  C   LIG d   1       0.087  92.882 118.035  0.00  0.00     0.091 C 
ENDROOT
BRANCH   1   7
ATOM      7  O   LIG d   1       0.966  90.795 118.972  0.00  0.00    -0.368 OA
BRANCH   7   8
ATOM      8  C   LIG d   1       1.080  90.202 117.655  0.00  0.00     0.119 C 
BRANCH   8   9
ATOM      9  C   LIG d   1       0.624  88.734 117.768  0.00  0.00     0.028 C 
ATOM     10  C   LIG d   1      -0.553  88.411 116.832  0.00  0.00     0.006 C 
ENDBRANCH   8   9
BRANCH   8  11
ATOM     11  C   LIG d   1       2.539  90.139 117.196  0.00  0.00     0.028 C 
ATOM     12  C   LIG d   1       3.528  90.562 118.295  0.00  0.00     0.006 C 
ENDBRANCH   8  11
ENDBRANCH   7   8
ENDBRANCH   1   7
BRANCH   6  13
ATOM     13  N   LIG d   1       1.245  93.740 118.397  0.00  0.00    -0.311 N 
ATOM     14  C   LIG d   1       2.278  93.959 117.585  0.00  0.00     0.210 C 
ATOM     15  C   LIG d   1       3.374  94.859 118.163  0.00  0.00     0.109 C 
ATOM     16  O   LIG d   1       2.375  93.519 116.430  0.00  0.00    -0.276 OA
ATOM     17  H   LIG d   1       1.233  94.162 119.305  0.00  0.00     0.149 HD
ENDBRANCH   6  13
BRANCH   5  18
ATOM     18  N   LIG d   1      -1.158  94.655 116.746  0.00  0.00     0.381 N 
ATOM     19  H   LIG d   1      -1.147  94.162 115.875  0.00  0.00    -0.090 HD
ATOM     20  H   LIG d   1      -0.307  95.185 116.819  0.00  0.00    -0.090 HD
ATOM     21  H   LIG d   1      -1.943  95.266 116.781  0.00  0.00    -0.090 HD
ENDBRANCH   5  18
BRANCH   3  22
ATOM     22  C   LIG d   1      -3.703  91.141 118.775  0.00  0.00     0.382 C 
ATOM     23  O   LIG d   1      -4.277  90.432 117.914  0.00  0.00    -0.241 OA
ATOM     24  O   LIG d   1      -4.281  91.391 119.850  0.00  0.00    -0.241 OA
ENDBRANCH   3  22
TORSDOF 7
ENDMDL
MODEL 7
REMARK VINA RESULT:      -4.2      3.656      6.132
REMARK  7 active torsions:
REMARK  status: ('A' for Active; 'I' for Inactive)
REMARK    1  A    between atoms: C_2  and  C_3 
REMARK    2  A    between atoms: C_3  and  O_6 
REMARK    3  A    between atoms: C_3  and  C_4 
REMARK    4  A    between atoms: C_7  and  O_6 
REMARK    5  A    between atoms: C_9  and  C_10 
REMARK    6  A    between atoms: N_15  and  C_14 
REMARK    7  A    between atoms: N_20  and  C_19 
REMARK       I    between atoms: C_22  and  N_20 
ROOT
ATOM      1  C   LIG d   1      -4.373  91.871 120.200  0.00  0.00     0.161 C 
ATOM      2  C   LIG d   1      -5.443  92.757 119.996  0.00  0.00     0.016 C 
ATOM      3  C   LIG d   1      -5.912  93.129 118.715  0.00  0.00     0.038 C 
ATOM      4  C   LIG d   1      -5.437  92.518 117.545  0.00  0.00     0.028 C 
ATOM      5  C   LIG d   1      -4.011  91.991 117.673  0.00  0.00    -0.047 C 
ATOM      6  C   LIG d   1      -3.914  91.109 118.939  0.00  0.00     0.091 C 
ENDROOT
BRANCH   1   7
ATOM      7  O   LIG d   1      -4.700  90.944 121.254  0.00  0.00    -0.368 OA
BRANCH   7   8
ATOM      8  C   LIG d   1      -3.930  91.069 122.475  0.00  0.00     0.119 C 
BRANCH   8   9
ATOM      9  C   LIG d   1      -4.891  91.546 123.582  0.00  0.00     0.028 C 
ATOM     10  C   LIG d   1      -4.889  93.075 123.743  0.00  0.00     0.006 C 
ENDBRANCH   8   9
BRANCH   8  11
ATOM     11  C   LIG d   1      -2.872  92.170 122.356  0.00  0.00     0.028 C 
ATOM     12  C   LIG d   1      -1.441  91.644 122.549  0.00  0.00     0.006 C 
ENDBRANCH   8  11
ENDBRANCH   7   8
ENDBRANCH   1   7
BRANCH   6  13
ATOM     13  N   LIG d   1      -2.532  90.622 119.186  0.00  0.00    -0.311 N 
ATOM     14  C   LIG d   1      -2.098  89.423 118.800  0.00  0.00     0.210 C 
ATOM     15  C   LIG d   1      -0.645  89.112 119.172  0.00  0.00     0.109 C 
ATOM     16  O   LIG d   1      -2.768  88.601 118.157  0.00  0.00    -0.276 OA
ATOM     17  H   LIG d   1      -1.912  91.237 119.674  0.00  0.00     0.149 HD
ENDBRANCH   6  13
BRANCH   5  18
ATOM     18  N   LIG d   1      -3.693  91.259 116.433  0.00  0.00     0.381 N 
ATOM     19  H   LIG d   1      -4.481  91.280 115.816  0.00  0.00    -0.090 HD
ATOM     20  H   LIG d   1      -3.497  90.301 116.662  0.00  0.00    -0.090 HD
ATOM     21  H   LIG d   1      -2.903  91.671 115.987  0.00  0.00    -0.090 HD
ENDBRANCH   5  18
BRANCH   3  22
ATOM     22  C   LIG d   1      -6.841  94.152 118.593  0.00  0.00     0.382 C 
ATOM     23  O   LIG d   1      -7.968  93.919 118.093  0.00  0.00    -0.241 OA
ATOM     24  O   LIG d   1      -6.550  95.313 118.935  0.00  0.00    -0.241 OA
ENDBRANCH   3  22
TORSDOF 7
ENDMDL
MODEL 8
REMARK VINA RESULT:      -4.1      2.193      5.472
REMARK  7 active torsions:
REMARK  status: ('A' for Active; 'I' for Inactive)
REMARK    1  A    between atoms: C_2  and  C_3 
REMARK    2  A    between atoms: C_3  and  O_6 
REMARK    3  A    between atoms: C_3  and  C_4 
REMARK    4  A    between atoms: C_7  and  O_6 
REMARK    5  A    between atoms: C_9  and  C_10 
REMARK    6  A    between atoms: N_15  and  C_14 
REMARK    7  A    between atoms: N_20  and  C_19 
REMARK       I    between atoms: C_22  and  N_20 
ROOT
ATOM      1  C   LIG d   1      -4.033  93.103 118.937  0.00  0.00     0.161 C 
ATOM      2  C   LIG d   1      -5.385  93.384 118.680  0.00  0.00     0.016 C 
ATOM      3  C   LIG d   1      -5.995  94.621 118.988  0.00  0.00     0.038 C 
ATOM      4  C   LIG d   1      -5.253  95.722 119.440  0.00  0.00     0.028 C 
ATOM      5  C   LIG d   1      -3.983  95.330 120.189  0.00  0.00    -0.047 C 
ATOM      6  C   LIG d   1      -3.181  94.329 119.327  0.00  0.00     0.091 C 
ENDROOT
BRANCH   1   7
ATOM      7  O   LIG d   1      -3.450  92.428 117.805  0.00  0.00    -0.368 OA
BRANCH   7   8
ATOM      8  C   LIG d   1      -2.843  91.140 118.075  0.00  0.00     0.119 C 
BRANCH   8   9
ATOM      9  C   LIG d   1      -3.335  90.160 116.992  0.00  0.00     0.028 C 
ATOM     10  C   LIG d   1      -4.864  90.186 116.829  0.00  0.00     0.006 C 
ENDBRANCH   8   9
BRANCH   8  11
ATOM     11  C   LIG d   1      -3.337  90.558 119.403  0.00  0.00     0.028 C 
ATOM     12  C   LIG d   1      -2.188  90.176 120.350  0.00  0.00     0.006 C 
ENDBRANCH   8  11
ENDBRANCH   7   8
ENDBRANCH   1   7
BRANCH   6  13
ATOM     13  N   LIG d   1      -1.966  93.830 120.022  0.00  0.00    -0.311 N 
ATOM     14  C   LIG d   1      -0.749  93.855 119.481  0.00  0.00     0.210 C 
ATOM     15  C   LIG d   1       0.362  93.273 120.360  0.00  0.00     0.109 C 
ATOM     16  O   LIG d   1      -0.479  94.334 118.369  0.00  0.00    -0.276 OA
ATOM     17  H   LIG d   1      -2.088  93.452 120.941  0.00  0.00     0.149 HD
ENDBRANCH   6  13
BRANCH   5  18
ATOM     18  N   LIG d   1      -3.238  96.569 120.482  0.00  0.00     0.381 N 
ATOM     19  H   LIG d   1      -3.653  97.038 121.262  0.00  0.00    -0.090 HD
ATOM     20  H   LIG d   1      -3.291  97.177 119.683  0.00  0.00    -0.090 HD
ATOM     21  H   LIG d   1      -2.286  96.355 120.682  0.00  0.00    -0.090 HD
ENDBRANCH   5  18
BRANCH   3  22
ATOM     22  C   LIG d   1      -7.372  94.754 118.883  0.00  0.00     0.382 C 
ATOM     23  O   LIG d   1      -8.031  93.930 118.205  0.00  0.00    -0.241 OA
ATOM     24  O   LIG d   1      -7.957  95.713 119.421  0.00  0.00    -0.241 OA
ENDBRANCH   3  22
TORSDOF 7
ENDMDL
MODEL 9
REMARK VINA RESULT:      -4.1      2.130      4.959
REMARK  7 active torsions:
REMARK  status: ('A' for Active; 'I' for Inactive)
REMARK    1  A    between atoms: C_2  and  C_3 
REMARK    2  A    between atoms: C_3  and  O_6 
REMARK    3  A    between atoms: C_3  and  C_4 
REMARK    4  A    between atoms: C_7  and  O_6 
REMARK    5  A    between atoms: C_9  and  C_10 
REMARK    6  A    between atoms: N_15  and  C_14 
REMARK    7  A    between atoms: N_20  and  C_19 
REMARK       I    between atoms: C_22  and  N_20 
ROOT
ATOM      1  C   LIG d   1      -2.996  92.387 118.189  0.00  0.00     0.161 C 
ATOM      2  C   LIG d   1      -2.255  91.193 118.189  0.00  0.00     0.016 C 
ATOM      3  C   LIG d   1      -2.737  89.979 117.650  0.00  0.00     0.038 C 
ATOM      4  C   LIG d   1      -3.942  89.911 116.934  0.00  0.00     0.028 C 
ATOM      5  C   LIG d   1      -4.953  90.975 117.348  0.00  0.00    -0.047 C 
ATOM      6  C   LIG d   1      -4.266  92.360 117.314  0.00  0.00     0.091 C 
ENDROOT
BRANCH   1   7
ATOM      7  O   LIG d   1      -2.148  93.488 117.808  0.00  0.00    -0.368 OA
BRANCH   7   8
ATOM      8  C   LIG d   1      -1.695  94.347 118.884  0.00  0.00     0.119 C 
BRANCH   8   9
ATOM      9  C   LIG d   1      -1.837  95.804 118.405  0.00  0.00     0.028 C 
ATOM     10  C   LIG d   1      -3.030  96.523 119.056  0.00  0.00     0.006 C 
ENDBRANCH   8   9
BRANCH   8  11
ATOM     11  C   LIG d   1      -0.201  94.154 119.160  0.00  0.00     0.028 C 
ATOM     12  C   LIG d   1       0.673  94.429 117.926  0.00  0.00     0.006 C 
ENDBRANCH   8  11
ENDBRANCH   7   8
ENDBRANCH   1   7
BRANCH   6  13
ATOM     13  N   LIG d   1      -5.161  93.448 117.786  0.00  0.00    -0.311 N 
ATOM     14  C   LIG d   1      -5.609  93.538 119.037  0.00  0.00     0.210 C 
ATOM     15  C   LIG d   1      -6.537  94.726 119.308  0.00  0.00     0.109 C 
ATOM     16  O   LIG d   1      -5.301  92.764 119.956  0.00  0.00    -0.276 OA
ATOM     17  H   LIG d   1      -5.436  94.137 117.114  0.00  0.00     0.149 HD
ENDBRANCH   6  13
BRANCH   5  18
ATOM     18  N   LIG d   1      -6.103  90.878 116.430  0.00  0.00     0.381 N 
ATOM     19  H   LIG d   1      -5.822  90.430 115.581  0.00  0.00    -0.090 HD
ATOM     20  H   LIG d   1      -6.422  91.805 116.208  0.00  0.00    -0.090 HD
ATOM     21  H   LIG d   1      -6.839  90.360 116.859  0.00  0.00    -0.090 HD
ENDBRANCH   5  18
BRANCH   3  22
ATOM     22  C   LIG d   1      -2.029  88.805 117.860  0.00  0.00     0.382 C 
ATOM     23  O   LIG d   1      -1.234  88.387 116.984  0.00  0.00    -0.241 OA
ATOM     24  O   LIG d   1      -2.209  88.135 118.895  0.00  0.00    -0.241 OA
ENDBRANCH   3  22
TORSDOF 7
ENDMDL
