MODEL 1
REMARK VINA RESULT:      -4.9      0.000      0.000
REMARK  7 active torsions:
REMARK  status: ('A' for Active; 'I' for Inactive)
REMARK    1  A    between atoms: C_2  and  C_3 
REMARK    2  A    between atoms: C_3  and  O_6 
REMARK    3  A    between atoms: C_3  and  C_4 
REMARK    4  A    between atoms: C_7  and  O_6 
REMARK    5  A    between atoms: C_9  and  C_10 
REMARK    6  A    between atoms: N_15  and  C_14 
REMARK    7  A    between atoms: N_20  and  C_19 
REMARK       I    between atoms: C_22  and  N_20 
ROOT
ATOM      1  C   LIG d   1      -4.728  92.272 119.846  0.00  0.00     0.161 C 
ATOM      2  C   LIG d   1      -5.851  92.027 119.039  0.00  0.00     0.016 C 
ATOM      3  C   LIG d   1      -5.794  91.308 117.823  0.00  0.00     0.038 C 
ATOM      4  C   LIG d   1      -4.628  90.649 117.405  0.00  0.00     0.028 C 
ATOM      5  C   LIG d   1      -3.348  91.291 117.931  0.00  0.00    -0.047 C 
ATOM      6  C   LIG d   1      -3.468  91.466 119.463  0.00  0.00     0.091 C 
ENDROOT
BRANCH   1   7
ATOM      7  O   LIG d   1      -5.063  92.049 121.230  0.00  0.00    -0.368 OA
BRANCH   7   8
ATOM      8  C   LIG d   1      -6.339  92.574 121.669  0.00  0.00     0.119 C 
BRANCH   8   9
ATOM      9  C   LIG d   1      -6.095  94.001 122.199  0.00  0.00     0.028 C 
ATOM     10  C   LIG d   1      -6.691  95.079 121.278  0.00  0.00     0.006 C 
ENDBRANCH   8   9
BRANCH   8  11
ATOM     11  C   LIG d   1      -6.885  91.786 122.863  0.00  0.00     0.028 C 
ATOM     12  C   LIG d   1      -8.238  92.320 123.361  0.00  0.00     0.006 C 
ENDBRANCH   8  11
ENDBRANCH   7   8
ENDBRANCH   1   7
BRANCH   6  13
ATOM     13  N   LIG d   1      -2.293  92.164 120.047  0.00  0.00    -0.311 N 
ATOM     14  C   LIG d   1      -1.244  91.526 120.563  0.00  0.00     0.210 C 
ATOM     15  C   LIG d   1      -0.150  92.435 121.131  0.00  0.00     0.109 C 
ATOM     16  O   LIG d   1      -1.101  90.294 120.574  0.00  0.00    -0.276 OA
ATOM     17  H   LIG d   1      -2.312  93.165 120.050  0.00  0.00     0.149 HD
ENDBRANCH   6  13
BRANCH   5  18
ATOM     18  N   LIG d   1      -2.221  90.426 117.535  0.00  0.00     0.381 N 
ATOM     19  H   LIG d   1      -2.304  89.535 117.982  0.00  0.00    -0.090 HD
ATOM     20  H   LIG d   1      -1.363  90.852 117.839  0.00  0.00    -0.090 HD
ATOM     21  H   LIG d   1      -2.211  90.310 116.546  0.00  0.00    -0.090 HD
ENDBRANCH   5  18
BRANCH   3  22
ATOM     22  C   LIG d   1      -6.903  91.275 116.991  0.00  0.00     0.382 C 
ATOM     23  O   LIG d   1      -7.316  92.332 116.456  0.00  0.00    -0.241 OA
ATOM     24  O   LIG d   1      -7.521  90.210 116.803  0.00  0.00    -0.241 OA
ENDBRANCH   3  22
TORSDOF 7
ENDMDL
MODEL 2
REMARK VINA RESULT:      -4.6      2.985      5.305
REMARK  7 active torsions:
REMARK  status: ('A' for Active; 'I' for Inactive)
REMARK    1  A    between atoms: C_2  and  C_3 
REMARK    2  A    between atoms: C_3  and  O_6 
REMARK    3  A    between atoms: C_3  and  C_4 
REMARK    4  A    between atoms: C_7  and  O_6 
REMARK    5  A    between atoms: C_9  and  C_10 
REMARK    6  A    between atoms: N_15  and  C_14 
REMARK    7  A    between atoms: N_20  and  C_19 
REMARK       I    between atoms: C_22  and  N_20 
ROOT
ATOM      1  C   LIG d   1      -5.956  92.902 120.159  0.00  0.00     0.161 C 
ATOM      2  C   LIG d   1      -5.855  91.953 119.127  0.00  0.00     0.016 C 
ATOM      3  C   LIG d   1      -6.689  91.953 117.985  0.00  0.00     0.038 C 
ATOM      4  C   LIG d   1      -7.586  92.999 117.722  0.00  0.00     0.028 C 
ATOM      5  C   LIG d   1      -8.076  93.707 118.981  0.00  0.00    -0.047 C 
ATOM      6  C   LIG d   1      -6.854  94.114 119.836  0.00  0.00     0.091 C 
ENDROOT
BRANCH   1   7
ATOM      7  O   LIG d   1      -4.640  93.342 120.548  0.00  0.00    -0.368 OA
BRANCH   7   8
ATOM      8  C   LIG d   1      -3.528  92.668 119.910  0.00  0.00     0.119 C 
BRANCH   8   9
ATOM      9  C   LIG d   1      -2.878  91.750 120.962  0.00  0.00     0.028 C 
ATOM     10  C   LIG d   1      -2.598  90.339 120.418  0.00  0.00     0.006 C 
ENDBRANCH   8   9
BRANCH   8  11
ATOM     11  C   LIG d   1      -2.433  93.660 119.505  0.00  0.00     0.028 C 
ATOM     12  C   LIG d   1      -1.750  93.286 118.180  0.00  0.00     0.006 C 
ENDBRANCH   8  11
ENDBRANCH   7   8
ENDBRANCH   1   7
BRANCH   6  13
ATOM     13  N   LIG d   1      -7.248  94.739 121.126  0.00  0.00    -0.311 N 
ATOM     14  C   LIG d   1      -7.364  96.054 121.298  0.00  0.00     0.210 C 
ATOM     15  C   LIG d   1      -7.761  96.488 122.713  0.00  0.00     0.109 C 
ATOM     16  O   LIG d   1      -7.206  96.901 120.406  0.00  0.00    -0.276 OA
ATOM     17  H   LIG d   1      -7.425  94.123 121.895  0.00  0.00     0.149 HD
ENDBRANCH   6  13
BRANCH   5  18
ATOM     18  N   LIG d   1      -8.893  94.859 118.554  0.00  0.00     0.381 N 
ATOM     19  H   LIG d   1      -8.566  95.198 117.671  0.00  0.00    -0.090 HD
ATOM     20  H   LIG d   1      -8.794  95.596 119.231  0.00  0.00    -0.090 HD
ATOM     21  H   LIG d   1      -9.850  94.591 118.482  0.00  0.00    -0.090 HD
ENDBRANCH   5  18
BRANCH   3  22
ATOM     22  C   LIG d   1      -6.657  90.877 117.111  0.00  0.00     0.382 C 
ATOM     23  O   LIG d   1      -7.709  90.240 116.863  0.00  0.00    -0.241 OA
ATOM     24  O   LIG d   1      -5.582  90.508 116.602  0.00  0.00    -0.241 OA
ENDBRANCH   3  22
TORSDOF 7
ENDMDL
MODEL 3
REMARK VINA RESULT:      -4.6      2.748      4.913
REMARK  7 active torsions:
REMARK  status: ('A' for Active; 'I' for Inactive)
REMARK    1  A    between atoms: C_2  and  C_3 
REMARK    2  A    between atoms: C_3  and  O_6 
REMARK    3  A    between atoms: C_3  and  C_4 
REMARK    4  A    between atoms: C_7  and  O_6 
REMARK    5  A    between atoms: C_9  and  C_10 
REMARK    6  A    between atoms: N_15  and  C_14 
REMARK    7  A    between atoms: N_20  and  C_19 
REMARK       I    between atoms: C_22  and  N_20 
ROOT
ATOM      1  C   LIG d   1      -4.565  92.134 120.201  0.00  0.00     0.161 C 
ATOM      2  C   LIG d   1      -3.687  91.374 119.411  0.00  0.00     0.016 C 
ATOM      3  C   LIG d   1      -4.012  90.903 118.118  0.00  0.00     0.038 C 
ATOM      4  C   LIG d   1      -5.190  91.292 117.462  0.00  0.00     0.028 C 
ATOM      5  C   LIG d   1      -6.326  91.643 118.416  0.00  0.00    -0.047 C 
ATOM      6  C   LIG d   1      -5.811  92.661 119.458  0.00  0.00     0.091 C 
ENDROOT
BRANCH   1   7
ATOM      7  O   LIG d   1      -3.850  93.223 120.817  0.00  0.00    -0.368 OA
BRANCH   7   8
ATOM      8  C   LIG d   1      -3.601  94.378 119.977  0.00  0.00     0.119 C 
BRANCH   8   9
ATOM      9  C   LIG d   1      -2.074  94.551 119.869  0.00  0.00     0.028 C 
ATOM     10  C   LIG d   1      -1.547  94.246 118.457  0.00  0.00     0.006 C 
ENDBRANCH   8   9
BRANCH   8  11
ATOM     11  C   LIG d   1      -4.110  95.664 120.634  0.00  0.00     0.028 C 
ATOM     12  C   LIG d   1      -4.654  96.679 119.615  0.00  0.00     0.006 C 
ENDBRANCH   8  11
ENDBRANCH   7   8
ENDBRANCH   1   7
BRANCH   6  13
ATOM     13  N   LIG d   1      -6.836  92.994 120.481  0.00  0.00    -0.311 N 
ATOM     14  C   LIG d   1      -7.634  94.058 120.400  0.00  0.00     0.210 C 
ATOM     15  C   LIG d   1      -8.607  94.227 121.571  0.00  0.00     0.109 C 
ATOM     16  O   LIG d   1      -7.649  94.860 119.454  0.00  0.00    -0.276 OA
ATOM     17  H   LIG d   1      -6.913  92.379 121.267  0.00  0.00     0.149 HD
ENDBRANCH   6  13
BRANCH   5  18
ATOM     18  N   LIG d   1      -7.444  92.161 117.605  0.00  0.00     0.381 N 
ATOM     19  H   LIG d   1      -7.741  91.464 116.952  0.00  0.00    -0.090 HD
ATOM     20  H   LIG d   1      -7.127  92.963 117.089  0.00  0.00    -0.090 HD
ATOM     21  H   LIG d   1      -8.205  92.417 118.196  0.00  0.00    -0.090 HD
ENDBRANCH   5  18
BRANCH   3  22
ATOM     22  C   LIG d   1      -3.171  90.002 117.483  0.00  0.00     0.382 C 
ATOM     23  O   LIG d   1      -3.623  89.247 116.588  0.00  0.00    -0.241 OA
ATOM     24  O   LIG d   1      -1.978  89.902 117.825  0.00  0.00    -0.241 OA
ENDBRANCH   3  22
TORSDOF 7
ENDMDL
MODEL 4
REMARK VINA RESULT:      -4.2      2.869      4.859
REMARK  7 active torsions:
REMARK  status: ('A' for Active; 'I' for Inactive)
REMARK    1  A    between atoms: C_2  and  C_3 
REMARK    2  A    between atoms: C_3  and  O_6 
REMARK    3  A    between atoms: C_3  and  C_4 
REMARK    4  A    between atoms: C_7  and  O_6 
REMARK    5  A    between atoms: C_9  and  C_10 
REMARK    6  A    between atoms: N_15  and  C_14 
REMARK    7  A    between atoms: N_20  and  C_19 
REMARK       I    between atoms: C_22  and  N_20 
ROOT
ATOM      1  C   LIG d   1      -5.571  93.285 120.822  0.00  0.00     0.161 C 
ATOM      2  C   LIG d   1      -6.762  93.187 120.084  0.00  0.00     0.016 C 
ATOM      3  C   LIG d   1      -7.382  94.293 119.458  0.00  0.00     0.038 C 
ATOM      4  C   LIG d   1      -6.768  95.552 119.399  0.00  0.00     0.028 C 
ATOM      5  C   LIG d   1      -5.813  95.815 120.559  0.00  0.00    -0.047 C 
ATOM      6  C   LIG d   1      -4.828  94.630 120.676  0.00  0.00     0.091 C 
ENDROOT
BRANCH   1   7
ATOM      7  O   LIG d   1      -4.696  92.190 120.485  0.00  0.00    -0.368 OA
BRANCH   7   8
ATOM      8  C   LIG d   1      -4.071  92.252 119.179  0.00  0.00     0.119 C 
BRANCH   8   9
ATOM      9  C   LIG d   1      -4.441  90.959 118.427  0.00  0.00     0.028 C 
ATOM     10  C   LIG d   1      -3.291  89.938 118.416  0.00  0.00     0.006 C 
ENDBRANCH   8   9
BRANCH   8  11
ATOM     11  C   LIG d   1      -2.544  92.234 119.291  0.00  0.00     0.028 C 
ATOM     12  C   LIG d   1      -1.872  93.332 118.451  0.00  0.00     0.006 C 
ENDBRANCH   8  11
ENDBRANCH   7   8
ENDBRANCH   1   7
BRANCH   6  13
ATOM     13  N   LIG d   1      -3.912  94.766 121.838  0.00  0.00    -0.311 N 
ATOM     14  C   LIG d   1      -2.716  95.348 121.765  0.00  0.00     0.210 C 
ATOM     15  C   LIG d   1      -1.924  95.365 123.076  0.00  0.00     0.109 C 
ATOM     16  O   LIG d   1      -2.249  95.879 120.746  0.00  0.00    -0.276 OA
ATOM     17  H   LIG d   1      -4.225  94.390 122.712  0.00  0.00     0.149 HD
ENDBRANCH   6  13
BRANCH   5  18
ATOM     18  N   LIG d   1      -5.140  97.102 120.300  0.00  0.00     0.381 N 
ATOM     19  H   LIG d   1      -4.737  97.450 121.146  0.00  0.00    -0.090 HD
ATOM     20  H   LIG d   1      -5.823  97.767 119.979  0.00  0.00    -0.090 HD
ATOM     21  H   LIG d   1      -4.432  96.984 119.609  0.00  0.00    -0.090 HD
ENDBRANCH   5  18
BRANCH   3  22
ATOM     22  C   LIG d   1      -8.650  94.152 118.915  0.00  0.00     0.382 C 
ATOM     23  O   LIG d   1      -8.785  93.778 117.725  0.00  0.00    -0.241 OA
ATOM     24  O   LIG d   1      -9.660  94.438 119.586  0.00  0.00    -0.241 OA
ENDBRANCH   3  22
TORSDOF 7
ENDMDL
MODEL 5
REMARK VINA RESULT:      -4.1      2.662      5.432
REMARK  7 active torsions:
REMARK  status: ('A' for Active; 'I' for Inactive)
REMARK    1  A    between atoms: C_2  and  C_3 
REMARK    2  A    between atoms: C_3  and  O_6 
REMARK    3  A    between atoms: C_3  and  C_4 
REMARK    4  A    between atoms: C_7  and  O_6 
REMARK    5  A    between atoms: C_9  and  C_10 
REMARK    6  A    between atoms: N_15  and  C_14 
REMARK    7  A    between atoms: N_20  and  C_19 
REMARK       I    between atoms: C_22  and  N_20 
ROOT
ATOM      1  C   LIG d   1      -5.192  92.964 120.633  0.00  0.00     0.161 C 
ATOM      2  C   LIG d   1      -5.689  93.874 121.581  0.00  0.00     0.016 C 
ATOM      3  C   LIG d   1      -6.922  94.551 121.438  0.00  0.00     0.038 C 
ATOM      4  C   LIG d   1      -7.820  94.246 120.404  0.00  0.00     0.028 C 
ATOM      5  C   LIG d   1      -7.139  93.703 119.152  0.00  0.00    -0.047 C 
ATOM      6  C   LIG d   1      -6.208  92.536 119.554  0.00  0.00     0.091 C 
ENDROOT
BRANCH   1   7
ATOM      7  O   LIG d   1      -4.655  91.806 121.303  0.00  0.00    -0.368 OA
BRANCH   7   8
ATOM      8  C   LIG d   1      -3.212  91.675 121.290  0.00  0.00     0.119 C 
BRANCH   8   9
ATOM      9  C   LIG d   1      -2.873  90.376 120.532  0.00  0.00     0.028 C 
ATOM     10  C   LIG d   1      -2.140  90.645 119.207  0.00  0.00     0.006 C 
ENDBRANCH   8   9
BRANCH   8  11
ATOM     11  C   LIG d   1      -2.658  91.476 122.704  0.00  0.00     0.028 C 
ATOM     12  C   LIG d   1      -2.612  89.999 123.124  0.00  0.00     0.006 C 
ENDBRANCH   8  11
ENDBRANCH   7   8
ENDBRANCH   1   7
BRANCH   6  13
ATOM     13  N   LIG d   1      -5.439  92.001 118.400  0.00  0.00    -0.311 N 
ATOM     14  C   LIG d   1      -5.934  91.117 117.535  0.00  0.00     0.210 C 
ATOM     15  C   LIG d   1      -4.967  90.682 116.430  0.00  0.00     0.109 C 
ATOM     16  O   LIG d   1      -7.093  90.676 117.560  0.00  0.00    -0.276 OA
ATOM     17  H   LIG d   1      -4.500  92.329 118.286  0.00  0.00     0.149 HD
ENDBRANCH   6  13
BRANCH   5  18
ATOM     18  N   LIG d   1      -8.198  93.299 118.208  0.00  0.00     0.381 N 
ATOM     19  H   LIG d   1      -8.916  92.803 118.697  0.00  0.00    -0.090 HD
ATOM     20  H   LIG d   1      -7.803  92.683 117.520  0.00  0.00    -0.090 HD
ATOM     21  H   LIG d   1      -8.584  94.103 117.764  0.00  0.00    -0.090 HD
ENDBRANCH   5  18
BRANCH   3  22
ATOM     22  C   LIG d   1      -7.251  95.573 122.316  0.00  0.00     0.382 C 
ATOM     23  O   LIG d   1      -6.652  95.674 123.413  0.00  0.00    -0.241 OA
ATOM     24  O   LIG d   1      -8.170  96.369 122.043  0.00  0.00    -0.241 OA
ENDBRANCH   3  22
TORSDOF 7
ENDMDL
MODEL 6
REMARK VINA RESULT:      -4.1      3.097      3.925
REMARK  7 active torsions:
REMARK  status: ('A' for Active; 'I' for Inactive)
REMARK    1  A    between atoms: C_2  and  C_3 
REMARK    2  A    between atoms: C_3  and  O_6 
REMARK    3  A    between atoms: C_3  and  C_4 
REMARK    4  A    between atoms: C_7  and  O_6 
REMARK    5  A    between atoms: C_9  and  C_10 
REMARK    6  A    between atoms: N_15  and  C_14 
REMARK    7  A    between atoms: N_20  and  C_19 
REMARK       I    between atoms: C_22  and  N_20 
ROOT
ATOM      1  C   LIG d   1      -1.367  92.395 118.397  0.00  0.00     0.161 C 
ATOM      2  C   LIG d   1      -2.754  92.182 118.465  0.00  0.00     0.016 C 
ATOM      3  C   LIG d   1      -3.386  91.015 117.978  0.00  0.00     0.038 C 
ATOM      4  C   LIG d   1      -2.653  89.909 117.523  0.00  0.00     0.028 C 
ATOM      5  C   LIG d   1      -1.281  90.278 116.969  0.00  0.00    -0.047 C 
ATOM      6  C   LIG d   1      -0.540  91.153 118.005  0.00  0.00     0.091 C 
ENDROOT
BRANCH   1   7
ATOM      7  O   LIG d   1      -0.894  92.939 119.646  0.00  0.00    -0.368 OA
BRANCH   7   8
ATOM      8  C   LIG d   1      -1.832  92.908 120.750  0.00  0.00     0.119 C 
BRANCH   8   9
ATOM      9  C   LIG d   1      -1.751  94.271 121.464  0.00  0.00     0.028 C 
ATOM     10  C   LIG d   1      -2.435  95.393 120.665  0.00  0.00     0.006 C 
ENDBRANCH   8   9
BRANCH   8  11
ATOM     11  C   LIG d   1      -1.419  91.874 121.802  0.00  0.00     0.028 C 
ATOM     12  C   LIG d   1      -2.271  90.596 121.747  0.00  0.00     0.006 C 
ENDBRANCH   8  11
ENDBRANCH   7   8
ENDBRANCH   1   7
BRANCH   6  13
ATOM     13  N   LIG d   1       0.777  91.628 117.507  0.00  0.00    -0.311 N 
ATOM     14  C   LIG d   1       1.926  91.003 117.760  0.00  0.00     0.210 C 
ATOM     15  C   LIG d   1       3.170  91.672 117.168  0.00  0.00     0.109 C 
ATOM     16  O   LIG d   1       2.028  89.940 118.390  0.00  0.00    -0.276 OA
ATOM     17  H   LIG d   1       0.782  92.467 116.961  0.00  0.00     0.149 HD
ENDBRANCH   6  13
BRANCH   5  18
ATOM     18  N   LIG d   1      -0.573  89.022 116.659  0.00  0.00     0.381 N 
ATOM     19  H   LIG d   1      -1.127  88.241 116.947  0.00  0.00    -0.090 HD
ATOM     20  H   LIG d   1       0.291  89.002 117.172  0.00  0.00    -0.090 HD
ATOM     21  H   LIG d   1      -0.388  88.967 115.682  0.00  0.00    -0.090 HD
ENDBRANCH   5  18
BRANCH   3  22
ATOM     22  C   LIG d   1      -4.770  90.962 117.906  0.00  0.00     0.382 C 
ATOM     23  O   LIG d   1      -5.326  90.371 116.950  0.00  0.00    -0.241 OA
ATOM     24  O   LIG d   1      -5.469  91.537 118.762  0.00  0.00    -0.241 OA
ENDBRANCH   3  22
TORSDOF 7
ENDMDL
MODEL 7
REMARK VINA RESULT:      -4.1      2.324      5.168
REMARK  7 active torsions:
REMARK  status: ('A' for Active; 'I' for Inactive)
REMARK    1  A    between atoms: C_2  and  C_3 
REMARK    2  A    between atoms: C_3  and  O_6 
REMARK    3  A    between atoms: C_3  and  C_4 
REMARK    4  A    between atoms: C_7  and  O_6 
REMARK    5  A    between atoms: C_9  and  C_10 
REMARK    6  A    between atoms: N_15  and  C_14 
REMARK    7  A    between atoms: N_20  and  C_19 
REMARK       I    between atoms: C_22  and  N_20 
ROOT
ATOM      1  C   LIG d   1      -2.412  91.522 119.920  0.00  0.00     0.161 C 
ATOM      2  C   LIG d   1      -1.384  91.144 120.800  0.00  0.00     0.016 C 
ATOM      3  C   LIG d   1      -0.065  90.857 120.379  0.00  0.00     0.038 C 
ATOM      4  C   LIG d   1       0.356  91.076 119.059  0.00  0.00     0.028 C 
ATOM      5  C   LIG d   1      -0.772  90.973 118.038  0.00  0.00    -0.047 C 
ATOM      6  C   LIG d   1      -1.944  91.874 118.492  0.00  0.00     0.091 C 
ENDROOT
BRANCH   1   7
ATOM      7  O   LIG d   1      -3.162  92.615 120.485  0.00  0.00    -0.368 OA
BRANCH   7   8
ATOM      8  C   LIG d   1      -4.485  92.292 120.979  0.00  0.00     0.119 C 
BRANCH   8   9
ATOM      9  C   LIG d   1      -5.469  93.308 120.368  0.00  0.00     0.028 C 
ATOM     10  C   LIG d   1      -6.422  92.662 119.348  0.00  0.00     0.006 C 
ENDBRANCH   8   9
BRANCH   8  11
ATOM     11  C   LIG d   1      -4.580  92.497 122.494  0.00  0.00     0.028 C 
ATOM     12  C   LIG d   1      -4.304  91.210 123.288  0.00  0.00     0.006 C 
ENDBRANCH   8  11
ENDBRANCH   7   8
ENDBRANCH   1   7
BRANCH   6  13
ATOM     13  N   LIG d   1      -3.122  91.767 117.593  0.00  0.00    -0.311 N 
ATOM     14  C   LIG d   1      -3.888  90.680 117.514  0.00  0.00     0.210 C 
ATOM     15  C   LIG d   1      -5.040  90.773 116.509  0.00  0.00     0.109 C 
ATOM     16  O   LIG d   1      -3.741  89.660 118.203  0.00  0.00    -0.276 OA
ATOM     17  H   LIG d   1      -3.333  92.561 117.021  0.00  0.00     0.149 HD
ENDBRANCH   6  13
BRANCH   5  18
ATOM     18  N   LIG d   1      -0.222  91.359 116.725  0.00  0.00     0.381 N 
ATOM     19  H   LIG d   1      -0.712  92.158 116.374  0.00  0.00    -0.090 HD
ATOM     20  H   LIG d   1      -0.354  90.599 116.081  0.00  0.00    -0.090 HD
ATOM     21  H   LIG d   1       0.749  91.567 116.810  0.00  0.00    -0.090 HD
ENDBRANCH   5  18
BRANCH   3  22
ATOM     22  C   LIG d   1       0.838  90.306 121.275  0.00  0.00     0.382 C 
ATOM     23  O   LIG d   1       1.187  89.107 121.157  0.00  0.00    -0.241 OA
ATOM     24  O   LIG d   1       1.274  90.981 122.227  0.00  0.00    -0.241 OA
ENDBRANCH   3  22
TORSDOF 7
ENDMDL
MODEL 8
REMARK VINA RESULT:      -4.0      2.732      4.528
REMARK  7 active torsions:
REMARK  status: ('A' for Active; 'I' for Inactive)
REMARK    1  A    between atoms: C_2  and  C_3 
REMARK    2  A    between atoms: C_3  and  O_6 
REMARK    3  A    between atoms: C_3  and  C_4 
REMARK    4  A    between atoms: C_7  and  O_6 
REMARK    5  A    between atoms: C_9  and  C_10 
REMARK    6  A    between atoms: N_15  and  C_14 
REMARK    7  A    between atoms: N_20  and  C_19 
REMARK       I    between atoms: C_22  and  N_20 
ROOT
ATOM      1  C   LIG d   1      -5.024  92.269 119.745  0.00  0.00     0.161 C 
ATOM      2  C   LIG d   1      -3.968  91.510 119.213  0.00  0.00     0.016 C 
ATOM      3  C   LIG d   1      -4.024  90.879 117.949  0.00  0.00     0.038 C 
ATOM      4  C   LIG d   1      -5.088  91.092 117.061  0.00  0.00     0.028 C 
ATOM      5  C   LIG d   1      -6.399  91.440 117.758  0.00  0.00    -0.047 C 
ATOM      6  C   LIG d   1      -6.149  92.604 118.744  0.00  0.00     0.091 C 
ENDROOT
BRANCH   1   7
ATOM      7  O   LIG d   1      -4.506  93.476 120.340  0.00  0.00    -0.368 OA
BRANCH   7   8
ATOM      8  C   LIG d   1      -4.424  93.490 121.786  0.00  0.00     0.119 C 
BRANCH   8   9
ATOM      9  C   LIG d   1      -5.192  92.259 122.305  0.00  0.00     0.028 C 
ATOM     10  C   LIG d   1      -4.329  91.371 123.218  0.00  0.00     0.006 C 
ENDBRANCH   8   9
BRANCH   8  11
ATOM     11  C   LIG d   1      -5.154  94.701 122.374  0.00  0.00     0.028 C 
ATOM     12  C   LIG d   1      -6.430  94.314 123.139  0.00  0.00     0.006 C 
ENDBRANCH   8  11
ENDBRANCH   7   8
ENDBRANCH   1   7
BRANCH   6  13
ATOM     13  N   LIG d   1      -7.361  92.953 119.529  0.00  0.00    -0.311 N 
ATOM     14  C   LIG d   1      -7.826  94.195 119.648  0.00  0.00     0.210 C 
ATOM     15  C   LIG d   1      -9.078  94.337 120.519  0.00  0.00     0.109 C 
ATOM     16  O   LIG d   1      -7.339  95.189 119.088  0.00  0.00    -0.276 OA
ATOM     17  H   LIG d   1      -7.837  92.202 119.991  0.00  0.00     0.149 HD
ENDBRANCH   6  13
BRANCH   5  18
ATOM     18  N   LIG d   1      -7.386  91.771 116.712  0.00  0.00     0.381 N 
ATOM     19  H   LIG d   1      -6.915  91.962 115.850  0.00  0.00    -0.090 HD
ATOM     20  H   LIG d   1      -7.887  92.596 116.988  0.00  0.00    -0.090 HD
ATOM     21  H   LIG d   1      -8.020  91.012 116.591  0.00  0.00    -0.090 HD
ENDBRANCH   5  18
BRANCH   3  22
ATOM     22  C   LIG d   1      -3.024  89.992 117.579  0.00  0.00     0.382 C 
ATOM     23  O   LIG d   1      -1.936  89.978 118.204  0.00  0.00    -0.241 OA
ATOM     24  O   LIG d   1      -3.180  89.236 116.602  0.00  0.00    -0.241 OA
ENDBRANCH   3  22
TORSDOF 7
ENDMDL
MODEL 9
REMARK VINA RESULT:      -4.0      3.925      6.847
REMARK  7 active torsions:
REMARK  status: ('A' for Active; 'I' for Inactive)
REMARK    1  A    between atoms: C_2  and  C_3 
REMARK    2  A    between atoms: C_3  and  O_6 
REMARK    3  A    between atoms: C_3  and  C_4 
REMARK    4  A    between atoms: C_7  and  O_6 
REMARK    5  A    between atoms: C_9  and  C_10 
REMARK    6  A    between atoms: N_15  and  C_14 
REMARK    7  A    between atoms: N_20  and  C_19 
REMARK       I    between atoms: C_22  and  N_20 
ROOT
ATOM      1  C   LIG d   1       0.119  91.076 119.331  0.00  0.00     0.161 C 
ATOM      2  C   LIG d   1      -1.120  90.537 118.947  0.00  0.00     0.016 C 
ATOM      3  C   LIG d   1      -2.166  91.309 118.392  0.00  0.00     0.038 C 
ATOM      4  C   LIG d   1      -1.989  92.656 118.042  0.00  0.00     0.028 C 
ATOM      5  C   LIG d   1      -0.925  93.363 118.875  0.00  0.00    -0.047 C 
ATOM      6  C   LIG d   1       0.371  92.522 118.853  0.00  0.00     0.091 C 
ENDROOT
BRANCH   1   7
ATOM      7  O   LIG d   1       1.185  90.211 118.893  0.00  0.00    -0.368 OA
BRANCH   7   8
ATOM      8  C   LIG d   1       0.914  89.411 117.716  0.00  0.00     0.119 C 
BRANCH   8   9
ATOM      9  C   LIG d   1       1.713  88.100 117.854  0.00  0.00     0.028 C 
ATOM     10  C   LIG d   1       1.194  86.996 116.917  0.00  0.00     0.006 C 
ENDBRANCH   8   9
BRANCH   8  11
ATOM     11  C   LIG d   1       1.453  90.082 116.449  0.00  0.00     0.028 C 
ATOM     12  C   LIG d   1       2.986  90.177 116.431  0.00  0.00     0.006 C 
ENDBRANCH   8  11
ENDBRANCH   7   8
ENDBRANCH   1   7
BRANCH   6  13
ATOM     13  N   LIG d   1       1.437  93.100 119.713  0.00  0.00    -0.311 N 
ATOM     14  C   LIG d   1       2.691  93.284 119.303  0.00  0.00     0.210 C 
ATOM     15  C   LIG d   1       3.635  93.875 120.355  0.00  0.00     0.109 C 
ATOM     16  O   LIG d   1       3.103  93.043 118.159  0.00  0.00    -0.276 OA
ATOM     17  H   LIG d   1       1.182  93.353 120.648  0.00  0.00     0.149 HD
ENDBRANCH   6  13
BRANCH   5  18
ATOM     18  N   LIG d   1      -0.746  94.716 118.314  0.00  0.00     0.381 N 
ATOM     19  H   LIG d   1      -1.081  94.739 117.371  0.00  0.00    -0.090 HD
ATOM     20  H   LIG d   1       0.234  94.937 118.306  0.00  0.00    -0.090 HD
ATOM     21  H   LIG d   1      -1.240  95.382 118.866  0.00  0.00    -0.090 HD
ENDBRANCH   5  18
BRANCH   3  22
ATOM     22  C   LIG d   1      -3.421  90.744 118.220  0.00  0.00     0.382 C 
ATOM     23  O   LIG d   1      -3.585  89.514 118.404  0.00  0.00    -0.241 OA
ATOM     24  O   LIG d   1      -4.381  91.440 117.839  0.00  0.00    -0.241 OA
ENDBRANCH   3  22
TORSDOF 7
ENDMDL
