MODEL 1
REMARK VINA RESULT:      -4.8      0.000      0.000
REMARK  7 active torsions:
REMARK  status: ('A' for Active; 'I' for Inactive)
REMARK    1  A    between atoms: C_2  and  C_3 
REMARK    2  A    between atoms: C_3  and  O_6 
REMARK    3  A    between atoms: C_3  and  C_4 
REMARK    4  A    between atoms: C_7  and  O_6 
REMARK    5  A    between atoms: C_9  and  C_10 
REMARK    6  A    between atoms: N_15  and  C_14 
REMARK    7  A    between atoms: N_20  and  C_19 
REMARK       I    between atoms: C_22  and  N_20 
ROOT
ATOM      1  C   LIG d   1      -5.527  93.512 118.649  0.00  0.00     0.161 C 
ATOM      2  C   LIG d   1      -6.150  92.351 118.163  0.00  0.00     0.016 C 
ATOM      3  C   LIG d   1      -5.451  91.302 117.523  0.00  0.00     0.038 C 
ATOM      4  C   LIG d   1      -4.050  91.275 117.461  0.00  0.00     0.028 C 
ATOM      5  C   LIG d   1      -3.415  92.661 117.488  0.00  0.00    -0.047 C 
ATOM      6  C   LIG d   1      -3.986  93.450 118.689  0.00  0.00     0.091 C 
ENDROOT
BRANCH   1   7
ATOM      7  O   LIG d   1      -6.050  93.838 119.952  0.00  0.00    -0.368 OA
BRANCH   7   8
ATOM      8  C   LIG d   1      -6.980  94.948 120.006  0.00  0.00     0.119 C 
BRANCH   8   9
ATOM      9  C   LIG d   1      -8.398  94.357 120.125  0.00  0.00     0.028 C 
ATOM     10  C   LIG d   1      -8.633  93.663 121.477  0.00  0.00     0.006 C 
ENDBRANCH   8   9
BRANCH   8  11
ATOM     11  C   LIG d   1      -6.979  95.740 118.695  0.00  0.00     0.028 C 
ATOM     12  C   LIG d   1      -8.369  95.813 118.042  0.00  0.00     0.006 C 
ENDBRANCH   8  11
ENDBRANCH   7   8
ENDBRANCH   1   7
BRANCH   6  13
ATOM     13  N   LIG d   1      -3.481  94.847 118.741  0.00  0.00    -0.311 N 
ATOM     14  C   LIG d   1      -2.402  95.212 119.432  0.00  0.00     0.210 C 
ATOM     15  C   LIG d   1      -2.067  96.705 119.367  0.00  0.00     0.109 C 
ATOM     16  O   LIG d   1      -1.673  94.435 120.067  0.00  0.00    -0.276 OA
ATOM     17  H   LIG d   1      -3.995  95.537 118.228  0.00  0.00     0.149 HD
ENDBRANCH   6  13
BRANCH   5  18
ATOM     18  N   LIG d   1      -1.953  92.481 117.557  0.00  0.00     0.381 N 
ATOM     19  H   LIG d   1      -1.681  91.699 116.995  0.00  0.00    -0.090 HD
ATOM     20  H   LIG d   1      -1.693  92.292 118.509  0.00  0.00    -0.090 HD
ATOM     21  H   LIG d   1      -1.493  93.305 117.237  0.00  0.00    -0.090 HD
ENDBRANCH   5  18
BRANCH   3  22
ATOM     22  C   LIG d   1      -6.157  90.283 116.902  0.00  0.00     0.382 C 
ATOM     23  O   LIG d   1      -5.547  89.294 116.430  0.00  0.00    -0.241 OA
ATOM     24  O   LIG d   1      -7.393  90.362 116.768  0.00  0.00    -0.241 OA
ENDBRANCH   3  22
TORSDOF 7
ENDMDL
MODEL 2
REMARK VINA RESULT:      -4.8      1.919      4.661
REMARK  7 active torsions:
REMARK  status: ('A' for Active; 'I' for Inactive)
REMARK    1  A    between atoms: C_2  and  C_3 
REMARK    2  A    between atoms: C_3  and  O_6 
REMARK    3  A    between atoms: C_3  and  C_4 
REMARK    4  A    between atoms: C_7  and  O_6 
REMARK    5  A    between atoms: C_9  and  C_10 
REMARK    6  A    between atoms: N_15  and  C_14 
REMARK    7  A    between atoms: N_20  and  C_19 
REMARK       I    between atoms: C_22  and  N_20 
ROOT
ATOM      1  C   LIG d   1      -5.808  93.481 119.596  0.00  0.00     0.161 C 
ATOM      2  C   LIG d   1      -7.153  93.838 119.401  0.00  0.00     0.016 C 
ATOM      3  C   LIG d   1      -7.580  95.166 119.169  0.00  0.00     0.038 C 
ATOM      4  C   LIG d   1      -6.668  96.213 118.964  0.00  0.00     0.028 C 
ATOM      5  C   LIG d   1      -5.325  95.990 119.652  0.00  0.00    -0.047 C 
ATOM      6  C   LIG d   1      -4.790  94.592 119.265  0.00  0.00     0.091 C 
ENDROOT
BRANCH   1   7
ATOM      7  O   LIG d   1      -5.506  92.287 118.847  0.00  0.00    -0.368 OA
BRANCH   7   8
ATOM      8  C   LIG d   1      -4.932  92.486 117.532  0.00  0.00     0.119 C 
BRANCH   8   9
ATOM      9  C   LIG d   1      -5.988  92.055 116.496  0.00  0.00     0.028 C 
ATOM     10  C   LIG d   1      -6.541  90.647 116.772  0.00  0.00     0.006 C 
ENDBRANCH   8   9
BRANCH   8  11
ATOM     11  C   LIG d   1      -3.735  91.560 117.300  0.00  0.00     0.028 C 
ATOM     12  C   LIG d   1      -3.252  90.877 118.590  0.00  0.00     0.006 C 
ENDBRANCH   8  11
ENDBRANCH   7   8
ENDBRANCH   1   7
BRANCH   6  13
ATOM     13  N   LIG d   1      -3.519  94.260 119.961  0.00  0.00    -0.311 N 
ATOM     14  C   LIG d   1      -2.317  94.430 119.414  0.00  0.00     0.210 C 
ATOM     15  C   LIG d   1      -1.139  94.005 120.296  0.00  0.00     0.109 C 
ATOM     16  O   LIG d   1      -2.113  94.923 118.295  0.00  0.00    -0.276 OA
ATOM     17  H   LIG d   1      -3.591  93.883 120.886  0.00  0.00     0.149 HD
ENDBRANCH   6  13
BRANCH   5  18
ATOM     18  N   LIG d   1      -4.428  97.087 119.243  0.00  0.00     0.381 N 
ATOM     19  H   LIG d   1      -4.260  97.037 118.258  0.00  0.00    -0.090 HD
ATOM     20  H   LIG d   1      -3.549  96.982 119.718  0.00  0.00    -0.090 HD
ATOM     21  H   LIG d   1      -4.836  97.966 119.473  0.00  0.00    -0.090 HD
ENDBRANCH   5  18
BRANCH   3  22
ATOM     22  C   LIG d   1      -8.934  95.464 119.180  0.00  0.00     0.382 C 
ATOM     23  O   LIG d   1      -9.313  96.653 119.312  0.00  0.00    -0.241 OA
ATOM     24  O   LIG d   1      -9.781  94.555 119.104  0.00  0.00    -0.241 OA
ENDBRANCH   3  22
TORSDOF 7
ENDMDL
MODEL 3
REMARK VINA RESULT:      -4.5      2.069      3.003
REMARK  7 active torsions:
REMARK  status: ('A' for Active; 'I' for Inactive)
REMARK    1  A    between atoms: C_2  and  C_3 
REMARK    2  A    between atoms: C_3  and  O_6 
REMARK    3  A    between atoms: C_3  and  C_4 
REMARK    4  A    between atoms: C_7  and  O_6 
REMARK    5  A    between atoms: C_9  and  C_10 
REMARK    6  A    between atoms: N_15  and  C_14 
REMARK    7  A    between atoms: N_20  and  C_19 
REMARK       I    between atoms: C_22  and  N_20 
ROOT
ATOM      1  C   LIG d   1      -3.638  92.846 117.865  0.00  0.00     0.161 C 
ATOM      2  C   LIG d   1      -4.873  92.300 117.476  0.00  0.00     0.016 C 
ATOM      3  C   LIG d   1      -5.073  90.922 117.236  0.00  0.00     0.038 C 
ATOM      4  C   LIG d   1      -4.084  89.968 117.518  0.00  0.00     0.028 C 
ATOM      5  C   LIG d   1      -2.666  90.523 117.430  0.00  0.00    -0.047 C 
ATOM      6  C   LIG d   1      -2.576  91.808 118.285  0.00  0.00     0.091 C 
ENDROOT
BRANCH   1   7
ATOM      7  O   LIG d   1      -3.840  93.810 118.918  0.00  0.00    -0.368 OA
BRANCH   7   8
ATOM      8  C   LIG d   1      -5.129  93.773 119.577  0.00  0.00     0.119 C 
BRANCH   8   9
ATOM      9  C   LIG d   1      -5.681  95.211 119.596  0.00  0.00     0.028 C 
ATOM     10  C   LIG d   1      -6.953  95.363 118.745  0.00  0.00     0.006 C 
ENDBRANCH   8   9
BRANCH   8  11
ATOM     11  C   LIG d   1      -4.991  93.372 121.049  0.00  0.00     0.028 C 
ATOM     12  C   LIG d   1      -5.056  91.851 121.262  0.00  0.00     0.006 C 
ENDBRANCH   8  11
ENDBRANCH   7   8
ENDBRANCH   1   7
BRANCH   6  13
ATOM     13  N   LIG d   1      -1.245  92.461 118.188  0.00  0.00    -0.311 N 
ATOM     14  C   LIG d   1      -0.257  92.245 119.054  0.00  0.00     0.210 C 
ATOM     15  C   LIG d   1       1.026  93.036 118.782  0.00  0.00     0.109 C 
ATOM     16  O   LIG d   1      -0.311  91.449 120.004  0.00  0.00    -0.276 OA
ATOM     17  H   LIG d   1      -1.104  93.099 117.429  0.00  0.00     0.149 HD
ENDBRANCH   6  13
BRANCH   5  18
ATOM     18  N   LIG d   1      -1.744  89.463 117.881  0.00  0.00     0.381 N 
ATOM     19  H   LIG d   1      -1.909  88.626 117.358  0.00  0.00    -0.090 HD
ATOM     20  H   LIG d   1      -1.921  89.269 118.851  0.00  0.00    -0.090 HD
ATOM     21  H   LIG d   1      -0.800  89.758 117.760  0.00  0.00    -0.090 HD
ENDBRANCH   5  18
BRANCH   3  22
ATOM     22  C   LIG d   1      -6.263  90.489 116.670  0.00  0.00     0.382 C 
ATOM     23  O   LIG d   1      -7.180  91.311 116.432  0.00  0.00    -0.241 OA
ATOM     24  O   LIG d   1      -6.448  89.279 116.436  0.00  0.00    -0.241 OA
ENDBRANCH   3  22
TORSDOF 7
ENDMDL
MODEL 4
REMARK VINA RESULT:      -4.5      2.958      5.694
REMARK  7 active torsions:
REMARK  status: ('A' for Active; 'I' for Inactive)
REMARK    1  A    between atoms: C_2  and  C_3 
REMARK    2  A    between atoms: C_3  and  O_6 
REMARK    3  A    between atoms: C_3  and  C_4 
REMARK    4  A    between atoms: C_7  and  O_6 
REMARK    5  A    between atoms: C_9  and  C_10 
REMARK    6  A    between atoms: N_15  and  C_14 
REMARK    7  A    between atoms: N_20  and  C_19 
REMARK       I    between atoms: C_22  and  N_20 
ROOT
ATOM      1  C   LIG d   1      -2.653  90.645 118.488  0.00  0.00     0.161 C 
ATOM      2  C   LIG d   1      -3.797  90.211 117.797  0.00  0.00     0.016 C 
ATOM      3  C   LIG d   1      -4.833  91.080 117.385  0.00  0.00     0.038 C 
ATOM      4  C   LIG d   1      -4.724  92.473 117.504  0.00  0.00     0.028 C 
ATOM      5  C   LIG d   1      -3.817  92.914 118.648  0.00  0.00    -0.047 C 
ATOM      6  C   LIG d   1      -2.464  92.175 118.529  0.00  0.00     0.091 C 
ENDROOT
BRANCH   1   7
ATOM      7  O   LIG d   1      -1.481  90.009 117.940  0.00  0.00    -0.368 OA
BRANCH   7   8
ATOM      8  C   LIG d   1      -0.784  89.091 118.819  0.00  0.00     0.119 C 
BRANCH   8   9
ATOM      9  C   LIG d   1       0.720  89.198 118.500  0.00  0.00     0.028 C 
ATOM     10  C   LIG d   1       1.105  90.578 117.942  0.00  0.00     0.006 C 
ENDBRANCH   8   9
BRANCH   8  11
ATOM     11  C   LIG d   1      -1.161  87.638 118.517  0.00  0.00     0.028 C 
ATOM     12  C   LIG d   1      -2.161  87.059 119.531  0.00  0.00     0.006 C 
ENDBRANCH   8  11
ENDBRANCH   7   8
ENDBRANCH   1   7
BRANCH   6  13
ATOM     13  N   LIG d   1      -1.547  92.486 119.657  0.00  0.00    -0.311 N 
ATOM     14  C   LIG d   1      -0.631  93.451 119.613  0.00  0.00     0.210 C 
ATOM     15  C   LIG d   1       0.223  93.590 120.876  0.00  0.00     0.109 C 
ATOM     16  O   LIG d   1      -0.467  94.227 118.659  0.00  0.00    -0.276 OA
ATOM     17  H   LIG d   1      -1.633  91.925 120.482  0.00  0.00     0.149 HD
ENDBRANCH   6  13
BRANCH   5  18
ATOM     18  N   LIG d   1      -3.683  94.381 118.571  0.00  0.00     0.381 N 
ATOM     19  H   LIG d   1      -4.035  94.798 119.410  0.00  0.00    -0.090 HD
ATOM     20  H   LIG d   1      -4.231  94.717 117.798  0.00  0.00    -0.090 HD
ATOM     21  H   LIG d   1      -2.727  94.630 118.443  0.00  0.00    -0.090 HD
ENDBRANCH   5  18
BRANCH   3  22
ATOM     22  C   LIG d   1      -6.013  90.552 116.883  0.00  0.00     0.382 C 
ATOM     23  O   LIG d   1      -7.042  91.267 116.818  0.00  0.00    -0.241 OA
ATOM     24  O   LIG d   1      -6.073  89.358 116.535  0.00  0.00    -0.241 OA
ENDBRANCH   3  22
TORSDOF 7
ENDMDL
MODEL 5
REMARK VINA RESULT:      -4.4      1.754      2.562
REMARK  7 active torsions:
REMARK  status: ('A' for Active; 'I' for Inactive)
REMARK    1  A    between atoms: C_2  and  C_3 
REMARK    2  A    between atoms: C_3  and  O_6 
REMARK    3  A    between atoms: C_3  and  C_4 
REMARK    4  A    between atoms: C_7  and  O_6 
REMARK    5  A    between atoms: C_9  and  C_10 
REMARK    6  A    between atoms: N_15  and  C_14 
REMARK    7  A    between atoms: N_20  and  C_19 
REMARK       I    between atoms: C_22  and  N_20 
ROOT
ATOM      1  C   LIG d   1      -4.863  93.566 119.030  0.00  0.00     0.161 C 
ATOM      2  C   LIG d   1      -5.352  92.316 118.616  0.00  0.00     0.016 C 
ATOM      3  C   LIG d   1      -4.592  91.397 117.855  0.00  0.00     0.038 C 
ATOM      4  C   LIG d   1      -3.232  91.605 117.584  0.00  0.00     0.028 C 
ATOM      5  C   LIG d   1      -2.839  93.078 117.548  0.00  0.00    -0.047 C 
ATOM      6  C   LIG d   1      -3.345  93.763 118.838  0.00  0.00     0.091 C 
ENDROOT
BRANCH   1   7
ATOM      7  O   LIG d   1      -5.230  93.804 120.403  0.00  0.00    -0.368 OA
BRANCH   7   8
ATOM      8  C   LIG d   1      -5.377  92.627 121.236  0.00  0.00     0.119 C 
BRANCH   8   9
ATOM      9  C   LIG d   1      -6.543  92.891 122.208  0.00  0.00     0.028 C 
ATOM     10  C   LIG d   1      -6.959  91.628 122.982  0.00  0.00     0.006 C 
ENDBRANCH   8   9
BRANCH   8  11
ATOM     11  C   LIG d   1      -4.147  92.417 122.125  0.00  0.00     0.028 C 
ATOM     12  C   LIG d   1      -3.322  91.186 121.719  0.00  0.00     0.006 C 
ENDBRANCH   8  11
ENDBRANCH   7   8
ENDBRANCH   1   7
BRANCH   6  13
ATOM     13  N   LIG d   1      -3.076  95.225 118.847  0.00  0.00    -0.311 N 
ATOM     14  C   LIG d   1      -1.971  95.765 119.358  0.00  0.00     0.210 C 
ATOM     15  C   LIG d   1      -1.903  97.293 119.282  0.00  0.00     0.109 C 
ATOM     16  O   LIG d   1      -1.026  95.120 119.838  0.00  0.00    -0.276 OA
ATOM     17  H   LIG d   1      -3.776  95.820 118.448  0.00  0.00     0.149 HD
ENDBRANCH   6  13
BRANCH   5  18
ATOM     18  N   LIG d   1      -1.374  93.145 117.394  0.00  0.00     0.381 N 
ATOM     19  H   LIG d   1      -1.028  93.986 117.811  0.00  0.00    -0.090 HD
ATOM     20  H   LIG d   1      -1.151  93.164 116.414  0.00  0.00    -0.090 HD
ATOM     21  H   LIG d   1      -0.949  92.353 117.824  0.00  0.00    -0.090 HD
ENDBRANCH   5  18
BRANCH   3  22
ATOM     22  C   LIG d   1      -5.206  90.273 117.323  0.00  0.00     0.382 C 
ATOM     23  O   LIG d   1      -4.518  89.270 117.014  0.00  0.00    -0.241 OA
ATOM     24  O   LIG d   1      -6.433  90.266 117.106  0.00  0.00    -0.241 OA
ENDBRANCH   3  22
TORSDOF 7
ENDMDL
MODEL 6
REMARK VINA RESULT:      -4.4      2.210      4.203
REMARK  7 active torsions:
REMARK  status: ('A' for Active; 'I' for Inactive)
REMARK    1  A    between atoms: C_2  and  C_3 
REMARK    2  A    between atoms: C_3  and  O_6 
REMARK    3  A    between atoms: C_3  and  C_4 
REMARK    4  A    between atoms: C_7  and  O_6 
REMARK    5  A    between atoms: C_9  and  C_10 
REMARK    6  A    between atoms: N_15  and  C_14 
REMARK    7  A    between atoms: N_20  and  C_19 
REMARK       I    between atoms: C_22  and  N_20 
ROOT
ATOM      1  C   LIG d   1      -5.199  92.824 119.646  0.00  0.00     0.161 C 
ATOM      2  C   LIG d   1      -4.410  91.784 119.129  0.00  0.00     0.016 C 
ATOM      3  C   LIG d   1      -4.557  91.273 117.819  0.00  0.00     0.038 C 
ATOM      4  C   LIG d   1      -5.408  91.875 116.879  0.00  0.00     0.028 C 
ATOM      5  C   LIG d   1      -6.587  92.606 117.512  0.00  0.00    -0.047 C 
ATOM      6  C   LIG d   1      -6.057  93.567 118.600  0.00  0.00     0.091 C 
ENDROOT
BRANCH   1   7
ATOM      7  O   LIG d   1      -4.369  93.756 120.366  0.00  0.00    -0.368 OA
BRANCH   7   8
ATOM      8  C   LIG d   1      -3.772  94.817 119.580  0.00  0.00     0.119 C 
BRANCH   8   9
ATOM      9  C   LIG d   1      -2.281  94.475 119.396  0.00  0.00     0.028 C 
ATOM     10  C   LIG d   1      -1.918  94.206 117.925  0.00  0.00     0.006 C 
ENDBRANCH   8   9
BRANCH   8  11
ATOM     11  C   LIG d   1      -3.792  96.149 120.336  0.00  0.00     0.028 C 
ATOM     12  C   LIG d   1      -4.505  97.266 119.558  0.00  0.00     0.006 C 
ENDBRANCH   8  11
ENDBRANCH   7   8
ENDBRANCH   1   7
BRANCH   6  13
ATOM     13  N   LIG d   1      -7.152  94.260 119.327  0.00  0.00    -0.311 N 
ATOM     14  C   LIG d   1      -7.665  95.427 118.940  0.00  0.00     0.210 C 
ATOM     15  C   LIG d   1      -8.774  95.977 119.843  0.00  0.00     0.109 C 
ATOM     16  O   LIG d   1      -7.330  96.042 117.917  0.00  0.00    -0.276 OA
ATOM     17  H   LIG d   1      -7.506  93.815 120.151  0.00  0.00     0.149 HD
ENDBRANCH   6  13
BRANCH   5  18
ATOM     18  N   LIG d   1      -7.312  93.300 116.431  0.00  0.00     0.381 N 
ATOM     19  H   LIG d   1      -7.550  92.648 115.710  0.00  0.00    -0.090 HD
ATOM     20  H   LIG d   1      -6.713  94.003 116.036  0.00  0.00    -0.090 HD
ATOM     21  H   LIG d   1      -8.139  93.723 116.792  0.00  0.00    -0.090 HD
ENDBRANCH   5  18
BRANCH   3  22
ATOM     22  C   LIG d   1      -3.876  90.123 117.449  0.00  0.00     0.382 C 
ATOM     23  O   LIG d   1      -4.462  89.233 116.787  0.00  0.00    -0.241 OA
ATOM     24  O   LIG d   1      -2.696  89.944 117.807  0.00  0.00    -0.241 OA
ENDBRANCH   3  22
TORSDOF 7
ENDMDL
MODEL 7
REMARK VINA RESULT:      -4.3      2.195      4.836
REMARK  7 active torsions:
REMARK  status: ('A' for Active; 'I' for Inactive)
REMARK    1  A    between atoms: C_2  and  C_3 
REMARK    2  A    between atoms: C_3  and  O_6 
REMARK    3  A    between atoms: C_3  and  C_4 
REMARK    4  A    between atoms: C_7  and  O_6 
REMARK    5  A    between atoms: C_9  and  C_10 
REMARK    6  A    between atoms: N_15  and  C_14 
REMARK    7  A    between atoms: N_20  and  C_19 
REMARK       I    between atoms: C_22  and  N_20 
ROOT
ATOM      1  C   LIG d   1      -3.487  92.148 118.666  0.00  0.00     0.161 C 
ATOM      2  C   LIG d   1      -4.162  91.162 117.926  0.00  0.00     0.016 C 
ATOM      3  C   LIG d   1      -5.450  91.350 117.373  0.00  0.00     0.038 C 
ATOM      4  C   LIG d   1      -6.090  92.598 117.393  0.00  0.00     0.028 C 
ATOM      5  C   LIG d   1      -5.667  93.477 118.565  0.00  0.00    -0.047 C 
ATOM      6  C   LIG d   1      -4.123  93.552 118.604  0.00  0.00     0.091 C 
ENDROOT
BRANCH   1   7
ATOM      7  O   LIG d   1      -2.106  92.205 118.257  0.00  0.00    -0.368 OA
BRANCH   7   8
ATOM      8  C   LIG d   1      -1.124  91.976 119.298  0.00  0.00     0.119 C 
BRANCH   8   9
ATOM      9  C   LIG d   1      -0.029  93.049 119.144  0.00  0.00     0.028 C 
ATOM     10  C   LIG d   1       1.136  92.844 120.128  0.00  0.00     0.006 C 
ENDBRANCH   8   9
BRANCH   8  11
ATOM     11  C   LIG d   1      -0.409  90.636 119.104  0.00  0.00     0.028 C 
ATOM     12  C   LIG d   1      -0.443  90.147 117.647  0.00  0.00     0.006 C 
ENDBRANCH   8  11
ENDBRANCH   7   8
ENDBRANCH   1   7
BRANCH   6  13
ATOM     13  N   LIG d   1      -3.623  94.325 119.770  0.00  0.00    -0.311 N 
ATOM     14  C   LIG d   1      -2.770  95.342 119.664  0.00  0.00     0.210 C 
ATOM     15  C   LIG d   1      -2.366  95.988 120.993  0.00  0.00     0.109 C 
ATOM     16  O   LIG d   1      -2.334  95.791 118.593  0.00  0.00    -0.276 OA
ATOM     17  H   LIG d   1      -3.949  94.047 120.675  0.00  0.00     0.149 HD
ENDBRANCH   6  13
BRANCH   5  18
ATOM     18  N   LIG d   1      -6.305  94.795 118.386  0.00  0.00     0.381 N 
ATOM     19  H   LIG d   1      -7.249  94.675 118.075  0.00  0.00    -0.090 HD
ATOM     20  H   LIG d   1      -5.804  95.307 117.682  0.00  0.00    -0.090 HD
ATOM     21  H   LIG d   1      -6.292  95.299 119.245  0.00  0.00    -0.090 HD
ENDBRANCH   5  18
BRANCH   3  22
ATOM     22  C   LIG d   1      -6.126  90.271 116.825  0.00  0.00     0.382 C 
ATOM     23  O   LIG d   1      -7.372  90.320 116.681  0.00  0.00    -0.241 OA
ATOM     24  O   LIG d   1      -5.513  89.233 116.514  0.00  0.00    -0.241 OA
ENDBRANCH   3  22
TORSDOF 7
ENDMDL
MODEL 8
REMARK VINA RESULT:      -4.0      2.523      4.433
REMARK  7 active torsions:
REMARK  status: ('A' for Active; 'I' for Inactive)
REMARK    1  A    between atoms: C_2  and  C_3 
REMARK    2  A    between atoms: C_3  and  O_6 
REMARK    3  A    between atoms: C_3  and  C_4 
REMARK    4  A    between atoms: C_7  and  O_6 
REMARK    5  A    between atoms: C_9  and  C_10 
REMARK    6  A    between atoms: N_15  and  C_14 
REMARK    7  A    between atoms: N_20  and  C_19 
REMARK       I    between atoms: C_22  and  N_20 
ROOT
ATOM      1  C   LIG d   1      -4.138  93.706 118.795  0.00  0.00     0.161 C 
ATOM      2  C   LIG d   1      -5.349  94.418 118.793  0.00  0.00     0.016 C 
ATOM      3  C   LIG d   1      -6.492  94.006 118.069  0.00  0.00     0.038 C 
ATOM      4  C   LIG d   1      -6.549  92.766 117.415  0.00  0.00     0.028 C 
ATOM      5  C   LIG d   1      -5.183  92.252 116.972  0.00  0.00    -0.047 C 
ATOM      6  C   LIG d   1      -4.216  92.294 118.177  0.00  0.00     0.091 C 
ENDROOT
BRANCH   1   7
ATOM      7  O   LIG d   1      -3.613  93.638 120.136  0.00  0.00    -0.368 OA
BRANCH   7   8
ATOM      8  C   LIG d   1      -4.108  92.554 120.959  0.00  0.00     0.119 C 
BRANCH   8   9
ATOM      9  C   LIG d   1      -4.914  93.179 122.114  0.00  0.00     0.028 C 
ATOM     10  C   LIG d   1      -6.425  92.923 121.981  0.00  0.00     0.006 C 
ENDBRANCH   8   9
BRANCH   8  11
ATOM     11  C   LIG d   1      -2.960  91.795 121.631  0.00  0.00     0.028 C 
ATOM     12  C   LIG d   1      -1.602  92.496 121.459  0.00  0.00     0.006 C 
ENDBRANCH   8  11
ENDBRANCH   7   8
ENDBRANCH   1   7
BRANCH   6  13
ATOM     13  N   LIG d   1      -2.835  91.887 117.810  0.00  0.00    -0.311 N 
ATOM     14  C   LIG d   1      -2.294  90.723 118.167  0.00  0.00     0.210 C 
ATOM     15  C   LIG d   1      -0.850  90.511 117.701  0.00  0.00     0.109 C 
ATOM     16  O   LIG d   1      -2.884  89.833 118.798  0.00  0.00    -0.276 OA
ATOM     17  H   LIG d   1      -2.296  92.536 117.271  0.00  0.00     0.149 HD
ENDBRANCH   6  13
BRANCH   5  18
ATOM     18  N   LIG d   1      -5.373  90.893 116.430  0.00  0.00     0.381 N 
ATOM     19  H   LIG d   1      -6.310  90.588 116.603  0.00  0.00    -0.090 HD
ATOM     20  H   LIG d   1      -4.745  90.265 116.900  0.00  0.00    -0.090 HD
ATOM     21  H   LIG d   1      -5.189  90.888 115.451  0.00  0.00    -0.090 HD
ENDBRANCH   5  18
BRANCH   3  22
ATOM     22  C   LIG d   1      -7.581  94.858 117.962  0.00  0.00     0.382 C 
ATOM     23  O   LIG d   1      -8.727  94.388 117.762  0.00  0.00    -0.241 OA
ATOM     24  O   LIG d   1      -7.425  96.092 118.018  0.00  0.00    -0.241 OA
ENDBRANCH   3  22
TORSDOF 7
ENDMDL
MODEL 9
REMARK VINA RESULT:      -3.9      2.250      5.476
REMARK  7 active torsions:
REMARK  status: ('A' for Active; 'I' for Inactive)
REMARK    1  A    between atoms: C_2  and  C_3 
REMARK    2  A    between atoms: C_3  and  O_6 
REMARK    3  A    between atoms: C_3  and  C_4 
REMARK    4  A    between atoms: C_7  and  O_6 
REMARK    5  A    between atoms: C_9  and  C_10 
REMARK    6  A    between atoms: N_15  and  C_14 
REMARK    7  A    between atoms: N_20  and  C_19 
REMARK       I    between atoms: C_22  and  N_20 
ROOT
ATOM      1  C   LIG d   1      -4.854  93.332 118.419  0.00  0.00     0.161 C 
ATOM      2  C   LIG d   1      -3.463  93.366 118.227  0.00  0.00     0.016 C 
ATOM      3  C   LIG d   1      -2.586  94.137 119.025  0.00  0.00     0.038 C 
ATOM      4  C   LIG d   1      -3.028  94.814 120.171  0.00  0.00     0.028 C 
ATOM      5  C   LIG d   1      -4.498  95.216 120.108  0.00  0.00    -0.047 C 
ATOM      6  C   LIG d   1      -5.342  93.976 119.733  0.00  0.00     0.091 C 
ENDROOT
BRANCH   1   7
ATOM      7  O   LIG d   1      -5.328  91.975 118.320  0.00  0.00    -0.368 OA
BRANCH   7   8
ATOM      8  C   LIG d   1      -5.191  91.345 117.022  0.00  0.00     0.119 C 
BRANCH   8   9
ATOM      9  C   LIG d   1      -6.606  91.192 116.430  0.00  0.00     0.028 C 
ATOM     10  C   LIG d   1      -7.111  89.740 116.487  0.00  0.00     0.006 C 
ENDBRANCH   8   9
BRANCH   8  11
ATOM     11  C   LIG d   1      -4.648  89.919 117.150  0.00  0.00     0.028 C 
ATOM     12  C   LIG d   1      -3.183  89.878 117.613  0.00  0.00     0.006 C 
ENDBRANCH   8  11
ENDBRANCH   7   8
ENDBRANCH   1   7
BRANCH   6  13
ATOM     13  N   LIG d   1      -6.783  94.300 119.568  0.00  0.00    -0.311 N 
ATOM     14  C   LIG d   1      -7.690  94.119 120.526  0.00  0.00     0.210 C 
ATOM     15  C   LIG d   1      -9.123  94.499 120.141  0.00  0.00     0.109 C 
ATOM     16  O   LIG d   1      -7.438  93.710 121.670  0.00  0.00    -0.276 OA
ATOM     17  H   LIG d   1      -7.069  94.667 118.681  0.00  0.00     0.149 HD
ENDBRANCH   6  13
BRANCH   5  18
ATOM     18  N   LIG d   1      -4.860  95.787 121.419  0.00  0.00     0.381 N 
ATOM     19  H   LIG d   1      -4.501  95.209 122.152  0.00  0.00    -0.090 HD
ATOM     20  H   LIG d   1      -5.862  95.810 121.498  0.00  0.00    -0.090 HD
ATOM     21  H   LIG d   1      -4.492  96.709 121.503  0.00  0.00    -0.090 HD
ENDBRANCH   5  18
BRANCH   3  22
ATOM     22  C   LIG d   1      -1.257  94.269 118.654  0.00  0.00     0.382 C 
ATOM     23  O   LIG d   1      -0.528  93.252 118.558  0.00  0.00    -0.241 OA
ATOM     24  O   LIG d   1      -0.765  95.397 118.456  0.00  0.00    -0.241 OA
ENDBRANCH   3  22
TORSDOF 7
ENDMDL
