MODEL 1
REMARK VINA RESULT:      -4.8      0.000      0.000
REMARK  7 active torsions:
REMARK  status: ('A' for Active; 'I' for Inactive)
REMARK    1  A    between atoms: C_2  and  C_3 
REMARK    2  A    between atoms: C_3  and  O_6 
REMARK    3  A    between atoms: C_3  and  C_4 
REMARK    4  A    between atoms: C_7  and  O_6 
REMARK    5  A    between atoms: C_9  and  C_10 
REMARK    6  A    between atoms: N_15  and  C_14 
REMARK    7  A    between atoms: N_20  and  C_19 
REMARK       I    between atoms: C_22  and  N_20 
ROOT
ATOM      1  C   LIG d   1      -3.861  93.057 120.181  0.00  0.00     0.161 C 
ATOM      2  C   LIG d   1      -3.037  92.080 119.598  0.00  0.00     0.016 C 
ATOM      3  C   LIG d   1      -3.326  91.455 118.362  0.00  0.00     0.038 C 
ATOM      4  C   LIG d   1      -4.388  91.878 117.548  0.00  0.00     0.028 C 
ATOM      5  C   LIG d   1      -5.534  92.511 118.329  0.00  0.00    -0.047 C 
ATOM      6  C   LIG d   1      -4.964  93.610 119.255  0.00  0.00     0.091 C 
ENDROOT
BRANCH   1   7
ATOM      7  O   LIG d   1      -3.052  94.133 120.696  0.00  0.00    -0.368 OA
BRANCH   7   8
ATOM      8  C   LIG d   1      -2.617  95.122 119.729  0.00  0.00     0.119 C 
BRANCH   8   9
ATOM      9  C   LIG d   1      -1.078  95.076 119.683  0.00  0.00     0.028 C 
ATOM     10  C   LIG d   1      -0.548  94.477 118.369  0.00  0.00     0.006 C 
ENDBRANCH   8   9
BRANCH   8  11
ATOM     11  C   LIG d   1      -2.968  96.540 120.187  0.00  0.00     0.028 C 
ATOM     12  C   LIG d   1      -3.548  97.405 119.057  0.00  0.00     0.006 C 
ENDBRANCH   8  11
ENDBRANCH   7   8
ENDBRANCH   1   7
BRANCH   6  13
ATOM     13  N   LIG d   1      -6.009  94.223 120.116  0.00  0.00    -0.311 N 
ATOM     14  C   LIG d   1      -6.757  95.258 119.737  0.00  0.00     0.210 C 
ATOM     15  C   LIG d   1      -7.761  95.749 120.785  0.00  0.00     0.109 C 
ATOM     16  O   LIG d   1      -6.707  95.795 118.620  0.00  0.00    -0.276 OA
ATOM     17  H   LIG d   1      -6.138  93.830 121.028  0.00  0.00     0.149 HD
ENDBRANCH   6  13
BRANCH   5  18
ATOM     18  N   LIG d   1      -6.508  93.029 117.349  0.00  0.00     0.381 N 
ATOM     19  H   LIG d   1      -6.058  93.171 116.467  0.00  0.00    -0.090 HD
ATOM     20  H   LIG d   1      -6.854  93.915 117.672  0.00  0.00    -0.090 HD
ATOM     21  H   LIG d   1      -7.262  92.387 117.246  0.00  0.00    -0.090 HD
ENDBRANCH   5  18
BRANCH   3  22
ATOM     22  C   LIG d   1      -2.571  90.368 117.949  0.00  0.00     0.382 C 
ATOM     23  O   LIG d   1      -3.083  89.223 117.922  0.00  0.00    -0.241 OA
ATOM     24  O   LIG d   1      -1.372  90.511 117.645  0.00  0.00    -0.241 OA
ENDBRANCH   3  22
TORSDOF 7
ENDMDL
MODEL 2
REMARK VINA RESULT:      -4.6      1.900      4.966
REMARK  7 active torsions:
REMARK  status: ('A' for Active; 'I' for Inactive)
REMARK    1  A    between atoms: C_2  and  C_3 
REMARK    2  A    between atoms: C_3  and  O_6 
REMARK    3  A    between atoms: C_3  and  C_4 
REMARK    4  A    between atoms: C_7  and  O_6 
REMARK    5  A    between atoms: C_9  and  C_10 
REMARK    6  A    between atoms: N_15  and  C_14 
REMARK    7  A    between atoms: N_20  and  C_19 
REMARK       I    between atoms: C_22  and  N_20 
ROOT
ATOM      1  C   LIG d   1      -3.613  93.028 119.235  0.00  0.00     0.161 C 
ATOM      2  C   LIG d   1      -4.753  93.837 119.372  0.00  0.00     0.016 C 
ATOM      3  C   LIG d   1      -5.926  93.666 118.601  0.00  0.00     0.038 C 
ATOM      4  C   LIG d   1      -6.095  92.571 117.741  0.00  0.00     0.028 C 
ATOM      5  C   LIG d   1      -4.781  92.018 117.199  0.00  0.00    -0.047 C 
ATOM      6  C   LIG d   1      -3.820  91.759 118.381  0.00  0.00     0.091 C 
ENDROOT
BRANCH   1   7
ATOM      7  O   LIG d   1      -3.104  92.678 120.537  0.00  0.00    -0.368 OA
BRANCH   7   8
ATOM      8  C   LIG d   1      -1.854  93.301 120.922  0.00  0.00     0.119 C 
BRANCH   8   9
ATOM      9  C   LIG d   1      -2.170  94.331 122.024  0.00  0.00     0.028 C 
ATOM     10  C   LIG d   1      -2.272  95.764 121.475  0.00  0.00     0.006 C 
ENDBRANCH   8   9
BRANCH   8  11
ATOM     11  C   LIG d   1      -1.258  94.112 119.767  0.00  0.00     0.028 C 
ATOM     12  C   LIG d   1       0.098  93.566 119.293  0.00  0.00     0.006 C 
ENDBRANCH   8  11
ENDBRANCH   7   8
ENDBRANCH   1   7
BRANCH   6  13
ATOM     13  N   LIG d   1      -2.481  91.296 117.932  0.00  0.00    -0.311 N 
ATOM     14  C   LIG d   1      -2.134  90.012 117.862  0.00  0.00     0.210 C 
ATOM     15  C   LIG d   1      -0.699  89.754 117.393  0.00  0.00     0.109 C 
ATOM     16  O   LIG d   1      -2.890  89.061 118.114  0.00  0.00    -0.276 OA
ATOM     17  H   LIG d   1      -1.816  92.001 117.680  0.00  0.00     0.149 HD
ENDBRANCH   6  13
BRANCH   5  18
ATOM     18  N   LIG d   1      -5.094  90.799 116.430  0.00  0.00     0.381 N 
ATOM     19  H   LIG d   1      -4.455  90.707 115.666  0.00  0.00    -0.090 HD
ATOM     20  H   LIG d   1      -6.023  90.880 116.056  0.00  0.00    -0.090 HD
ATOM     21  H   LIG d   1      -5.035  89.999 117.021  0.00  0.00    -0.090 HD
ENDBRANCH   5  18
BRANCH   3  22
ATOM     22  C   LIG d   1      -6.930  94.621 118.657  0.00  0.00     0.382 C 
ATOM     23  O   LIG d   1      -6.821  95.601 119.432  0.00  0.00    -0.241 OA
ATOM     24  O   LIG d   1      -7.964  94.491 117.974  0.00  0.00    -0.241 OA
ENDBRANCH   3  22
TORSDOF 7
ENDMDL
MODEL 3
REMARK VINA RESULT:      -4.5      3.948      6.778
REMARK  7 active torsions:
REMARK  status: ('A' for Active; 'I' for Inactive)
REMARK    1  A    between atoms: C_2  and  C_3 
REMARK    2  A    between atoms: C_3  and  O_6 
REMARK    3  A    between atoms: C_3  and  C_4 
REMARK    4  A    between atoms: C_7  and  O_6 
REMARK    5  A    between atoms: C_9  and  C_10 
REMARK    6  A    between atoms: N_15  and  C_14 
REMARK    7  A    between atoms: N_20  and  C_19 
REMARK       I    between atoms: C_22  and  N_20 
ROOT
ATOM      1  C   LIG d   1       0.021  90.197 116.877  0.00  0.00     0.161 C 
ATOM      2  C   LIG d   1       1.418  90.112 116.762  0.00  0.00     0.016 C 
ATOM      3  C   LIG d   1       2.306  91.030 117.369  0.00  0.00     0.038 C 
ATOM      4  C   LIG d   1       1.858  92.013 118.264  0.00  0.00     0.028 C 
ATOM      5  C   LIG d   1       0.419  92.451 118.012  0.00  0.00    -0.047 C 
ATOM      6  C   LIG d   1      -0.481  91.197 117.939  0.00  0.00     0.091 C 
ENDROOT
BRANCH   1   7
ATOM      7  O   LIG d   1      -0.530  88.887 117.122  0.00  0.00    -0.368 OA
BRANCH   7   8
ATOM      8  C   LIG d   1      -0.685  88.511 118.512  0.00  0.00     0.119 C 
BRANCH   8   9
ATOM      9  C   LIG d   1       0.203  87.276 118.759  0.00  0.00     0.028 C 
ATOM     10  C   LIG d   1       0.519  86.511 117.463  0.00  0.00     0.006 C 
ENDBRANCH   8   9
BRANCH   8  11
ATOM     11  C   LIG d   1      -2.114  88.048 118.808  0.00  0.00     0.028 C 
ATOM     12  C   LIG d   1      -2.211  87.187 120.077  0.00  0.00     0.006 C 
ENDBRANCH   8  11
ENDBRANCH   7   8
ENDBRANCH   1   7
BRANCH   6  13
ATOM     13  N   LIG d   1      -1.892  91.530 117.612  0.00  0.00    -0.311 N 
ATOM     14  C   LIG d   1      -2.839  91.699 118.534  0.00  0.00     0.210 C 
ATOM     15  C   LIG d   1      -4.231  92.018 117.980  0.00  0.00     0.109 C 
ATOM     16  O   LIG d   1      -2.650  91.646 119.759  0.00  0.00    -0.276 OA
ATOM     17  H   LIG d   1      -2.126  91.623 116.643  0.00  0.00     0.149 HD
ENDBRANCH   6  13
BRANCH   5  18
ATOM     18  N   LIG d   1       0.038  93.374 119.098  0.00  0.00     0.381 N 
ATOM     19  H   LIG d   1      -0.708  93.966 118.792  0.00  0.00    -0.090 HD
ATOM     20  H   LIG d   1       0.827  93.953 119.325  0.00  0.00    -0.090 HD
ATOM     21  H   LIG d   1      -0.246  92.857 119.901  0.00  0.00    -0.090 HD
ENDBRANCH   5  18
BRANCH   3  22
ATOM     22  C   LIG d   1       3.655  90.993 117.052  0.00  0.00     0.382 C 
ATOM     23  O   LIG d   1       4.317  92.058 117.006  0.00  0.00    -0.241 OA
ATOM     24  O   LIG d   1       4.208  89.914 116.767  0.00  0.00    -0.241 OA
ENDBRANCH   3  22
TORSDOF 7
ENDMDL
MODEL 4
REMARK VINA RESULT:      -4.5      2.572      4.616
REMARK  7 active torsions:
REMARK  status: ('A' for Active; 'I' for Inactive)
REMARK    1  A    between atoms: C_2  and  C_3 
REMARK    2  A    between atoms: C_3  and  O_6 
REMARK    3  A    between atoms: C_3  and  C_4 
REMARK    4  A    between atoms: C_7  and  O_6 
REMARK    5  A    between atoms: C_9  and  C_10 
REMARK    6  A    between atoms: N_15  and  C_14 
REMARK    7  A    between atoms: N_20  and  C_19 
REMARK       I    between atoms: C_22  and  N_20 
ROOT
ATOM      1  C   LIG d   1      -3.746  93.095 119.131  0.00  0.00     0.161 C 
ATOM      2  C   LIG d   1      -4.952  92.831 118.460  0.00  0.00     0.016 C 
ATOM      3  C   LIG d   1      -5.111  91.778 117.531  0.00  0.00     0.038 C 
ATOM      4  C   LIG d   1      -4.110  90.817 117.320  0.00  0.00     0.028 C 
ATOM      5  C   LIG d   1      -2.704  91.337 117.597  0.00  0.00    -0.047 C 
ATOM      6  C   LIG d   1      -2.677  91.991 118.998  0.00  0.00     0.091 C 
ENDROOT
BRANCH   1   7
ATOM      7  O   LIG d   1      -4.010  93.372 120.521  0.00  0.00    -0.368 OA
BRANCH   7   8
ATOM      8  C   LIG d   1      -3.797  94.739 120.950  0.00  0.00     0.119 C 
BRANCH   8   9
ATOM      9  C   LIG d   1      -5.181  95.363 121.212  0.00  0.00     0.028 C 
ATOM     10  C   LIG d   1      -5.699  96.169 120.009  0.00  0.00     0.006 C 
ENDBRANCH   8   9
BRANCH   8  11
ATOM     11  C   LIG d   1      -3.176  95.584 119.833  0.00  0.00     0.028 C 
ATOM     12  C   LIG d   1      -1.788  96.130 120.201  0.00  0.00     0.006 C 
ENDBRANCH   8  11
ENDBRANCH   7   8
ENDBRANCH   1   7
BRANCH   6  13
ATOM     13  N   LIG d   1      -1.359  92.600 119.314  0.00  0.00    -0.311 N 
ATOM     14  C   LIG d   1      -0.399  91.965 119.984  0.00  0.00     0.210 C 
ATOM     15  C   LIG d   1       0.875  92.782 120.220  0.00  0.00     0.109 C 
ATOM     16  O   LIG d   1      -0.470  90.791 120.378  0.00  0.00    -0.276 OA
ATOM     17  H   LIG d   1      -1.205  93.540 119.004  0.00  0.00     0.149 HD
ENDBRANCH   6  13
BRANCH   5  18
ATOM     18  N   LIG d   1      -1.775  90.198 117.473  0.00  0.00     0.381 N 
ATOM     19  H   LIG d   1      -0.871  90.459 117.812  0.00  0.00    -0.090 HD
ATOM     20  H   LIG d   1      -1.689  89.953 116.502  0.00  0.00    -0.090 HD
ATOM     21  H   LIG d   1      -2.119  89.419 117.990  0.00  0.00    -0.090 HD
ENDBRANCH   5  18
BRANCH   3  22
ATOM     22  C   LIG d   1      -6.267  91.701 116.770  0.00  0.00     0.382 C 
ATOM     23  O   LIG d   1      -6.881  92.750 116.455  0.00  0.00    -0.241 OA
ATOM     24  O   LIG d   1      -6.729  90.595 116.432  0.00  0.00    -0.241 OA
ENDBRANCH   3  22
TORSDOF 7
ENDMDL
MODEL 5
REMARK VINA RESULT:      -4.4      2.911      5.349
REMARK  7 active torsions:
REMARK  status: ('A' for Active; 'I' for Inactive)
REMARK    1  A    between atoms: C_2  and  C_3 
REMARK    2  A    between atoms: C_3  and  O_6 
REMARK    3  A    between atoms: C_3  and  C_4 
REMARK    4  A    between atoms: C_7  and  O_6 
REMARK    5  A    between atoms: C_9  and  C_10 
REMARK    6  A    between atoms: N_15  and  C_14 
REMARK    7  A    between atoms: N_20  and  C_19 
REMARK       I    between atoms: C_22  and  N_20 
ROOT
ATOM      1  C   LIG d   1      -1.594  90.678 117.942  0.00  0.00     0.161 C 
ATOM      2  C   LIG d   1      -0.209  90.737 118.168  0.00  0.00     0.016 C 
ATOM      3  C   LIG d   1       0.486  91.941 118.427  0.00  0.00     0.038 C 
ATOM      4  C   LIG d   1      -0.185  93.156 118.629  0.00  0.00     0.028 C 
ATOM      5  C   LIG d   1      -1.528  93.233 117.912  0.00  0.00    -0.047 C 
ATOM      6  C   LIG d   1      -2.359  91.978 118.268  0.00  0.00     0.091 C 
ENDROOT
BRANCH   1   7
ATOM      7  O   LIG d   1      -2.161  89.569 118.667  0.00  0.00    -0.368 OA
BRANCH   7   8
ATOM      8  C   LIG d   1      -1.278  88.901 119.601  0.00  0.00     0.119 C 
BRANCH   8   9
ATOM      9  C   LIG d   1      -1.384  87.386 119.336  0.00  0.00     0.028 C 
ATOM     10  C   LIG d   1      -0.179  86.842 118.551  0.00  0.00     0.006 C 
ENDBRANCH   8   9
BRANCH   8  11
ATOM     11  C   LIG d   1      -1.747  89.093 121.046  0.00  0.00     0.028 C 
ATOM     12  C   LIG d   1      -1.069  90.286 121.739  0.00  0.00     0.006 C 
ENDBRANCH   8  11
ENDBRANCH   7   8
ENDBRANCH   1   7
BRANCH   6  13
ATOM     13  N   LIG d   1      -3.655  91.932 117.542  0.00  0.00    -0.311 N 
ATOM     14  C   LIG d   1      -4.800  92.377 118.057  0.00  0.00     0.210 C 
ATOM     15  C   LIG d   1      -6.023  92.217 117.149  0.00  0.00     0.109 C 
ATOM     16  O   LIG d   1      -4.913  92.919 119.167  0.00  0.00    -0.276 OA
ATOM     17  H   LIG d   1      -3.649  91.537 116.622  0.00  0.00     0.149 HD
ENDBRANCH   6  13
BRANCH   5  18
ATOM     18  N   LIG d   1      -2.180  94.492 118.319  0.00  0.00     0.381 N 
ATOM     19  H   LIG d   1      -3.158  94.450 118.113  0.00  0.00    -0.090 HD
ATOM     20  H   LIG d   1      -1.779  95.249 117.794  0.00  0.00    -0.090 HD
ATOM     21  H   LIG d   1      -2.044  94.646 119.294  0.00  0.00    -0.090 HD
ENDBRANCH   5  18
BRANCH   3  22
ATOM     22  C   LIG d   1       1.873  91.942 118.447  0.00  0.00     0.382 C 
ATOM     23  O   LIG d   1       2.516  91.849 117.374  0.00  0.00    -0.241 OA
ATOM     24  O   LIG d   1       2.489  91.992 119.529  0.00  0.00    -0.241 OA
ENDBRANCH   3  22
TORSDOF 7
ENDMDL
MODEL 6
REMARK VINA RESULT:      -4.3      2.437      5.427
REMARK  7 active torsions:
REMARK  status: ('A' for Active; 'I' for Inactive)
REMARK    1  A    between atoms: C_2  and  C_3 
REMARK    2  A    between atoms: C_3  and  O_6 
REMARK    3  A    between atoms: C_3  and  C_4 
REMARK    4  A    between atoms: C_7  and  O_6 
REMARK    5  A    between atoms: C_9  and  C_10 
REMARK    6  A    between atoms: N_15  and  C_14 
REMARK    7  A    between atoms: N_20  and  C_19 
REMARK       I    between atoms: C_22  and  N_20 
ROOT
ATOM      1  C   LIG d   1      -5.048  93.808 119.494  0.00  0.00     0.161 C 
ATOM      2  C   LIG d   1      -6.348  94.003 118.998  0.00  0.00     0.016 C 
ATOM      3  C   LIG d   1      -7.104  95.173 119.236  0.00  0.00     0.038 C 
ATOM      4  C   LIG d   1      -6.551  96.299 119.864  0.00  0.00     0.028 C 
ATOM      5  C   LIG d   1      -5.414  95.960 120.822  0.00  0.00    -0.047 C 
ATOM      6  C   LIG d   1      -4.386  95.070 120.086  0.00  0.00     0.091 C 
ENDROOT
BRANCH   1   7
ATOM      7  O   LIG d   1      -4.212  93.240 118.465  0.00  0.00    -0.368 OA
BRANCH   7   8
ATOM      8  C   LIG d   1      -3.949  91.820 118.571  0.00  0.00     0.119 C 
BRANCH   8   9
ATOM      9  C   LIG d   1      -2.446  91.649 118.868  0.00  0.00     0.028 C 
ATOM     10  C   LIG d   1      -2.173  91.334 120.349  0.00  0.00     0.006 C 
ENDBRANCH   8   9
BRANCH   8  11
ATOM     11  C   LIG d   1      -4.181  91.109 117.234  0.00  0.00     0.028 C 
ATOM     12  C   LIG d   1      -5.551  91.431 116.618  0.00  0.00     0.006 C 
ENDBRANCH   8  11
ENDBRANCH   7   8
ENDBRANCH   1   7
BRANCH   6  13
ATOM     13  N   LIG d   1      -3.283  94.623 120.977  0.00  0.00    -0.311 N 
ATOM     14  C   LIG d   1      -2.111  95.250 121.063  0.00  0.00     0.210 C 
ATOM     15  C   LIG d   1      -1.106  94.612 122.027  0.00  0.00     0.109 C 
ATOM     16  O   LIG d   1      -1.820  96.292 120.458  0.00  0.00    -0.276 OA
ATOM     17  H   LIG d   1      -3.445  93.803 121.528  0.00  0.00     0.149 HD
ENDBRANCH   6  13
BRANCH   5  18
ATOM     18  N   LIG d   1      -4.839  97.232 121.300  0.00  0.00     0.381 N 
ATOM     19  H   LIG d   1      -4.138  97.548 120.660  0.00  0.00    -0.090 HD
ATOM     20  H   LIG d   1      -4.406  97.078 122.193  0.00  0.00    -0.090 HD
ATOM     21  H   LIG d   1      -5.556  97.919 121.384  0.00  0.00    -0.090 HD
ENDBRANCH   5  18
BRANCH   3  22
ATOM     22  C   LIG d   1      -8.444  95.210 118.879  0.00  0.00     0.382 C 
ATOM     23  O   LIG d   1      -9.288  94.565 119.546  0.00  0.00    -0.241 OA
ATOM     24  O   LIG d   1      -8.812  95.844 117.872  0.00  0.00    -0.241 OA
ENDBRANCH   3  22
TORSDOF 7
ENDMDL
MODEL 7
REMARK VINA RESULT:      -4.1      1.383      2.227
REMARK  7 active torsions:
REMARK  status: ('A' for Active; 'I' for Inactive)
REMARK    1  A    between atoms: C_2  and  C_3 
REMARK    2  A    between atoms: C_3  and  O_6 
REMARK    3  A    between atoms: C_3  and  C_4 
REMARK    4  A    between atoms: C_7  and  O_6 
REMARK    5  A    between atoms: C_9  and  C_10 
REMARK    6  A    between atoms: N_15  and  C_14 
REMARK    7  A    between atoms: N_20  and  C_19 
REMARK       I    between atoms: C_22  and  N_20 
ROOT
ATOM      1  C   LIG d   1      -4.128  93.169 119.978  0.00  0.00     0.161 C 
ATOM      2  C   LIG d   1      -3.271  92.172 119.483  0.00  0.00     0.016 C 
ATOM      3  C   LIG d   1      -3.499  91.482 118.270  0.00  0.00     0.038 C 
ATOM      4  C   LIG d   1      -4.527  91.851 117.389  0.00  0.00     0.028 C 
ATOM      5  C   LIG d   1      -5.712  92.512 118.084  0.00  0.00    -0.047 C 
ATOM      6  C   LIG d   1      -5.193  93.663 118.976  0.00  0.00     0.091 C 
ENDROOT
BRANCH   1   7
ATOM      7  O   LIG d   1      -3.352  94.279 120.471  0.00  0.00    -0.368 OA
BRANCH   7   8
ATOM      8  C   LIG d   1      -2.442  93.987 121.560  0.00  0.00     0.119 C 
BRANCH   8   9
ATOM      9  C   LIG d   1      -3.162  94.344 122.874  0.00  0.00     0.028 C 
ATOM     10  C   LIG d   1      -3.912  95.684 122.787  0.00  0.00     0.006 C 
ENDBRANCH   8   9
BRANCH   8  11
ATOM     11  C   LIG d   1      -1.208  94.893 121.514  0.00  0.00     0.028 C 
ATOM     12  C   LIG d   1       0.024  94.193 120.919  0.00  0.00     0.006 C 
ENDBRANCH   8  11
ENDBRANCH   7   8
ENDBRANCH   1   7
BRANCH   6  13
ATOM     13  N   LIG d   1      -6.280  94.309 119.758  0.00  0.00    -0.311 N 
ATOM     14  C   LIG d   1      -6.385  95.627 119.916  0.00  0.00     0.210 C 
ATOM     15  C   LIG d   1      -7.569  96.083 120.775  0.00  0.00     0.109 C 
ATOM     16  O   LIG d   1      -5.629  96.464 119.399  0.00  0.00    -0.276 OA
ATOM     17  H   LIG d   1      -6.955  93.705 120.185  0.00  0.00     0.149 HD
ENDBRANCH   6  13
BRANCH   5  18
ATOM     18  N   LIG d   1      -6.645  92.969 117.036  0.00  0.00     0.381 N 
ATOM     19  H   LIG d   1      -7.241  93.685 117.402  0.00  0.00    -0.090 HD
ATOM     20  H   LIG d   1      -7.220  92.195 116.753  0.00  0.00    -0.090 HD
ATOM     21  H   LIG d   1      -6.136  93.318 116.255  0.00  0.00    -0.090 HD
ENDBRANCH   5  18
BRANCH   3  22
ATOM     22  C   LIG d   1      -2.718  90.383 117.947  0.00  0.00     0.382 C 
ATOM     23  O   LIG d   1      -1.498  90.534 117.696  0.00  0.00    -0.241 OA
ATOM     24  O   LIG d   1      -3.227  89.250 117.859  0.00  0.00    -0.241 OA
ENDBRANCH   3  22
TORSDOF 7
ENDMDL
MODEL 8
REMARK VINA RESULT:      -4.1      3.247      6.006
REMARK  7 active torsions:
REMARK  status: ('A' for Active; 'I' for Inactive)
REMARK    1  A    between atoms: C_2  and  C_3 
REMARK    2  A    between atoms: C_3  and  O_6 
REMARK    3  A    between atoms: C_3  and  C_4 
REMARK    4  A    between atoms: C_7  and  O_6 
REMARK    5  A    between atoms: C_9  and  C_10 
REMARK    6  A    between atoms: N_15  and  C_14 
REMARK    7  A    between atoms: N_20  and  C_19 
REMARK       I    between atoms: C_22  and  N_20 
ROOT
ATOM      1  C   LIG d   1      -1.724  90.491 119.293  0.00  0.00     0.161 C 
ATOM      2  C   LIG d   1      -2.756  90.414 118.343  0.00  0.00     0.016 C 
ATOM      3  C   LIG d   1      -3.494  91.537 117.903  0.00  0.00     0.038 C 
ATOM      4  C   LIG d   1      -3.146  92.844 118.273  0.00  0.00     0.028 C 
ATOM      5  C   LIG d   1      -2.435  92.923 119.620  0.00  0.00    -0.047 C 
ATOM      6  C   LIG d   1      -1.256  91.923 119.625  0.00  0.00     0.091 C 
ENDROOT
BRANCH   1   7
ATOM      7  O   LIG d   1      -0.607  89.685 118.867  0.00  0.00    -0.368 OA
BRANCH   7   8
ATOM      8  C   LIG d   1      -0.558  89.359 117.456  0.00  0.00     0.119 C 
BRANCH   8   9
ATOM      9  C   LIG d   1      -0.153  87.877 117.338  0.00  0.00     0.028 C 
ATOM     10  C   LIG d   1      -0.393  87.097 118.641  0.00  0.00     0.006 C 
ENDBRANCH   8   9
BRANCH   8  11
ATOM     11  C   LIG d   1       0.549  90.140 116.742  0.00  0.00     0.028 C 
ATOM     12  C   LIG d   1       1.822  89.307 116.527  0.00  0.00     0.006 C 
ENDBRANCH   8  11
ENDBRANCH   7   8
ENDBRANCH   1   7
BRANCH   6  13
ATOM     13  N   LIG d   1      -0.558  91.876 120.936  0.00  0.00    -0.311 N 
ATOM     14  C   LIG d   1       0.521  92.605 121.219  0.00  0.00     0.210 C 
ATOM     15  C   LIG d   1       1.096  92.389 122.622  0.00  0.00     0.109 C 
ATOM     16  O   LIG d   1       1.036  93.432 120.452  0.00  0.00    -0.276 OA
ATOM     17  H   LIG d   1      -0.928  91.254 121.627  0.00  0.00     0.149 HD
ENDBRANCH   6  13
BRANCH   5  18
ATOM     18  N   LIG d   1      -2.008  94.321 119.817  0.00  0.00     0.381 N 
ATOM     19  H   LIG d   1      -2.238  94.618 120.744  0.00  0.00    -0.090 HD
ATOM     20  H   LIG d   1      -2.501  94.907 119.166  0.00  0.00    -0.090 HD
ATOM     21  H   LIG d   1      -1.026  94.402 119.669  0.00  0.00    -0.090 HD
ENDBRANCH   5  18
BRANCH   3  22
ATOM     22  C   LIG d   1      -4.619  91.353 117.114  0.00  0.00     0.382 C 
ATOM     23  O   LIG d   1      -5.450  92.284 116.981  0.00  0.00    -0.241 OA
ATOM     24  O   LIG d   1      -4.836  90.255 116.568  0.00  0.00    -0.241 OA
ENDBRANCH   3  22
TORSDOF 7
ENDMDL
MODEL 9
REMARK VINA RESULT:      -4.0      2.329      5.073
REMARK  7 active torsions:
REMARK  status: ('A' for Active; 'I' for Inactive)
REMARK    1  A    between atoms: C_2  and  C_3 
REMARK    2  A    between atoms: C_3  and  O_6 
REMARK    3  A    between atoms: C_3  and  C_4 
REMARK    4  A    between atoms: C_7  and  O_6 
REMARK    5  A    between atoms: C_9  and  C_10 
REMARK    6  A    between atoms: N_15  and  C_14 
REMARK    7  A    between atoms: N_20  and  C_19 
REMARK       I    between atoms: C_22  and  N_20 
ROOT
ATOM      1  C   LIG d   1      -2.506  93.244 119.150  0.00  0.00     0.161 C 
ATOM      2  C   LIG d   1      -3.715  93.881 119.476  0.00  0.00     0.016 C 
ATOM      3  C   LIG d   1      -4.972  93.462 118.982  0.00  0.00     0.038 C 
ATOM      4  C   LIG d   1      -5.122  92.278 118.246  0.00  0.00     0.028 C 
ATOM      5  C   LIG d   1      -3.869  91.882 117.472  0.00  0.00    -0.047 C 
ATOM      6  C   LIG d   1      -2.662  91.884 118.438  0.00  0.00     0.091 C 
ENDROOT
BRANCH   1   7
ATOM      7  O   LIG d   1      -1.696  93.100 120.334  0.00  0.00    -0.368 OA
BRANCH   7   8
ATOM      8  C   LIG d   1      -0.368  93.675 120.272  0.00  0.00     0.119 C 
BRANCH   8   9
ATOM      9  C   LIG d   1       0.613  92.640 120.856  0.00  0.00     0.028 C 
ATOM     10  C   LIG d   1       1.725  92.260 119.863  0.00  0.00     0.006 C 
ENDBRANCH   8   9
BRANCH   8  11
ATOM     11  C   LIG d   1      -0.249  94.903 121.179  0.00  0.00     0.028 C 
ATOM     12  C   LIG d   1      -0.320  94.548 122.673  0.00  0.00     0.006 C 
ENDBRANCH   8  11
ENDBRANCH   7   8
ENDBRANCH   1   7
BRANCH   6  13
ATOM     13  N   LIG d   1      -1.381  91.590 117.744  0.00  0.00    -0.311 N 
ATOM     14  C   LIG d   1      -0.856  90.369 117.662  0.00  0.00     0.210 C 
ATOM     15  C   LIG d   1       0.482  90.289 116.920  0.00  0.00     0.109 C 
ATOM     16  O   LIG d   1      -1.387  89.339 118.104  0.00  0.00    -0.276 OA
ATOM     17  H   LIG d   1      -0.899  92.363 117.330  0.00  0.00     0.149 HD
ENDBRANCH   6  13
BRANCH   5  18
ATOM     18  N   LIG d   1      -4.120  90.563 116.863  0.00  0.00     0.381 N 
ATOM     19  H   LIG d   1      -3.266  90.044 116.816  0.00  0.00    -0.090 HD
ATOM     20  H   LIG d   1      -4.459  90.696 115.926  0.00  0.00    -0.090 HD
ATOM     21  H   LIG d   1      -4.793  90.061 117.399  0.00  0.00    -0.090 HD
ENDBRANCH   5  18
BRANCH   3  22
ATOM     22  C   LIG d   1      -6.091  94.254 119.192  0.00  0.00     0.382 C 
ATOM     23  O   LIG d   1      -7.076  94.165 118.420  0.00  0.00    -0.241 OA
ATOM     24  O   LIG d   1      -6.110  95.088 120.117  0.00  0.00    -0.241 OA
ENDBRANCH   3  22
TORSDOF 7
ENDMDL
