MODEL 1
REMARK VINA RESULT:      -4.5      0.000      0.000
REMARK  7 active torsions:
REMARK  status: ('A' for Active; 'I' for Inactive)
REMARK    1  A    between atoms: C_2  and  C_3 
REMARK    2  A    between atoms: C_3  and  O_6 
REMARK    3  A    between atoms: C_3  and  C_4 
REMARK    4  A    between atoms: C_7  and  O_6 
REMARK    5  A    between atoms: C_9  and  C_10 
REMARK    6  A    between atoms: N_15  and  C_14 
REMARK    7  A    between atoms: N_20  and  C_19 
REMARK       I    between atoms: C_22  and  N_20 
ROOT
ATOM      1  C   LIG d   1      -0.662  92.313 118.972  0.00  0.00     0.161 C 
ATOM      2  C   LIG d   1      -0.520  91.010 119.478  0.00  0.00     0.016 C 
ATOM      3  C   LIG d   1      -1.489  89.996 119.298  0.00  0.00     0.038 C 
ATOM      4  C   LIG d   1      -2.603  90.174 118.465  0.00  0.00     0.028 C 
ATOM      5  C   LIG d   1      -3.043  91.629 118.345  0.00  0.00    -0.047 C 
ATOM      6  C   LIG d   1      -1.818  92.494 117.967  0.00  0.00     0.091 C 
ENDROOT
BRANCH   1   7
ATOM      7  O   LIG d   1       0.582  92.748 118.388  0.00  0.00    -0.368 OA
BRANCH   7   8
ATOM      8  C   LIG d   1       1.609  91.736 118.248  0.00  0.00     0.119 C 
BRANCH   8   9
ATOM      9  C   LIG d   1       2.945  92.367 118.686  0.00  0.00     0.028 C 
ATOM     10  C   LIG d   1       3.675  93.061 117.524  0.00  0.00     0.006 C 
ENDBRANCH   8   9
BRANCH   8  11
ATOM     11  C   LIG d   1       1.808  91.343 116.781  0.00  0.00     0.028 C 
ATOM     12  C   LIG d   1       1.158  89.995 116.431  0.00  0.00     0.006 C 
ENDBRANCH   8  11
ENDBRANCH   7   8
ENDBRANCH   1   7
BRANCH   6  13
ATOM     13  N   LIG d   1      -2.143  93.943 117.911  0.00  0.00    -0.311 N 
ATOM     14  C   LIG d   1      -2.592  94.634 118.958  0.00  0.00     0.210 C 
ATOM     15  C   LIG d   1      -2.884  96.112 118.679  0.00  0.00     0.109 C 
ATOM     16  O   LIG d   1      -2.745  94.172 120.098  0.00  0.00    -0.276 OA
ATOM     17  H   LIG d   1      -2.018  94.405 117.032  0.00  0.00     0.149 HD
ENDBRANCH   6  13
BRANCH   5  18
ATOM     18  N   LIG d   1      -4.123  91.687 117.343  0.00  0.00     0.381 N 
ATOM     19  H   LIG d   1      -4.054  92.537 116.819  0.00  0.00    -0.090 HD
ATOM     20  H   LIG d   1      -5.009  91.681 117.818  0.00  0.00    -0.090 HD
ATOM     21  H   LIG d   1      -4.062  90.904 116.730  0.00  0.00    -0.090 HD
ENDBRANCH   5  18
BRANCH   3  22
ATOM     22  C   LIG d   1      -1.367  88.799 119.989  0.00  0.00     0.382 C 
ATOM     23  O   LIG d   1      -0.231  88.315 120.210  0.00  0.00    -0.241 OA
ATOM     24  O   LIG d   1      -2.381  88.175 120.354  0.00  0.00    -0.241 OA
ENDBRANCH   3  22
TORSDOF 7
ENDMDL
MODEL 2
REMARK VINA RESULT:      -4.4      3.386      5.480
REMARK  7 active torsions:
REMARK  status: ('A' for Active; 'I' for Inactive)
REMARK    1  A    between atoms: C_2  and  C_3 
REMARK    2  A    between atoms: C_3  and  O_6 
REMARK    3  A    between atoms: C_3  and  C_4 
REMARK    4  A    between atoms: C_7  and  O_6 
REMARK    5  A    between atoms: C_9  and  C_10 
REMARK    6  A    between atoms: N_15  and  C_14 
REMARK    7  A    between atoms: N_20  and  C_19 
REMARK       I    between atoms: C_22  and  N_20 
ROOT
ATOM      1  C   LIG d   1      -4.383  93.622 119.451  0.00  0.00     0.161 C 
ATOM      2  C   LIG d   1      -5.470  93.213 118.661  0.00  0.00     0.016 C 
ATOM      3  C   LIG d   1      -6.521  94.077 118.277  0.00  0.00     0.038 C 
ATOM      4  C   LIG d   1      -6.480  95.455 118.533  0.00  0.00     0.028 C 
ATOM      5  C   LIG d   1      -5.652  95.819 119.761  0.00  0.00    -0.047 C 
ATOM      6  C   LIG d   1      -4.264  95.148 119.646  0.00  0.00     0.091 C 
ENDROOT
BRANCH   1   7
ATOM      7  O   LIG d   1      -3.158  93.089 118.911  0.00  0.00    -0.368 OA
BRANCH   7   8
ATOM      8  C   LIG d   1      -2.576  91.974 119.630  0.00  0.00     0.119 C 
BRANCH   8   9
ATOM      9  C   LIG d   1      -1.172  92.406 120.097  0.00  0.00     0.028 C 
ATOM     10  C   LIG d   1      -0.400  93.168 119.007  0.00  0.00     0.006 C 
ENDBRANCH   8   9
BRANCH   8  11
ATOM     11  C   LIG d   1      -2.345  90.775 118.705  0.00  0.00     0.028 C 
ATOM     12  C   LIG d   1      -2.018  89.485 119.474  0.00  0.00     0.006 C 
ENDBRANCH   8  11
ENDBRANCH   7   8
ENDBRANCH   1   7
BRANCH   6  13
ATOM     13  N   LIG d   1      -3.420  95.384 120.847  0.00  0.00    -0.311 N 
ATOM     14  C   LIG d   1      -2.217  95.953 120.798  0.00  0.00     0.210 C 
ATOM     15  C   LIG d   1      -1.507  96.083 122.149  0.00  0.00     0.109 C 
ATOM     16  O   LIG d   1      -1.684  96.392 119.767  0.00  0.00    -0.276 OA
ATOM     17  H   LIG d   1      -3.789  95.086 121.729  0.00  0.00     0.149 HD
ENDBRANCH   6  13
BRANCH   5  18
ATOM     18  N   LIG d   1      -5.580  97.290 119.830  0.00  0.00     0.381 N 
ATOM     19  H   LIG d   1      -6.205  97.692 119.161  0.00  0.00    -0.090 HD
ATOM     20  H   LIG d   1      -4.645  97.581 119.603  0.00  0.00    -0.090 HD
ATOM     21  H   LIG d   1      -5.818  97.601 120.747  0.00  0.00    -0.090 HD
ENDBRANCH   5  18
BRANCH   3  22
ATOM     22  C   LIG d   1      -7.650  93.555 117.663  0.00  0.00     0.382 C 
ATOM     23  O   LIG d   1      -8.779  94.046 117.905  0.00  0.00    -0.241 OA
ATOM     24  O   LIG d   1      -7.559  92.571 116.905  0.00  0.00    -0.241 OA
ENDBRANCH   3  22
TORSDOF 7
ENDMDL
MODEL 3
REMARK VINA RESULT:      -4.4      2.517      4.473
REMARK  7 active torsions:
REMARK  status: ('A' for Active; 'I' for Inactive)
REMARK    1  A    between atoms: C_2  and  C_3 
REMARK    2  A    between atoms: C_3  and  O_6 
REMARK    3  A    between atoms: C_3  and  C_4 
REMARK    4  A    between atoms: C_7  and  O_6 
REMARK    5  A    between atoms: C_9  and  C_10 
REMARK    6  A    between atoms: N_15  and  C_14 
REMARK    7  A    between atoms: N_20  and  C_19 
REMARK       I    between atoms: C_22  and  N_20 
ROOT
ATOM      1  C   LIG d   1       0.905  90.935 118.165  0.00  0.00     0.161 C 
ATOM      2  C   LIG d   1      -0.453  90.609 118.010  0.00  0.00     0.016 C 
ATOM      3  C   LIG d   1      -1.493  91.565 118.058  0.00  0.00     0.038 C 
ATOM      4  C   LIG d   1      -1.233  92.942 118.113  0.00  0.00     0.028 C 
ATOM      5  C   LIG d   1       0.098  93.281 118.777  0.00  0.00    -0.047 C 
ATOM      6  C   LIG d   1       1.216  92.445 118.114  0.00  0.00     0.091 C 
ENDROOT
BRANCH   1   7
ATOM      7  O   LIG d   1       1.691  90.228 117.185  0.00  0.00    -0.368 OA
BRANCH   7   8
ATOM      8  C   LIG d   1       2.154  88.910 117.570  0.00  0.00     0.119 C 
BRANCH   8   9
ATOM      9  C   LIG d   1       2.704  89.014 119.006  0.00  0.00     0.028 C 
ATOM     10  C   LIG d   1       2.241  87.849 119.897  0.00  0.00     0.006 C 
ENDBRANCH   8   9
BRANCH   8  11
ATOM     11  C   LIG d   1       3.342  88.464 116.712  0.00  0.00     0.028 C 
ATOM     12  C   LIG d   1       4.455  89.521 116.640  0.00  0.00     0.006 C 
ENDBRANCH   8  11
ENDBRANCH   7   8
ENDBRANCH   1   7
BRANCH   6  13
ATOM     13  N   LIG d   1       2.538  92.654 118.761  0.00  0.00    -0.311 N 
ATOM     14  C   LIG d   1       3.656  92.904 118.081  0.00  0.00     0.210 C 
ATOM     15  C   LIG d   1       4.913  93.066 118.941  0.00  0.00     0.109 C 
ATOM     16  O   LIG d   1       3.720  93.038 116.850  0.00  0.00    -0.276 OA
ATOM     17  H   LIG d   1       2.572  92.592 119.760  0.00  0.00     0.149 HD
ENDBRANCH   6  13
BRANCH   5  18
ATOM     18  N   LIG d   1       0.305  94.735 118.644  0.00  0.00     0.381 N 
ATOM     19  H   LIG d   1      -0.303  95.100 117.938  0.00  0.00    -0.090 HD
ATOM     20  H   LIG d   1       1.254  94.903 118.359  0.00  0.00    -0.090 HD
ATOM     21  H   LIG d   1       0.126  95.186 119.513  0.00  0.00    -0.090 HD
ENDBRANCH   5  18
BRANCH   3  22
ATOM     22  C   LIG d   1      -2.814  91.143 118.091  0.00  0.00     0.382 C 
ATOM     23  O   LIG d   1      -3.735  91.978 118.256  0.00  0.00    -0.241 OA
ATOM     24  O   LIG d   1      -3.092  89.932 118.003  0.00  0.00    -0.241 OA
ENDBRANCH   3  22
TORSDOF 7
ENDMDL
MODEL 4
REMARK VINA RESULT:      -4.3      3.260      5.865
REMARK  7 active torsions:
REMARK  status: ('A' for Active; 'I' for Inactive)
REMARK    1  A    between atoms: C_2  and  C_3 
REMARK    2  A    between atoms: C_3  and  O_6 
REMARK    3  A    between atoms: C_3  and  C_4 
REMARK    4  A    between atoms: C_7  and  O_6 
REMARK    5  A    between atoms: C_9  and  C_10 
REMARK    6  A    between atoms: N_15  and  C_14 
REMARK    7  A    between atoms: N_20  and  C_19 
REMARK       I    between atoms: C_22  and  N_20 
ROOT
ATOM      1  C   LIG d   1       3.256  92.661 117.191  0.00  0.00     0.161 C 
ATOM      2  C   LIG d   1       4.597  92.241 117.216  0.00  0.00     0.016 C 
ATOM      3  C   LIG d   1       5.454  92.442 118.322  0.00  0.00     0.038 C 
ATOM      4  C   LIG d   1       4.984  92.944 119.544  0.00  0.00     0.028 C 
ATOM      5  C   LIG d   1       3.762  93.846 119.398  0.00  0.00    -0.047 C 
ATOM      6  C   LIG d   1       2.694  93.111 118.556  0.00  0.00     0.091 C 
ENDROOT
BRANCH   1   7
ATOM      7  O   LIG d   1       2.430  91.623 116.627  0.00  0.00    -0.368 OA
BRANCH   7   8
ATOM      8  C   LIG d   1       2.339  90.395 117.389  0.00  0.00     0.119 C 
BRANCH   8   9
ATOM      9  C   LIG d   1       2.658  89.231 116.431  0.00  0.00     0.028 C 
ATOM     10  C   LIG d   1       4.042  88.616 116.694  0.00  0.00     0.006 C 
ENDBRANCH   8   9
BRANCH   8  11
ATOM     11  C   LIG d   1       0.908  90.143 117.872  0.00  0.00     0.028 C 
ATOM     12  C   LIG d   1      -0.148  90.827 116.989  0.00  0.00     0.006 C 
ENDBRANCH   8  11
ENDBRANCH   7   8
ENDBRANCH   1   7
BRANCH   6  13
ATOM     13  N   LIG d   1       1.499  93.955 118.294  0.00  0.00    -0.311 N 
ATOM     14  C   LIG d   1       0.400  93.923 119.045  0.00  0.00     0.210 C 
ATOM     15  C   LIG d   1      -0.723  94.860 118.589  0.00  0.00     0.109 C 
ATOM     16  O   LIG d   1       0.260  93.231 120.065  0.00  0.00    -0.276 OA
ATOM     17  H   LIG d   1       1.539  94.569 117.504  0.00  0.00     0.149 HD
ENDBRANCH   6  13
BRANCH   5  18
ATOM     18  N   LIG d   1       3.295  94.186 120.755  0.00  0.00     0.381 N 
ATOM     19  H   LIG d   1       3.885  94.891 121.149  0.00  0.00    -0.090 HD
ATOM     20  H   LIG d   1       3.352  93.367 121.334  0.00  0.00    -0.090 HD
ATOM     21  H   LIG d   1       2.354  94.512 120.720  0.00  0.00    -0.090 HD
ENDBRANCH   5  18
BRANCH   3  22
ATOM     22  C   LIG d   1       6.809  92.175 118.198  0.00  0.00     0.382 C 
ATOM     23  O   LIG d   1       7.229  91.499 117.227  0.00  0.00    -0.241 OA
ATOM     24  O   LIG d   1       7.612  92.563 119.067  0.00  0.00    -0.241 OA
ENDBRANCH   3  22
TORSDOF 7
ENDMDL
MODEL 5
REMARK VINA RESULT:      -4.3      1.169      1.921
REMARK  7 active torsions:
REMARK  status: ('A' for Active; 'I' for Inactive)
REMARK    1  A    between atoms: C_2  and  C_3 
REMARK    2  A    between atoms: C_3  and  O_6 
REMARK    3  A    between atoms: C_3  and  C_4 
REMARK    4  A    between atoms: C_7  and  O_6 
REMARK    5  A    between atoms: C_9  and  C_10 
REMARK    6  A    between atoms: N_15  and  C_14 
REMARK    7  A    between atoms: N_20  and  C_19 
REMARK       I    between atoms: C_22  and  N_20 
ROOT
ATOM      1  C   LIG d   1      -0.605  92.325 118.902  0.00  0.00     0.161 C 
ATOM      2  C   LIG d   1      -0.463  91.024 119.413  0.00  0.00     0.016 C 
ATOM      3  C   LIG d   1      -1.448  90.020 119.270  0.00  0.00     0.038 C 
ATOM      4  C   LIG d   1      -2.585  90.206 118.470  0.00  0.00     0.028 C 
ATOM      5  C   LIG d   1      -3.012  91.665 118.353  0.00  0.00    -0.047 C 
ATOM      6  C   LIG d   1      -1.790  92.513 117.931  0.00  0.00     0.091 C 
ENDROOT
BRANCH   1   7
ATOM      7  O   LIG d   1       0.625  92.742 118.277  0.00  0.00    -0.368 OA
BRANCH   7   8
ATOM      8  C   LIG d   1       1.237  93.942 118.811  0.00  0.00     0.119 C 
BRANCH   8   9
ATOM      9  C   LIG d   1       2.757  93.699 118.872  0.00  0.00     0.028 C 
ATOM     10  C   LIG d   1       3.304  93.070 117.580  0.00  0.00     0.006 C 
ENDBRANCH   8   9
BRANCH   8  11
ATOM     11  C   LIG d   1       0.807  94.189 120.260  0.00  0.00     0.028 C 
ATOM     12  C   LIG d   1       1.945  94.739 121.133  0.00  0.00     0.006 C 
ENDBRANCH   8  11
ENDBRANCH   7   8
ENDBRANCH   1   7
BRANCH   6  13
ATOM     13  N   LIG d   1      -2.099  93.965 117.875  0.00  0.00    -0.311 N 
ATOM     14  C   LIG d   1      -2.569  94.655 118.913  0.00  0.00     0.210 C 
ATOM     15  C   LIG d   1      -2.840  96.137 118.635  0.00  0.00     0.109 C 
ATOM     16  O   LIG d   1      -2.757  94.188 120.046  0.00  0.00    -0.276 OA
ATOM     17  H   LIG d   1      -1.946  94.431 117.002  0.00  0.00     0.149 HD
ENDBRANCH   6  13
BRANCH   5  18
ATOM     18  N   LIG d   1      -4.122  91.729 117.384  0.00  0.00     0.381 N 
ATOM     19  H   LIG d   1      -4.087  92.595 116.885  0.00  0.00    -0.090 HD
ATOM     20  H   LIG d   1      -4.992  91.688 117.884  0.00  0.00    -0.090 HD
ATOM     21  H   LIG d   1      -4.061  90.967 116.745  0.00  0.00    -0.090 HD
ENDBRANCH   5  18
BRANCH   3  22
ATOM     22  C   LIG d   1      -1.319  88.827 119.965  0.00  0.00     0.382 C 
ATOM     23  O   LIG d   1      -0.179  88.354 120.192  0.00  0.00    -0.241 OA
ATOM     24  O   LIG d   1      -2.329  88.195 120.328  0.00  0.00    -0.241 OA
ENDBRANCH   3  22
TORSDOF 7
ENDMDL
MODEL 6
REMARK VINA RESULT:      -4.3      3.396      5.284
REMARK  7 active torsions:
REMARK  status: ('A' for Active; 'I' for Inactive)
REMARK    1  A    between atoms: C_2  and  C_3 
REMARK    2  A    between atoms: C_3  and  O_6 
REMARK    3  A    between atoms: C_3  and  C_4 
REMARK    4  A    between atoms: C_7  and  O_6 
REMARK    5  A    between atoms: C_9  and  C_10 
REMARK    6  A    between atoms: N_15  and  C_14 
REMARK    7  A    between atoms: N_20  and  C_19 
REMARK       I    between atoms: C_22  and  N_20 
ROOT
ATOM      1  C   LIG d   1      -4.773  93.788 119.821  0.00  0.00     0.161 C 
ATOM      2  C   LIG d   1      -3.695  92.978 119.424  0.00  0.00     0.016 C 
ATOM      3  C   LIG d   1      -3.766  92.060 118.351  0.00  0.00     0.038 C 
ATOM      4  C   LIG d   1      -4.879  91.998 117.500  0.00  0.00     0.028 C 
ATOM      5  C   LIG d   1      -6.178  92.436 118.169  0.00  0.00    -0.047 C 
ATOM      6  C   LIG d   1      -5.959  93.814 118.835  0.00  0.00     0.091 C 
ENDROOT
BRANCH   1   7
ATOM      7  O   LIG d   1      -4.308  95.127 120.081  0.00  0.00    -0.368 OA
BRANCH   7   8
ATOM      8  C   LIG d   1      -2.955  95.425 119.658  0.00  0.00     0.119 C 
BRANCH   8   9
ATOM      9  C   LIG d   1      -2.165  95.864 120.907  0.00  0.00     0.028 C 
ATOM     10  C   LIG d   1      -0.712  95.361 120.889  0.00  0.00     0.006 C 
ENDBRANCH   8   9
BRANCH   8  11
ATOM     11  C   LIG d   1      -2.919  96.629 118.712  0.00  0.00     0.028 C 
ATOM     12  C   LIG d   1      -4.317  97.048 118.229  0.00  0.00     0.006 C 
ENDBRANCH   8  11
ENDBRANCH   7   8
ENDBRANCH   1   7
BRANCH   6  13
ATOM     13  N   LIG d   1      -7.156  94.278 119.584  0.00  0.00    -0.311 N 
ATOM     14  C   LIG d   1      -8.100  95.053 119.052  0.00  0.00     0.210 C 
ATOM     15  C   LIG d   1      -9.238  95.432 120.004  0.00  0.00     0.109 C 
ATOM     16  O   LIG d   1      -8.118  95.436 117.872  0.00  0.00    -0.276 OA
ATOM     17  H   LIG d   1      -7.237  93.988 120.539  0.00  0.00     0.149 HD
ENDBRANCH   6  13
BRANCH   5  18
ATOM     18  N   LIG d   1      -7.228  92.455 117.134  0.00  0.00     0.381 N 
ATOM     19  H   LIG d   1      -7.035  91.758 116.443  0.00  0.00    -0.090 HD
ATOM     20  H   LIG d   1      -7.226  93.353 116.684  0.00  0.00    -0.090 HD
ATOM     21  H   LIG d   1      -8.118  92.284 117.548  0.00  0.00    -0.090 HD
ENDBRANCH   5  18
BRANCH   3  22
ATOM     22  C   LIG d   1      -2.729  91.163 118.145  0.00  0.00     0.382 C 
ATOM     23  O   LIG d   1      -2.981  89.960 117.893  0.00  0.00    -0.241 OA
ATOM     24  O   LIG d   1      -1.544  91.533 118.251  0.00  0.00    -0.241 OA
ENDBRANCH   3  22
TORSDOF 7
ENDMDL
MODEL 7
REMARK VINA RESULT:      -4.3      2.390      4.289
REMARK  7 active torsions:
REMARK  status: ('A' for Active; 'I' for Inactive)
REMARK    1  A    between atoms: C_2  and  C_3 
REMARK    2  A    between atoms: C_3  and  O_6 
REMARK    3  A    between atoms: C_3  and  C_4 
REMARK    4  A    between atoms: C_7  and  O_6 
REMARK    5  A    between atoms: C_9  and  C_10 
REMARK    6  A    between atoms: N_15  and  C_14 
REMARK    7  A    between atoms: N_20  and  C_19 
REMARK       I    between atoms: C_22  and  N_20 
ROOT
ATOM      1  C   LIG d   1      -0.387  92.015 120.025  0.00  0.00     0.161 C 
ATOM      2  C   LIG d   1      -1.645  91.627 119.535  0.00  0.00     0.016 C 
ATOM      3  C   LIG d   1      -2.413  92.417 118.649  0.00  0.00     0.038 C 
ATOM      4  C   LIG d   1      -1.904  93.589 118.071  0.00  0.00     0.028 C 
ATOM      5  C   LIG d   1      -0.844  94.276 118.925  0.00  0.00    -0.047 C 
ATOM      6  C   LIG d   1       0.233  93.238 119.318  0.00  0.00     0.091 C 
ENDROOT
BRANCH   1   7
ATOM      7  O   LIG d   1       0.521  90.897 119.980  0.00  0.00    -0.368 OA
BRANCH   7   8
ATOM      8  C   LIG d   1       0.146  89.806 119.103  0.00  0.00     0.119 C 
BRANCH   8   9
ATOM      9  C   LIG d   1       0.466  88.490 119.838  0.00  0.00     0.028 C 
ATOM     10  C   LIG d   1      -0.745  87.937 120.607  0.00  0.00     0.006 C 
ENDBRANCH   8   9
BRANCH   8  11
ATOM     11  C   LIG d   1       1.009  89.785 117.838  0.00  0.00     0.028 C 
ATOM     12  C   LIG d   1       0.277  90.343 116.608  0.00  0.00     0.006 C 
ENDBRANCH   8  11
ENDBRANCH   7   8
ENDBRANCH   1   7
BRANCH   6  13
ATOM     13  N   LIG d   1       1.264  93.807 120.225  0.00  0.00    -0.311 N 
ATOM     14  C   LIG d   1       2.532  93.995 119.866  0.00  0.00     0.210 C 
ATOM     15  C   LIG d   1       3.435  94.575 120.959  0.00  0.00     0.109 C 
ATOM     16  O   LIG d   1       2.989  93.767 118.735  0.00  0.00    -0.276 OA
ATOM     17  H   LIG d   1       0.972  94.050 121.151  0.00  0.00     0.149 HD
ENDBRANCH   6  13
BRANCH   5  18
ATOM     18  N   LIG d   1      -0.303  95.403 118.143  0.00  0.00     0.381 N 
ATOM     19  H   LIG d   1      -1.004  95.750 117.519  0.00  0.00    -0.090 HD
ATOM     20  H   LIG d   1       0.473  95.076 117.595  0.00  0.00    -0.090 HD
ATOM     21  H   LIG d   1      -0.003  96.130 118.755  0.00  0.00    -0.090 HD
ENDBRANCH   5  18
BRANCH   3  22
ATOM     22  C   LIG d   1      -3.722  92.057 118.365  0.00  0.00     0.382 C 
ATOM     23  O   LIG d   1      -3.954  91.057 117.643  0.00  0.00    -0.241 OA
ATOM     24  O   LIG d   1      -4.672  92.744 118.785  0.00  0.00    -0.241 OA
ENDBRANCH   3  22
TORSDOF 7
ENDMDL
MODEL 8
REMARK VINA RESULT:      -4.2      2.582      4.863
REMARK  7 active torsions:
REMARK  status: ('A' for Active; 'I' for Inactive)
REMARK    1  A    between atoms: C_2  and  C_3 
REMARK    2  A    between atoms: C_3  and  O_6 
REMARK    3  A    between atoms: C_3  and  C_4 
REMARK    4  A    between atoms: C_7  and  O_6 
REMARK    5  A    between atoms: C_9  and  C_10 
REMARK    6  A    between atoms: N_15  and  C_14 
REMARK    7  A    between atoms: N_20  and  C_19 
REMARK       I    between atoms: C_22  and  N_20 
ROOT
ATOM      1  C   LIG d   1      -1.858  93.517 118.721  0.00  0.00     0.161 C 
ATOM      2  C   LIG d   1      -3.211  93.644 119.078  0.00  0.00     0.016 C 
ATOM      3  C   LIG d   1      -3.837  94.887 119.324  0.00  0.00     0.038 C 
ATOM      4  C   LIG d   1      -3.187  96.106 119.081  0.00  0.00     0.028 C 
ATOM      5  C   LIG d   1      -1.670  96.019 119.206  0.00  0.00    -0.047 C 
ATOM      6  C   LIG d   1      -1.162  94.841 118.342  0.00  0.00     0.091 C 
ENDROOT
BRANCH   1   7
ATOM      7  O   LIG d   1      -1.722  92.557 117.654  0.00  0.00    -0.368 OA
BRANCH   7   8
ATOM      8  C   LIG d   1      -1.044  91.322 117.991  0.00  0.00     0.119 C 
BRANCH   8   9
ATOM      9  C   LIG d   1      -0.098  90.980 116.823  0.00  0.00     0.028 C 
ATOM     10  C   LIG d   1       1.375  91.271 117.157  0.00  0.00     0.006 C 
ENDBRANCH   8   9
BRANCH   8  11
ATOM     11  C   LIG d   1      -2.027  90.150 118.073  0.00  0.00     0.028 C 
ATOM     12  C   LIG d   1      -2.081  89.514 119.471  0.00  0.00     0.006 C 
ENDBRANCH   8  11
ENDBRANCH   7   8
ENDBRANCH   1   7
BRANCH   6  13
ATOM     13  N   LIG d   1       0.303  94.633 118.474  0.00  0.00    -0.311 N 
ATOM     14  C   LIG d   1       0.883  94.184 119.586  0.00  0.00     0.210 C 
ATOM     15  C   LIG d   1       2.409  94.061 119.515  0.00  0.00     0.109 C 
ATOM     16  O   LIG d   1       0.276  93.846 120.613  0.00  0.00    -0.276 OA
ATOM     17  H   LIG d   1       0.869  94.853 117.677  0.00  0.00     0.149 HD
ENDBRANCH   6  13
BRANCH   5  18
ATOM     18  N   LIG d   1      -1.113  97.321 118.793  0.00  0.00     0.381 N 
ATOM     19  H   LIG d   1      -0.947  97.889 119.599  0.00  0.00    -0.090 HD
ATOM     20  H   LIG d   1      -1.783  97.790 118.209  0.00  0.00    -0.090 HD
ATOM     21  H   LIG d   1      -0.262  97.184 118.292  0.00  0.00    -0.090 HD
ENDBRANCH   5  18
BRANCH   3  22
ATOM     22  C   LIG d   1      -5.117  94.918 119.857  0.00  0.00     0.382 C 
ATOM     23  O   LIG d   1      -5.585  95.993 120.303  0.00  0.00    -0.241 OA
ATOM     24  O   LIG d   1      -5.793  93.874 119.939  0.00  0.00    -0.241 OA
ENDBRANCH   3  22
TORSDOF 7
ENDMDL
MODEL 9
REMARK VINA RESULT:      -4.1      3.301      5.326
REMARK  7 active torsions:
REMARK  status: ('A' for Active; 'I' for Inactive)
REMARK    1  A    between atoms: C_2  and  C_3 
REMARK    2  A    between atoms: C_3  and  O_6 
REMARK    3  A    between atoms: C_3  and  C_4 
REMARK    4  A    between atoms: C_7  and  O_6 
REMARK    5  A    between atoms: C_9  and  C_10 
REMARK    6  A    between atoms: N_15  and  C_14 
REMARK    7  A    between atoms: N_20  and  C_19 
REMARK       I    between atoms: C_22  and  N_20 
ROOT
ATOM      1  C   LIG d   1       1.510  90.765 116.947  0.00  0.00     0.161 C 
ATOM      2  C   LIG d   1       0.160  91.107 117.131  0.00  0.00     0.016 C 
ATOM      3  C   LIG d   1      -0.657  90.539 118.136  0.00  0.00     0.038 C 
ATOM      4  C   LIG d   1      -0.133  89.696 119.128  0.00  0.00     0.028 C 
ATOM      5  C   LIG d   1       1.107  88.931 118.680  0.00  0.00    -0.047 C 
ATOM      6  C   LIG d   1       2.127  89.931 118.089  0.00  0.00     0.091 C 
ENDROOT
BRANCH   1   7
ATOM      7  O   LIG d   1       2.289  91.957 116.719  0.00  0.00    -0.368 OA
BRANCH   7   8
ATOM      8  C   LIG d   1       2.952  92.516 117.879  0.00  0.00     0.119 C 
BRANCH   8   9
ATOM      9  C   LIG d   1       2.080  93.676 118.397  0.00  0.00     0.028 C 
ATOM     10  C   LIG d   1       1.491  93.391 119.788  0.00  0.00     0.006 C 
ENDBRANCH   8   9
BRANCH   8  11
ATOM     11  C   LIG d   1       4.292  93.154 117.501  0.00  0.00     0.028 C 
ATOM     12  C   LIG d   1       5.391  92.894 118.544  0.00  0.00     0.006 C 
ENDBRANCH   8  11
ENDBRANCH   7   8
ENDBRANCH   1   7
BRANCH   6  13
ATOM     13  N   LIG d   1       3.336  89.256 117.549  0.00  0.00    -0.311 N 
ATOM     14  C   LIG d   1       4.466  89.113 118.240  0.00  0.00     0.210 C 
ATOM     15  C   LIG d   1       5.597  88.403 117.489  0.00  0.00     0.109 C 
ATOM     16  O   LIG d   1       4.628  89.477 119.414  0.00  0.00    -0.276 OA
ATOM     17  H   LIG d   1       3.282  88.902 116.614  0.00  0.00     0.149 HD
ENDBRANCH   6  13
BRANCH   5  18
ATOM     18  N   LIG d   1       1.627  88.200 119.851  0.00  0.00     0.381 N 
ATOM     19  H   LIG d   1       1.592  87.215 119.678  0.00  0.00    -0.090 HD
ATOM     20  H   LIG d   1       1.045  88.402 120.644  0.00  0.00    -0.090 HD
ATOM     21  H   LIG d   1       2.565  88.479 120.038  0.00  0.00    -0.090 HD
ENDBRANCH   5  18
BRANCH   3  22
ATOM     22  C   LIG d   1      -2.022  90.782 118.131  0.00  0.00     0.382 C 
ATOM     23  O   LIG d   1      -2.451  91.952 118.279  0.00  0.00    -0.241 OA
ATOM     24  O   LIG d   1      -2.831  89.841 118.025  0.00  0.00    -0.241 OA
ENDBRANCH   3  22
TORSDOF 7
ENDMDL
