MODEL 1
REMARK VINA RESULT:      -4.7      0.000      0.000
REMARK  7 active torsions:
REMARK  status: ('A' for Active; 'I' for Inactive)
REMARK    1  A    between atoms: C_2  and  C_3 
REMARK    2  A    between atoms: C_3  and  O_6 
REMARK    3  A    between atoms: C_3  and  C_4 
REMARK    4  A    between atoms: C_7  and  O_6 
REMARK    5  A    between atoms: C_9  and  C_10 
REMARK    6  A    between atoms: N_15  and  C_14 
REMARK    7  A    between atoms: N_20  and  C_19 
REMARK       I    between atoms: C_22  and  N_20 
ROOT
ATOM      1  C   LIG d   1      -5.324  92.508 119.233  0.00  0.00     0.161 C 
ATOM      2  C   LIG d   1      -5.540  91.399 118.398  0.00  0.00     0.016 C 
ATOM      3  C   LIG d   1      -6.498  91.382 117.359  0.00  0.00     0.038 C 
ATOM      4  C   LIG d   1      -7.207  92.533 116.985  0.00  0.00     0.028 C 
ATOM      5  C   LIG d   1      -7.387  93.531 118.124  0.00  0.00    -0.047 C 
ATOM      6  C   LIG d   1      -6.010  93.810 118.769  0.00  0.00     0.091 C 
ENDROOT
BRANCH   1   7
ATOM      7  O   LIG d   1      -3.910  92.721 119.408  0.00  0.00    -0.368 OA
BRANCH   7   8
ATOM      8  C   LIG d   1      -3.148  92.963 118.199  0.00  0.00     0.119 C 
BRANCH   8   9
ATOM      9  C   LIG d   1      -1.896  92.067 118.254  0.00  0.00     0.028 C 
ATOM     10  C   LIG d   1      -2.071  90.764 117.455  0.00  0.00     0.006 C 
ENDBRANCH   8   9
BRANCH   8  11
ATOM     11  C   LIG d   1      -2.617  94.399 118.154  0.00  0.00     0.028 C 
ATOM     12  C   LIG d   1      -2.406  95.001 119.553  0.00  0.00     0.006 C 
ENDBRANCH   8  11
ENDBRANCH   7   8
ENDBRANCH   1   7
BRANCH   6  13
ATOM     13  N   LIG d   1      -6.107  94.712 119.946  0.00  0.00    -0.311 N 
ATOM     14  C   LIG d   1      -5.938  96.031 119.875  0.00  0.00     0.210 C 
ATOM     15  C   LIG d   1      -6.061  96.771 121.210  0.00  0.00     0.109 C 
ATOM     16  O   LIG d   1      -5.729  96.662 118.828  0.00  0.00    -0.276 OA
ATOM     17  H   LIG d   1      -6.305  94.287 120.831  0.00  0.00     0.149 HD
ENDBRANCH   6  13
BRANCH   5  18
ATOM     18  N   LIG d   1      -8.018  94.740 117.562  0.00  0.00     0.381 N 
ATOM     19  H   LIG d   1      -8.896  94.904 118.012  0.00  0.00    -0.090 HD
ATOM     20  H   LIG d   1      -8.188  94.593 116.583  0.00  0.00    -0.090 HD
ATOM     21  H   LIG d   1      -7.420  95.527 117.689  0.00  0.00    -0.090 HD
ENDBRANCH   5  18
BRANCH   3  22
ATOM     22  C   LIG d   1      -6.785  90.192 116.708  0.00  0.00     0.382 C 
ATOM     23  O   LIG d   1      -7.973  89.898 116.432  0.00  0.00    -0.241 OA
ATOM     24  O   LIG d   1      -5.875  89.387 116.433  0.00  0.00    -0.241 OA
ENDBRANCH   3  22
TORSDOF 7
ENDMDL
MODEL 2
REMARK VINA RESULT:      -4.6      2.162      4.106
REMARK  7 active torsions:
REMARK  status: ('A' for Active; 'I' for Inactive)
REMARK    1  A    between atoms: C_2  and  C_3 
REMARK    2  A    between atoms: C_3  and  O_6 
REMARK    3  A    between atoms: C_3  and  C_4 
REMARK    4  A    between atoms: C_7  and  O_6 
REMARK    5  A    between atoms: C_9  and  C_10 
REMARK    6  A    between atoms: N_15  and  C_14 
REMARK    7  A    between atoms: N_20  and  C_19 
REMARK       I    between atoms: C_22  and  N_20 
ROOT
ATOM      1  C   LIG d   1      -5.868  93.738 118.247  0.00  0.00     0.161 C 
ATOM      2  C   LIG d   1      -6.492  92.535 117.875  0.00  0.00     0.016 C 
ATOM      3  C   LIG d   1      -5.787  91.412 117.385  0.00  0.00     0.038 C 
ATOM      4  C   LIG d   1      -4.385  91.363 117.375  0.00  0.00     0.028 C 
ATOM      5  C   LIG d   1      -3.731  92.736 117.266  0.00  0.00    -0.047 C 
ATOM      6  C   LIG d   1      -4.330  93.664 118.348  0.00  0.00     0.091 C 
ENDROOT
BRANCH   1   7
ATOM      7  O   LIG d   1      -6.429  94.217 119.485  0.00  0.00    -0.368 OA
BRANCH   7   8
ATOM      8  C   LIG d   1      -7.520  95.163 119.366  0.00  0.00     0.119 C 
BRANCH   8   9
ATOM      9  C   LIG d   1      -6.905  96.576 119.319  0.00  0.00     0.028 C 
ATOM     10  C   LIG d   1      -7.033  97.226 117.931  0.00  0.00     0.006 C 
ENDBRANCH   8   9
BRANCH   8  11
ATOM     11  C   LIG d   1      -8.409  95.149 120.613  0.00  0.00     0.028 C 
ATOM     12  C   LIG d   1      -7.970  94.098 121.645  0.00  0.00     0.006 C 
ENDBRANCH   8  11
ENDBRANCH   7   8
ENDBRANCH   1   7
BRANCH   6  13
ATOM     13  N   LIG d   1      -3.806  95.052 118.257  0.00  0.00    -0.311 N 
ATOM     14  C   LIG d   1      -3.293  95.711 119.295  0.00  0.00     0.210 C 
ATOM     15  C   LIG d   1      -2.829  97.139 118.989  0.00  0.00     0.109 C 
ATOM     16  O   LIG d   1      -3.149  95.238 120.432  0.00  0.00    -0.276 OA
ATOM     17  H   LIG d   1      -3.856  95.501 117.364  0.00  0.00     0.149 HD
ENDBRANCH   6  13
BRANCH   5  18
ATOM     18  N   LIG d   1      -2.275  92.549 117.406  0.00  0.00     0.381 N 
ATOM     19  H   LIG d   1      -1.896  92.190 116.553  0.00  0.00    -0.090 HD
ATOM     20  H   LIG d   1      -2.102  91.879 118.135  0.00  0.00    -0.090 HD
ATOM     21  H   LIG d   1      -1.840  93.416 117.632  0.00  0.00    -0.090 HD
ENDBRANCH   5  18
BRANCH   3  22
ATOM     22  C   LIG d   1      -6.487  90.337 116.860  0.00  0.00     0.382 C 
ATOM     23  O   LIG d   1      -7.742  90.347 116.855  0.00  0.00    -0.241 OA
ATOM     24  O   LIG d   1      -5.881  89.337 116.431  0.00  0.00    -0.241 OA
ENDBRANCH   3  22
TORSDOF 7
ENDMDL
MODEL 3
REMARK VINA RESULT:      -4.6      1.960      3.098
REMARK  7 active torsions:
REMARK  status: ('A' for Active; 'I' for Inactive)
REMARK    1  A    between atoms: C_2  and  C_3 
REMARK    2  A    between atoms: C_3  and  O_6 
REMARK    3  A    between atoms: C_3  and  C_4 
REMARK    4  A    between atoms: C_7  and  O_6 
REMARK    5  A    between atoms: C_9  and  C_10 
REMARK    6  A    between atoms: N_15  and  C_14 
REMARK    7  A    between atoms: N_20  and  C_19 
REMARK       I    between atoms: C_22  and  N_20 
ROOT
ATOM      1  C   LIG d   1      -5.312  92.215 119.533  0.00  0.00     0.161 C 
ATOM      2  C   LIG d   1      -4.232  91.461 119.046  0.00  0.00     0.016 C 
ATOM      3  C   LIG d   1      -4.273  90.733 117.835  0.00  0.00     0.038 C 
ATOM      4  C   LIG d   1      -5.354  90.833 116.947  0.00  0.00     0.028 C 
ATOM      5  C   LIG d   1      -6.671  91.181 117.632  0.00  0.00    -0.047 C 
ATOM      6  C   LIG d   1      -6.460  92.426 118.523  0.00  0.00     0.091 C 
ENDROOT
BRANCH   1   7
ATOM      7  O   LIG d   1      -4.839  93.484 120.026  0.00  0.00    -0.368 OA
BRANCH   7   8
ATOM      8  C   LIG d   1      -4.505  94.474 119.022  0.00  0.00     0.119 C 
BRANCH   8   9
ATOM      9  C   LIG d   1      -2.980  94.694 119.079  0.00  0.00     0.028 C 
ATOM     10  C   LIG d   1      -2.266  94.187 117.815  0.00  0.00     0.006 C 
ENDBRANCH   8   9
BRANCH   8  11
ATOM     11  C   LIG d   1      -5.124  95.835 119.353  0.00  0.00     0.028 C 
ATOM     12  C   LIG d   1      -5.782  95.868 120.741  0.00  0.00     0.006 C 
ENDBRANCH   8  11
ENDBRANCH   7   8
ENDBRANCH   1   7
BRANCH   6  13
ATOM     13  N   LIG d   1      -7.678  92.784 119.295  0.00  0.00    -0.311 N 
ATOM     14  C   LIG d   1      -8.401  93.878 119.059  0.00  0.00     0.210 C 
ATOM     15  C   LIG d   1      -9.607  94.068 119.985  0.00  0.00     0.109 C 
ATOM     16  O   LIG d   1      -8.176  94.692 118.151  0.00  0.00    -0.276 OA
ATOM     17  H   LIG d   1      -7.951  92.163 120.031  0.00  0.00     0.149 HD
ENDBRANCH   6  13
BRANCH   5  18
ATOM     18  N   LIG d   1      -7.681  91.389 116.578  0.00  0.00     0.381 N 
ATOM     19  H   LIG d   1      -8.052  92.316 116.642  0.00  0.00    -0.090 HD
ATOM     20  H   LIG d   1      -8.434  90.738 116.715  0.00  0.00    -0.090 HD
ATOM     21  H   LIG d   1      -7.271  91.249 115.680  0.00  0.00    -0.090 HD
ENDBRANCH   5  18
BRANCH   3  22
ATOM     22  C   LIG d   1      -3.241  89.862 117.521  0.00  0.00     0.382 C 
ATOM     23  O   LIG d   1      -2.056  90.172 117.790  0.00  0.00    -0.241 OA
ATOM     24  O   LIG d   1      -3.477  88.790 116.932  0.00  0.00    -0.241 OA
ENDBRANCH   3  22
TORSDOF 7
ENDMDL
MODEL 4
REMARK VINA RESULT:      -4.6      2.900      4.690
REMARK  7 active torsions:
REMARK  status: ('A' for Active; 'I' for Inactive)
REMARK    1  A    between atoms: C_2  and  C_3 
REMARK    2  A    between atoms: C_3  and  O_6 
REMARK    3  A    between atoms: C_3  and  C_4 
REMARK    4  A    between atoms: C_7  and  O_6 
REMARK    5  A    between atoms: C_9  and  C_10 
REMARK    6  A    between atoms: N_15  and  C_14 
REMARK    7  A    between atoms: N_20  and  C_19 
REMARK       I    between atoms: C_22  and  N_20 
ROOT
ATOM      1  C   LIG d   1      -3.507  93.050 117.525  0.00  0.00     0.161 C 
ATOM      2  C   LIG d   1      -4.838  93.490 117.618  0.00  0.00     0.016 C 
ATOM      3  C   LIG d   1      -5.951  92.663 117.344  0.00  0.00     0.038 C 
ATOM      4  C   LIG d   1      -5.812  91.288 117.102  0.00  0.00     0.028 C 
ATOM      5  C   LIG d   1      -4.462  90.912 116.502  0.00  0.00    -0.047 C 
ATOM      6  C   LIG d   1      -3.339  91.524 117.371  0.00  0.00     0.091 C 
ENDROOT
BRANCH   1   7
ATOM      7  O   LIG d   1      -2.755  93.525 118.659  0.00  0.00    -0.368 OA
BRANCH   7   8
ATOM      8  C   LIG d   1      -1.976  94.728 118.449  0.00  0.00     0.119 C 
BRANCH   8   9
ATOM      9  C   LIG d   1      -0.519  94.298 118.193  0.00  0.00     0.028 C 
ATOM     10  C   LIG d   1       0.092  93.551 119.390  0.00  0.00     0.006 C 
ENDBRANCH   8   9
BRANCH   8  11
ATOM     11  C   LIG d   1      -1.928  95.589 119.716  0.00  0.00     0.028 C 
ATOM     12  C   LIG d   1      -1.930  97.096 119.413  0.00  0.00     0.006 C 
ENDBRANCH   8  11
ENDBRANCH   7   8
ENDBRANCH   1   7
BRANCH   6  13
ATOM     13  N   LIG d   1      -1.987  91.275 116.807  0.00  0.00    -0.311 N 
ATOM     14  C   LIG d   1      -1.036  90.602 117.454  0.00  0.00     0.210 C 
ATOM     15  C   LIG d   1       0.292  90.476 116.701  0.00  0.00     0.109 C 
ATOM     16  O   LIG d   1      -1.177  90.071 118.565  0.00  0.00    -0.276 OA
ATOM     17  H   LIG d   1      -1.797  91.644 115.896  0.00  0.00     0.149 HD
ENDBRANCH   6  13
BRANCH   5  18
ATOM     18  N   LIG d   1      -4.400  89.440 116.431  0.00  0.00     0.381 N 
ATOM     19  H   LIG d   1      -3.957  89.079 117.252  0.00  0.00    -0.090 HD
ATOM     20  H   LIG d   1      -3.850  89.176 115.633  0.00  0.00    -0.090 HD
ATOM     21  H   LIG d   1      -5.319  89.064 116.348  0.00  0.00    -0.090 HD
ENDBRANCH   5  18
BRANCH   3  22
ATOM     22  C   LIG d   1      -7.219  93.220 117.270  0.00  0.00     0.382 C 
ATOM     23  O   LIG d   1      -8.124  92.637 116.625  0.00  0.00    -0.241 OA
ATOM     24  O   LIG d   1      -7.457  94.321 117.802  0.00  0.00    -0.241 OA
ENDBRANCH   3  22
TORSDOF 7
ENDMDL
MODEL 5
REMARK VINA RESULT:      -4.5      2.665      4.738
REMARK  7 active torsions:
REMARK  status: ('A' for Active; 'I' for Inactive)
REMARK    1  A    between atoms: C_2  and  C_3 
REMARK    2  A    between atoms: C_3  and  O_6 
REMARK    3  A    between atoms: C_3  and  C_4 
REMARK    4  A    between atoms: C_7  and  O_6 
REMARK    5  A    between atoms: C_9  and  C_10 
REMARK    6  A    between atoms: N_15  and  C_14 
REMARK    7  A    between atoms: N_20  and  C_19 
REMARK       I    between atoms: C_22  and  N_20 
ROOT
ATOM      1  C   LIG d   1      -3.901  93.075 117.281  0.00  0.00     0.161 C 
ATOM      2  C   LIG d   1      -5.277  92.844 117.125  0.00  0.00     0.016 C 
ATOM      3  C   LIG d   1      -5.840  91.553 116.997  0.00  0.00     0.038 C 
ATOM      4  C   LIG d   1      -5.074  90.390 117.168  0.00  0.00     0.028 C 
ATOM      5  C   LIG d   1      -3.601  90.579 116.825  0.00  0.00    -0.047 C 
ATOM      6  C   LIG d   1      -3.063  91.815 117.582  0.00  0.00     0.091 C 
ENDROOT
BRANCH   1   7
ATOM      7  O   LIG d   1      -3.685  94.074 118.297  0.00  0.00    -0.368 OA
BRANCH   7   8
ATOM      8  C   LIG d   1      -4.732  94.211 119.289  0.00  0.00     0.119 C 
BRANCH   8   9
ATOM      9  C   LIG d   1      -4.895  95.714 119.587  0.00  0.00     0.028 C 
ATOM     10  C   LIG d   1      -3.615  96.513 119.288  0.00  0.00     0.006 C 
ENDBRANCH   8   9
BRANCH   8  11
ATOM     11  C   LIG d   1      -4.324  93.575 120.621  0.00  0.00     0.028 C 
ATOM     12  C   LIG d   1      -4.927  92.176 120.823  0.00  0.00     0.006 C 
ENDBRANCH   8  11
ENDBRANCH   7   8
ENDBRANCH   1   7
BRANCH   6  13
ATOM     13  N   LIG d   1      -1.650  92.121 117.237  0.00  0.00    -0.311 N 
ATOM     14  C   LIG d   1      -0.611  91.675 117.940  0.00  0.00     0.210 C 
ATOM     15  C   LIG d   1       0.760  92.124 117.424  0.00  0.00     0.109 C 
ATOM     16  O   LIG d   1      -0.692  90.924 118.924  0.00  0.00    -0.276 OA
ATOM     17  H   LIG d   1      -1.491  92.698 116.434  0.00  0.00     0.149 HD
ENDBRANCH   6  13
BRANCH   5  18
ATOM     18  N   LIG d   1      -2.897  89.332 117.179  0.00  0.00     0.381 N 
ATOM     19  H   LIG d   1      -2.054  89.548 117.674  0.00  0.00    -0.090 HD
ATOM     20  H   LIG d   1      -2.652  88.846 116.335  0.00  0.00    -0.090 HD
ATOM     21  H   LIG d   1      -3.484  88.758 117.743  0.00  0.00    -0.090 HD
ENDBRANCH   5  18
BRANCH   3  22
ATOM     22  C   LIG d   1      -7.177  91.417 116.654  0.00  0.00     0.382 C 
ATOM     23  O   LIG d   1      -7.890  92.437 116.496  0.00  0.00    -0.241 OA
ATOM     24  O   LIG d   1      -7.689  90.287 116.543  0.00  0.00    -0.241 OA
ENDBRANCH   3  22
TORSDOF 7
ENDMDL
MODEL 6
REMARK VINA RESULT:      -4.5      2.618      4.600
REMARK  7 active torsions:
REMARK  status: ('A' for Active; 'I' for Inactive)
REMARK    1  A    between atoms: C_2  and  C_3 
REMARK    2  A    between atoms: C_3  and  O_6 
REMARK    3  A    between atoms: C_3  and  C_4 
REMARK    4  A    between atoms: C_7  and  O_6 
REMARK    5  A    between atoms: C_9  and  C_10 
REMARK    6  A    between atoms: N_15  and  C_14 
REMARK    7  A    between atoms: N_20  and  C_19 
REMARK       I    between atoms: C_22  and  N_20 
ROOT
ATOM      1  C   LIG d   1      -3.906  93.056 117.259  0.00  0.00     0.161 C 
ATOM      2  C   LIG d   1      -5.283  92.812 117.122  0.00  0.00     0.016 C 
ATOM      3  C   LIG d   1      -5.838  91.515 117.032  0.00  0.00     0.038 C 
ATOM      4  C   LIG d   1      -5.063  90.362 117.226  0.00  0.00     0.028 C 
ATOM      5  C   LIG d   1      -3.595  90.551 116.863  0.00  0.00    -0.047 C 
ATOM      6  C   LIG d   1      -3.058  91.809 117.583  0.00  0.00     0.091 C 
ENDROOT
BRANCH   1   7
ATOM      7  O   LIG d   1      -3.687  94.082 118.247  0.00  0.00    -0.368 OA
BRANCH   7   8
ATOM      8  C   LIG d   1      -3.731  93.653 119.631  0.00  0.00     0.119 C 
BRANCH   8   9
ATOM      9  C   LIG d   1      -4.825  94.478 120.336  0.00  0.00     0.028 C 
ATOM     10  C   LIG d   1      -5.246  95.713 119.522  0.00  0.00     0.006 C 
ENDBRANCH   8   9
BRANCH   8  11
ATOM     11  C   LIG d   1      -2.430  93.997 120.362  0.00  0.00     0.028 C 
ATOM     12  C   LIG d   1      -1.533  94.956 119.563  0.00  0.00     0.006 C 
ENDBRANCH   8  11
ENDBRANCH   7   8
ENDBRANCH   1   7
BRANCH   6  13
ATOM     13  N   LIG d   1      -1.650  92.114 117.217  0.00  0.00    -0.311 N 
ATOM     14  C   LIG d   1      -0.603  91.725 117.941  0.00  0.00     0.210 C 
ATOM     15  C   LIG d   1       0.760  92.164 117.395  0.00  0.00     0.109 C 
ATOM     16  O   LIG d   1      -0.671  91.032 118.967  0.00  0.00    -0.276 OA
ATOM     17  H   LIG d   1      -1.502  92.647 116.382  0.00  0.00     0.149 HD
ENDBRANCH   6  13
BRANCH   5  18
ATOM     18  N   LIG d   1      -2.879  89.318 117.242  0.00  0.00     0.381 N 
ATOM     19  H   LIG d   1      -1.962  89.545 117.569  0.00  0.00    -0.090 HD
ATOM     20  H   LIG d   1      -2.789  88.732 116.431  0.00  0.00    -0.090 HD
ATOM     21  H   LIG d   1      -3.383  88.836 117.954  0.00  0.00    -0.090 HD
ENDBRANCH   5  18
BRANCH   3  22
ATOM     22  C   LIG d   1      -7.177  91.362 116.706  0.00  0.00     0.382 C 
ATOM     23  O   LIG d   1      -7.670  90.213 116.604  0.00  0.00    -0.241 OA
ATOM     24  O   LIG d   1      -7.888  92.357 116.469  0.00  0.00    -0.241 OA
ENDBRANCH   3  22
TORSDOF 7
ENDMDL
MODEL 7
REMARK VINA RESULT:      -4.4      2.571      3.853
REMARK  7 active torsions:
REMARK  status: ('A' for Active; 'I' for Inactive)
REMARK    1  A    between atoms: C_2  and  C_3 
REMARK    2  A    between atoms: C_3  and  O_6 
REMARK    3  A    between atoms: C_3  and  C_4 
REMARK    4  A    between atoms: C_7  and  O_6 
REMARK    5  A    between atoms: C_9  and  C_10 
REMARK    6  A    between atoms: N_15  and  C_14 
REMARK    7  A    between atoms: N_20  and  C_19 
REMARK       I    between atoms: C_22  and  N_20 
ROOT
ATOM      1  C   LIG d   1      -2.961  91.116 117.990  0.00  0.00     0.161 C 
ATOM      2  C   LIG d   1      -4.098  90.526 117.415  0.00  0.00     0.016 C 
ATOM      3  C   LIG d   1      -5.289  91.237 117.141  0.00  0.00     0.038 C 
ATOM      4  C   LIG d   1      -5.371  92.630 117.285  0.00  0.00     0.028 C 
ATOM      5  C   LIG d   1      -4.416  93.187 118.336  0.00  0.00    -0.047 C 
ATOM      6  C   LIG d   1      -2.992  92.657 118.052  0.00  0.00     0.091 C 
ENDROOT
BRANCH   1   7
ATOM      7  O   LIG d   1      -1.776  90.666 117.302  0.00  0.00    -0.368 OA
BRANCH   7   8
ATOM      8  C   LIG d   1      -0.945  89.719 118.017  0.00  0.00     0.119 C 
BRANCH   8   9
ATOM      9  C   LIG d   1      -1.165  88.335 117.378  0.00  0.00     0.028 C 
ATOM     10  C   LIG d   1      -1.768  87.321 118.365  0.00  0.00     0.006 C 
ENDBRANCH   8   9
BRANCH   8  11
ATOM     11  C   LIG d   1      -1.396  89.570 119.473  0.00  0.00     0.028 C 
ATOM     12  C   LIG d   1      -0.358  90.098 120.476  0.00  0.00     0.006 C 
ENDBRANCH   8  11
ENDBRANCH   7   8
ENDBRANCH   1   7
BRANCH   6  13
ATOM     13  N   LIG d   1      -2.011  93.087 119.082  0.00  0.00    -0.311 N 
ATOM     14  C   LIG d   1      -0.894  93.753 118.798  0.00  0.00     0.210 C 
ATOM     15  C   LIG d   1      -0.012  94.081 120.007  0.00  0.00     0.109 C 
ATOM     16  O   LIG d   1      -0.565  94.131 117.664  0.00  0.00    -0.276 OA
ATOM     17  H   LIG d   1      -2.215  92.849 120.033  0.00  0.00     0.149 HD
ENDBRANCH   6  13
BRANCH   5  18
ATOM     18  N   LIG d   1      -4.507  94.659 118.285  0.00  0.00     0.381 N 
ATOM     19  H   LIG d   1      -3.971  95.004 117.514  0.00  0.00    -0.090 HD
ATOM     20  H   LIG d   1      -4.121  95.038 119.132  0.00  0.00    -0.090 HD
ATOM     21  H   LIG d   1      -5.458  94.939 118.190  0.00  0.00    -0.090 HD
ENDBRANCH   5  18
BRANCH   3  22
ATOM     22  C   LIG d   1      -6.428  90.547 116.755  0.00  0.00     0.382 C 
ATOM     23  O   LIG d   1      -7.544  91.120 116.772  0.00  0.00    -0.241 OA
ATOM     24  O   LIG d   1      -6.360  89.346 116.432  0.00  0.00    -0.241 OA
ENDBRANCH   3  22
TORSDOF 7
ENDMDL
MODEL 8
REMARK VINA RESULT:      -4.3      2.329      4.282
REMARK  7 active torsions:
REMARK  status: ('A' for Active; 'I' for Inactive)
REMARK    1  A    between atoms: C_2  and  C_3 
REMARK    2  A    between atoms: C_3  and  O_6 
REMARK    3  A    between atoms: C_3  and  C_4 
REMARK    4  A    between atoms: C_7  and  O_6 
REMARK    5  A    between atoms: C_9  and  C_10 
REMARK    6  A    between atoms: N_15  and  C_14 
REMARK    7  A    between atoms: N_20  and  C_19 
REMARK       I    between atoms: C_22  and  N_20 
ROOT
ATOM      1  C   LIG d   1      -4.598  93.052 118.184  0.00  0.00     0.161 C 
ATOM      2  C   LIG d   1      -5.740  92.309 117.844  0.00  0.00     0.016 C 
ATOM      3  C   LIG d   1      -5.687  91.035 117.233  0.00  0.00     0.038 C 
ATOM      4  C   LIG d   1      -4.477  90.348 117.056  0.00  0.00     0.028 C 
ATOM      5  C   LIG d   1      -3.270  91.270 116.922  0.00  0.00    -0.047 C 
ATOM      6  C   LIG d   1      -3.270  92.270 118.101  0.00  0.00     0.091 C 
ENDROOT
BRANCH   1   7
ATOM      7  O   LIG d   1      -4.760  93.625 119.497  0.00  0.00    -0.368 OA
BRANCH   7   8
ATOM      8  C   LIG d   1      -5.323  94.959 119.545  0.00  0.00     0.119 C 
BRANCH   8   9
ATOM      9  C   LIG d   1      -4.277  95.880 120.200  0.00  0.00     0.028 C 
ATOM     10  C   LIG d   1      -3.424  96.631 119.163  0.00  0.00     0.006 C 
ENDBRANCH   8   9
BRANCH   8  11
ATOM     11  C   LIG d   1      -6.546  95.015 120.465  0.00  0.00     0.028 C 
ATOM     12  C   LIG d   1      -7.525  96.138 120.088  0.00  0.00     0.006 C 
ENDBRANCH   8  11
ENDBRANCH   7   8
ENDBRANCH   1   7
BRANCH   6  13
ATOM     13  N   LIG d   1      -2.169  93.263 118.002  0.00  0.00    -0.311 N 
ATOM     14  C   LIG d   1      -1.323  93.523 118.997  0.00  0.00     0.210 C 
ATOM     15  C   LIG d   1      -0.274  94.596 118.692  0.00  0.00     0.109 C 
ATOM     16  O   LIG d   1      -1.322  92.942 120.093  0.00  0.00    -0.276 OA
ATOM     17  H   LIG d   1      -2.077  93.758 117.136  0.00  0.00     0.149 HD
ENDBRANCH   6  13
BRANCH   5  18
ATOM     18  N   LIG d   1      -2.064  90.422 116.883  0.00  0.00     0.381 N 
ATOM     19  H   LIG d   1      -2.121  89.787 116.112  0.00  0.00    -0.090 HD
ATOM     20  H   LIG d   1      -2.016  89.885 117.731  0.00  0.00    -0.090 HD
ATOM     21  H   LIG d   1      -1.250  90.991 116.795  0.00  0.00    -0.090 HD
ENDBRANCH   5  18
BRANCH   3  22
ATOM     22  C   LIG d   1      -6.851  90.454 116.754  0.00  0.00     0.382 C 
ATOM     23  O   LIG d   1      -6.859  89.241 116.431  0.00  0.00    -0.241 OA
ATOM     24  O   LIG d   1      -7.881  91.137 116.598  0.00  0.00    -0.241 OA
ENDBRANCH   3  22
TORSDOF 7
ENDMDL
MODEL 9
REMARK VINA RESULT:      -4.2      1.635      2.382
REMARK  7 active torsions:
REMARK  status: ('A' for Active; 'I' for Inactive)
REMARK    1  A    between atoms: C_2  and  C_3 
REMARK    2  A    between atoms: C_3  and  O_6 
REMARK    3  A    between atoms: C_3  and  C_4 
REMARK    4  A    between atoms: C_7  and  O_6 
REMARK    5  A    between atoms: C_9  and  C_10 
REMARK    6  A    between atoms: N_15  and  C_14 
REMARK    7  A    between atoms: N_20  and  C_19 
REMARK       I    between atoms: C_22  and  N_20 
ROOT
ATOM      1  C   LIG d   1      -4.383  92.522 118.912  0.00  0.00     0.161 C 
ATOM      2  C   LIG d   1      -4.898  91.407 118.230  0.00  0.00     0.016 C 
ATOM      3  C   LIG d   1      -5.988  91.478 117.332  0.00  0.00     0.038 C 
ATOM      4  C   LIG d   1      -6.545  92.704 116.939  0.00  0.00     0.028 C 
ATOM      5  C   LIG d   1      -6.390  93.804 117.984  0.00  0.00    -0.047 C 
ATOM      6  C   LIG d   1      -4.906  93.885 118.411  0.00  0.00     0.091 C 
ENDROOT
BRANCH   1   7
ATOM      7  O   LIG d   1      -2.943  92.495 118.877  0.00  0.00    -0.368 OA
BRANCH   7   8
ATOM      8  C   LIG d   1      -2.291  91.828 119.985  0.00  0.00     0.119 C 
BRANCH   8   9
ATOM      9  C   LIG d   1      -1.622  92.914 120.851  0.00  0.00     0.028 C 
ATOM     10  C   LIG d   1      -2.473  93.297 122.073  0.00  0.00     0.006 C 
ENDBRANCH   8   9
BRANCH   8  11
ATOM     11  C   LIG d   1      -1.146  90.933 119.502  0.00  0.00     0.028 C 
ATOM     12  C   LIG d   1       0.065  91.734 118.998  0.00  0.00     0.006 C 
ENDBRANCH   8  11
ENDBRANCH   7   8
ENDBRANCH   1   7
BRANCH   6  13
ATOM     13  N   LIG d   1      -4.681  94.879 119.493  0.00  0.00    -0.311 N 
ATOM     14  C   LIG d   1      -3.667  95.742 119.496  0.00  0.00     0.210 C 
ATOM     15  C   LIG d   1      -3.608  96.666 120.716  0.00  0.00     0.109 C 
ATOM     16  O   LIG d   1      -2.829  95.851 118.588  0.00  0.00    -0.276 OA
ATOM     17  H   LIG d   1      -5.332  94.880 120.253  0.00  0.00     0.149 HD
ENDBRANCH   6  13
BRANCH   5  18
ATOM     18  N   LIG d   1      -6.890  95.058 117.389  0.00  0.00     0.381 N 
ATOM     19  H   LIG d   1      -6.372  95.270 116.560  0.00  0.00    -0.090 HD
ATOM     20  H   LIG d   1      -6.754  95.806 118.046  0.00  0.00    -0.090 HD
ATOM     21  H   LIG d   1      -7.858  94.969 117.171  0.00  0.00    -0.090 HD
ENDBRANCH   5  18
BRANCH   3  22
ATOM     22  C   LIG d   1      -6.558  90.310 116.849  0.00  0.00     0.382 C 
ATOM     23  O   LIG d   1      -5.825  89.382 116.430  0.00  0.00    -0.241 OA
ATOM     24  O   LIG d   1      -7.796  90.191 116.787  0.00  0.00    -0.241 OA
ENDBRANCH   3  22
TORSDOF 7
ENDMDL
