MODEL 1
REMARK VINA RESULT:      -5.0      0.000      0.000
REMARK  7 active torsions:
REMARK  status: ('A' for Active; 'I' for Inactive)
REMARK    1  A    between atoms: C_2  and  C_3 
REMARK    2  A    between atoms: C_3  and  O_6 
REMARK    3  A    between atoms: C_3  and  C_4 
REMARK    4  A    between atoms: C_7  and  O_6 
REMARK    5  A    between atoms: C_9  and  C_10 
REMARK    6  A    between atoms: N_15  and  C_14 
REMARK    7  A    between atoms: N_20  and  C_19 
REMARK       I    between atoms: C_22  and  N_20 
ROOT
ATOM      1  C   LIG d   1      -6.317  93.281 119.467  0.00  0.00     0.161 C 
ATOM      2  C   LIG d   1      -7.609  93.753 119.181  0.00  0.00     0.016 C 
ATOM      3  C   LIG d   1      -7.891  95.098 118.849  0.00  0.00     0.038 C 
ATOM      4  C   LIG d   1      -6.871  96.037 118.632  0.00  0.00     0.028 C 
ATOM      5  C   LIG d   1      -5.591  95.730 119.402  0.00  0.00    -0.047 C 
ATOM      6  C   LIG d   1      -5.179  94.266 119.127  0.00  0.00     0.091 C 
ENDROOT
BRANCH   1   7
ATOM      7  O   LIG d   1      -6.101  92.018 118.807  0.00  0.00    -0.368 OA
BRANCH   7   8
ATOM      8  C   LIG d   1      -5.502  92.082 117.490  0.00  0.00     0.119 C 
BRANCH   8   9
ATOM      9  C   LIG d   1      -6.642  91.997 116.458  0.00  0.00     0.028 C 
ATOM     10  C   LIG d   1      -7.307  90.610 116.430  0.00  0.00     0.006 C 
ENDBRANCH   8   9
BRANCH   8  11
ATOM     11  C   LIG d   1      -4.618  90.860 117.220  0.00  0.00     0.028 C 
ATOM     12  C   LIG d   1      -3.660  90.550 118.381  0.00  0.00     0.006 C 
ENDBRANCH   8  11
ENDBRANCH   7   8
ENDBRANCH   1   7
BRANCH   6  13
ATOM     13  N   LIG d   1      -3.983  93.857 119.908  0.00  0.00    -0.311 N 
ATOM     14  C   LIG d   1      -2.741  93.911 119.429  0.00  0.00     0.210 C 
ATOM     15  C   LIG d   1      -1.654  93.424 120.393  0.00  0.00     0.109 C 
ATOM     16  O   LIG d   1      -2.433  94.346 118.309  0.00  0.00    -0.276 OA
ATOM     17  H   LIG d   1      -4.138  93.521 120.838  0.00  0.00     0.149 HD
ENDBRANCH   6  13
BRANCH   5  18
ATOM     18  N   LIG d   1      -4.571  96.707 118.978  0.00  0.00     0.381 N 
ATOM     19  H   LIG d   1      -3.726  96.560 119.492  0.00  0.00    -0.090 HD
ATOM     20  H   LIG d   1      -4.904  97.634 119.179  0.00  0.00    -0.090 HD
ATOM     21  H   LIG d   1      -4.394  96.614 118.002  0.00  0.00    -0.090 HD
ENDBRANCH   5  18
BRANCH   3  22
ATOM     22  C   LIG d   1      -9.207  95.526 118.770  0.00  0.00     0.382 C 
ATOM     23  O   LIG d   1      -9.463  96.721 118.488  0.00  0.00    -0.241 OA
ATOM     24  O   LIG d   1     -10.142  94.742 119.022  0.00  0.00    -0.241 OA
ENDBRANCH   3  22
TORSDOF 7
ENDMDL
MODEL 2
REMARK VINA RESULT:      -5.0      2.251      5.895
REMARK  7 active torsions:
REMARK  status: ('A' for Active; 'I' for Inactive)
REMARK    1  A    between atoms: C_2  and  C_3 
REMARK    2  A    between atoms: C_3  and  O_6 
REMARK    3  A    between atoms: C_3  and  C_4 
REMARK    4  A    between atoms: C_7  and  O_6 
REMARK    5  A    between atoms: C_9  and  C_10 
REMARK    6  A    between atoms: N_15  and  C_14 
REMARK    7  A    between atoms: N_20  and  C_19 
REMARK       I    between atoms: C_22  and  N_20 
ROOT
ATOM      1  C   LIG d   1      -5.630  92.893 119.805  0.00  0.00     0.161 C 
ATOM      2  C   LIG d   1      -4.539  92.083 119.448  0.00  0.00     0.016 C 
ATOM      3  C   LIG d   1      -4.420  91.448 118.191  0.00  0.00     0.038 C 
ATOM      4  C   LIG d   1      -5.317  91.703 117.143  0.00  0.00     0.028 C 
ATOM      5  C   LIG d   1      -6.705  92.115 117.621  0.00  0.00    -0.047 C 
ATOM      6  C   LIG d   1      -6.563  93.272 118.636  0.00  0.00     0.091 C 
ENDROOT
BRANCH   1   7
ATOM      7  O   LIG d   1      -5.159  94.078 120.476  0.00  0.00    -0.368 OA
BRANCH   7   8
ATOM      8  C   LIG d   1      -4.709  95.158 119.622  0.00  0.00     0.119 C 
BRANCH   8   9
ATOM      9  C   LIG d   1      -3.214  95.390 119.917  0.00  0.00     0.028 C 
ATOM     10  C   LIG d   1      -2.313  94.984 118.739  0.00  0.00     0.006 C 
ENDBRANCH   8   9
BRANCH   8  11
ATOM     11  C   LIG d   1      -5.402  96.477 119.978  0.00  0.00     0.028 C 
ATOM     12  C   LIG d   1      -6.267  96.372 121.244  0.00  0.00     0.006 C 
ENDBRANCH   8  11
ENDBRANCH   7   8
ENDBRANCH   1   7
BRANCH   6  13
ATOM     13  N   LIG d   1      -7.869  93.680 119.218  0.00  0.00    -0.311 N 
ATOM     14  C   LIG d   1      -8.565  94.732 118.790  0.00  0.00     0.210 C 
ATOM     15  C   LIG d   1      -9.876  94.988 119.540  0.00  0.00     0.109 C 
ATOM     16  O   LIG d   1      -8.237  95.459 117.840  0.00  0.00    -0.276 OA
ATOM     17  H   LIG d   1      -8.224  93.127 119.973  0.00  0.00     0.149 HD
ENDBRANCH   6  13
BRANCH   5  18
ATOM     18  N   LIG d   1      -7.495  92.484 116.431  0.00  0.00     0.381 N 
ATOM     19  H   LIG d   1      -7.990  91.683 116.092  0.00  0.00    -0.090 HD
ATOM     20  H   LIG d   1      -6.870  92.797 115.710  0.00  0.00    -0.090 HD
ATOM     21  H   LIG d   1      -8.139  93.208 116.661  0.00  0.00    -0.090 HD
ENDBRANCH   5  18
BRANCH   3  22
ATOM     22  C   LIG d   1      -3.415  90.514 117.985  0.00  0.00     0.382 C 
ATOM     23  O   LIG d   1      -3.701  89.296 117.895  0.00  0.00    -0.241 OA
ATOM     24  O   LIG d   1      -2.223  90.871 117.931  0.00  0.00    -0.241 OA
ENDBRANCH   3  22
TORSDOF 7
ENDMDL
MODEL 3
REMARK VINA RESULT:      -4.7      2.419      5.878
REMARK  7 active torsions:
REMARK  status: ('A' for Active; 'I' for Inactive)
REMARK    1  A    between atoms: C_2  and  C_3 
REMARK    2  A    between atoms: C_3  and  O_6 
REMARK    3  A    between atoms: C_3  and  C_4 
REMARK    4  A    between atoms: C_7  and  O_6 
REMARK    5  A    between atoms: C_9  and  C_10 
REMARK    6  A    between atoms: N_15  and  C_14 
REMARK    7  A    between atoms: N_20  and  C_19 
REMARK       I    between atoms: C_22  and  N_20 
ROOT
ATOM      1  C   LIG d   1      -5.485  93.124 119.239  0.00  0.00     0.161 C 
ATOM      2  C   LIG d   1      -4.361  92.308 119.031  0.00  0.00     0.016 C 
ATOM      3  C   LIG d   1      -4.303  91.301 118.040  0.00  0.00     0.038 C 
ATOM      4  C   LIG d   1      -5.317  91.143 117.084  0.00  0.00     0.028 C 
ATOM      5  C   LIG d   1      -6.686  91.607 117.570  0.00  0.00    -0.047 C 
ATOM      6  C   LIG d   1      -6.559  93.041 118.134  0.00  0.00     0.091 C 
ENDROOT
BRANCH   1   7
ATOM      7  O   LIG d   1      -5.068  94.491 119.431  0.00  0.00    -0.368 OA
BRANCH   7   8
ATOM      8  C   LIG d   1      -3.734  94.681 119.962  0.00  0.00     0.119 C 
BRANCH   8   9
ATOM      9  C   LIG d   1      -3.872  95.438 121.298  0.00  0.00     0.028 C 
ATOM     10  C   LIG d   1      -5.195  96.215 121.398  0.00  0.00     0.006 C 
ENDBRANCH   8   9
BRANCH   8  11
ATOM     11  C   LIG d   1      -2.901  95.597 119.061  0.00  0.00     0.028 C 
ATOM     12  C   LIG d   1      -1.795  94.844 118.305  0.00  0.00     0.006 C 
ENDBRANCH   8  11
ENDBRANCH   7   8
ENDBRANCH   1   7
BRANCH   6  13
ATOM     13  N   LIG d   1      -7.835  93.540 118.708  0.00  0.00    -0.311 N 
ATOM     14  C   LIG d   1      -8.276  94.786 118.542  0.00  0.00     0.210 C 
ATOM     15  C   LIG d   1      -9.606  95.099 119.235  0.00  0.00     0.109 C 
ATOM     16  O   LIG d   1      -7.708  95.653 117.861  0.00  0.00    -0.276 OA
ATOM     17  H   LIG d   1      -8.375  92.894 119.249  0.00  0.00     0.149 HD
ENDBRANCH   6  13
BRANCH   5  18
ATOM     18  N   LIG d   1      -7.619  91.515 116.431  0.00  0.00     0.381 N 
ATOM     19  H   LIG d   1      -7.569  90.602 116.025  0.00  0.00    -0.090 HD
ATOM     20  H   LIG d   1      -7.347  92.185 115.733  0.00  0.00    -0.090 HD
ATOM     21  H   LIG d   1      -8.549  91.701 116.736  0.00  0.00    -0.090 HD
ENDBRANCH   5  18
BRANCH   3  22
ATOM     22  C   LIG d   1      -3.239  90.413 118.024  0.00  0.00     0.382 C 
ATOM     23  O   LIG d   1      -2.062  90.846 117.987  0.00  0.00    -0.241 OA
ATOM     24  O   LIG d   1      -3.441  89.184 118.001  0.00  0.00    -0.241 OA
ENDBRANCH   3  22
TORSDOF 7
ENDMDL
MODEL 4
REMARK VINA RESULT:      -4.7      2.212      4.195
REMARK  7 active torsions:
REMARK  status: ('A' for Active; 'I' for Inactive)
REMARK    1  A    between atoms: C_2  and  C_3 
REMARK    2  A    between atoms: C_3  and  O_6 
REMARK    3  A    between atoms: C_3  and  C_4 
REMARK    4  A    between atoms: C_7  and  O_6 
REMARK    5  A    between atoms: C_9  and  C_10 
REMARK    6  A    between atoms: N_15  and  C_14 
REMARK    7  A    between atoms: N_20  and  C_19 
REMARK       I    between atoms: C_22  and  N_20 
ROOT
ATOM      1  C   LIG d   1      -5.379  92.854 119.500  0.00  0.00     0.161 C 
ATOM      2  C   LIG d   1      -5.661  91.814 118.598  0.00  0.00     0.016 C 
ATOM      3  C   LIG d   1      -6.586  91.935 117.536  0.00  0.00     0.038 C 
ATOM      4  C   LIG d   1      -7.184  93.161 117.209  0.00  0.00     0.028 C 
ATOM      5  C   LIG d   1      -7.314  94.107 118.398  0.00  0.00    -0.047 C 
ATOM      6  C   LIG d   1      -5.938  94.233 119.092  0.00  0.00     0.091 C 
ENDROOT
BRANCH   1   7
ATOM      7  O   LIG d   1      -3.957  92.936 119.722  0.00  0.00    -0.368 OA
BRANCH   7   8
ATOM      8  C   LIG d   1      -3.122  92.863 118.540  0.00  0.00     0.119 C 
BRANCH   8   9
ATOM      9  C   LIG d   1      -2.029  91.811 118.809  0.00  0.00     0.028 C 
ATOM     10  C   LIG d   1      -2.403  90.423 118.263  0.00  0.00     0.006 C 
ENDBRANCH   8   9
BRANCH   8  11
ATOM     11  C   LIG d   1      -2.371  94.178 118.307  0.00  0.00     0.028 C 
ATOM     12  C   LIG d   1      -2.275  95.042 119.575  0.00  0.00     0.006 C 
ENDBRANCH   8  11
ENDBRANCH   7   8
ENDBRANCH   1   7
BRANCH   6  13
ATOM     13  N   LIG d   1      -5.996  95.075 120.315  0.00  0.00    -0.311 N 
ATOM     14  C   LIG d   1      -5.697  96.373 120.327  0.00  0.00     0.210 C 
ATOM     15  C   LIG d   1      -5.802  97.048 121.698  0.00  0.00     0.109 C 
ATOM     16  O   LIG d   1      -5.386  97.036 119.326  0.00  0.00    -0.276 OA
ATOM     17  H   LIG d   1      -6.269  94.624 121.167  0.00  0.00     0.149 HD
ENDBRANCH   6  13
BRANCH   5  18
ATOM     18  N   LIG d   1      -7.824  95.394 117.889  0.00  0.00     0.381 N 
ATOM     19  H   LIG d   1      -7.583  96.129 118.524  0.00  0.00    -0.090 HD
ATOM     20  H   LIG d   1      -8.826  95.346 117.828  0.00  0.00    -0.090 HD
ATOM     21  H   LIG d   1      -7.439  95.583 116.990  0.00  0.00    -0.090 HD
ENDBRANCH   5  18
BRANCH   3  22
ATOM     22  C   LIG d   1      -6.951  90.810 116.811  0.00  0.00     0.382 C 
ATOM     23  O   LIG d   1      -6.074  89.998 116.430  0.00  0.00    -0.241 OA
ATOM     24  O   LIG d   1      -8.141  90.621 116.496  0.00  0.00    -0.241 OA
ENDBRANCH   3  22
TORSDOF 7
ENDMDL
MODEL 5
REMARK VINA RESULT:      -4.6      2.296      5.106
REMARK  7 active torsions:
REMARK  status: ('A' for Active; 'I' for Inactive)
REMARK    1  A    between atoms: C_2  and  C_3 
REMARK    2  A    between atoms: C_3  and  O_6 
REMARK    3  A    between atoms: C_3  and  C_4 
REMARK    4  A    between atoms: C_7  and  O_6 
REMARK    5  A    between atoms: C_9  and  C_10 
REMARK    6  A    between atoms: N_15  and  C_14 
REMARK    7  A    between atoms: N_20  and  C_19 
REMARK       I    between atoms: C_22  and  N_20 
ROOT
ATOM      1  C   LIG d   1      -5.679  93.156 119.768  0.00  0.00     0.161 C 
ATOM      2  C   LIG d   1      -5.402  92.103 118.880  0.00  0.00     0.016 C 
ATOM      3  C   LIG d   1      -6.074  91.925 117.649  0.00  0.00     0.038 C 
ATOM      4  C   LIG d   1      -6.971  92.881 117.149  0.00  0.00     0.028 C 
ATOM      5  C   LIG d   1      -7.654  93.699 118.240  0.00  0.00    -0.047 C 
ATOM      6  C   LIG d   1      -6.576  94.271 119.188  0.00  0.00     0.091 C 
ENDROOT
BRANCH   1   7
ATOM      7  O   LIG d   1      -4.447  93.712 120.266  0.00  0.00    -0.368 OA
BRANCH   7   8
ATOM      8  C   LIG d   1      -3.730  94.586 119.360  0.00  0.00     0.119 C 
BRANCH   8   9
ATOM      9  C   LIG d   1      -2.289  94.051 119.243  0.00  0.00     0.028 C 
ATOM     10  C   LIG d   1      -1.339  95.063 118.581  0.00  0.00     0.006 C 
ENDBRANCH   8   9
BRANCH   8  11
ATOM     11  C   LIG d   1      -3.592  95.998 119.939  0.00  0.00     0.028 C 
ATOM     12  C   LIG d   1      -3.722  96.029 121.470  0.00  0.00     0.006 C 
ENDBRANCH   8  11
ENDBRANCH   7   8
ENDBRANCH   1   7
BRANCH   6  13
ATOM     13  N   LIG d   1      -7.164  95.015 120.332  0.00  0.00    -0.311 N 
ATOM     14  C   LIG d   1      -7.318  96.338 120.345  0.00  0.00     0.210 C 
ATOM     15  C   LIG d   1      -7.927  96.906 121.631  0.00  0.00     0.109 C 
ATOM     16  O   LIG d   1      -7.039  97.091 119.400  0.00  0.00    -0.276 OA
ATOM     17  H   LIG d   1      -7.447  94.478 121.129  0.00  0.00     0.149 HD
ENDBRANCH   6  13
BRANCH   5  18
ATOM     18  N   LIG d   1      -8.454  94.746 117.576  0.00  0.00     0.381 N 
ATOM     19  H   LIG d   1      -7.887  95.236 116.912  0.00  0.00    -0.090 HD
ATOM     20  H   LIG d   1      -8.767  95.404 118.268  0.00  0.00    -0.090 HD
ATOM     21  H   LIG d   1      -9.238  94.337 117.117  0.00  0.00    -0.090 HD
ENDBRANCH   5  18
BRANCH   3  22
ATOM     22  C   LIG d   1      -5.881  90.760 116.923  0.00  0.00     0.382 C 
ATOM     23  O   LIG d   1      -6.866  90.158 116.430  0.00  0.00    -0.241 OA
ATOM     24  O   LIG d   1      -4.740  90.278 116.792  0.00  0.00    -0.241 OA
ENDBRANCH   3  22
TORSDOF 7
ENDMDL
MODEL 6
REMARK VINA RESULT:      -4.5      2.420      3.959
REMARK  7 active torsions:
REMARK  status: ('A' for Active; 'I' for Inactive)
REMARK    1  A    between atoms: C_2  and  C_3 
REMARK    2  A    between atoms: C_3  and  O_6 
REMARK    3  A    between atoms: C_3  and  C_4 
REMARK    4  A    between atoms: C_7  and  O_6 
REMARK    5  A    between atoms: C_9  and  C_10 
REMARK    6  A    between atoms: N_15  and  C_14 
REMARK    7  A    between atoms: N_20  and  C_19 
REMARK       I    between atoms: C_22  and  N_20 
ROOT
ATOM      1  C   LIG d   1      -4.450  93.358 118.977  0.00  0.00     0.161 C 
ATOM      2  C   LIG d   1      -5.625  94.128 118.972  0.00  0.00     0.016 C 
ATOM      3  C   LIG d   1      -6.760  93.809 118.191  0.00  0.00     0.038 C 
ATOM      4  C   LIG d   1      -6.852  92.607 117.473  0.00  0.00     0.028 C 
ATOM      5  C   LIG d   1      -5.497  92.050 117.049  0.00  0.00    -0.047 C 
ATOM      6  C   LIG d   1      -4.572  91.985 118.286  0.00  0.00     0.091 C 
ENDROOT
BRANCH   1   7
ATOM      7  O   LIG d   1      -3.977  93.198 120.329  0.00  0.00    -0.368 OA
BRANCH   7   8
ATOM      8  C   LIG d   1      -4.529  92.082 121.070  0.00  0.00     0.119 C 
BRANCH   8   9
ATOM      9  C   LIG d   1      -5.224  92.654 122.320  0.00  0.00     0.028 C 
ATOM     10  C   LIG d   1      -6.756  92.529 122.250  0.00  0.00     0.006 C 
ENDBRANCH   8   9
BRANCH   8  11
ATOM     11  C   LIG d   1      -3.424  91.166 121.604  0.00  0.00     0.028 C 
ATOM     12  C   LIG d   1      -2.024  91.787 121.479  0.00  0.00     0.006 C 
ENDBRANCH   8  11
ENDBRANCH   7   8
ENDBRANCH   1   7
BRANCH   6  13
ATOM     13  N   LIG d   1      -3.200  91.529 117.944  0.00  0.00    -0.311 N 
ATOM     14  C   LIG d   1      -2.800  90.263 118.049  0.00  0.00     0.210 C 
ATOM     15  C   LIG d   1      -1.338  90.012 117.665  0.00  0.00     0.109 C 
ATOM     16  O   LIG d   1      -3.526  89.318 118.395  0.00  0.00    -0.276 OA
ATOM     17  H   LIG d   1      -2.554  92.225 117.625  0.00  0.00     0.149 HD
ENDBRANCH   6  13
BRANCH   5  18
ATOM     18  N   LIG d   1      -5.731  90.730 116.432  0.00  0.00     0.381 N 
ATOM     19  H   LIG d   1      -6.571  90.329 116.799  0.00  0.00    -0.090 HD
ATOM     20  H   LIG d   1      -4.965  90.123 116.663  0.00  0.00    -0.090 HD
ATOM     21  H   LIG d   1      -5.804  90.824 115.443  0.00  0.00    -0.090 HD
ENDBRANCH   5  18
BRANCH   3  22
ATOM     22  C   LIG d   1      -7.803  94.717 118.092  0.00  0.00     0.382 C 
ATOM     23  O   LIG d   1      -8.978  94.307 117.932  0.00  0.00    -0.241 OA
ATOM     24  O   LIG d   1      -7.579  95.942 118.116  0.00  0.00    -0.241 OA
ENDBRANCH   3  22
TORSDOF 7
ENDMDL
MODEL 7
REMARK VINA RESULT:      -4.4      3.247      6.706
REMARK  7 active torsions:
REMARK  status: ('A' for Active; 'I' for Inactive)
REMARK    1  A    between atoms: C_2  and  C_3 
REMARK    2  A    between atoms: C_3  and  O_6 
REMARK    3  A    between atoms: C_3  and  C_4 
REMARK    4  A    between atoms: C_7  and  O_6 
REMARK    5  A    between atoms: C_9  and  C_10 
REMARK    6  A    between atoms: N_15  and  C_14 
REMARK    7  A    between atoms: N_20  and  C_19 
REMARK       I    between atoms: C_22  and  N_20 
ROOT
ATOM      1  C   LIG d   1      -1.847  91.326 118.356  0.00  0.00     0.161 C 
ATOM      2  C   LIG d   1      -0.533  91.516 118.815  0.00  0.00     0.016 C 
ATOM      3  C   LIG d   1       0.031  92.789 119.057  0.00  0.00     0.038 C 
ATOM      4  C   LIG d   1      -0.736  93.963 119.000  0.00  0.00     0.028 C 
ATOM      5  C   LIG d   1      -1.927  93.862 118.053  0.00  0.00    -0.047 C 
ATOM      6  C   LIG d   1      -2.734  92.589 118.395  0.00  0.00     0.091 C 
ENDROOT
BRANCH   1   7
ATOM      7  O   LIG d   1      -2.471  90.253 119.089  0.00  0.00    -0.368 OA
BRANCH   7   8
ATOM      8  C   LIG d   1      -1.618  89.131 119.426  0.00  0.00     0.119 C 
BRANCH   8   9
ATOM      9  C   LIG d   1      -1.723  88.109 118.277  0.00  0.00     0.028 C 
ATOM     10  C   LIG d   1      -0.370  87.858 117.590  0.00  0.00     0.006 C 
ENDBRANCH   8   9
BRANCH   8  11
ATOM     11  C   LIG d   1      -2.128  88.398 120.669  0.00  0.00     0.028 C 
ATOM     12  C   LIG d   1      -2.629  86.978 120.360  0.00  0.00     0.006 C 
ENDBRANCH   8  11
ENDBRANCH   7   8
ENDBRANCH   1   7
BRANCH   6  13
ATOM     13  N   LIG d   1      -3.869  92.369 117.461  0.00  0.00    -0.311 N 
ATOM     14  C   LIG d   1      -5.114  92.124 117.866  0.00  0.00     0.210 C 
ATOM     15  C   LIG d   1      -6.130  91.908 116.740  0.00  0.00     0.109 C 
ATOM     16  O   LIG d   1      -5.480  92.097 119.051  0.00  0.00    -0.276 OA
ATOM     17  H   LIG d   1      -3.668  92.405 116.481  0.00  0.00     0.149 HD
ENDBRANCH   6  13
BRANCH   5  18
ATOM     18  N   LIG d   1      -2.715  95.101 118.195  0.00  0.00     0.381 N 
ATOM     19  H   LIG d   1      -2.622  95.457 119.126  0.00  0.00    -0.090 HD
ATOM     20  H   LIG d   1      -3.685  94.890 118.035  0.00  0.00    -0.090 HD
ATOM     21  H   LIG d   1      -2.403  95.782 117.538  0.00  0.00    -0.090 HD
ENDBRANCH   5  18
BRANCH   3  22
ATOM     22  C   LIG d   1       1.387  92.901 119.321  0.00  0.00     0.382 C 
ATOM     23  O   LIG d   1       1.776  93.338 120.431  0.00  0.00    -0.241 OA
ATOM     24  O   LIG d   1       2.227  92.613 118.447  0.00  0.00    -0.241 OA
ENDBRANCH   3  22
TORSDOF 7
ENDMDL
MODEL 8
REMARK VINA RESULT:      -4.3      2.596      5.822
REMARK  7 active torsions:
REMARK  status: ('A' for Active; 'I' for Inactive)
REMARK    1  A    between atoms: C_2  and  C_3 
REMARK    2  A    between atoms: C_3  and  O_6 
REMARK    3  A    between atoms: C_3  and  C_4 
REMARK    4  A    between atoms: C_7  and  O_6 
REMARK    5  A    between atoms: C_9  and  C_10 
REMARK    6  A    between atoms: N_15  and  C_14 
REMARK    7  A    between atoms: N_20  and  C_19 
REMARK       I    between atoms: C_22  and  N_20 
ROOT
ATOM      1  C   LIG d   1      -3.414  92.216 118.418  0.00  0.00     0.161 C 
ATOM      2  C   LIG d   1      -2.709  91.031 118.151  0.00  0.00     0.016 C 
ATOM      3  C   LIG d   1      -1.298  90.957 118.109  0.00  0.00     0.038 C 
ATOM      4  C   LIG d   1      -0.487  92.039 118.483  0.00  0.00     0.028 C 
ATOM      5  C   LIG d   1      -1.152  93.395 118.271  0.00  0.00    -0.047 C 
ATOM      6  C   LIG d   1      -2.546  93.381 118.938  0.00  0.00     0.091 C 
ENDROOT
BRANCH   1   7
ATOM      7  O   LIG d   1      -4.493  91.948 119.335  0.00  0.00    -0.368 OA
BRANCH   7   8
ATOM      8  C   LIG d   1      -5.828  91.972 118.773  0.00  0.00     0.119 C 
BRANCH   8   9
ATOM      9  C   LIG d   1      -5.685  92.131 117.247  0.00  0.00     0.028 C 
ATOM     10  C   LIG d   1      -6.154  90.883 116.480  0.00  0.00     0.006 C 
ENDBRANCH   8   9
BRANCH   8  11
ATOM     11  C   LIG d   1      -6.606  93.207 119.238  0.00  0.00     0.028 C 
ATOM     12  C   LIG d   1      -7.126  94.058 118.069  0.00  0.00     0.006 C 
ENDBRANCH   8  11
ENDBRANCH   7   8
ENDBRANCH   1   7
BRANCH   6  13
ATOM     13  N   LIG d   1      -3.298  94.642 118.705  0.00  0.00    -0.311 N 
ATOM     14  C   LIG d   1      -3.694  95.451 119.686  0.00  0.00     0.210 C 
ATOM     15  C   LIG d   1      -4.474  96.688 119.228  0.00  0.00     0.109 C 
ATOM     16  O   LIG d   1      -3.446  95.279 120.888  0.00  0.00    -0.276 OA
ATOM     17  H   LIG d   1      -3.515  94.875 117.756  0.00  0.00     0.149 HD
ENDBRANCH   6  13
BRANCH   5  18
ATOM     18  N   LIG d   1      -0.253  94.424 118.829  0.00  0.00     0.381 N 
ATOM     19  H   LIG d   1       0.642  94.369 118.385  0.00  0.00    -0.090 HD
ATOM     20  H   LIG d   1      -0.130  94.249 119.811  0.00  0.00    -0.090 HD
ATOM     21  H   LIG d   1      -0.645  95.329 118.692  0.00  0.00    -0.090 HD
ENDBRANCH   5  18
BRANCH   3  22
ATOM     22  C   LIG d   1      -0.684  89.801 117.651  0.00  0.00     0.382 C 
ATOM     23  O   LIG d   1      -0.897  88.707 118.226  0.00  0.00    -0.241 OA
ATOM     24  O   LIG d   1       0.116  89.847 116.696  0.00  0.00    -0.241 OA
ENDBRANCH   3  22
TORSDOF 7
ENDMDL
MODEL 9
REMARK VINA RESULT:      -4.2      2.538      4.546
REMARK  7 active torsions:
REMARK  status: ('A' for Active; 'I' for Inactive)
REMARK    1  A    between atoms: C_2  and  C_3 
REMARK    2  A    between atoms: C_3  and  O_6 
REMARK    3  A    between atoms: C_3  and  C_4 
REMARK    4  A    between atoms: C_7  and  O_6 
REMARK    5  A    between atoms: C_9  and  C_10 
REMARK    6  A    between atoms: N_15  and  C_14 
REMARK    7  A    between atoms: N_20  and  C_19 
REMARK       I    between atoms: C_22  and  N_20 
ROOT
ATOM      1  C   LIG d   1      -4.515  93.255 118.919  0.00  0.00     0.161 C 
ATOM      2  C   LIG d   1      -5.702  92.780 118.338  0.00  0.00     0.016 C 
ATOM      3  C   LIG d   1      -5.770  91.602 117.558  0.00  0.00     0.038 C 
ATOM      4  C   LIG d   1      -4.677  90.732 117.433  0.00  0.00     0.028 C 
ATOM      5  C   LIG d   1      -3.328  91.428 117.583  0.00  0.00    -0.047 C 
ATOM      6  C   LIG d   1      -3.336  92.260 118.886  0.00  0.00     0.091 C 
ENDROOT
BRANCH   1   7
ATOM      7  O   LIG d   1      -4.771  93.683 120.272  0.00  0.00    -0.368 OA
BRANCH   7   8
ATOM      8  C   LIG d   1      -5.914  93.080 120.926  0.00  0.00     0.119 C 
BRANCH   8   9
ATOM      9  C   LIG d   1      -6.685  94.206 121.642  0.00  0.00     0.028 C 
ATOM     10  C   LIG d   1      -7.867  94.729 120.808  0.00  0.00     0.006 C 
ENDBRANCH   8   9
BRANCH   8  11
ATOM     11  C   LIG d   1      -5.478  92.118 122.035  0.00  0.00     0.028 C 
ATOM     12  C   LIG d   1      -6.642  91.685 122.940  0.00  0.00     0.006 C 
ENDBRANCH   8  11
ENDBRANCH   7   8
ENDBRANCH   1   7
BRANCH   6  13
ATOM     13  N   LIG d   1      -2.084  93.041 119.067  0.00  0.00    -0.311 N 
ATOM     14  C   LIG d   1      -1.028  92.587 119.740  0.00  0.00     0.210 C 
ATOM     15  C   LIG d   1       0.152  93.560 119.824  0.00  0.00     0.109 C 
ATOM     16  O   LIG d   1      -0.944  91.458 120.247  0.00  0.00    -0.276 OA
ATOM     17  H   LIG d   1      -2.054  93.955 118.661  0.00  0.00     0.149 HD
ENDBRANCH   6  13
BRANCH   5  18
ATOM     18  N   LIG d   1      -2.284  90.386 117.569  0.00  0.00     0.381 N 
ATOM     19  H   LIG d   1      -2.480  89.721 116.847  0.00  0.00    -0.090 HD
ATOM     20  H   LIG d   1      -2.292  89.906 118.451  0.00  0.00    -0.090 HD
ATOM     21  H   LIG d   1      -1.391  90.800 117.416  0.00  0.00    -0.090 HD
ENDBRANCH   5  18
BRANCH   3  22
ATOM     22  C   LIG d   1      -6.931  91.305 116.861  0.00  0.00     0.382 C 
ATOM     23  O   LIG d   1      -7.224  90.111 116.610  0.00  0.00    -0.241 OA
ATOM     24  O   LIG d   1      -7.668  92.218 116.442  0.00  0.00    -0.241 OA
ENDBRANCH   3  22
TORSDOF 7
ENDMDL
