MODEL 1
REMARK VINA RESULT:      -4.6      0.000      0.000
REMARK  7 active torsions:
REMARK  status: ('A' for Active; 'I' for Inactive)
REMARK    1  A    between atoms: C_2  and  C_3 
REMARK    2  A    between atoms: C_3  and  O_6 
REMARK    3  A    between atoms: C_3  and  C_4 
REMARK    4  A    between atoms: C_7  and  O_6 
REMARK    5  A    between atoms: C_9  and  C_10 
REMARK    6  A    between atoms: N_15  and  C_14 
REMARK    7  A    between atoms: N_20  and  C_19 
REMARK       I    between atoms: C_22  and  N_20 
ROOT
ATOM      1  C   LIG d   1      -5.574  93.428 118.243  0.00  0.00     0.161 C 
ATOM      2  C   LIG d   1      -6.225  92.292 117.734  0.00  0.00     0.016 C 
ATOM      3  C   LIG d   1      -5.625  91.013 117.671  0.00  0.00     0.038 C 
ATOM      4  C   LIG d   1      -4.377  90.751 118.256  0.00  0.00     0.028 C 
ATOM      5  C   LIG d   1      -3.473  91.977 118.331  0.00  0.00    -0.047 C 
ATOM      6  C   LIG d   1      -4.255  93.137 118.988  0.00  0.00     0.091 C 
ENDROOT
BRANCH   1   7
ATOM      7  O   LIG d   1      -6.475  94.168 119.090  0.00  0.00    -0.368 OA
BRANCH   7   8
ATOM      8  C   LIG d   1      -6.890  95.466 118.598  0.00  0.00     0.119 C 
BRANCH   8   9
ATOM      9  C   LIG d   1      -6.297  96.530 119.541  0.00  0.00     0.028 C 
ATOM     10  C   LIG d   1      -6.106  96.004 120.974  0.00  0.00     0.006 C 
ENDBRANCH   8   9
BRANCH   8  11
ATOM     11  C   LIG d   1      -8.409  95.639 118.696  0.00  0.00     0.028 C 
ATOM     12  C   LIG d   1      -9.080  94.546 119.542  0.00  0.00     0.006 C 
ENDBRANCH   8  11
ENDBRANCH   7   8
ENDBRANCH   1   7
BRANCH   6  13
ATOM     13  N   LIG d   1      -3.471  94.400 119.023  0.00  0.00    -0.311 N 
ATOM     14  C   LIG d   1      -2.754  94.788 120.076  0.00  0.00     0.210 C 
ATOM     15  C   LIG d   1      -2.038  96.132 119.910  0.00  0.00     0.109 C 
ATOM     16  O   LIG d   1      -2.616  94.131 121.119  0.00  0.00    -0.276 OA
ATOM     17  H   LIG d   1      -3.501  94.978 118.207  0.00  0.00     0.149 HD
ENDBRANCH   6  13
BRANCH   5  18
ATOM     18  N   LIG d   1      -2.264  91.594 119.085  0.00  0.00     0.381 N 
ATOM     19  H   LIG d   1      -2.475  91.549 120.062  0.00  0.00    -0.090 HD
ATOM     20  H   LIG d   1      -1.559  92.296 118.946  0.00  0.00    -0.090 HD
ATOM     21  H   LIG d   1      -1.931  90.710 118.769  0.00  0.00    -0.090 HD
ENDBRANCH   5  18
BRANCH   3  22
ATOM     22  C   LIG d   1      -6.257  89.990 116.981  0.00  0.00     0.382 C 
ATOM     23  O   LIG d   1      -5.576  89.091 116.431  0.00  0.00    -0.241 OA
ATOM     24  O   LIG d   1      -7.497  89.979 116.865  0.00  0.00    -0.241 OA
ENDBRANCH   3  22
TORSDOF 7
ENDMDL
MODEL 2
REMARK VINA RESULT:      -4.6      1.882      4.837
REMARK  7 active torsions:
REMARK  status: ('A' for Active; 'I' for Inactive)
REMARK    1  A    between atoms: C_2  and  C_3 
REMARK    2  A    between atoms: C_3  and  O_6 
REMARK    3  A    between atoms: C_3  and  C_4 
REMARK    4  A    between atoms: C_7  and  O_6 
REMARK    5  A    between atoms: C_9  and  C_10 
REMARK    6  A    between atoms: N_15  and  C_14 
REMARK    7  A    between atoms: N_20  and  C_19 
REMARK       I    between atoms: C_22  and  N_20 
ROOT
ATOM      1  C   LIG d   1      -5.813  92.943 119.643  0.00  0.00     0.161 C 
ATOM      2  C   LIG d   1      -7.109  93.400 119.356  0.00  0.00     0.016 C 
ATOM      3  C   LIG d   1      -7.407  94.744 119.035  0.00  0.00     0.038 C 
ATOM      4  C   LIG d   1      -6.399  95.698 118.830  0.00  0.00     0.028 C 
ATOM      5  C   LIG d   1      -5.118  95.401 119.602  0.00  0.00    -0.047 C 
ATOM      6  C   LIG d   1      -4.686  93.945 119.315  0.00  0.00     0.091 C 
ENDROOT
BRANCH   1   7
ATOM      7  O   LIG d   1      -5.577  91.688 118.973  0.00  0.00    -0.368 OA
BRANCH   7   8
ATOM      8  C   LIG d   1      -4.851  91.761 117.721  0.00  0.00     0.119 C 
BRANCH   8   9
ATOM      9  C   LIG d   1      -5.832  91.384 116.594  0.00  0.00     0.028 C 
ATOM     10  C   LIG d   1      -6.544  90.047 116.859  0.00  0.00     0.006 C 
ENDBRANCH   8   9
BRANCH   8  11
ATOM     11  C   LIG d   1      -3.740  90.708 117.661  0.00  0.00     0.028 C 
ATOM     12  C   LIG d   1      -3.469  90.048 119.022  0.00  0.00     0.006 C 
ENDBRANCH   8  11
ENDBRANCH   7   8
ENDBRANCH   1   7
BRANCH   6  13
ATOM     13  N   LIG d   1      -3.487  93.546 120.098  0.00  0.00    -0.311 N 
ATOM     14  C   LIG d   1      -2.247  93.591 119.613  0.00  0.00     0.210 C 
ATOM     15  C   LIG d   1      -1.158  93.116 120.580  0.00  0.00     0.109 C 
ATOM     16  O   LIG d   1      -1.943  94.011 118.487  0.00  0.00    -0.276 OA
ATOM     17  H   LIG d   1      -3.640  93.222 121.033  0.00  0.00     0.149 HD
ENDBRANCH   6  13
BRANCH   5  18
ATOM     18  N   LIG d   1      -4.109  96.396 119.190  0.00  0.00     0.381 N 
ATOM     19  H   LIG d   1      -4.082  97.145 119.852  0.00  0.00    -0.090 HD
ATOM     20  H   LIG d   1      -4.371  96.773 118.296  0.00  0.00    -0.090 HD
ATOM     21  H   LIG d   1      -3.213  95.966 119.127  0.00  0.00    -0.090 HD
ENDBRANCH   5  18
BRANCH   3  22
ATOM     22  C   LIG d   1      -8.729  95.155 118.954  0.00  0.00     0.382 C 
ATOM     23  O   LIG d   1      -8.999  96.358 118.721  0.00  0.00    -0.241 OA
ATOM     24  O   LIG d   1      -9.655  94.347 119.157  0.00  0.00    -0.241 OA
ENDBRANCH   3  22
TORSDOF 7
ENDMDL
MODEL 3
REMARK VINA RESULT:      -4.5      2.450      4.738
REMARK  7 active torsions:
REMARK  status: ('A' for Active; 'I' for Inactive)
REMARK    1  A    between atoms: C_2  and  C_3 
REMARK    2  A    between atoms: C_3  and  O_6 
REMARK    3  A    between atoms: C_3  and  C_4 
REMARK    4  A    between atoms: C_7  and  O_6 
REMARK    5  A    between atoms: C_9  and  C_10 
REMARK    6  A    between atoms: N_15  and  C_14 
REMARK    7  A    between atoms: N_20  and  C_19 
REMARK       I    between atoms: C_22  and  N_20 
ROOT
ATOM      1  C   LIG d   1      -3.240  92.254 118.633  0.00  0.00     0.161 C 
ATOM      2  C   LIG d   1      -2.521  91.079 118.357  0.00  0.00     0.016 C 
ATOM      3  C   LIG d   1      -3.122  89.895 117.870  0.00  0.00     0.038 C 
ATOM      4  C   LIG d   1      -4.470  89.854 117.481  0.00  0.00     0.028 C 
ATOM      5  C   LIG d   1      -5.343  90.865 118.217  0.00  0.00    -0.047 C 
ATOM      6  C   LIG d   1      -4.691  92.262 118.111  0.00  0.00     0.091 C 
ENDROOT
BRANCH   1   7
ATOM      7  O   LIG d   1      -2.519  93.397 118.131  0.00  0.00    -0.368 OA
BRANCH   7   8
ATOM      8  C   LIG d   1      -1.687  94.096 119.088  0.00  0.00     0.119 C 
BRANCH   8   9
ATOM      9  C   LIG d   1      -2.062  95.590 119.023  0.00  0.00     0.028 C 
ATOM     10  C   LIG d   1      -3.271  95.930 119.910  0.00  0.00     0.006 C 
ENDBRANCH   8   9
BRANCH   8  11
ATOM     11  C   LIG d   1      -0.208  94.032 118.692  0.00  0.00     0.028 C 
ATOM     12  C   LIG d   1       0.562  92.933 119.441  0.00  0.00     0.006 C 
ENDBRANCH   8  11
ENDBRANCH   7   8
ENDBRANCH   1   7
BRANCH   6  13
ATOM     13  N   LIG d   1      -5.438  93.296 118.874  0.00  0.00    -0.311 N 
ATOM     14  C   LIG d   1      -6.450  93.996 118.364  0.00  0.00     0.210 C 
ATOM     15  C   LIG d   1      -7.068  95.025 119.316  0.00  0.00     0.109 C 
ATOM     16  O   LIG d   1      -6.915  93.840 117.225  0.00  0.00    -0.276 OA
ATOM     17  H   LIG d   1      -5.148  93.465 119.818  0.00  0.00     0.149 HD
ENDBRANCH   6  13
BRANCH   5  18
ATOM     18  N   LIG d   1      -6.690  90.808 117.618  0.00  0.00     0.381 N 
ATOM     19  H   LIG d   1      -6.753  91.461 116.862  0.00  0.00    -0.090 HD
ATOM     20  H   LIG d   1      -7.367  91.066 118.315  0.00  0.00    -0.090 HD
ATOM     21  H   LIG d   1      -6.878  89.888 117.287  0.00  0.00    -0.090 HD
ENDBRANCH   5  18
BRANCH   3  22
ATOM     22  C   LIG d   1      -2.382  88.725 117.806  0.00  0.00     0.382 C 
ATOM     23  O   LIG d   1      -1.266  88.719 117.233  0.00  0.00    -0.241 OA
ATOM     24  O   LIG d   1      -2.836  87.663 118.274  0.00  0.00    -0.241 OA
ENDBRANCH   3  22
TORSDOF 7
ENDMDL
MODEL 4
REMARK VINA RESULT:      -4.4      2.124      4.677
REMARK  7 active torsions:
REMARK  status: ('A' for Active; 'I' for Inactive)
REMARK    1  A    between atoms: C_2  and  C_3 
REMARK    2  A    between atoms: C_3  and  O_6 
REMARK    3  A    between atoms: C_3  and  C_4 
REMARK    4  A    between atoms: C_7  and  O_6 
REMARK    5  A    between atoms: C_9  and  C_10 
REMARK    6  A    between atoms: N_15  and  C_14 
REMARK    7  A    between atoms: N_20  and  C_19 
REMARK       I    between atoms: C_22  and  N_20 
ROOT
ATOM      1  C   LIG d   1      -3.873  91.688 119.459  0.00  0.00     0.161 C 
ATOM      2  C   LIG d   1      -4.435  90.739 118.590  0.00  0.00     0.016 C 
ATOM      3  C   LIG d   1      -5.457  91.042 117.662  0.00  0.00     0.038 C 
ATOM      4  C   LIG d   1      -5.884  92.359 117.433  0.00  0.00     0.028 C 
ATOM      5  C   LIG d   1      -5.703  93.272 118.641  0.00  0.00    -0.047 C 
ATOM      6  C   LIG d   1      -4.248  93.152 119.148  0.00  0.00     0.091 C 
ENDROOT
BRANCH   1   7
ATOM      7  O   LIG d   1      -2.440  91.534 119.491  0.00  0.00    -0.368 OA
BRANCH   7   8
ATOM      8  C   LIG d   1      -1.763  91.606 118.213  0.00  0.00     0.119 C 
BRANCH   8   9
ATOM      9  C   LIG d   1      -0.713  90.479 118.181  0.00  0.00     0.028 C 
ATOM     10  C   LIG d   1       0.077  90.450 116.862  0.00  0.00     0.006 C 
ENDBRANCH   8   9
BRANCH   8  11
ATOM     11  C   LIG d   1      -0.965  92.907 118.078  0.00  0.00     0.028 C 
ATOM     12  C   LIG d   1      -0.242  93.300 119.376  0.00  0.00     0.006 C 
ENDBRANCH   8  11
ENDBRANCH   7   8
ENDBRANCH   1   7
BRANCH   6  13
ATOM     13  N   LIG d   1      -4.009  93.950 120.379  0.00  0.00    -0.311 N 
ATOM     14  C   LIG d   1      -3.464  95.165 120.370  0.00  0.00     0.210 C 
ATOM     15  C   LIG d   1      -3.287  95.804 121.751  0.00  0.00     0.109 C 
ATOM     16  O   LIG d   1      -3.140  95.788 119.348  0.00  0.00    -0.276 OA
ATOM     17  H   LIG d   1      -4.271  93.533 121.250  0.00  0.00     0.149 HD
ENDBRANCH   6  13
BRANCH   5  18
ATOM     18  N   LIG d   1      -6.059  94.641 118.222  0.00  0.00     0.381 N 
ATOM     19  H   LIG d   1      -6.806  94.986 118.790  0.00  0.00    -0.090 HD
ATOM     20  H   LIG d   1      -6.373  94.618 117.267  0.00  0.00    -0.090 HD
ATOM     21  H   LIG d   1      -5.266  95.239 118.303  0.00  0.00    -0.090 HD
ENDBRANCH   5  18
BRANCH   3  22
ATOM     22  C   LIG d   1      -6.092  90.016 116.978  0.00  0.00     0.382 C 
ATOM     23  O   LIG d   1      -7.345  89.965 116.947  0.00  0.00    -0.241 OA
ATOM     24  O   LIG d   1      -5.427  89.117 116.430  0.00  0.00    -0.241 OA
ENDBRANCH   3  22
TORSDOF 7
ENDMDL
MODEL 5
REMARK VINA RESULT:      -4.3      3.390      6.264
REMARK  7 active torsions:
REMARK  status: ('A' for Active; 'I' for Inactive)
REMARK    1  A    between atoms: C_2  and  C_3 
REMARK    2  A    between atoms: C_3  and  O_6 
REMARK    3  A    between atoms: C_3  and  C_4 
REMARK    4  A    between atoms: C_7  and  O_6 
REMARK    5  A    between atoms: C_9  and  C_10 
REMARK    6  A    between atoms: N_15  and  C_14 
REMARK    7  A    between atoms: N_20  and  C_19 
REMARK       I    between atoms: C_22  and  N_20 
ROOT
ATOM      1  C   LIG d   1      -2.458  89.914 118.157  0.00  0.00     0.161 C 
ATOM      2  C   LIG d   1      -3.704  89.625 117.576  0.00  0.00     0.016 C 
ATOM      3  C   LIG d   1      -4.690  90.605 117.320  0.00  0.00     0.038 C 
ATOM      4  C   LIG d   1      -4.436  91.974 117.490  0.00  0.00     0.028 C 
ATOM      5  C   LIG d   1      -3.376  92.267 118.547  0.00  0.00    -0.047 C 
ATOM      6  C   LIG d   1      -2.120  91.417 118.247  0.00  0.00     0.091 C 
ENDROOT
BRANCH   1   7
ATOM      7  O   LIG d   1      -1.416  89.207 117.456  0.00  0.00    -0.368 OA
BRANCH   7   8
ATOM      8  C   LIG d   1      -1.197  87.833 117.857  0.00  0.00     0.119 C 
BRANCH   8   9
ATOM      9  C   LIG d   1      -1.157  87.801 119.397  0.00  0.00     0.028 C 
ATOM     10  C   LIG d   1      -1.970  86.634 119.982  0.00  0.00     0.006 C 
ENDBRANCH   8   9
BRANCH   8  11
ATOM     11  C   LIG d   1       0.179  87.333 117.406  0.00  0.00     0.028 C 
ATOM     12  C   LIG d   1       1.301  88.345 117.683  0.00  0.00     0.006 C 
ENDBRANCH   8  11
ENDBRANCH   7   8
ENDBRANCH   1   7
BRANCH   6  13
ATOM     13  N   LIG d   1      -1.065  91.579 119.281  0.00  0.00    -0.311 N 
ATOM     14  C   LIG d   1       0.191  91.922 119.000  0.00  0.00     0.210 C 
ATOM     15  C   LIG d   1       1.122  92.015 120.212  0.00  0.00     0.109 C 
ATOM     16  O   LIG d   1       0.614  92.190 117.865  0.00  0.00    -0.276 OA
ATOM     17  H   LIG d   1      -1.329  91.412 120.232  0.00  0.00     0.149 HD
ENDBRANCH   6  13
BRANCH   5  18
ATOM     18  N   LIG d   1      -3.111  93.718 118.524  0.00  0.00     0.381 N 
ATOM     19  H   LIG d   1      -3.196  94.092 119.448  0.00  0.00    -0.090 HD
ATOM     20  H   LIG d   1      -3.796  94.164 117.939  0.00  0.00    -0.090 HD
ATOM     21  H   LIG d   1      -2.197  93.892 118.169  0.00  0.00    -0.090 HD
ENDBRANCH   5  18
BRANCH   3  22
ATOM     22  C   LIG d   1      -5.961  90.216 116.925  0.00  0.00     0.382 C 
ATOM     23  O   LIG d   1      -6.142  89.077 116.432  0.00  0.00    -0.241 OA
ATOM     24  O   LIG d   1      -6.920  91.005 117.016  0.00  0.00    -0.241 OA
ENDBRANCH   3  22
TORSDOF 7
ENDMDL
MODEL 6
REMARK VINA RESULT:      -4.1      1.489      1.897
REMARK  7 active torsions:
REMARK  status: ('A' for Active; 'I' for Inactive)
REMARK    1  A    between atoms: C_2  and  C_3 
REMARK    2  A    between atoms: C_3  and  O_6 
REMARK    3  A    between atoms: C_3  and  C_4 
REMARK    4  A    between atoms: C_7  and  O_6 
REMARK    5  A    between atoms: C_9  and  C_10 
REMARK    6  A    between atoms: N_15  and  C_14 
REMARK    7  A    between atoms: N_20  and  C_19 
REMARK       I    between atoms: C_22  and  N_20 
ROOT
ATOM      1  C   LIG d   1      -4.161  93.002 118.354  0.00  0.00     0.161 C 
ATOM      2  C   LIG d   1      -5.168  92.166 117.843  0.00  0.00     0.016 C 
ATOM      3  C   LIG d   1      -5.009  90.772 117.672  0.00  0.00     0.038 C 
ATOM      4  C   LIG d   1      -3.877  90.091 118.143  0.00  0.00     0.028 C 
ATOM      5  C   LIG d   1      -2.627  90.964 118.205  0.00  0.00    -0.047 C 
ATOM      6  C   LIG d   1      -2.959  92.261 118.977  0.00  0.00     0.091 C 
ENDROOT
BRANCH   1   7
ATOM      7  O   LIG d   1      -4.728  93.926 119.304  0.00  0.00    -0.368 OA
BRANCH   7   8
ATOM      8  C   LIG d   1      -6.172  94.038 119.300  0.00  0.00     0.119 C 
BRANCH   8   9
ATOM      9  C   LIG d   1      -6.524  95.467 118.843  0.00  0.00     0.028 C 
ATOM     10  C   LIG d   1      -8.001  95.607 118.438  0.00  0.00     0.006 C 
ENDBRANCH   8   9
BRANCH   8  11
ATOM     11  C   LIG d   1      -6.745  93.912 120.715  0.00  0.00     0.028 C 
ATOM     12  C   LIG d   1      -6.209  92.685 121.468  0.00  0.00     0.006 C 
ENDBRANCH   8  11
ENDBRANCH   7   8
ENDBRANCH   1   7
BRANCH   6  13
ATOM     13  N   LIG d   1      -1.815  93.209 119.011  0.00  0.00    -0.311 N 
ATOM     14  C   LIG d   1      -1.191  93.564 120.133  0.00  0.00     0.210 C 
ATOM     15  C   LIG d   1      -0.049  94.568 119.947  0.00  0.00     0.109 C 
ATOM     16  O   LIG d   1      -1.453  93.118 121.260  0.00  0.00    -0.276 OA
ATOM     17  H   LIG d   1      -1.516  93.595 118.137  0.00  0.00     0.149 HD
ENDBRANCH   6  13
BRANCH   5  18
ATOM     18  N   LIG d   1      -1.560  90.169 118.842  0.00  0.00     0.381 N 
ATOM     19  H   LIG d   1      -1.380  90.519 119.762  0.00  0.00    -0.090 HD
ATOM     20  H   LIG d   1      -0.719  90.261 118.300  0.00  0.00    -0.090 HD
ATOM     21  H   LIG d   1      -1.830  89.211 118.890  0.00  0.00    -0.090 HD
ENDBRANCH   5  18
BRANCH   3  22
ATOM     22  C   LIG d   1      -5.973  90.049 116.985  0.00  0.00     0.382 C 
ATOM     23  O   LIG d   1      -5.669  88.966 116.431  0.00  0.00    -0.241 OA
ATOM     24  O   LIG d   1      -7.133  90.489 116.876  0.00  0.00    -0.241 OA
ENDBRANCH   3  22
TORSDOF 7
ENDMDL
MODEL 7
REMARK VINA RESULT:      -4.1      2.622      4.184
REMARK  7 active torsions:
REMARK  status: ('A' for Active; 'I' for Inactive)
REMARK    1  A    between atoms: C_2  and  C_3 
REMARK    2  A    between atoms: C_3  and  O_6 
REMARK    3  A    between atoms: C_3  and  C_4 
REMARK    4  A    between atoms: C_7  and  O_6 
REMARK    5  A    between atoms: C_9  and  C_10 
REMARK    6  A    between atoms: N_15  and  C_14 
REMARK    7  A    between atoms: N_20  and  C_19 
REMARK       I    between atoms: C_22  and  N_20 
ROOT
ATOM      1  C   LIG d   1      -2.775  91.954 118.259  0.00  0.00     0.161 C 
ATOM      2  C   LIG d   1      -4.127  91.681 117.988  0.00  0.00     0.016 C 
ATOM      3  C   LIG d   1      -4.588  90.431 117.513  0.00  0.00     0.038 C 
ATOM      4  C   LIG d   1      -3.743  89.316 117.420  0.00  0.00     0.028 C 
ATOM      5  C   LIG d   1      -2.279  89.682 117.201  0.00  0.00    -0.047 C 
ATOM      6  C   LIG d   1      -1.855  90.716 118.268  0.00  0.00     0.091 C 
ENDROOT
BRANCH   1   7
ATOM      7  O   LIG d   1      -2.662  92.673 119.503  0.00  0.00    -0.368 OA
BRANCH   7   8
ATOM      8  C   LIG d   1      -2.653  94.118 119.405  0.00  0.00     0.119 C 
BRANCH   8   9
ATOM      9  C   LIG d   1      -1.188  94.560 119.218  0.00  0.00     0.028 C 
ATOM     10  C   LIG d   1      -0.933  95.172 117.830  0.00  0.00     0.006 C 
ENDBRANCH   8   9
BRANCH   8  11
ATOM     11  C   LIG d   1      -3.108  94.768 120.715  0.00  0.00     0.028 C 
ATOM     12  C   LIG d   1      -4.280  95.743 120.521  0.00  0.00     0.006 C 
ENDBRANCH   8  11
ENDBRANCH   7   8
ENDBRANCH   1   7
BRANCH   6  13
ATOM     13  N   LIG d   1      -0.460  91.191 118.075  0.00  0.00    -0.311 N 
ATOM     14  C   LIG d   1       0.591  90.650 118.689  0.00  0.00     0.210 C 
ATOM     15  C   LIG d   1       1.937  91.304 118.364  0.00  0.00     0.109 C 
ATOM     16  O   LIG d   1       0.539  89.670 119.448  0.00  0.00    -0.276 OA
ATOM     17  H   LIG d   1      -0.323  91.962 117.452  0.00  0.00     0.149 HD
ENDBRANCH   6  13
BRANCH   5  18
ATOM     18  N   LIG d   1      -1.494  88.434 117.260  0.00  0.00     0.381 N 
ATOM     19  H   LIG d   1      -0.575  88.628 117.604  0.00  0.00    -0.090 HD
ATOM     20  H   LIG d   1      -1.410  88.058 116.332  0.00  0.00    -0.090 HD
ATOM     21  H   LIG d   1      -1.946  87.774 117.854  0.00  0.00    -0.090 HD
ENDBRANCH   5  18
BRANCH   3  22
ATOM     22  C   LIG d   1      -5.901  90.300 117.088  0.00  0.00     0.382 C 
ATOM     23  O   LIG d   1      -6.701  91.258 117.219  0.00  0.00    -0.241 OA
ATOM     24  O   LIG d   1      -6.308  89.222 116.616  0.00  0.00    -0.241 OA
ENDBRANCH   3  22
TORSDOF 7
ENDMDL
MODEL 8
REMARK VINA RESULT:      -4.1      5.076      7.701
REMARK  7 active torsions:
REMARK  status: ('A' for Active; 'I' for Inactive)
REMARK    1  A    between atoms: C_2  and  C_3 
REMARK    2  A    between atoms: C_3  and  O_6 
REMARK    3  A    between atoms: C_3  and  C_4 
REMARK    4  A    between atoms: C_7  and  O_6 
REMARK    5  A    between atoms: C_9  and  C_10 
REMARK    6  A    between atoms: N_15  and  C_14 
REMARK    7  A    between atoms: N_20  and  C_19 
REMARK       I    between atoms: C_22  and  N_20 
ROOT
ATOM      1  C   LIG d   1       0.035  90.636 116.980  0.00  0.00     0.161 C 
ATOM      2  C   LIG d   1       1.342  90.206 116.701  0.00  0.00     0.016 C 
ATOM      3  C   LIG d   1       2.465  90.570 117.480  0.00  0.00     0.038 C 
ATOM      4  C   LIG d   1       2.333  91.270 118.688  0.00  0.00     0.028 C 
ATOM      5  C   LIG d   1       1.092  92.155 118.743  0.00  0.00    -0.047 C 
ATOM      6  C   LIG d   1      -0.144  91.310 118.357  0.00  0.00     0.091 C 
ENDROOT
BRANCH   1   7
ATOM      7  O   LIG d   1      -0.883  89.534 116.839  0.00  0.00    -0.368 OA
BRANCH   7   8
ATOM      8  C   LIG d   1      -1.094  88.725 118.022  0.00  0.00     0.119 C 
BRANCH   8   9
ATOM      9  C   LIG d   1      -0.406  87.367 117.784  0.00  0.00     0.028 C 
ATOM     10  C   LIG d   1       0.808  87.154 118.704  0.00  0.00     0.006 C 
ENDBRANCH   8   9
BRANCH   8  11
ATOM     11  C   LIG d   1      -2.578  88.398 118.217  0.00  0.00     0.028 C 
ATOM     12  C   LIG d   1      -3.502  89.324 117.410  0.00  0.00     0.006 C 
ENDBRANCH   8  11
ENDBRANCH   7   8
ENDBRANCH   1   7
BRANCH   6  13
ATOM     13  N   LIG d   1      -1.390  92.118 118.304  0.00  0.00    -0.311 N 
ATOM     14  C   LIG d   1      -2.248  92.210 119.318  0.00  0.00     0.210 C 
ATOM     15  C   LIG d   1      -3.479  93.080 119.047  0.00  0.00     0.109 C 
ATOM     16  O   LIG d   1      -2.091  91.679 120.428  0.00  0.00    -0.276 OA
ATOM     17  H   LIG d   1      -1.580  92.608 117.451  0.00  0.00     0.149 HD
ENDBRANCH   6  13
BRANCH   5  18
ATOM     18  N   LIG d   1       1.005  92.718 120.103  0.00  0.00     0.381 N 
ATOM     19  H   LIG d   1       1.660  92.256 120.703  0.00  0.00    -0.090 HD
ATOM     20  H   LIG d   1       0.081  92.558 120.463  0.00  0.00    -0.090 HD
ATOM     21  H   LIG d   1       1.197  93.695 120.081  0.00  0.00    -0.090 HD
ENDBRANCH   5  18
BRANCH   3  22
ATOM     22  C   LIG d   1       3.741  90.265 117.030  0.00  0.00     0.382 C 
ATOM     23  O   LIG d   1       4.201  89.108 117.185  0.00  0.00    -0.241 OA
ATOM     24  O   LIG d   1       4.455  91.145 116.513  0.00  0.00    -0.241 OA
ENDBRANCH   3  22
TORSDOF 7
ENDMDL
MODEL 9
REMARK VINA RESULT:      -4.1      2.905      5.930
REMARK  7 active torsions:
REMARK  status: ('A' for Active; 'I' for Inactive)
REMARK    1  A    between atoms: C_2  and  C_3 
REMARK    2  A    between atoms: C_3  and  O_6 
REMARK    3  A    between atoms: C_3  and  C_4 
REMARK    4  A    between atoms: C_7  and  O_6 
REMARK    5  A    between atoms: C_9  and  C_10 
REMARK    6  A    between atoms: N_15  and  C_14 
REMARK    7  A    between atoms: N_20  and  C_19 
REMARK       I    between atoms: C_22  and  N_20 
ROOT
ATOM      1  C   LIG d   1      -2.618  91.537 118.441  0.00  0.00     0.161 C 
ATOM      2  C   LIG d   1      -3.614  92.497 118.687  0.00  0.00     0.016 C 
ATOM      3  C   LIG d   1      -4.945  92.372 118.229  0.00  0.00     0.038 C 
ATOM      4  C   LIG d   1      -5.412  91.198 117.619  0.00  0.00     0.028 C 
ATOM      5  C   LIG d   1      -4.319  90.412 116.902  0.00  0.00    -0.047 C 
ATOM      6  C   LIG d   1      -3.136  90.199 117.873  0.00  0.00     0.091 C 
ENDROOT
BRANCH   1   7
ATOM      7  O   LIG d   1      -1.852  91.309 119.640  0.00  0.00    -0.368 OA
BRANCH   7   8
ATOM      8  C   LIG d   1      -0.504  91.840 119.646  0.00  0.00     0.119 C 
BRANCH   8   9
ATOM      9  C   LIG d   1      -0.529  93.159 120.443  0.00  0.00     0.028 C 
ATOM     10  C   LIG d   1      -0.085  94.365 119.598  0.00  0.00     0.006 C 
ENDBRANCH   8   9
BRANCH   8  11
ATOM     11  C   LIG d   1      -0.052  92.229 118.235  0.00  0.00     0.028 C 
ATOM     12  C   LIG d   1       1.110  91.363 117.722  0.00  0.00     0.006 C 
ENDBRANCH   8  11
ENDBRANCH   7   8
ENDBRANCH   1   7
BRANCH   6  13
ATOM     13  N   LIG d   1      -1.988  89.511 117.226  0.00  0.00    -0.311 N 
ATOM     14  C   LIG d   1      -1.524  88.327 117.622  0.00  0.00     0.210 C 
ATOM     15  C   LIG d   1      -0.321  87.806 116.831  0.00  0.00     0.109 C 
ATOM     16  O   LIG d   1      -2.015  87.645 118.534  0.00  0.00    -0.276 OA
ATOM     17  H   LIG d   1      -1.550  89.980 116.457  0.00  0.00     0.149 HD
ENDBRANCH   6  13
BRANCH   5  18
ATOM     18  N   LIG d   1      -4.916  89.148 116.431  0.00  0.00     0.381 N 
ATOM     19  H   LIG d   1      -5.850  89.064 116.779  0.00  0.00    -0.090 HD
ATOM     20  H   LIG d   1      -4.376  88.380 116.790  0.00  0.00    -0.090 HD
ATOM     21  H   LIG d   1      -4.920  89.123 115.435  0.00  0.00    -0.090 HD
ENDBRANCH   5  18
BRANCH   3  22
ATOM     22  C   LIG d   1      -5.816  93.445 118.345  0.00  0.00     0.382 C 
ATOM     23  O   LIG d   1      -5.726  94.222 119.326  0.00  0.00    -0.241 OA
ATOM     24  O   LIG d   1      -6.718  93.621 117.503  0.00  0.00    -0.241 OA
ENDBRANCH   3  22
TORSDOF 7
ENDMDL
