MODEL 1
REMARK VINA RESULT:      -4.7      0.000      0.000
REMARK  7 active torsions:
REMARK  status: ('A' for Active; 'I' for Inactive)
REMARK    1  A    between atoms: C_2  and  C_3 
REMARK    2  A    between atoms: C_3  and  O_6 
REMARK    3  A    between atoms: C_3  and  C_4 
REMARK    4  A    between atoms: C_7  and  O_6 
REMARK    5  A    between atoms: C_9  and  C_10 
REMARK    6  A    between atoms: N_15  and  C_14 
REMARK    7  A    between atoms: N_20  and  C_19 
REMARK       I    between atoms: C_22  and  N_20 
ROOT
ATOM      1  C   LIG d   1      -6.006  92.593 119.330  0.00  0.00     0.161 C 
ATOM      2  C   LIG d   1      -7.347  93.000 119.236  0.00  0.00     0.016 C 
ATOM      3  C   LIG d   1      -7.743  94.349 119.091  0.00  0.00     0.038 C 
ATOM      4  C   LIG d   1      -6.811  95.376 118.878  0.00  0.00     0.028 C 
ATOM      5  C   LIG d   1      -5.437  95.080 119.470  0.00  0.00    -0.047 C 
ATOM      6  C   LIG d   1      -4.973  93.687 118.988  0.00  0.00     0.091 C 
ENDROOT
BRANCH   1   7
ATOM      7  O   LIG d   1      -5.790  91.426 118.512  0.00  0.00    -0.368 OA
BRANCH   7   8
ATOM      8  C   LIG d   1      -5.642  91.664 117.090  0.00  0.00     0.119 C 
BRANCH   8   9
ATOM      9  C   LIG d   1      -7.007  91.386 116.430  0.00  0.00     0.028 C 
ATOM     10  C   LIG d   1      -7.592  90.025 116.843  0.00  0.00     0.006 C 
ENDBRANCH   8   9
BRANCH   8  11
ATOM     11  C   LIG d   1      -4.673  90.661 116.456  0.00  0.00     0.028 C 
ATOM     12  C   LIG d   1      -3.543  90.240 117.409  0.00  0.00     0.006 C 
ENDBRANCH   8  11
ENDBRANCH   7   8
ENDBRANCH   1   7
BRANCH   6  13
ATOM     13  N   LIG d   1      -3.675  93.283 119.588  0.00  0.00    -0.311 N 
ATOM     14  C   LIG d   1      -2.503  93.436 118.973  0.00  0.00     0.210 C 
ATOM     15  C   LIG d   1      -1.289  92.935 119.761  0.00  0.00     0.109 C 
ATOM     16  O   LIG d   1      -2.351  93.968 117.863  0.00  0.00    -0.276 OA
ATOM     17  H   LIG d   1      -3.702  92.871 120.500  0.00  0.00     0.149 HD
ENDBRANCH   6  13
BRANCH   5  18
ATOM     18  N   LIG d   1      -4.530  96.167 119.056  0.00  0.00     0.381 N 
ATOM     19  H   LIG d   1      -3.582  95.902 119.232  0.00  0.00    -0.090 HD
ATOM     20  H   LIG d   1      -4.735  96.987 119.600  0.00  0.00    -0.090 HD
ATOM     21  H   LIG d   1      -4.654  96.364 118.087  0.00  0.00    -0.090 HD
ENDBRANCH   5  18
BRANCH   3  22
ATOM     22  C   LIG d   1      -9.083  94.688 119.199  0.00  0.00     0.382 C 
ATOM     23  O   LIG d   1      -9.966  93.808 119.056  0.00  0.00    -0.241 OA
ATOM     24  O   LIG d   1      -9.422  95.870 119.395  0.00  0.00    -0.241 OA
ENDBRANCH   3  22
TORSDOF 7
ENDMDL
MODEL 2
REMARK VINA RESULT:      -4.5      2.716      5.884
REMARK  7 active torsions:
REMARK  status: ('A' for Active; 'I' for Inactive)
REMARK    1  A    between atoms: C_2  and  C_3 
REMARK    2  A    between atoms: C_3  and  O_6 
REMARK    3  A    between atoms: C_3  and  C_4 
REMARK    4  A    between atoms: C_7  and  O_6 
REMARK    5  A    between atoms: C_9  and  C_10 
REMARK    6  A    between atoms: N_15  and  C_14 
REMARK    7  A    between atoms: N_20  and  C_19 
REMARK       I    between atoms: C_22  and  N_20 
ROOT
ATOM      1  C   LIG d   1      -3.370  90.619 118.012  0.00  0.00     0.161 C 
ATOM      2  C   LIG d   1      -2.211  91.332 118.361  0.00  0.00     0.016 C 
ATOM      3  C   LIG d   1      -2.159  92.743 118.440  0.00  0.00     0.038 C 
ATOM      4  C   LIG d   1      -3.311  93.535 118.321  0.00  0.00     0.028 C 
ATOM      5  C   LIG d   1      -4.402  92.893 117.471  0.00  0.00    -0.047 C 
ATOM      6  C   LIG d   1      -4.664  91.460 117.988  0.00  0.00     0.091 C 
ENDROOT
BRANCH   1   7
ATOM      7  O   LIG d   1      -3.527  89.484 118.886  0.00  0.00    -0.368 OA
BRANCH   7   8
ATOM      8  C   LIG d   1      -2.538  89.346 119.936  0.00  0.00     0.119 C 
BRANCH   8   9
ATOM      9  C   LIG d   1      -1.924  87.939 119.812  0.00  0.00     0.028 C 
ATOM     10  C   LIG d   1      -0.965  87.820 118.616  0.00  0.00     0.006 C 
ENDBRANCH   8   9
BRANCH   8  11
ATOM     11  C   LIG d   1      -3.189  89.384 121.322  0.00  0.00     0.028 C 
ATOM     12  C   LIG d   1      -3.698  90.783 121.703  0.00  0.00     0.006 C 
ENDBRANCH   8  11
ENDBRANCH   7   8
ENDBRANCH   1   7
BRANCH   6  13
ATOM     13  N   LIG d   1      -5.659  90.731 117.159  0.00  0.00    -0.311 N 
ATOM     14  C   LIG d   1      -6.969  90.758 117.393  0.00  0.00     0.210 C 
ATOM     15  C   LIG d   1      -7.816  89.921 116.430  0.00  0.00     0.109 C 
ATOM     16  O   LIG d   1      -7.514  91.423 118.287  0.00  0.00    -0.276 OA
ATOM     17  H   LIG d   1      -5.306  90.191 116.393  0.00  0.00     0.149 HD
ENDBRANCH   6  13
BRANCH   5  18
ATOM     18  N   LIG d   1      -5.593  93.761 117.545  0.00  0.00     0.381 N 
ATOM     19  H   LIG d   1      -5.319  94.692 117.787  0.00  0.00    -0.090 HD
ATOM     20  H   LIG d   1      -6.203  93.414 118.264  0.00  0.00    -0.090 HD
ATOM     21  H   LIG d   1      -6.068  93.763 116.669  0.00  0.00    -0.090 HD
ENDBRANCH   5  18
BRANCH   3  22
ATOM     22  C   LIG d   1      -0.937  93.378 118.600  0.00  0.00     0.382 C 
ATOM     23  O   LIG d   1      -0.836  94.609 118.379  0.00  0.00    -0.241 OA
ATOM     24  O   LIG d   1       0.076  92.727 118.920  0.00  0.00    -0.241 OA
ENDBRANCH   3  22
TORSDOF 7
ENDMDL
MODEL 3
REMARK VINA RESULT:      -4.5      2.272      4.777
REMARK  7 active torsions:
REMARK  status: ('A' for Active; 'I' for Inactive)
REMARK    1  A    between atoms: C_2  and  C_3 
REMARK    2  A    between atoms: C_3  and  O_6 
REMARK    3  A    between atoms: C_3  and  C_4 
REMARK    4  A    between atoms: C_7  and  O_6 
REMARK    5  A    between atoms: C_9  and  C_10 
REMARK    6  A    between atoms: N_15  and  C_14 
REMARK    7  A    between atoms: N_20  and  C_19 
REMARK       I    between atoms: C_22  and  N_20 
ROOT
ATOM      1  C   LIG d   1      -5.898  92.711 119.639  0.00  0.00     0.161 C 
ATOM      2  C   LIG d   1      -5.973  91.614 118.765  0.00  0.00     0.016 C 
ATOM      3  C   LIG d   1      -6.905  91.524 117.706  0.00  0.00     0.038 C 
ATOM      4  C   LIG d   1      -7.731  92.601 117.352  0.00  0.00     0.028 C 
ATOM      5  C   LIG d   1      -8.042  93.534 118.518  0.00  0.00    -0.047 C 
ATOM      6  C   LIG d   1      -6.716  93.944 119.200  0.00  0.00     0.091 C 
ENDROOT
BRANCH   1   7
ATOM      7  O   LIG d   1      -4.519  93.075 119.850  0.00  0.00    -0.368 OA
BRANCH   7   8
ATOM      8  C   LIG d   1      -3.969  94.050 118.930  0.00  0.00     0.119 C 
BRANCH   8   9
ATOM      9  C   LIG d   1      -2.992  93.309 117.998  0.00  0.00     0.028 C 
ATOM     10  C   LIG d   1      -1.582  93.923 118.017  0.00  0.00     0.006 C 
ENDBRANCH   8   9
BRANCH   8  11
ATOM     11  C   LIG d   1      -3.118  95.091 119.665  0.00  0.00     0.028 C 
ATOM     12  C   LIG d   1      -3.396  95.128 121.176  0.00  0.00     0.006 C 
ENDBRANCH   8  11
ENDBRANCH   7   8
ENDBRANCH   1   7
BRANCH   6  13
ATOM     13  N   LIG d   1      -6.935  94.789 120.402  0.00  0.00    -0.311 N 
ATOM     14  C   LIG d   1      -6.884  96.120 120.382  0.00  0.00     0.210 C 
ATOM     15  C   LIG d   1      -7.119  96.797 121.736  0.00  0.00     0.109 C 
ATOM     16  O   LIG d   1      -6.698  96.805 119.365  0.00  0.00    -0.276 OA
ATOM     17  H   LIG d   1      -7.123  94.317 121.265  0.00  0.00     0.149 HD
ENDBRANCH   6  13
BRANCH   5  18
ATOM     18  N   LIG d   1      -8.794  94.684 117.980  0.00  0.00     0.381 N 
ATOM     19  H   LIG d   1      -9.102  95.268 118.732  0.00  0.00    -0.090 HD
ATOM     20  H   LIG d   1      -9.604  94.343 117.493  0.00  0.00    -0.090 HD
ATOM     21  H   LIG d   1      -8.219  95.207 117.358  0.00  0.00    -0.090 HD
ENDBRANCH   5  18
BRANCH   3  22
ATOM     22  C   LIG d   1      -7.044  90.332 117.012  0.00  0.00     0.382 C 
ATOM     23  O   LIG d   1      -8.149  89.736 117.005  0.00  0.00    -0.241 OA
ATOM     24  O   LIG d   1      -6.069  89.821 116.430  0.00  0.00    -0.241 OA
ENDBRANCH   3  22
TORSDOF 7
ENDMDL
MODEL 4
REMARK VINA RESULT:      -4.4      2.032      4.200
REMARK  7 active torsions:
REMARK  status: ('A' for Active; 'I' for Inactive)
REMARK    1  A    between atoms: C_2  and  C_3 
REMARK    2  A    between atoms: C_3  and  O_6 
REMARK    3  A    between atoms: C_3  and  C_4 
REMARK    4  A    between atoms: C_7  and  O_6 
REMARK    5  A    between atoms: C_9  and  C_10 
REMARK    6  A    between atoms: N_15  and  C_14 
REMARK    7  A    between atoms: N_20  and  C_19 
REMARK       I    between atoms: C_22  and  N_20 
ROOT
ATOM      1  C   LIG d   1      -5.604  93.997 118.340  0.00  0.00     0.161 C 
ATOM      2  C   LIG d   1      -6.449  92.996 117.831  0.00  0.00     0.016 C 
ATOM      3  C   LIG d   1      -5.983  91.742 117.376  0.00  0.00     0.038 C 
ATOM      4  C   LIG d   1      -4.648  91.342 117.540  0.00  0.00     0.028 C 
ATOM      5  C   LIG d   1      -3.668  92.510 117.586  0.00  0.00    -0.047 C 
ATOM      6  C   LIG d   1      -4.160  93.538 118.630  0.00  0.00     0.091 C 
ENDROOT
BRANCH   1   7
ATOM      7  O   LIG d   1      -6.192  94.579 119.520  0.00  0.00    -0.368 OA
BRANCH   7   8
ATOM      8  C   LIG d   1      -6.986  93.689 120.342  0.00  0.00     0.119 C 
BRANCH   8   9
ATOM      9  C   LIG d   1      -8.198  94.490 120.855  0.00  0.00     0.028 C 
ATOM     10  C   LIG d   1      -9.169  94.874 119.726  0.00  0.00     0.006 C 
ENDBRANCH   8   9
BRANCH   8  11
ATOM     11  C   LIG d   1      -6.223  93.259 121.598  0.00  0.00     0.028 C 
ATOM     12  C   LIG d   1      -5.696  91.818 121.511  0.00  0.00     0.006 C 
ENDBRANCH   8  11
ENDBRANCH   7   8
ENDBRANCH   1   7
BRANCH   6  13
ATOM     13  N   LIG d   1      -3.303  94.752 118.677  0.00  0.00    -0.311 N 
ATOM     14  C   LIG d   1      -2.309  94.913 119.549  0.00  0.00     0.210 C 
ATOM     15  C   LIG d   1      -1.564  96.248 119.440  0.00  0.00     0.109 C 
ATOM     16  O   LIG d   1      -1.953  94.066 120.381  0.00  0.00    -0.276 OA
ATOM     17  H   LIG d   1      -3.503  95.477 118.017  0.00  0.00     0.149 HD
ENDBRANCH   6  13
BRANCH   5  18
ATOM     18  N   LIG d   1      -2.335  91.961 117.898  0.00  0.00     0.381 N 
ATOM     19  H   LIG d   1      -1.630  92.494 117.429  0.00  0.00    -0.090 HD
ATOM     20  H   LIG d   1      -2.287  91.014 117.566  0.00  0.00    -0.090 HD
ATOM     21  H   LIG d   1      -2.179  91.984 118.882  0.00  0.00    -0.090 HD
ENDBRANCH   5  18
BRANCH   3  22
ATOM     22  C   LIG d   1      -6.849  90.886 116.712  0.00  0.00     0.382 C 
ATOM     23  O   LIG d   1      -8.011  91.266 116.430  0.00  0.00    -0.241 OA
ATOM     24  O   LIG d   1      -6.498  89.725 116.431  0.00  0.00    -0.241 OA
ENDBRANCH   3  22
TORSDOF 7
ENDMDL
MODEL 5
REMARK VINA RESULT:      -4.4      2.260      5.867
REMARK  7 active torsions:
REMARK  status: ('A' for Active; 'I' for Inactive)
REMARK    1  A    between atoms: C_2  and  C_3 
REMARK    2  A    between atoms: C_3  and  O_6 
REMARK    3  A    between atoms: C_3  and  C_4 
REMARK    4  A    between atoms: C_7  and  O_6 
REMARK    5  A    between atoms: C_9  and  C_10 
REMARK    6  A    between atoms: N_15  and  C_14 
REMARK    7  A    between atoms: N_20  and  C_19 
REMARK       I    between atoms: C_22  and  N_20 
ROOT
ATOM      1  C   LIG d   1      -6.135  92.196 119.720  0.00  0.00     0.161 C 
ATOM      2  C   LIG d   1      -5.059  91.528 119.112  0.00  0.00     0.016 C 
ATOM      3  C   LIG d   1      -4.987  91.270 117.724  0.00  0.00     0.038 C 
ATOM      4  C   LIG d   1      -5.921  91.800 116.822  0.00  0.00     0.028 C 
ATOM      5  C   LIG d   1      -7.290  92.051 117.445  0.00  0.00    -0.047 C 
ATOM      6  C   LIG d   1      -7.110  92.879 118.737  0.00  0.00     0.091 C 
ENDROOT
BRANCH   1   7
ATOM      7  O   LIG d   1      -5.639  93.151 120.679  0.00  0.00    -0.368 OA
BRANCH   7   8
ATOM      8  C   LIG d   1      -4.896  94.271 120.137  0.00  0.00     0.119 C 
BRANCH   8   9
ATOM      9  C   LIG d   1      -3.479  94.220 120.739  0.00  0.00     0.028 C 
ATOM     10  C   LIG d   1      -2.386  94.142 119.660  0.00  0.00     0.006 C 
ENDBRANCH   8   9
BRANCH   8  11
ATOM     11  C   LIG d   1      -5.486  95.606 120.600  0.00  0.00     0.028 C 
ATOM     12  C   LIG d   1      -5.790  96.560 119.433  0.00  0.00     0.006 C 
ENDBRANCH   8  11
ENDBRANCH   7   8
ENDBRANCH   1   7
BRANCH   6  13
ATOM     13  N   LIG d   1      -8.393  93.097 119.455  0.00  0.00    -0.311 N 
ATOM     14  C   LIG d   1      -9.136  94.192 119.311  0.00  0.00     0.210 C 
ATOM     15  C   LIG d   1     -10.412  94.224 120.159  0.00  0.00     0.109 C 
ATOM     16  O   LIG d   1      -8.877  95.127 118.538  0.00  0.00    -0.276 OA
ATOM     17  H   LIG d   1      -8.694  92.374 120.079  0.00  0.00     0.149 HD
ENDBRANCH   6  13
BRANCH   5  18
ATOM     18  N   LIG d   1      -8.122  92.730 116.434  0.00  0.00     0.381 N 
ATOM     19  H   LIG d   1      -8.393  93.633 116.770  0.00  0.00    -0.090 HD
ATOM     20  H   LIG d   1      -8.955  92.188 116.281  0.00  0.00    -0.090 HD
ATOM     21  H   LIG d   1      -7.616  92.822 115.581  0.00  0.00    -0.090 HD
ENDBRANCH   5  18
BRANCH   3  22
ATOM     22  C   LIG d   1      -3.992  90.440 117.230  0.00  0.00     0.382 C 
ATOM     23  O   LIG d   1      -2.795  90.636 117.552  0.00  0.00    -0.241 OA
ATOM     24  O   LIG d   1      -4.271  89.526 116.432  0.00  0.00    -0.241 OA
ENDBRANCH   3  22
TORSDOF 7
ENDMDL
MODEL 6
REMARK VINA RESULT:      -4.4      2.264      3.708
REMARK  7 active torsions:
REMARK  status: ('A' for Active; 'I' for Inactive)
REMARK    1  A    between atoms: C_2  and  C_3 
REMARK    2  A    between atoms: C_3  and  O_6 
REMARK    3  A    between atoms: C_3  and  C_4 
REMARK    4  A    between atoms: C_7  and  O_6 
REMARK    5  A    between atoms: C_9  and  C_10 
REMARK    6  A    between atoms: N_15  and  C_14 
REMARK    7  A    between atoms: N_20  and  C_19 
REMARK       I    between atoms: C_22  and  N_20 
ROOT
ATOM      1  C   LIG d   1      -3.805  91.001 118.198  0.00  0.00     0.161 C 
ATOM      2  C   LIG d   1      -5.049  90.727 117.606  0.00  0.00     0.016 C 
ATOM      3  C   LIG d   1      -6.039  91.711 117.383  0.00  0.00     0.038 C 
ATOM      4  C   LIG d   1      -5.790  93.075 117.601  0.00  0.00     0.028 C 
ATOM      5  C   LIG d   1      -4.733  93.335 118.668  0.00  0.00    -0.047 C 
ATOM      6  C   LIG d   1      -3.473  92.502 118.340  0.00  0.00     0.091 C 
ENDROOT
BRANCH   1   7
ATOM      7  O   LIG d   1      -2.759  90.323 117.474  0.00  0.00    -0.368 OA
BRANCH   7   8
ATOM      8  C   LIG d   1      -2.345  89.040 118.004  0.00  0.00     0.119 C 
BRANCH   8   9
ATOM      9  C   LIG d   1      -2.275  89.173 119.538  0.00  0.00     0.028 C 
ATOM     10  C   LIG d   1      -2.483  87.828 120.254  0.00  0.00     0.006 C 
ENDBRANCH   8   9
BRANCH   8  11
ATOM     11  C   LIG d   1      -0.922  88.687 117.562  0.00  0.00     0.028 C 
ATOM     12  C   LIG d   1       0.002  89.913 117.492  0.00  0.00     0.006 C 
ENDBRANCH   8  11
ENDBRANCH   7   8
ENDBRANCH   1   7
BRANCH   6  13
ATOM     13  N   LIG d   1      -2.420  92.633 119.381  0.00  0.00    -0.311 N 
ATOM     14  C   LIG d   1      -1.201  93.109 119.134  0.00  0.00     0.210 C 
ATOM     15  C   LIG d   1      -0.262  93.141 120.344  0.00  0.00     0.109 C 
ATOM     16  O   LIG d   1      -0.818  93.537 118.035  0.00  0.00    -0.276 OA
ATOM     17  H   LIG d   1      -2.655  92.338 120.308  0.00  0.00     0.149 HD
ENDBRANCH   6  13
BRANCH   5  18
ATOM     18  N   LIG d   1      -4.475  94.787 118.695  0.00  0.00     0.381 N 
ATOM     19  H   LIG d   1      -5.261  95.278 118.319  0.00  0.00    -0.090 HD
ATOM     20  H   LIG d   1      -3.675  94.986 118.120  0.00  0.00    -0.090 HD
ATOM     21  H   LIG d   1      -4.304  95.086 119.630  0.00  0.00    -0.090 HD
ENDBRANCH   5  18
BRANCH   3  22
ATOM     22  C   LIG d   1      -7.307  91.330 116.974  0.00  0.00     0.382 C 
ATOM     23  O   LIG d   1      -8.068  92.165 116.430  0.00  0.00    -0.241 OA
ATOM     24  O   LIG d   1      -7.717  90.172 117.183  0.00  0.00    -0.241 OA
ENDBRANCH   3  22
TORSDOF 7
ENDMDL
MODEL 7
REMARK VINA RESULT:      -4.4      1.987      4.749
REMARK  7 active torsions:
REMARK  status: ('A' for Active; 'I' for Inactive)
REMARK    1  A    between atoms: C_2  and  C_3 
REMARK    2  A    between atoms: C_3  and  O_6 
REMARK    3  A    between atoms: C_3  and  C_4 
REMARK    4  A    between atoms: C_7  and  O_6 
REMARK    5  A    between atoms: C_9  and  C_10 
REMARK    6  A    between atoms: N_15  and  C_14 
REMARK    7  A    between atoms: N_20  and  C_19 
REMARK       I    between atoms: C_22  and  N_20 
ROOT
ATOM      1  C   LIG d   1      -5.822  94.002 118.070  0.00  0.00     0.161 C 
ATOM      2  C   LIG d   1      -6.615  92.946 117.591  0.00  0.00     0.016 C 
ATOM      3  C   LIG d   1      -6.138  91.623 117.438  0.00  0.00     0.038 C 
ATOM      4  C   LIG d   1      -4.872  91.233 117.899  0.00  0.00     0.028 C 
ATOM      5  C   LIG d   1      -3.859  92.373 117.925  0.00  0.00    -0.047 C 
ATOM      6  C   LIG d   1      -4.473  93.573 118.683  0.00  0.00     0.091 C 
ENDROOT
BRANCH   1   7
ATOM      7  O   LIG d   1      -6.575  94.787 119.016  0.00  0.00    -0.368 OA
BRANCH   7   8
ATOM      8  C   LIG d   1      -6.858  96.154 118.627  0.00  0.00     0.119 C 
BRANCH   8   9
ATOM      9  C   LIG d   1      -6.338  97.072 119.751  0.00  0.00     0.028 C 
ATOM     10  C   LIG d   1      -6.118  96.315 121.072  0.00  0.00     0.006 C 
ENDBRANCH   8   9
BRANCH   8  11
ATOM     11  C   LIG d   1      -8.366  96.413 118.558  0.00  0.00     0.028 C 
ATOM     12  C   LIG d   1      -9.200  95.201 119.003  0.00  0.00     0.006 C 
ENDBRANCH   8  11
ENDBRANCH   7   8
ENDBRANCH   1   7
BRANCH   6  13
ATOM     13  N   LIG d   1      -3.580  94.760 118.682  0.00  0.00    -0.311 N 
ATOM     14  C   LIG d   1      -2.739  95.046 119.674  0.00  0.00     0.210 C 
ATOM     15  C   LIG d   1      -1.924  96.329 119.482  0.00  0.00     0.109 C 
ATOM     16  O   LIG d   1      -2.567  94.342 120.680  0.00  0.00    -0.276 OA
ATOM     17  H   LIG d   1      -3.632  95.370 117.889  0.00  0.00     0.149 HD
ENDBRANCH   6  13
BRANCH   5  18
ATOM     18  N   LIG d   1      -2.628  91.860 118.555  0.00  0.00     0.381 N 
ATOM     19  H   LIG d   1      -2.458  90.922 118.253  0.00  0.00    -0.090 HD
ATOM     20  H   LIG d   1      -2.752  91.853 119.552  0.00  0.00    -0.090 HD
ATOM     21  H   LIG d   1      -1.855  92.440 118.314  0.00  0.00    -0.090 HD
ENDBRANCH   5  18
BRANCH   3  22
ATOM     22  C   LIG d   1      -6.918  90.684 116.780  0.00  0.00     0.382 C 
ATOM     23  O   LIG d   1      -6.417  89.588 116.430  0.00  0.00    -0.241 OA
ATOM     24  O   LIG d   1      -8.104  90.936 116.494  0.00  0.00    -0.241 OA
ENDBRANCH   3  22
TORSDOF 7
ENDMDL
MODEL 8
REMARK VINA RESULT:      -4.3      2.283      6.033
REMARK  7 active torsions:
REMARK  status: ('A' for Active; 'I' for Inactive)
REMARK    1  A    between atoms: C_2  and  C_3 
REMARK    2  A    between atoms: C_3  and  O_6 
REMARK    3  A    between atoms: C_3  and  C_4 
REMARK    4  A    between atoms: C_7  and  O_6 
REMARK    5  A    between atoms: C_9  and  C_10 
REMARK    6  A    between atoms: N_15  and  C_14 
REMARK    7  A    between atoms: N_20  and  C_19 
REMARK       I    between atoms: C_22  and  N_20 
ROOT
ATOM      1  C   LIG d   1      -5.280  93.555 119.315  0.00  0.00     0.161 C 
ATOM      2  C   LIG d   1      -4.127  92.873 118.892  0.00  0.00     0.016 C 
ATOM      3  C   LIG d   1      -4.160  91.627 118.225  0.00  0.00     0.038 C 
ATOM      4  C   LIG d   1      -5.364  91.046 117.799  0.00  0.00     0.028 C 
ATOM      5  C   LIG d   1      -6.565  91.449 118.648  0.00  0.00    -0.047 C 
ATOM      6  C   LIG d   1      -6.605  92.990 118.761  0.00  0.00     0.091 C 
ENDROOT
BRANCH   1   7
ATOM      7  O   LIG d   1      -5.163  94.956 119.001  0.00  0.00    -0.368 OA
BRANCH   7   8
ATOM      8  C   LIG d   1      -5.015  95.852 120.130  0.00  0.00     0.119 C 
BRANCH   8   9
ATOM      9  C   LIG d   1      -6.308  96.684 120.233  0.00  0.00     0.028 C 
ATOM     10  C   LIG d   1      -6.909  97.008 118.854  0.00  0.00     0.006 C 
ENDBRANCH   8   9
BRANCH   8  11
ATOM     11  C   LIG d   1      -3.896  96.870 119.891  0.00  0.00     0.028 C 
ATOM     12  C   LIG d   1      -2.611  96.226 119.349  0.00  0.00     0.006 C 
ENDBRANCH   8  11
ENDBRANCH   7   8
ENDBRANCH   1   7
BRANCH   6  13
ATOM     13  N   LIG d   1      -7.701  93.465 119.645  0.00  0.00    -0.311 N 
ATOM     14  C   LIG d   1      -8.899  93.834 119.193  0.00  0.00     0.210 C 
ATOM     15  C   LIG d   1      -9.878  94.311 120.271  0.00  0.00     0.109 C 
ATOM     16  O   LIG d   1      -9.255  93.781 118.006  0.00  0.00    -0.276 OA
ATOM     17  H   LIG d   1      -7.509  93.510 120.626  0.00  0.00     0.149 HD
ENDBRANCH   6  13
BRANCH   5  18
ATOM     18  N   LIG d   1      -7.770  90.884 118.012  0.00  0.00     0.381 N 
ATOM     19  H   LIG d   1      -7.876  89.926 118.277  0.00  0.00    -0.090 HD
ATOM     20  H   LIG d   1      -7.660  90.925 117.014  0.00  0.00    -0.090 HD
ATOM     21  H   LIG d   1      -8.575  91.403 118.286  0.00  0.00    -0.090 HD
ENDBRANCH   5  18
BRANCH   3  22
ATOM     22  C   LIG d   1      -2.981  90.929 118.014  0.00  0.00     0.382 C 
ATOM     23  O   LIG d   1      -1.879  91.524 118.085  0.00  0.00    -0.241 OA
ATOM     24  O   LIG d   1      -3.007  89.722 117.708  0.00  0.00    -0.241 OA
ENDBRANCH   3  22
TORSDOF 7
ENDMDL
MODEL 9
REMARK VINA RESULT:      -4.2      2.418      4.452
REMARK  7 active torsions:
REMARK  status: ('A' for Active; 'I' for Inactive)
REMARK    1  A    between atoms: C_2  and  C_3 
REMARK    2  A    between atoms: C_3  and  O_6 
REMARK    3  A    between atoms: C_3  and  C_4 
REMARK    4  A    between atoms: C_7  and  O_6 
REMARK    5  A    between atoms: C_9  and  C_10 
REMARK    6  A    between atoms: N_15  and  C_14 
REMARK    7  A    between atoms: N_20  and  C_19 
REMARK       I    between atoms: C_22  and  N_20 
ROOT
ATOM      1  C   LIG d   1      -4.287  93.062 117.925  0.00  0.00     0.161 C 
ATOM      2  C   LIG d   1      -5.636  92.843 117.599  0.00  0.00     0.016 C 
ATOM      3  C   LIG d   1      -6.136  91.597 117.156  0.00  0.00     0.038 C 
ATOM      4  C   LIG d   1      -5.345  90.439 117.153  0.00  0.00     0.028 C 
ATOM      5  C   LIG d   1      -3.855  90.723 116.992  0.00  0.00    -0.047 C 
ATOM      6  C   LIG d   1      -3.432  91.783 118.035  0.00  0.00     0.091 C 
ENDROOT
BRANCH   1   7
ATOM      7  O   LIG d   1      -4.197  93.831 119.142  0.00  0.00    -0.368 OA
BRANCH   7   8
ATOM      8  C   LIG d   1      -5.452  94.294 119.697  0.00  0.00     0.119 C 
BRANCH   8   9
ATOM      9  C   LIG d   1      -5.387  95.832 119.770  0.00  0.00     0.028 C 
ATOM     10  C   LIG d   1      -6.556  96.504 119.031  0.00  0.00     0.006 C 
ENDBRANCH   8   9
BRANCH   8  11
ATOM     11  C   LIG d   1      -5.627  93.826 121.145  0.00  0.00     0.028 C 
ATOM     12  C   LIG d   1      -5.692  92.296 121.274  0.00  0.00     0.006 C 
ENDBRANCH   8  11
ENDBRANCH   7   8
ENDBRANCH   1   7
BRANCH   6  13
ATOM     13  N   LIG d   1      -2.007  92.181 117.891  0.00  0.00    -0.311 N 
ATOM     14  C   LIG d   1      -1.014  91.609 118.571  0.00  0.00     0.210 C 
ATOM     15  C   LIG d   1       0.378  92.184 118.288  0.00  0.00     0.109 C 
ATOM     16  O   LIG d   1      -1.150  90.660 119.357  0.00  0.00    -0.276 OA
ATOM     17  H   LIG d   1      -1.803  92.923 117.251  0.00  0.00     0.149 HD
ENDBRANCH   6  13
BRANCH   5  18
ATOM     18  N   LIG d   1      -3.138  89.443 117.144  0.00  0.00     0.381 N 
ATOM     19  H   LIG d   1      -3.780  88.682 117.047  0.00  0.00    -0.090 HD
ATOM     20  H   LIG d   1      -2.738  89.402 118.065  0.00  0.00    -0.090 HD
ATOM     21  H   LIG d   1      -2.420  89.371 116.458  0.00  0.00    -0.090 HD
ENDBRANCH   5  18
BRANCH   3  22
ATOM     22  C   LIG d   1      -7.433  91.511 116.671  0.00  0.00     0.382 C 
ATOM     23  O   LIG d   1      -7.938  90.388 116.430  0.00  0.00    -0.241 OA
ATOM     24  O   LIG d   1      -8.087  92.543 116.430  0.00  0.00    -0.241 OA
ENDBRANCH   3  22
TORSDOF 7
ENDMDL
