MODEL 1
REMARK VINA RESULT:      -4.8      0.000      0.000
REMARK  7 active torsions:
REMARK  status: ('A' for Active; 'I' for Inactive)
REMARK    1  A    between atoms: C_2  and  C_3 
REMARK    2  A    between atoms: C_3  and  O_6 
REMARK    3  A    between atoms: C_3  and  C_4 
REMARK    4  A    between atoms: C_7  and  O_6 
REMARK    5  A    between atoms: C_9  and  C_10 
REMARK    6  A    between atoms: N_15  and  C_14 
REMARK    7  A    between atoms: N_20  and  C_19 
REMARK       I    between atoms: C_22  and  N_20 
ROOT
ATOM      1  C   LIG d   1      -5.098  92.918 119.754  0.00  0.00     0.161 C 
ATOM      2  C   LIG d   1      -4.010  92.195 119.237  0.00  0.00     0.016 C 
ATOM      3  C   LIG d   1      -3.933  91.759 117.894  0.00  0.00     0.038 C 
ATOM      4  C   LIG d   1      -4.876  92.150 116.932  0.00  0.00     0.028 C 
ATOM      5  C   LIG d   1      -6.249  92.456 117.520  0.00  0.00    -0.047 C 
ATOM      6  C   LIG d   1      -6.084  93.450 118.692  0.00  0.00     0.091 C 
ENDROOT
BRANCH   1   7
ATOM      7  O   LIG d   1      -4.619  93.999 120.578  0.00  0.00    -0.368 OA
BRANCH   7   8
ATOM      8  C   LIG d   1      -4.354  95.251 119.898  0.00  0.00     0.119 C 
BRANCH   8   9
ATOM      9  C   LIG d   1      -2.843  95.530 120.014  0.00  0.00     0.028 C 
ATOM     10  C   LIG d   1      -2.073  95.136 118.743  0.00  0.00     0.006 C 
ENDBRANCH   8   9
BRANCH   8  11
ATOM     11  C   LIG d   1      -5.039  96.425 120.604  0.00  0.00     0.028 C 
ATOM     12  C   LIG d   1      -5.848  95.989 121.836  0.00  0.00     0.006 C 
ENDBRANCH   8  11
ENDBRANCH   7   8
ENDBRANCH   1   7
BRANCH   6  13
ATOM     13  N   LIG d   1      -7.371  93.737 119.378  0.00  0.00    -0.311 N 
ATOM     14  C   LIG d   1      -8.097  94.830 119.147  0.00  0.00     0.210 C 
ATOM     15  C   LIG d   1      -9.380  94.940 119.975  0.00  0.00     0.109 C 
ATOM     16  O   LIG d   1      -7.816  95.702 118.311  0.00  0.00    -0.276 OA
ATOM     17  H   LIG d   1      -7.689  93.066 120.050  0.00  0.00     0.149 HD
ENDBRANCH   6  13
BRANCH   5  18
ATOM     18  N   LIG d   1      -7.093  92.982 116.431  0.00  0.00     0.381 N 
ATOM     19  H   LIG d   1      -8.042  92.694 116.568  0.00  0.00    -0.090 HD
ATOM     20  H   LIG d   1      -6.772  92.602 115.558  0.00  0.00    -0.090 HD
ATOM     21  H   LIG d   1      -7.040  93.977 116.408  0.00  0.00    -0.090 HD
ENDBRANCH   5  18
BRANCH   3  22
ATOM     22  C   LIG d   1      -2.923  90.889 117.511  0.00  0.00     0.382 C 
ATOM     23  O   LIG d   1      -1.729  91.274 117.515  0.00  0.00    -0.241 OA
ATOM     24  O   LIG d   1      -3.196  89.739 117.119  0.00  0.00    -0.241 OA
ENDBRANCH   3  22
TORSDOF 7
ENDMDL
MODEL 2
REMARK VINA RESULT:      -4.6      0.791      1.294
REMARK  7 active torsions:
REMARK  status: ('A' for Active; 'I' for Inactive)
REMARK    1  A    between atoms: C_2  and  C_3 
REMARK    2  A    between atoms: C_3  and  O_6 
REMARK    3  A    between atoms: C_3  and  C_4 
REMARK    4  A    between atoms: C_7  and  O_6 
REMARK    5  A    between atoms: C_9  and  C_10 
REMARK    6  A    between atoms: N_15  and  C_14 
REMARK    7  A    between atoms: N_20  and  C_19 
REMARK       I    between atoms: C_22  and  N_20 
ROOT
ATOM      1  C   LIG d   1      -5.156  92.933 119.744  0.00  0.00     0.161 C 
ATOM      2  C   LIG d   1      -4.059  92.232 119.219  0.00  0.00     0.016 C 
ATOM      3  C   LIG d   1      -3.980  91.805 117.873  0.00  0.00     0.038 C 
ATOM      4  C   LIG d   1      -4.934  92.186 116.917  0.00  0.00     0.028 C 
ATOM      5  C   LIG d   1      -6.310  92.465 117.513  0.00  0.00    -0.047 C 
ATOM      6  C   LIG d   1      -6.156  93.454 118.690  0.00  0.00     0.091 C 
ENDROOT
BRANCH   1   7
ATOM      7  O   LIG d   1      -4.692  94.017 120.573  0.00  0.00    -0.368 OA
BRANCH   7   8
ATOM      8  C   LIG d   1      -3.536  94.742 120.086  0.00  0.00     0.119 C 
BRANCH   8   9
ATOM      9  C   LIG d   1      -2.463  94.699 121.190  0.00  0.00     0.028 C 
ATOM     10  C   LIG d   1      -3.053  94.362 122.570  0.00  0.00     0.006 C 
ENDBRANCH   8   9
BRANCH   8  11
ATOM     11  C   LIG d   1      -3.854  96.227 119.887  0.00  0.00     0.028 C 
ATOM     12  C   LIG d   1      -5.229  96.623 120.447  0.00  0.00     0.006 C 
ENDBRANCH   8  11
ENDBRANCH   7   8
ENDBRANCH   1   7
BRANCH   6  13
ATOM     13  N   LIG d   1      -7.444  93.716 119.383  0.00  0.00    -0.311 N 
ATOM     14  C   LIG d   1      -8.195  94.792 119.153  0.00  0.00     0.210 C 
ATOM     15  C   LIG d   1      -9.476  94.878 119.990  0.00  0.00     0.109 C 
ATOM     16  O   LIG d   1      -7.938  95.667 118.313  0.00  0.00    -0.276 OA
ATOM     17  H   LIG d   1      -7.744  93.041 120.059  0.00  0.00     0.149 HD
ENDBRANCH   6  13
BRANCH   5  18
ATOM     18  N   LIG d   1      -7.167  92.984 116.430  0.00  0.00     0.381 N 
ATOM     19  H   LIG d   1      -7.812  93.654 116.800  0.00  0.00    -0.090 HD
ATOM     20  H   LIG d   1      -7.694  92.222 116.039  0.00  0.00    -0.090 HD
ATOM     21  H   LIG d   1      -6.606  93.406 115.724  0.00  0.00    -0.090 HD
ENDBRANCH   5  18
BRANCH   3  22
ATOM     22  C   LIG d   1      -2.958  90.954 117.480  0.00  0.00     0.382 C 
ATOM     23  O   LIG d   1      -3.221  89.781 117.123  0.00  0.00    -0.241 OA
ATOM     24  O   LIG d   1      -1.772  91.332 117.521  0.00  0.00    -0.241 OA
ENDBRANCH   3  22
TORSDOF 7
ENDMDL
MODEL 3
REMARK VINA RESULT:      -4.3      3.531      5.798
REMARK  7 active torsions:
REMARK  status: ('A' for Active; 'I' for Inactive)
REMARK    1  A    between atoms: C_2  and  C_3 
REMARK    2  A    between atoms: C_3  and  O_6 
REMARK    3  A    between atoms: C_3  and  C_4 
REMARK    4  A    between atoms: C_7  and  O_6 
REMARK    5  A    between atoms: C_9  and  C_10 
REMARK    6  A    between atoms: N_15  and  C_14 
REMARK    7  A    between atoms: N_20  and  C_19 
REMARK       I    between atoms: C_22  and  N_20 
ROOT
ATOM      1  C   LIG d   1      -1.163  93.154 118.318  0.00  0.00     0.161 C 
ATOM      2  C   LIG d   1      -0.025  92.349 118.145  0.00  0.00     0.016 C 
ATOM      3  C   LIG d   1       1.230  92.640 118.727  0.00  0.00     0.038 C 
ATOM      4  C   LIG d   1       1.394  93.682 119.652  0.00  0.00     0.028 C 
ATOM      5  C   LIG d   1       0.397  94.821 119.465  0.00  0.00    -0.047 C 
ATOM      6  C   LIG d   1      -1.031  94.234 119.413  0.00  0.00     0.091 C 
ENDROOT
BRANCH   1   7
ATOM      7  O   LIG d   1      -2.315  92.325 118.568  0.00  0.00    -0.368 OA
BRANCH   7   8
ATOM      8  C   LIG d   1      -3.321  92.299 117.526  0.00  0.00     0.119 C 
BRANCH   8   9
ATOM      9  C   LIG d   1      -4.653  92.750 118.156  0.00  0.00     0.028 C 
ATOM     10  C   LIG d   1      -4.626  92.687 119.692  0.00  0.00     0.006 C 
ENDBRANCH   8   9
BRANCH   8  11
ATOM     11  C   LIG d   1      -3.571  90.873 117.027  0.00  0.00     0.028 C 
ATOM     12  C   LIG d   1      -2.808  89.815 117.841  0.00  0.00     0.006 C 
ENDBRANCH   8  11
ENDBRANCH   7   8
ENDBRANCH   1   7
BRANCH   6  13
ATOM     13  N   LIG d   1      -2.062  95.271 119.148  0.00  0.00    -0.311 N 
ATOM     14  C   LIG d   1      -2.752  95.881 120.110  0.00  0.00     0.210 C 
ATOM     15  C   LIG d   1      -3.780  96.905 119.618  0.00  0.00     0.109 C 
ATOM     16  O   LIG d   1      -2.588  95.695 121.325  0.00  0.00    -0.276 OA
ATOM     17  H   LIG d   1      -2.237  95.506 118.191  0.00  0.00     0.149 HD
ENDBRANCH   6  13
BRANCH   5  18
ATOM     18  N   LIG d   1       0.592  95.771 120.577  0.00  0.00     0.381 N 
ATOM     19  H   LIG d   1      -0.052  95.565 121.315  0.00  0.00    -0.090 HD
ATOM     20  H   LIG d   1       0.406  96.701 120.246  0.00  0.00    -0.090 HD
ATOM     21  H   LIG d   1       1.527  95.711 120.917  0.00  0.00    -0.090 HD
ENDBRANCH   5  18
BRANCH   3  22
ATOM     22  C   LIG d   1       2.347  91.908 118.354  0.00  0.00     0.382 C 
ATOM     23  O   LIG d   1       2.324  90.655 118.414  0.00  0.00    -0.241 OA
ATOM     24  O   LIG d   1       3.392  92.486 118.001  0.00  0.00    -0.241 OA
ENDBRANCH   3  22
TORSDOF 7
ENDMDL
MODEL 4
REMARK VINA RESULT:      -4.1      3.452      5.717
REMARK  7 active torsions:
REMARK  status: ('A' for Active; 'I' for Inactive)
REMARK    1  A    between atoms: C_2  and  C_3 
REMARK    2  A    between atoms: C_3  and  O_6 
REMARK    3  A    between atoms: C_3  and  C_4 
REMARK    4  A    between atoms: C_7  and  O_6 
REMARK    5  A    between atoms: C_9  and  C_10 
REMARK    6  A    between atoms: N_15  and  C_14 
REMARK    7  A    between atoms: N_20  and  C_19 
REMARK       I    between atoms: C_22  and  N_20 
ROOT
ATOM      1  C   LIG d   1      -1.219  91.392 118.022  0.00  0.00     0.161 C 
ATOM      2  C   LIG d   1       0.095  91.545 118.494  0.00  0.00     0.016 C 
ATOM      3  C   LIG d   1       0.668  92.799 118.808  0.00  0.00     0.038 C 
ATOM      4  C   LIG d   1      -0.090  93.980 118.814  0.00  0.00     0.028 C 
ATOM      5  C   LIG d   1      -1.278  93.941 117.860  0.00  0.00    -0.047 C 
ATOM      6  C   LIG d   1      -2.096  92.657 118.128  0.00  0.00     0.091 C 
ENDROOT
BRANCH   1   7
ATOM      7  O   LIG d   1      -1.853  90.285 118.692  0.00  0.00    -0.368 OA
BRANCH   7   8
ATOM      8  C   LIG d   1      -1.066  89.621 119.712  0.00  0.00     0.119 C 
BRANCH   8   9
ATOM      9  C   LIG d   1      -0.973  88.132 119.328  0.00  0.00     0.028 C 
ATOM     10  C   LIG d   1       0.133  87.860 118.295  0.00  0.00     0.006 C 
ENDBRANCH   8   9
BRANCH   8  11
ATOM     11  C   LIG d   1      -1.776  89.647 121.068  0.00  0.00     0.028 C 
ATOM     12  C   LIG d   1      -2.189  91.064 121.498  0.00  0.00     0.006 C 
ENDBRANCH   8  11
ENDBRANCH   7   8
ENDBRANCH   1   7
BRANCH   6  13
ATOM     13  N   LIG d   1      -3.230  92.499 117.180  0.00  0.00    -0.311 N 
ATOM     14  C   LIG d   1      -4.498  92.380 117.568  0.00  0.00     0.210 C 
ATOM     15  C   LIG d   1      -5.509  92.207 116.430  0.00  0.00     0.109 C 
ATOM     16  O   LIG d   1      -4.886  92.433 118.745  0.00  0.00    -0.276 OA
ATOM     17  H   LIG d   1      -3.009  92.477 116.204  0.00  0.00     0.149 HD
ENDBRANCH   6  13
BRANCH   5  18
ATOM     18  N   LIG d   1      -2.057  95.177 118.068  0.00  0.00     0.381 N 
ATOM     19  H   LIG d   1      -3.000  95.038 117.763  0.00  0.00    -0.090 HD
ATOM     20  H   LIG d   1      -1.652  95.913 117.517  0.00  0.00    -0.090 HD
ATOM     21  H   LIG d   1      -2.046  95.429 119.032  0.00  0.00    -0.090 HD
ENDBRANCH   5  18
BRANCH   3  22
ATOM     22  C   LIG d   1       2.025  92.886 119.083  0.00  0.00     0.382 C 
ATOM     23  O   LIG d   1       2.863  92.524 118.221  0.00  0.00    -0.241 OA
ATOM     24  O   LIG d   1       2.420  93.278 120.196  0.00  0.00    -0.241 OA
ENDBRANCH   3  22
TORSDOF 7
ENDMDL
MODEL 5
REMARK VINA RESULT:      -4.0      3.723      6.628
REMARK  7 active torsions:
REMARK  status: ('A' for Active; 'I' for Inactive)
REMARK    1  A    between atoms: C_2  and  C_3 
REMARK    2  A    between atoms: C_3  and  O_6 
REMARK    3  A    between atoms: C_3  and  C_4 
REMARK    4  A    between atoms: C_7  and  O_6 
REMARK    5  A    between atoms: C_9  and  C_10 
REMARK    6  A    between atoms: N_15  and  C_14 
REMARK    7  A    between atoms: N_20  and  C_19 
REMARK       I    between atoms: C_22  and  N_20 
ROOT
ATOM      1  C   LIG d   1      -2.040  91.624 119.983  0.00  0.00     0.161 C 
ATOM      2  C   LIG d   1      -3.335  91.439 119.472  0.00  0.00     0.016 C 
ATOM      3  C   LIG d   1      -3.835  92.136 118.348  0.00  0.00     0.038 C 
ATOM      4  C   LIG d   1      -3.016  92.960 117.562  0.00  0.00     0.028 C 
ATOM      5  C   LIG d   1      -1.848  93.566 118.334  0.00  0.00    -0.047 C 
ATOM      6  C   LIG d   1      -1.095  92.436 119.073  0.00  0.00     0.091 C 
ENDROOT
BRANCH   1   7
ATOM      7  O   LIG d   1      -1.453  90.347 120.301  0.00  0.00    -0.368 OA
BRANCH   7   8
ATOM      8  C   LIG d   1      -1.154  89.484 119.176  0.00  0.00     0.119 C 
BRANCH   8   9
ATOM      9  C   LIG d   1      -1.766  88.102 119.477  0.00  0.00     0.028 C 
ATOM     10  C   LIG d   1      -2.513  88.071 120.820  0.00  0.00     0.006 C 
ENDBRANCH   8   9
BRANCH   8  11
ATOM     11  C   LIG d   1       0.352  89.241 119.045  0.00  0.00     0.028 C 
ATOM     12  C   LIG d   1       1.100  89.402 120.378  0.00  0.00     0.006 C 
ENDBRANCH   8  11
ENDBRANCH   7   8
ENDBRANCH   1   7
BRANCH   6  13
ATOM     13  N   LIG d   1       0.012  92.953 119.920  0.00  0.00    -0.311 N 
ATOM     14  C   LIG d   1       1.273  93.046 119.501  0.00  0.00     0.210 C 
ATOM     15  C   LIG d   1       2.260  93.586 120.540  0.00  0.00     0.109 C 
ATOM     16  O   LIG d   1       1.661  92.763 118.358  0.00  0.00    -0.276 OA
ATOM     17  H   LIG d   1      -0.221  93.234 120.852  0.00  0.00     0.149 HD
ENDBRANCH   6  13
BRANCH   5  18
ATOM     18  N   LIG d   1      -1.002  94.288 117.365  0.00  0.00     0.381 N 
ATOM     19  H   LIG d   1      -0.172  94.615 117.819  0.00  0.00    -0.090 HD
ATOM     20  H   LIG d   1      -1.508  95.085 117.022  0.00  0.00    -0.090 HD
ATOM     21  H   LIG d   1      -0.760  93.687 116.608  0.00  0.00    -0.090 HD
ENDBRANCH   5  18
BRANCH   3  22
ATOM     22  C   LIG d   1      -5.180  92.042 118.024  0.00  0.00     0.382 C 
ATOM     23  O   LIG d   1      -6.034  92.658 118.706  0.00  0.00    -0.241 OA
ATOM     24  O   LIG d   1      -5.554  91.313 117.085  0.00  0.00    -0.241 OA
ENDBRANCH   3  22
TORSDOF 7
ENDMDL
MODEL 6
REMARK VINA RESULT:      -4.0      2.481      4.823
REMARK  7 active torsions:
REMARK  status: ('A' for Active; 'I' for Inactive)
REMARK    1  A    between atoms: C_2  and  C_3 
REMARK    2  A    between atoms: C_3  and  O_6 
REMARK    3  A    between atoms: C_3  and  C_4 
REMARK    4  A    between atoms: C_7  and  O_6 
REMARK    5  A    between atoms: C_9  and  C_10 
REMARK    6  A    between atoms: N_15  and  C_14 
REMARK    7  A    between atoms: N_20  and  C_19 
REMARK       I    between atoms: C_22  and  N_20 
ROOT
ATOM      1  C   LIG d   1      -3.022  93.842 118.517  0.00  0.00     0.161 C 
ATOM      2  C   LIG d   1      -1.662  93.502 118.610  0.00  0.00     0.016 C 
ATOM      3  C   LIG d   1      -0.747  94.177 119.450  0.00  0.00     0.038 C 
ATOM      4  C   LIG d   1      -1.165  95.147 120.374  0.00  0.00     0.028 C 
ATOM      5  C   LIG d   1      -2.440  95.872 119.956  0.00  0.00    -0.047 C 
ATOM      6  C   LIG d   1      -3.519  94.824 119.598  0.00  0.00     0.091 C 
ENDROOT
BRANCH   1   7
ATOM      7  O   LIG d   1      -3.826  92.646 118.519  0.00  0.00    -0.368 OA
BRANCH   7   8
ATOM      8  C   LIG d   1      -4.234  92.150 117.220  0.00  0.00     0.119 C 
BRANCH   8   9
ATOM      9  C   LIG d   1      -5.752  91.889 117.281  0.00  0.00     0.028 C 
ATOM     10  C   LIG d   1      -6.576  93.177 117.112  0.00  0.00     0.006 C 
ENDBRANCH   8   9
BRANCH   8  11
ATOM     11  C   LIG d   1      -3.600  90.789 116.918  0.00  0.00     0.028 C 
ATOM     12  C   LIG d   1      -3.038  90.102 118.173  0.00  0.00     0.006 C 
ENDBRANCH   8  11
ENDBRANCH   7   8
ENDBRANCH   1   7
BRANCH   6  13
ATOM     13  N   LIG d   1      -4.771  95.448 119.099  0.00  0.00    -0.311 N 
ATOM     14  C   LIG d   1      -5.814  95.726 119.879  0.00  0.00     0.210 C 
ATOM     15  C   LIG d   1      -7.013  96.350 119.158  0.00  0.00     0.109 C 
ATOM     16  O   LIG d   1      -5.848  95.544 121.105  0.00  0.00    -0.276 OA
ATOM     17  H   LIG d   1      -4.818  95.657 118.121  0.00  0.00     0.149 HD
ENDBRANCH   6  13
BRANCH   5  18
ATOM     18  N   LIG d   1      -2.837  96.753 121.070  0.00  0.00     0.381 N 
ATOM     19  H   LIG d   1      -3.826  96.897 121.052  0.00  0.00    -0.090 HD
ATOM     20  H   LIG d   1      -2.386  97.644 120.956  0.00  0.00    -0.090 HD
ATOM     21  H   LIG d   1      -2.568  96.346 121.939  0.00  0.00    -0.090 HD
ENDBRANCH   5  18
BRANCH   3  22
ATOM     22  C   LIG d   1       0.610  93.911 119.343  0.00  0.00     0.382 C 
ATOM     23  O   LIG d   1       1.410  94.382 120.187  0.00  0.00    -0.241 OA
ATOM     24  O   LIG d   1       1.049  93.243 118.387  0.00  0.00    -0.241 OA
ENDBRANCH   3  22
TORSDOF 7
ENDMDL
MODEL 7
REMARK VINA RESULT:      -4.0      2.690      4.830
REMARK  7 active torsions:
REMARK  status: ('A' for Active; 'I' for Inactive)
REMARK    1  A    between atoms: C_2  and  C_3 
REMARK    2  A    between atoms: C_3  and  O_6 
REMARK    3  A    between atoms: C_3  and  C_4 
REMARK    4  A    between atoms: C_7  and  O_6 
REMARK    5  A    between atoms: C_9  and  C_10 
REMARK    6  A    between atoms: N_15  and  C_14 
REMARK    7  A    between atoms: N_20  and  C_19 
REMARK       I    between atoms: C_22  and  N_20 
ROOT
ATOM      1  C   LIG d   1      -2.144  93.725 117.999  0.00  0.00     0.161 C 
ATOM      2  C   LIG d   1      -0.935  93.010 117.987  0.00  0.00     0.016 C 
ATOM      3  C   LIG d   1      -0.139  92.809 119.138  0.00  0.00     0.038 C 
ATOM      4  C   LIG d   1      -0.577  93.183 120.417  0.00  0.00     0.028 C 
ATOM      5  C   LIG d   1      -1.554  94.353 120.404  0.00  0.00    -0.047 C 
ATOM      6  C   LIG d   1      -2.693  94.045 119.405  0.00  0.00     0.091 C 
ENDROOT
BRANCH   1   7
ATOM      7  O   LIG d   1      -3.135  93.023 117.223  0.00  0.00    -0.368 OA
BRANCH   7   8
ATOM      8  C   LIG d   1      -3.819  91.936 117.895  0.00  0.00     0.119 C 
BRANCH   8   9
ATOM      9  C   LIG d   1      -3.529  90.647 117.102  0.00  0.00     0.028 C 
ATOM     10  C   LIG d   1      -2.669  89.650 117.897  0.00  0.00     0.006 C 
ENDBRANCH   8   9
BRANCH   8  11
ATOM     11  C   LIG d   1      -5.339  92.115 117.838  0.00  0.00     0.028 C 
ATOM     12  C   LIG d   1      -5.915  91.877 116.433  0.00  0.00     0.006 C 
ENDBRANCH   8  11
ENDBRANCH   7   8
ENDBRANCH   1   7
BRANCH   6  13
ATOM     13  N   LIG d   1      -3.648  95.175 119.269  0.00  0.00    -0.311 N 
ATOM     14  C   LIG d   1      -4.796  95.250 119.940  0.00  0.00     0.210 C 
ATOM     15  C   LIG d   1      -5.643  96.490 119.637  0.00  0.00     0.109 C 
ATOM     16  O   LIG d   1      -5.178  94.424 120.782  0.00  0.00    -0.276 OA
ATOM     17  H   LIG d   1      -3.403  95.906 118.629  0.00  0.00     0.149 HD
ENDBRANCH   6  13
BRANCH   5  18
ATOM     18  N   LIG d   1      -2.034  94.549 121.786  0.00  0.00     0.381 N 
ATOM     19  H   LIG d   1      -1.470  95.234 122.247  0.00  0.00    -0.090 HD
ATOM     20  H   LIG d   1      -1.948  93.681 122.285  0.00  0.00    -0.090 HD
ATOM     21  H   LIG d   1      -2.986  94.843 121.777  0.00  0.00    -0.090 HD
ENDBRANCH   5  18
BRANCH   3  22
ATOM     22  C   LIG d   1       1.129  92.262 119.010  0.00  0.00     0.382 C 
ATOM     23  O   LIG d   1       2.078  92.970 118.595  0.00  0.00    -0.241 OA
ATOM     24  O   LIG d   1       1.326  91.058 119.261  0.00  0.00    -0.241 OA
ENDBRANCH   3  22
TORSDOF 7
ENDMDL
MODEL 8
REMARK VINA RESULT:      -4.0      2.705      4.828
REMARK  7 active torsions:
REMARK  status: ('A' for Active; 'I' for Inactive)
REMARK    1  A    between atoms: C_2  and  C_3 
REMARK    2  A    between atoms: C_3  and  O_6 
REMARK    3  A    between atoms: C_3  and  C_4 
REMARK    4  A    between atoms: C_7  and  O_6 
REMARK    5  A    between atoms: C_9  and  C_10 
REMARK    6  A    between atoms: N_15  and  C_14 
REMARK    7  A    between atoms: N_20  and  C_19 
REMARK       I    between atoms: C_22  and  N_20 
ROOT
ATOM      1  C   LIG d   1      -4.386  94.147 119.409  0.00  0.00     0.161 C 
ATOM      2  C   LIG d   1      -5.472  93.580 118.720  0.00  0.00     0.016 C 
ATOM      3  C   LIG d   1      -5.325  92.627 117.687  0.00  0.00     0.038 C 
ATOM      4  C   LIG d   1      -4.082  92.058 117.373  0.00  0.00     0.028 C 
ATOM      5  C   LIG d   1      -2.901  92.968 117.696  0.00  0.00    -0.047 C 
ATOM      6  C   LIG d   1      -3.029  93.457 119.156  0.00  0.00     0.091 C 
ENDROOT
BRANCH   1   7
ATOM      7  O   LIG d   1      -4.672  94.189 120.821  0.00  0.00    -0.368 OA
BRANCH   7   8
ATOM      8  C   LIG d   1      -5.483  93.106 121.340  0.00  0.00     0.119 C 
BRANCH   8   9
ATOM      9  C   LIG d   1      -6.592  93.733 122.206  0.00  0.00     0.028 C 
ATOM     10  C   LIG d   1      -6.763  95.239 121.942  0.00  0.00     0.006 C 
ENDBRANCH   8   9
BRANCH   8  11
ATOM     11  C   LIG d   1      -4.680  92.215 122.291  0.00  0.00     0.028 C 
ATOM     12  C   LIG d   1      -3.394  92.888 122.796  0.00  0.00     0.006 C 
ENDBRANCH   8  11
ENDBRANCH   7   8
ENDBRANCH   1   7
BRANCH   6  13
ATOM     13  N   LIG d   1      -1.959  94.420 119.528  0.00  0.00    -0.311 N 
ATOM     14  C   LIG d   1      -0.819  94.059 120.114  0.00  0.00     0.210 C 
ATOM     15  C   LIG d   1       0.139  95.212 120.429  0.00  0.00     0.109 C 
ATOM     16  O   LIG d   1      -0.497  92.890 120.373  0.00  0.00    -0.276 OA
ATOM     17  H   LIG d   1      -2.125  95.386 119.325  0.00  0.00     0.149 HD
ENDBRANCH   6  13
BRANCH   5  18
ATOM     18  N   LIG d   1      -1.666  92.201 117.449  0.00  0.00     0.381 N 
ATOM     19  H   LIG d   1      -0.926  92.558 118.019  0.00  0.00    -0.090 HD
ATOM     20  H   LIG d   1      -1.403  92.310 116.485  0.00  0.00    -0.090 HD
ATOM     21  H   LIG d   1      -1.817  91.237 117.653  0.00  0.00    -0.090 HD
ENDBRANCH   5  18
BRANCH   3  22
ATOM     22  C   LIG d   1      -6.427  92.261 116.928  0.00  0.00     0.382 C 
ATOM     23  O   LIG d   1      -7.378  93.065 116.776  0.00  0.00    -0.241 OA
ATOM     24  O   LIG d   1      -6.501  91.122 116.430  0.00  0.00    -0.241 OA
ENDBRANCH   3  22
TORSDOF 7
ENDMDL
MODEL 9
REMARK VINA RESULT:      -4.0      1.575      2.227
REMARK  7 active torsions:
REMARK  status: ('A' for Active; 'I' for Inactive)
REMARK    1  A    between atoms: C_2  and  C_3 
REMARK    2  A    between atoms: C_3  and  O_6 
REMARK    3  A    between atoms: C_3  and  C_4 
REMARK    4  A    between atoms: C_7  and  O_6 
REMARK    5  A    between atoms: C_9  and  C_10 
REMARK    6  A    between atoms: N_15  and  C_14 
REMARK    7  A    between atoms: N_20  and  C_19 
REMARK       I    between atoms: C_22  and  N_20 
ROOT
ATOM      1  C   LIG d   1      -3.359  93.761 119.885  0.00  0.00     0.161 C 
ATOM      2  C   LIG d   1      -2.733  92.736 119.155  0.00  0.00     0.016 C 
ATOM      3  C   LIG d   1      -3.316  92.117 118.026  0.00  0.00     0.038 C 
ATOM      4  C   LIG d   1      -4.508  92.588 117.455  0.00  0.00     0.028 C 
ATOM      5  C   LIG d   1      -5.422  93.289 118.454  0.00  0.00    -0.047 C 
ATOM      6  C   LIG d   1      -4.609  94.364 119.211  0.00  0.00     0.091 C 
ENDROOT
BRANCH   1   7
ATOM      7  O   LIG d   1      -2.404  94.797 120.188  0.00  0.00    -0.368 OA
BRANCH   7   8
ATOM      8  C   LIG d   1      -2.141  95.751 119.130  0.00  0.00     0.119 C 
BRANCH   8   9
ATOM      9  C   LIG d   1      -0.640  95.667 118.793  0.00  0.00     0.028 C 
ATOM     10  C   LIG d   1       0.188  95.077 119.947  0.00  0.00     0.006 C 
ENDBRANCH   8   9
BRANCH   8  11
ATOM     11  C   LIG d   1      -2.369  97.189 119.607  0.00  0.00     0.028 C 
ATOM     12  C   LIG d   1      -2.641  97.280 121.117  0.00  0.00     0.006 C 
ENDBRANCH   8  11
ENDBRANCH   7   8
ENDBRANCH   1   7
BRANCH   6  13
ATOM     13  N   LIG d   1      -5.407  95.040 120.266  0.00  0.00    -0.311 N 
ATOM     14  C   LIG d   1      -6.043  96.195 120.078  0.00  0.00     0.210 C 
ATOM     15  C   LIG d   1      -6.791  96.728 121.304  0.00  0.00     0.109 C 
ATOM     16  O   LIG d   1      -6.085  96.812 119.003  0.00  0.00    -0.276 OA
ATOM     17  H   LIG d   1      -5.452  94.592 121.161  0.00  0.00     0.149 HD
ENDBRANCH   6  13
BRANCH   5  18
ATOM     18  N   LIG d   1      -6.560  93.850 117.700  0.00  0.00     0.381 N 
ATOM     19  H   LIG d   1      -6.756  94.776 118.021  0.00  0.00    -0.090 HD
ATOM     20  H   LIG d   1      -7.371  93.280 117.864  0.00  0.00    -0.090 HD
ATOM     21  H   LIG d   1      -6.349  93.866 116.726  0.00  0.00    -0.090 HD
ENDBRANCH   5  18
BRANCH   3  22
ATOM     22  C   LIG d   1      -2.726  90.988 117.479  0.00  0.00     0.382 C 
ATOM     23  O   LIG d   1      -3.442  90.075 117.001  0.00  0.00    -0.241 OA
ATOM     24  O   LIG d   1      -1.488  90.850 117.498  0.00  0.00    -0.241 OA
ENDBRANCH   3  22
TORSDOF 7
ENDMDL
