MODEL 1
REMARK VINA RESULT:      -5.0      0.000      0.000
REMARK  7 active torsions:
REMARK  status: ('A' for Active; 'I' for Inactive)
REMARK    1  A    between atoms: C_2  and  C_3 
REMARK    2  A    between atoms: C_3  and  O_6 
REMARK    3  A    between atoms: C_3  and  C_4 
REMARK    4  A    between atoms: C_7  and  O_6 
REMARK    5  A    between atoms: C_9  and  C_10 
REMARK    6  A    between atoms: N_15  and  C_14 
REMARK    7  A    between atoms: N_20  and  C_19 
REMARK       I    between atoms: C_22  and  N_20 
ROOT
ATOM      1  C   LIG d   1      -3.255  90.889 118.010  0.00  0.00     0.161 C 
ATOM      2  C   LIG d   1      -4.503  90.707 117.391  0.00  0.00     0.016 C 
ATOM      3  C   LIG d   1      -5.401  91.766 117.124  0.00  0.00     0.038 C 
ATOM      4  C   LIG d   1      -5.045  93.108 117.322  0.00  0.00     0.028 C 
ATOM      5  C   LIG d   1      -3.995  93.302 118.411  0.00  0.00    -0.047 C 
ATOM      6  C   LIG d   1      -2.802  92.359 118.131  0.00  0.00     0.091 C 
ENDROOT
BRANCH   1   7
ATOM      7  O   LIG d   1      -2.253  90.111 117.326  0.00  0.00    -0.368 OA
BRANCH   7   8
ATOM      8  C   LIG d   1      -2.085  88.746 117.782  0.00  0.00     0.119 C 
BRANCH   8   9
ATOM      9  C   LIG d   1      -2.202  88.754 119.318  0.00  0.00     0.028 C 
ATOM     10  C   LIG d   1      -2.185  87.336 119.915  0.00  0.00     0.006 C 
ENDBRANCH   8   9
BRANCH   8  11
ATOM     11  C   LIG d   1      -0.674  88.230 117.486  0.00  0.00     0.028 C 
ATOM     12  C   LIG d   1       0.290  89.345 117.050  0.00  0.00     0.006 C 
ENDBRANCH   8  11
ENDBRANCH   7   8
ENDBRANCH   1   7
BRANCH   6  13
ATOM     13  N   LIG d   1      -1.767  92.424 119.196  0.00  0.00    -0.311 N 
ATOM     14  C   LIG d   1      -0.502  92.772 118.967  0.00  0.00     0.210 C 
ATOM     15  C   LIG d   1       0.406  92.755 120.201  0.00  0.00     0.109 C 
ATOM     16  O   LIG d   1      -0.052  93.123 117.866  0.00  0.00    -0.276 OA
ATOM     17  H   LIG d   1      -2.052  92.185 120.125  0.00  0.00     0.149 HD
ENDBRANCH   6  13
BRANCH   5  18
ATOM     18  N   LIG d   1      -3.617  94.727 118.416  0.00  0.00     0.381 N 
ATOM     19  H   LIG d   1      -3.161  94.954 119.278  0.00  0.00    -0.090 HD
ATOM     20  H   LIG d   1      -4.449  95.285 118.344  0.00  0.00    -0.090 HD
ATOM     21  H   LIG d   1      -3.010  94.922 117.650  0.00  0.00    -0.090 HD
ENDBRANCH   5  18
BRANCH   3  22
ATOM     22  C   LIG d   1      -6.688  91.483 116.691  0.00  0.00     0.382 C 
ATOM     23  O   LIG d   1      -7.536  92.403 116.601  0.00  0.00    -0.241 OA
ATOM     24  O   LIG d   1      -7.023  90.312 116.430  0.00  0.00    -0.241 OA
ENDBRANCH   3  22
TORSDOF 7
ENDMDL
MODEL 2
REMARK VINA RESULT:      -4.7      2.927      6.131
REMARK  7 active torsions:
REMARK  status: ('A' for Active; 'I' for Inactive)
REMARK    1  A    between atoms: C_2  and  C_3 
REMARK    2  A    between atoms: C_3  and  O_6 
REMARK    3  A    between atoms: C_3  and  C_4 
REMARK    4  A    between atoms: C_7  and  O_6 
REMARK    5  A    between atoms: C_9  and  C_10 
REMARK    6  A    between atoms: N_15  and  C_14 
REMARK    7  A    between atoms: N_20  and  C_19 
REMARK       I    between atoms: C_22  and  N_20 
ROOT
ATOM      1  C   LIG d   1      -5.018  92.651 119.688  0.00  0.00     0.161 C 
ATOM      2  C   LIG d   1      -3.927  91.887 119.243  0.00  0.00     0.016 C 
ATOM      3  C   LIG d   1      -3.919  91.181 118.019  0.00  0.00     0.038 C 
ATOM      4  C   LIG d   1      -4.952  91.314 117.079  0.00  0.00     0.028 C 
ATOM      5  C   LIG d   1      -6.296  91.673 117.704  0.00  0.00    -0.047 C 
ATOM      6  C   LIG d   1      -6.110  92.899 118.626  0.00  0.00     0.091 C 
ENDROOT
BRANCH   1   7
ATOM      7  O   LIG d   1      -4.551  93.904 120.227  0.00  0.00    -0.368 OA
BRANCH   7   8
ATOM      8  C   LIG d   1      -4.197  94.922 119.259  0.00  0.00     0.119 C 
BRANCH   8   9
ATOM      9  C   LIG d   1      -2.732  95.321 119.522  0.00  0.00     0.028 C 
ATOM     10  C   LIG d   1      -1.749  94.591 118.592  0.00  0.00     0.006 C 
ENDBRANCH   8   9
BRANCH   8  11
ATOM     11  C   LIG d   1      -5.011  96.201 119.474  0.00  0.00     0.028 C 
ATOM     12  C   LIG d   1      -5.656  96.270 120.867  0.00  0.00     0.006 C 
ENDBRANCH   8  11
ENDBRANCH   7   8
ENDBRANCH   1   7
BRANCH   6  13
ATOM     13  N   LIG d   1      -7.360  93.264 119.343  0.00  0.00    -0.311 N 
ATOM     14  C   LIG d   1      -8.171  94.244 118.949  0.00  0.00     0.210 C 
ATOM     15  C   LIG d   1      -9.396  94.468 119.842  0.00  0.00     0.109 C 
ATOM     16  O   LIG d   1      -8.010  94.928 117.927  0.00  0.00    -0.276 OA
ATOM     17  H   LIG d   1      -7.584  92.739 120.165  0.00  0.00     0.149 HD
ENDBRANCH   6  13
BRANCH   5  18
ATOM     18  N   LIG d   1      -7.248  91.916 116.604  0.00  0.00     0.381 N 
ATOM     19  H   LIG d   1      -7.631  92.837 116.684  0.00  0.00    -0.090 HD
ATOM     20  H   LIG d   1      -8.001  91.254 116.673  0.00  0.00    -0.090 HD
ATOM     21  H   LIG d   1      -6.788  91.816 115.726  0.00  0.00    -0.090 HD
ENDBRANCH   5  18
BRANCH   3  22
ATOM     22  C   LIG d   1      -2.886  90.298 117.741  0.00  0.00     0.382 C 
ATOM     23  O   LIG d   1      -1.695  90.680 117.827  0.00  0.00    -0.241 OA
ATOM     24  O   LIG d   1      -3.133  89.137 117.363  0.00  0.00    -0.241 OA
ENDBRANCH   3  22
TORSDOF 7
ENDMDL
MODEL 3
REMARK VINA RESULT:      -4.7      0.965      1.198
REMARK  7 active torsions:
REMARK  status: ('A' for Active; 'I' for Inactive)
REMARK    1  A    between atoms: C_2  and  C_3 
REMARK    2  A    between atoms: C_3  and  O_6 
REMARK    3  A    between atoms: C_3  and  C_4 
REMARK    4  A    between atoms: C_7  and  O_6 
REMARK    5  A    between atoms: C_9  and  C_10 
REMARK    6  A    between atoms: N_15  and  C_14 
REMARK    7  A    between atoms: N_20  and  C_19 
REMARK       I    between atoms: C_22  and  N_20 
ROOT
ATOM      1  C   LIG d   1      -2.348  90.686 118.070  0.00  0.00     0.161 C 
ATOM      2  C   LIG d   1      -3.659  90.573 117.576  0.00  0.00     0.016 C 
ATOM      3  C   LIG d   1      -4.524  91.678 117.407  0.00  0.00     0.038 C 
ATOM      4  C   LIG d   1      -4.082  92.999 117.578  0.00  0.00     0.028 C 
ATOM      5  C   LIG d   1      -2.922  93.127 118.559  0.00  0.00    -0.047 C 
ATOM      6  C   LIG d   1      -1.812  92.130 118.156  0.00  0.00     0.091 C 
ENDROOT
BRANCH   1   7
ATOM      7  O   LIG d   1      -1.459  89.867 117.285  0.00  0.00    -0.368 OA
BRANCH   7   8
ATOM      8  C   LIG d   1      -1.367  88.474 117.671  0.00  0.00     0.119 C 
BRANCH   8   9
ATOM      9  C   LIG d   1      -1.272  88.425 119.209  0.00  0.00     0.028 C 
ATOM     10  C   LIG d   1      -1.880  87.139 119.794  0.00  0.00     0.006 C 
ENDBRANCH   8   9
BRANCH   8  11
ATOM     11  C   LIG d   1      -0.069  87.839 117.164  0.00  0.00     0.028 C 
ATOM     12  C   LIG d   1       1.028  88.875 116.876  0.00  0.00     0.006 C 
ENDBRANCH   8  11
ENDBRANCH   7   8
ENDBRANCH   1   7
BRANCH   6  13
ATOM     13  N   LIG d   1      -0.675  92.131 119.113  0.00  0.00    -0.311 N 
ATOM     14  C   LIG d   1       0.597  92.261 118.740  0.00  0.00     0.210 C 
ATOM     15  C   LIG d   1       1.615  92.216 119.885  0.00  0.00     0.109 C 
ATOM     16  O   LIG d   1       0.977  92.443 117.574  0.00  0.00    -0.276 OA
ATOM     17  H   LIG d   1      -0.895  92.020 120.084  0.00  0.00     0.149 HD
ENDBRANCH   6  13
BRANCH   5  18
ATOM     18  N   LIG d   1      -2.473  94.532 118.536  0.00  0.00     0.381 N 
ATOM     19  H   LIG d   1      -1.486  94.575 118.693  0.00  0.00    -0.090 HD
ATOM     20  H   LIG d   1      -2.931  95.032 119.278  0.00  0.00    -0.090 HD
ATOM     21  H   LIG d   1      -2.696  94.948 117.659  0.00  0.00    -0.090 HD
ENDBRANCH   5  18
BRANCH   3  22
ATOM     22  C   LIG d   1      -5.859  91.465 117.100  0.00  0.00     0.382 C 
ATOM     23  O   LIG d   1      -6.196  90.456 116.435  0.00  0.00    -0.241 OA
ATOM     24  O   LIG d   1      -6.726  92.292 117.443  0.00  0.00    -0.241 OA
ENDBRANCH   3  22
TORSDOF 7
ENDMDL
MODEL 4
REMARK VINA RESULT:      -4.5      2.322      5.716
REMARK  7 active torsions:
REMARK  status: ('A' for Active; 'I' for Inactive)
REMARK    1  A    between atoms: C_2  and  C_3 
REMARK    2  A    between atoms: C_3  and  O_6 
REMARK    3  A    between atoms: C_3  and  C_4 
REMARK    4  A    between atoms: C_7  and  O_6 
REMARK    5  A    between atoms: C_9  and  C_10 
REMARK    6  A    between atoms: N_15  and  C_14 
REMARK    7  A    between atoms: N_20  and  C_19 
REMARK       I    between atoms: C_22  and  N_20 
ROOT
ATOM      1  C   LIG d   1      -0.116  90.452 117.165  0.00  0.00     0.161 C 
ATOM      2  C   LIG d   1       1.282  90.406 117.298  0.00  0.00     0.016 C 
ATOM      3  C   LIG d   1       2.028  91.369 118.016  0.00  0.00     0.038 C 
ATOM      4  C   LIG d   1       1.407  92.367 118.781  0.00  0.00     0.028 C 
ATOM      5  C   LIG d   1       0.024  92.753 118.268  0.00  0.00    -0.047 C 
ATOM      6  C   LIG d   1      -0.820  91.471 118.086  0.00  0.00     0.091 C 
ENDROOT
BRANCH   1   7
ATOM      7  O   LIG d   1      -0.669  89.135 117.360  0.00  0.00    -0.368 OA
BRANCH   7   8
ATOM      8  C   LIG d   1      -0.876  88.728 118.734  0.00  0.00     0.119 C 
BRANCH   8   9
ATOM      9  C   LIG d   1      -0.038  87.457 118.972  0.00  0.00     0.028 C 
ATOM     10  C   LIG d   1       0.456  86.825 117.659  0.00  0.00     0.006 C 
ENDBRANCH   8   9
BRANCH   8  11
ATOM     11  C   LIG d   1      -2.329  88.307 118.978  0.00  0.00     0.028 C 
ATOM     12  C   LIG d   1      -2.468  87.271 120.104  0.00  0.00     0.006 C 
ENDBRANCH   8  11
ENDBRANCH   7   8
ENDBRANCH   1   7
BRANCH   6  13
ATOM     13  N   LIG d   1      -2.159  91.751 117.507  0.00  0.00    -0.311 N 
ATOM     14  C   LIG d   1      -3.260  91.898 118.242  0.00  0.00     0.210 C 
ATOM     15  C   LIG d   1      -4.540  92.161 117.443  0.00  0.00     0.109 C 
ATOM     16  O   LIG d   1      -3.292  91.867 119.481  0.00  0.00    -0.276 OA
ATOM     17  H   LIG d   1      -2.219  91.823 116.510  0.00  0.00     0.149 HD
ENDBRANCH   6  13
BRANCH   5  18
ATOM     18  N   LIG d   1      -0.563  93.699 119.235  0.00  0.00     0.381 N 
ATOM     19  H   LIG d   1      -0.145  94.602 119.122  0.00  0.00    -0.090 HD
ATOM     20  H   LIG d   1      -0.367  93.376 120.166  0.00  0.00    -0.090 HD
ATOM     21  H   LIG d   1      -1.548  93.761 119.097  0.00  0.00    -0.090 HD
ENDBRANCH   5  18
BRANCH   3  22
ATOM     22  C   LIG d   1       3.412  91.363 117.939  0.00  0.00     0.382 C 
ATOM     23  O   LIG d   1       3.988  91.893 116.958  0.00  0.00    -0.241 OA
ATOM     24  O   LIG d   1       4.091  90.796 118.815  0.00  0.00    -0.241 OA
ENDBRANCH   3  22
TORSDOF 7
ENDMDL
MODEL 5
REMARK VINA RESULT:      -4.5      2.818      4.342
REMARK  7 active torsions:
REMARK  status: ('A' for Active; 'I' for Inactive)
REMARK    1  A    between atoms: C_2  and  C_3 
REMARK    2  A    between atoms: C_3  and  O_6 
REMARK    3  A    between atoms: C_3  and  C_4 
REMARK    4  A    between atoms: C_7  and  O_6 
REMARK    5  A    between atoms: C_9  and  C_10 
REMARK    6  A    between atoms: N_15  and  C_14 
REMARK    7  A    between atoms: N_20  and  C_19 
REMARK       I    between atoms: C_22  and  N_20 
ROOT
ATOM      1  C   LIG d   1      -4.267  93.662 118.788  0.00  0.00     0.161 C 
ATOM      2  C   LIG d   1      -5.435  94.442 118.819  0.00  0.00     0.016 C 
ATOM      3  C   LIG d   1      -6.616  94.103 118.119  0.00  0.00     0.038 C 
ATOM      4  C   LIG d   1      -6.758  92.875 117.457  0.00  0.00     0.028 C 
ATOM      5  C   LIG d   1      -5.434  92.287 116.978  0.00  0.00    -0.047 C 
ATOM      6  C   LIG d   1      -4.439  92.263 118.161  0.00  0.00     0.091 C 
ENDROOT
BRANCH   1   7
ATOM      7  O   LIG d   1      -3.717  93.552 120.116  0.00  0.00    -0.368 OA
BRANCH   7   8
ATOM      8  C   LIG d   1      -4.190  92.437 120.911  0.00  0.00     0.119 C 
BRANCH   8   9
ATOM      9  C   LIG d   1      -5.197  92.993 121.936  0.00  0.00     0.028 C 
ATOM     10  C   LIG d   1      -6.620  92.454 121.712  0.00  0.00     0.006 C 
ENDBRANCH   8   9
BRANCH   8  11
ATOM     11  C   LIG d   1      -3.059  91.827 121.744  0.00  0.00     0.028 C 
ATOM     12  C   LIG d   1      -1.677  92.012 121.098  0.00  0.00     0.006 C 
ENDBRANCH   8  11
ENDBRANCH   7   8
ENDBRANCH   1   7
BRANCH   6  13
ATOM     13  N   LIG d   1      -3.092  91.781 117.759  0.00  0.00    -0.311 N 
ATOM     14  C   LIG d   1      -2.704  90.512 117.872  0.00  0.00     0.210 C 
ATOM     15  C   LIG d   1      -1.268  90.233 117.418  0.00  0.00     0.109 C 
ATOM     16  O   LIG d   1      -3.423  89.586 118.276  0.00  0.00    -0.276 OA
ATOM     17  H   LIG d   1      -2.455  92.461 117.392  0.00  0.00     0.149 HD
ENDBRANCH   6  13
BRANCH   5  18
ATOM     18  N   LIG d   1      -5.714  90.947 116.430  0.00  0.00     0.381 N 
ATOM     19  H   LIG d   1      -6.640  90.921 116.053  0.00  0.00    -0.090 HD
ATOM     20  H   LIG d   1      -5.657  90.273 117.174  0.00  0.00    -0.090 HD
ATOM     21  H   LIG d   1      -5.052  90.724 115.719  0.00  0.00    -0.090 HD
ENDBRANCH   5  18
BRANCH   3  22
ATOM     22  C   LIG d   1      -7.656  95.016 118.044  0.00  0.00     0.382 C 
ATOM     23  O   LIG d   1      -7.410  96.246 118.013  0.00  0.00    -0.241 OA
ATOM     24  O   LIG d   1      -8.840  94.628 118.051  0.00  0.00    -0.241 OA
ENDBRANCH   3  22
TORSDOF 7
ENDMDL
MODEL 6
REMARK VINA RESULT:      -4.4      2.724      4.637
REMARK  7 active torsions:
REMARK  status: ('A' for Active; 'I' for Inactive)
REMARK    1  A    between atoms: C_2  and  C_3 
REMARK    2  A    between atoms: C_3  and  O_6 
REMARK    3  A    between atoms: C_3  and  C_4 
REMARK    4  A    between atoms: C_7  and  O_6 
REMARK    5  A    between atoms: C_9  and  C_10 
REMARK    6  A    between atoms: N_15  and  C_14 
REMARK    7  A    between atoms: N_20  and  C_19 
REMARK       I    between atoms: C_22  and  N_20 
ROOT
ATOM      1  C   LIG d   1      -4.265  93.562 118.571  0.00  0.00     0.161 C 
ATOM      2  C   LIG d   1      -5.367  94.424 118.691  0.00  0.00     0.016 C 
ATOM      3  C   LIG d   1      -6.629  94.159 118.113  0.00  0.00     0.038 C 
ATOM      4  C   LIG d   1      -6.921  92.931 117.500  0.00  0.00     0.028 C 
ATOM      5  C   LIG d   1      -5.693  92.240 116.915  0.00  0.00    -0.047 C 
ATOM      6  C   LIG d   1      -4.595  92.166 118.000  0.00  0.00     0.091 C 
ENDROOT
BRANCH   1   7
ATOM      7  O   LIG d   1      -3.600  93.438 119.844  0.00  0.00    -0.368 OA
BRANCH   7   8
ATOM      8  C   LIG d   1      -2.250  93.957 119.912  0.00  0.00     0.119 C 
BRANCH   8   9
ATOM      9  C   LIG d   1      -2.250  95.119 120.924  0.00  0.00     0.028 C 
ATOM     10  C   LIG d   1      -2.135  96.492 120.242  0.00  0.00     0.006 C 
ENDBRANCH   8   9
BRANCH   8  11
ATOM     11  C   LIG d   1      -1.826  94.582 118.579  0.00  0.00     0.028 C 
ATOM     12  C   LIG d   1      -0.619  93.871 117.945  0.00  0.00     0.006 C 
ENDBRANCH   8  11
ENDBRANCH   7   8
ENDBRANCH   1   7
BRANCH   6  13
ATOM     13  N   LIG d   1      -3.329  91.580 117.487  0.00  0.00    -0.311 N 
ATOM     14  C   LIG d   1      -2.609  90.686 118.162  0.00  0.00     0.210 C 
ATOM     15  C   LIG d   1      -1.328  90.225 117.460  0.00  0.00     0.109 C 
ATOM     16  O   LIG d   1      -2.926  90.206 119.261  0.00  0.00    -0.276 OA
ATOM     17  H   LIG d   1      -3.014  91.889 116.588  0.00  0.00     0.149 HD
ENDBRANCH   6  13
BRANCH   5  18
ATOM     18  N   LIG d   1      -6.117  90.912 116.431  0.00  0.00     0.381 N 
ATOM     19  H   LIG d   1      -6.327  90.319 117.209  0.00  0.00    -0.090 HD
ATOM     20  H   LIG d   1      -5.362  90.498 115.914  0.00  0.00    -0.090 HD
ATOM     21  H   LIG d   1      -6.919  91.003 115.847  0.00  0.00    -0.090 HD
ENDBRANCH   5  18
BRANCH   3  22
ATOM     22  C   LIG d   1      -7.605  95.144 118.111  0.00  0.00     0.382 C 
ATOM     23  O   LIG d   1      -8.818  94.825 118.156  0.00  0.00    -0.241 OA
ATOM     24  O   LIG d   1      -7.290  96.345 118.020  0.00  0.00    -0.241 OA
ENDBRANCH   3  22
TORSDOF 7
ENDMDL
MODEL 7
REMARK VINA RESULT:      -4.3      2.368      3.474
REMARK  7 active torsions:
REMARK  status: ('A' for Active; 'I' for Inactive)
REMARK    1  A    between atoms: C_2  and  C_3 
REMARK    2  A    between atoms: C_3  and  O_6 
REMARK    3  A    between atoms: C_3  and  C_4 
REMARK    4  A    between atoms: C_7  and  O_6 
REMARK    5  A    between atoms: C_9  and  C_10 
REMARK    6  A    between atoms: N_15  and  C_14 
REMARK    7  A    between atoms: N_20  and  C_19 
REMARK       I    between atoms: C_22  and  N_20 
ROOT
ATOM      1  C   LIG d   1      -4.306  93.342 118.868  0.00  0.00     0.161 C 
ATOM      2  C   LIG d   1      -5.465  93.021 118.142  0.00  0.00     0.016 C 
ATOM      3  C   LIG d   1      -6.526  93.931 117.927  0.00  0.00     0.038 C 
ATOM      4  C   LIG d   1      -6.431  95.280 118.298  0.00  0.00     0.028 C 
ATOM      5  C   LIG d   1      -5.494  95.521 119.477  0.00  0.00    -0.047 C 
ATOM      6  C   LIG d   1      -4.136  94.843 119.184  0.00  0.00     0.091 C 
ENDROOT
BRANCH   1   7
ATOM      7  O   LIG d   1      -3.143  92.841 118.179  0.00  0.00    -0.368 OA
BRANCH   7   8
ATOM      8  C   LIG d   1      -2.210  92.073 118.978  0.00  0.00     0.119 C 
BRANCH   8   9
ATOM      9  C   LIG d   1      -0.813  92.692 118.781  0.00  0.00     0.028 C 
ATOM     10  C   LIG d   1      -0.772  93.686 117.608  0.00  0.00     0.006 C 
ENDBRANCH   8   9
BRANCH   8  11
ATOM     11  C   LIG d   1      -2.092  90.634 118.467  0.00  0.00     0.028 C 
ATOM     12  C   LIG d   1      -3.197  90.265 117.465  0.00  0.00     0.006 C 
ENDBRANCH   8  11
ENDBRANCH   7   8
ENDBRANCH   1   7
BRANCH   6  13
ATOM     13  N   LIG d   1      -3.188  94.958 120.323  0.00  0.00    -0.311 N 
ATOM     14  C   LIG d   1      -2.246  95.896 120.400  0.00  0.00     0.210 C 
ATOM     15  C   LIG d   1      -1.362  95.823 121.650  0.00  0.00     0.109 C 
ATOM     16  O   LIG d   1      -2.078  96.801 119.569  0.00  0.00    -0.276 OA
ATOM     17  H   LIG d   1      -3.273  94.283 121.058  0.00  0.00     0.149 HD
ENDBRANCH   6  13
BRANCH   5  18
ATOM     18  N   LIG d   1      -5.383  96.979 119.667  0.00  0.00     0.381 N 
ATOM     19  H   LIG d   1      -4.626  97.336 119.120  0.00  0.00    -0.090 HD
ATOM     20  H   LIG d   1      -5.188  97.167 120.635  0.00  0.00    -0.090 HD
ATOM     21  H   LIG d   1      -6.234  97.424 119.400  0.00  0.00    -0.090 HD
ENDBRANCH   5  18
BRANCH   3  22
ATOM     22  C   LIG d   1      -7.714  93.482 117.371  0.00  0.00     0.382 C 
ATOM     23  O   LIG d   1      -8.811  93.865 117.843  0.00  0.00    -0.241 OA
ATOM     24  O   LIG d   1      -7.702  92.665 116.431  0.00  0.00    -0.241 OA
ENDBRANCH   3  22
TORSDOF 7
ENDMDL
MODEL 8
REMARK VINA RESULT:      -4.3      2.238      5.537
REMARK  7 active torsions:
REMARK  status: ('A' for Active; 'I' for Inactive)
REMARK    1  A    between atoms: C_2  and  C_3 
REMARK    2  A    between atoms: C_3  and  O_6 
REMARK    3  A    between atoms: C_3  and  C_4 
REMARK    4  A    between atoms: C_7  and  O_6 
REMARK    5  A    between atoms: C_9  and  C_10 
REMARK    6  A    between atoms: N_15  and  C_14 
REMARK    7  A    between atoms: N_20  and  C_19 
REMARK       I    between atoms: C_22  and  N_20 
ROOT
ATOM      1  C   LIG d   1      -3.473  93.532 118.104  0.00  0.00     0.161 C 
ATOM      2  C   LIG d   1      -2.104  93.264 117.939  0.00  0.00     0.016 C 
ATOM      3  C   LIG d   1      -1.230  92.987 119.015  0.00  0.00     0.038 C 
ATOM      4  C   LIG d   1      -1.700  92.808 120.325  0.00  0.00     0.028 C 
ATOM      5  C   LIG d   1      -2.992  93.566 120.613  0.00  0.00    -0.047 C 
ATOM      6  C   LIG d   1      -4.025  93.232 119.513  0.00  0.00     0.091 C 
ENDROOT
BRANCH   1   7
ATOM      7  O   LIG d   1      -4.233  92.821 117.106  0.00  0.00    -0.368 OA
BRANCH   7   8
ATOM      8  C   LIG d   1      -4.816  91.563 117.525  0.00  0.00     0.119 C 
BRANCH   8   9
ATOM      9  C   LIG d   1      -4.041  90.435 116.817  0.00  0.00     0.028 C 
ATOM     10  C   LIG d   1      -2.992  89.780 117.730  0.00  0.00     0.006 C 
ENDBRANCH   8   9
BRANCH   8  11
ATOM     11  C   LIG d   1      -6.262  91.429 117.038  0.00  0.00     0.028 C 
ATOM     12  C   LIG d   1      -6.884  92.778 116.642  0.00  0.00     0.006 C 
ENDBRANCH   8  11
ENDBRANCH   7   8
ENDBRANCH   1   7
BRANCH   6  13
ATOM     13  N   LIG d   1      -5.290  93.996 119.672  0.00  0.00    -0.311 N 
ATOM     14  C   LIG d   1      -6.364  93.515 120.296  0.00  0.00     0.210 C 
ATOM     15  C   LIG d   1      -7.569  94.460 120.331  0.00  0.00     0.109 C 
ATOM     16  O   LIG d   1      -6.422  92.408 120.853  0.00  0.00    -0.276 OA
ATOM     17  H   LIG d   1      -5.320  94.916 119.278  0.00  0.00     0.149 HD
ENDBRANCH   6  13
BRANCH   5  18
ATOM     18  N   LIG d   1      -3.442  93.181 121.964  0.00  0.00     0.381 N 
ATOM     19  H   LIG d   1      -3.621  92.198 121.995  0.00  0.00    -0.090 HD
ATOM     20  H   LIG d   1      -4.298  93.664 122.171  0.00  0.00    -0.090 HD
ATOM     21  H   LIG d   1      -2.746  93.421 122.636  0.00  0.00    -0.090 HD
ENDBRANCH   5  18
BRANCH   3  22
ATOM     22  C   LIG d   1       0.137  92.925 118.792  0.00  0.00     0.382 C 
ATOM     23  O   LIG d   1       0.575  92.736 117.632  0.00  0.00    -0.241 OA
ATOM     24  O   LIG d   1       0.937  93.012 119.743  0.00  0.00    -0.241 OA
ENDBRANCH   3  22
TORSDOF 7
ENDMDL
MODEL 9
REMARK VINA RESULT:      -4.3      3.410      6.227
REMARK  7 active torsions:
REMARK  status: ('A' for Active; 'I' for Inactive)
REMARK    1  A    between atoms: C_2  and  C_3 
REMARK    2  A    between atoms: C_3  and  O_6 
REMARK    3  A    between atoms: C_3  and  C_4 
REMARK    4  A    between atoms: C_7  and  O_6 
REMARK    5  A    between atoms: C_9  and  C_10 
REMARK    6  A    between atoms: N_15  and  C_14 
REMARK    7  A    between atoms: N_20  and  C_19 
REMARK       I    between atoms: C_22  and  N_20 
ROOT
ATOM      1  C   LIG d   1      -4.847  94.116 119.015  0.00  0.00     0.161 C 
ATOM      2  C   LIG d   1      -4.131  92.998 118.554  0.00  0.00     0.016 C 
ATOM      3  C   LIG d   1      -4.638  92.092 117.594  0.00  0.00     0.038 C 
ATOM      4  C   LIG d   1      -5.843  92.328 116.915  0.00  0.00     0.028 C 
ATOM      5  C   LIG d   1      -6.832  93.173 117.712  0.00  0.00    -0.047 C 
ATOM      6  C   LIG d   1      -6.116  94.451 118.205  0.00  0.00     0.091 C 
ENDROOT
BRANCH   1   7
ATOM      7  O   LIG d   1      -3.975  95.262 119.079  0.00  0.00    -0.368 OA
BRANCH   7   8
ATOM      8  C   LIG d   1      -3.659  95.750 120.406  0.00  0.00     0.119 C 
BRANCH   8   9
ATOM      9  C   LIG d   1      -4.216  97.183 120.517  0.00  0.00     0.028 C 
ATOM     10  C   LIG d   1      -5.042  97.393 121.796  0.00  0.00     0.006 C 
ENDBRANCH   8   9
BRANCH   8  11
ATOM     11  C   LIG d   1      -2.146  95.886 120.603  0.00  0.00     0.028 C 
ATOM     12  C   LIG d   1      -1.560  94.781 121.496  0.00  0.00     0.006 C 
ENDBRANCH   8  11
ENDBRANCH   7   8
ENDBRANCH   1   7
BRANCH   6  13
ATOM     13  N   LIG d   1      -6.989  95.294 119.064  0.00  0.00    -0.311 N 
ATOM     14  C   LIG d   1      -7.415  96.505 118.711  0.00  0.00     0.210 C 
ATOM     15  C   LIG d   1      -8.289  97.212 119.752  0.00  0.00     0.109 C 
ATOM     16  O   LIG d   1      -7.179  97.048 117.621  0.00  0.00    -0.276 OA
ATOM     17  H   LIG d   1      -7.254  94.917 119.952  0.00  0.00     0.149 HD
ENDBRANCH   6  13
BRANCH   5  18
ATOM     18  N   LIG d   1      -7.983  93.457 116.834  0.00  0.00     0.381 N 
ATOM     19  H   LIG d   1      -8.835  93.328 117.342  0.00  0.00    -0.090 HD
ATOM     20  H   LIG d   1      -7.973  92.810 116.066  0.00  0.00    -0.090 HD
ATOM     21  H   LIG d   1      -7.929  94.391 116.492  0.00  0.00    -0.090 HD
ENDBRANCH   5  18
BRANCH   3  22
ATOM     22  C   LIG d   1      -3.956  90.913 117.334  0.00  0.00     0.382 C 
ATOM     23  O   LIG d   1      -4.361  90.140 116.434  0.00  0.00    -0.241 OA
ATOM     24  O   LIG d   1      -2.966  90.592 118.019  0.00  0.00    -0.241 OA
ENDBRANCH   3  22
TORSDOF 7
ENDMDL
