MODEL 1
REMARK VINA RESULT:      -4.6      0.000      0.000
REMARK  7 active torsions:
REMARK  status: ('A' for Active; 'I' for Inactive)
REMARK    1  A    between atoms: C_2  and  C_3 
REMARK    2  A    between atoms: C_3  and  O_6 
REMARK    3  A    between atoms: C_3  and  C_4 
REMARK    4  A    between atoms: C_7  and  O_6 
REMARK    5  A    between atoms: C_9  and  C_10 
REMARK    6  A    between atoms: N_15  and  C_14 
REMARK    7  A    between atoms: N_20  and  C_19 
REMARK       I    between atoms: C_22  and  N_20 
ROOT
ATOM      1  C   LIG d   1      -4.807  93.408 119.668  0.00  0.00     0.161 C 
ATOM      2  C   LIG d   1      -6.146  93.794 119.488  0.00  0.00     0.016 C 
ATOM      3  C   LIG d   1      -6.550  95.136 119.301  0.00  0.00     0.038 C 
ATOM      4  C   LIG d   1      -5.621  96.173 119.130  0.00  0.00     0.028 C 
ATOM      5  C   LIG d   1      -4.282  95.904 119.807  0.00  0.00    -0.047 C 
ATOM      6  C   LIG d   1      -3.770  94.512 119.373  0.00  0.00     0.091 C 
ENDROOT
BRANCH   1   7
ATOM      7  O   LIG d   1      -4.527  92.234 118.880  0.00  0.00    -0.368 OA
BRANCH   7   8
ATOM      8  C   LIG d   1      -3.963  92.468 117.566  0.00  0.00     0.119 C 
BRANCH   8   9
ATOM      9  C   LIG d   1      -5.016  92.037 116.526  0.00  0.00     0.028 C 
ATOM     10  C   LIG d   1      -5.199  90.511 116.474  0.00  0.00     0.006 C 
ENDBRANCH   8   9
BRANCH   8  11
ATOM     11  C   LIG d   1      -2.750  91.568 117.312  0.00  0.00     0.028 C 
ATOM     12  C   LIG d   1      -2.267  90.847 118.580  0.00  0.00     0.006 C 
ENDBRANCH   8  11
ENDBRANCH   7   8
ENDBRANCH   1   7
BRANCH   6  13
ATOM     13  N   LIG d   1      -2.505  94.134 120.055  0.00  0.00    -0.311 N 
ATOM     14  C   LIG d   1      -1.300  94.307 119.514  0.00  0.00     0.210 C 
ATOM     15  C   LIG d   1      -0.129  93.831 120.379  0.00  0.00     0.109 C 
ATOM     16  O   LIG d   1      -1.089  94.838 118.413  0.00  0.00    -0.276 OA
ATOM     17  H   LIG d   1      -2.582  93.725 120.966  0.00  0.00     0.149 HD
ENDBRANCH   6  13
BRANCH   5  18
ATOM     18  N   LIG d   1      -3.366  96.999 119.433  0.00  0.00     0.381 N 
ATOM     19  H   LIG d   1      -2.491  96.620 119.131  0.00  0.00    -0.090 HD
ATOM     20  H   LIG d   1      -3.199  97.573 120.241  0.00  0.00    -0.090 HD
ATOM     21  H   LIG d   1      -3.768  97.546 118.705  0.00  0.00    -0.090 HD
ENDBRANCH   5  18
BRANCH   3  22
ATOM     22  C   LIG d   1      -7.899  95.457 119.325  0.00  0.00     0.382 C 
ATOM     23  O   LIG d   1      -8.386  96.047 120.319  0.00  0.00    -0.241 OA
ATOM     24  O   LIG d   1      -8.644  95.124 118.383  0.00  0.00    -0.241 OA
ENDBRANCH   3  22
TORSDOF 7
ENDMDL
MODEL 2
REMARK VINA RESULT:      -4.4      0.757      1.703
REMARK  7 active torsions:
REMARK  status: ('A' for Active; 'I' for Inactive)
REMARK    1  A    between atoms: C_2  and  C_3 
REMARK    2  A    between atoms: C_3  and  O_6 
REMARK    3  A    between atoms: C_3  and  C_4 
REMARK    4  A    between atoms: C_7  and  O_6 
REMARK    5  A    between atoms: C_9  and  C_10 
REMARK    6  A    between atoms: N_15  and  C_14 
REMARK    7  A    between atoms: N_20  and  C_19 
REMARK       I    between atoms: C_22  and  N_20 
ROOT
ATOM      1  C   LIG d   1      -4.501  93.692 118.837  0.00  0.00     0.161 C 
ATOM      2  C   LIG d   1      -5.855  94.060 118.759  0.00  0.00     0.016 C 
ATOM      3  C   LIG d   1      -6.333  95.347 119.098  0.00  0.00     0.038 C 
ATOM      4  C   LIG d   1      -5.463  96.406 119.397  0.00  0.00     0.028 C 
ATOM      5  C   LIG d   1      -4.129  95.948 119.977  0.00  0.00    -0.047 C 
ATOM      6  C   LIG d   1      -3.524  94.866 119.054  0.00  0.00     0.091 C 
ENDROOT
BRANCH   1   7
ATOM      7  O   LIG d   1      -4.130  92.942 117.664  0.00  0.00    -0.368 OA
BRANCH   7   8
ATOM      8  C   LIG d   1      -4.092  91.501 117.814  0.00  0.00     0.119 C 
BRANCH   8   9
ATOM      9  C   LIG d   1      -2.615  91.068 117.744  0.00  0.00     0.028 C 
ATOM     10  C   LIG d   1      -2.056  90.664 119.119  0.00  0.00     0.006 C 
ENDBRANCH   8   9
BRANCH   8  11
ATOM     11  C   LIG d   1      -4.777  90.799 116.638  0.00  0.00     0.028 C 
ATOM     12  C   LIG d   1      -4.278  89.360 116.430  0.00  0.00     0.006 C 
ENDBRANCH   8  11
ENDBRANCH   7   8
ENDBRANCH   1   7
BRANCH   6  13
ATOM     13  N   LIG d   1      -2.258  94.304 119.593  0.00  0.00    -0.311 N 
ATOM     14  C   LIG d   1      -1.123  94.257 118.898  0.00  0.00     0.210 C 
ATOM     15  C   LIG d   1       0.059  93.619 119.635  0.00  0.00     0.109 C 
ATOM     16  O   LIG d   1      -0.974  94.712 117.754  0.00  0.00    -0.276 OA
ATOM     17  H   LIG d   1      -2.281  93.941 120.526  0.00  0.00     0.149 HD
ENDBRANCH   6  13
BRANCH   5  18
ATOM     18  N   LIG d   1      -3.270  97.140 120.112  0.00  0.00     0.381 N 
ATOM     19  H   LIG d   1      -3.187  97.390 121.077  0.00  0.00    -0.090 HD
ATOM     20  H   LIG d   1      -3.698  97.906 119.623  0.00  0.00    -0.090 HD
ATOM     21  H   LIG d   1      -2.368  96.955 119.731  0.00  0.00    -0.090 HD
ENDBRANCH   5  18
BRANCH   3  22
ATOM     22  C   LIG d   1      -7.698  95.573 119.180  0.00  0.00     0.382 C 
ATOM     23  O   LIG d   1      -8.488  94.912 118.462  0.00  0.00    -0.241 OA
ATOM     24  O   LIG d   1      -8.148  96.461 119.929  0.00  0.00    -0.241 OA
ENDBRANCH   3  22
TORSDOF 7
ENDMDL
MODEL 3
REMARK VINA RESULT:      -4.2      1.445      1.791
REMARK  7 active torsions:
REMARK  status: ('A' for Active; 'I' for Inactive)
REMARK    1  A    between atoms: C_2  and  C_3 
REMARK    2  A    between atoms: C_3  and  O_6 
REMARK    3  A    between atoms: C_3  and  C_4 
REMARK    4  A    between atoms: C_7  and  O_6 
REMARK    5  A    between atoms: C_9  and  C_10 
REMARK    6  A    between atoms: N_15  and  C_14 
REMARK    7  A    between atoms: N_20  and  C_19 
REMARK       I    between atoms: C_22  and  N_20 
ROOT
ATOM      1  C   LIG d   1      -3.619  92.211 119.678  0.00  0.00     0.161 C 
ATOM      2  C   LIG d   1      -4.983  92.479 119.885  0.00  0.00     0.016 C 
ATOM      3  C   LIG d   1      -5.540  93.777 119.817  0.00  0.00     0.038 C 
ATOM      4  C   LIG d   1      -4.793  94.883 119.386  0.00  0.00     0.028 C 
ATOM      5  C   LIG d   1      -3.298  94.746 119.655  0.00  0.00    -0.047 C 
ATOM      6  C   LIG d   1      -2.810  93.390 119.098  0.00  0.00     0.091 C 
ENDROOT
BRANCH   1   7
ATOM      7  O   LIG d   1      -3.472  91.044 118.846  0.00  0.00    -0.368 OA
BRANCH   7   8
ATOM      8  C   LIG d   1      -3.195  91.290 117.445  0.00  0.00     0.119 C 
BRANCH   8   9
ATOM      9  C   LIG d   1      -4.414  90.801 116.640  0.00  0.00     0.028 C 
ATOM     10  C   LIG d   1      -5.462  91.907 116.430  0.00  0.00     0.006 C 
ENDBRANCH   8   9
BRANCH   8  11
ATOM     11  C   LIG d   1      -2.017  90.444 116.952  0.00  0.00     0.028 C 
ATOM     12  C   LIG d   1      -1.359  89.628 118.076  0.00  0.00     0.006 C 
ENDBRANCH   8  11
ENDBRANCH   7   8
ENDBRANCH   1   7
BRANCH   6  13
ATOM     13  N   LIG d   1      -1.375  93.139 119.393  0.00  0.00    -0.311 N 
ATOM     14  C   LIG d   1      -0.391  93.419 118.541  0.00  0.00     0.210 C 
ATOM     15  C   LIG d   1       1.014  93.063 119.036  0.00  0.00     0.109 C 
ATOM     16  O   LIG d   1      -0.545  93.960 117.436  0.00  0.00    -0.276 OA
ATOM     17  H   LIG d   1      -1.157  92.731 120.281  0.00  0.00     0.149 HD
ENDBRANCH   6  13
BRANCH   5  18
ATOM     18  N   LIG d   1      -2.626  95.903 119.034  0.00  0.00     0.381 N 
ATOM     19  H   LIG d   1      -2.124  95.606 118.220  0.00  0.00    -0.090 HD
ATOM     20  H   LIG d   1      -1.966  96.286 119.688  0.00  0.00    -0.090 HD
ATOM     21  H   LIG d   1      -3.298  96.594 118.784  0.00  0.00    -0.090 HD
ENDBRANCH   5  18
BRANCH   3  22
ATOM     22  C   LIG d   1      -6.850  93.984 120.222  0.00  0.00     0.382 C 
ATOM     23  O   LIG d   1      -7.790  93.835 119.404  0.00  0.00    -0.241 OA
ATOM     24  O   LIG d   1      -7.100  94.362 121.382  0.00  0.00    -0.241 OA
ENDBRANCH   3  22
TORSDOF 7
ENDMDL
MODEL 4
REMARK VINA RESULT:      -4.2      2.303      4.180
REMARK  7 active torsions:
REMARK  status: ('A' for Active; 'I' for Inactive)
REMARK    1  A    between atoms: C_2  and  C_3 
REMARK    2  A    between atoms: C_3  and  O_6 
REMARK    3  A    between atoms: C_3  and  C_4 
REMARK    4  A    between atoms: C_7  and  O_6 
REMARK    5  A    between atoms: C_9  and  C_10 
REMARK    6  A    between atoms: N_15  and  C_14 
REMARK    7  A    between atoms: N_20  and  C_19 
REMARK       I    between atoms: C_22  and  N_20 
ROOT
ATOM      1  C   LIG d   1      -3.025  93.560 118.449  0.00  0.00     0.161 C 
ATOM      2  C   LIG d   1      -4.190  94.271 118.781  0.00  0.00     0.016 C 
ATOM      3  C   LIG d   1      -5.485  93.876 118.374  0.00  0.00     0.038 C 
ATOM      4  C   LIG d   1      -5.719  92.652 117.731  0.00  0.00     0.028 C 
ATOM      5  C   LIG d   1      -4.521  92.148 116.933  0.00  0.00    -0.047 C 
ATOM      6  C   LIG d   1      -3.271  92.163 117.842  0.00  0.00     0.091 C 
ENDROOT
BRANCH   1   7
ATOM      7  O   LIG d   1      -2.167  93.462 119.603  0.00  0.00    -0.368 OA
BRANCH   7   8
ATOM      8  C   LIG d   1      -0.961  94.264 119.571  0.00  0.00     0.119 C 
BRANCH   8   9
ATOM      9  C   LIG d   1      -0.915  94.976 118.205  0.00  0.00     0.028 C 
ATOM     10  C   LIG d   1      -0.914  96.508 118.342  0.00  0.00     0.006 C 
ENDBRANCH   8   9
BRANCH   8  11
ATOM     11  C   LIG d   1       0.293  93.386 119.613  0.00  0.00     0.028 C 
ATOM     12  C   LIG d   1       1.191  93.570 118.379  0.00  0.00     0.006 C 
ENDBRANCH   8  11
ENDBRANCH   7   8
ENDBRANCH   1   7
BRANCH   6  13
ATOM     13  N   LIG d   1      -2.037  91.764 117.116  0.00  0.00    -0.311 N 
ATOM     14  C   LIG d   1      -1.259  90.752 117.494  0.00  0.00     0.210 C 
ATOM     15  C   LIG d   1      -0.024  90.523 116.616  0.00  0.00     0.109 C 
ATOM     16  O   LIG d   1      -1.491  90.001 118.453  0.00  0.00    -0.276 OA
ATOM     17  H   LIG d   1      -1.791  92.300 116.307  0.00  0.00     0.149 HD
ENDBRANCH   6  13
BRANCH   5  18
ATOM     18  N   LIG d   1      -4.854  90.802 116.430  0.00  0.00     0.381 N 
ATOM     19  H   LIG d   1      -5.216  90.868 115.500  0.00  0.00    -0.090 HD
ATOM     20  H   LIG d   1      -5.565  90.402 117.018  0.00  0.00    -0.090 HD
ATOM     21  H   LIG d   1      -4.043  90.224 116.439  0.00  0.00    -0.090 HD
ENDBRANCH   5  18
BRANCH   3  22
ATOM     22  C   LIG d   1      -6.559  94.730 118.576  0.00  0.00     0.382 C 
ATOM     23  O   LIG d   1      -7.720  94.264 118.679  0.00  0.00    -0.241 OA
ATOM     24  O   LIG d   1      -6.388  95.963 118.612  0.00  0.00    -0.241 OA
ENDBRANCH   3  22
TORSDOF 7
ENDMDL
MODEL 5
REMARK VINA RESULT:      -4.2      1.890      3.800
REMARK  7 active torsions:
REMARK  status: ('A' for Active; 'I' for Inactive)
REMARK    1  A    between atoms: C_2  and  C_3 
REMARK    2  A    between atoms: C_3  and  O_6 
REMARK    3  A    between atoms: C_3  and  C_4 
REMARK    4  A    between atoms: C_7  and  O_6 
REMARK    5  A    between atoms: C_9  and  C_10 
REMARK    6  A    between atoms: N_15  and  C_14 
REMARK    7  A    between atoms: N_20  and  C_19 
REMARK       I    between atoms: C_22  and  N_20 
ROOT
ATOM      1  C   LIG d   1      -3.978  94.966 119.399  0.00  0.00     0.161 C 
ATOM      2  C   LIG d   1      -5.249  95.551 119.530  0.00  0.00     0.016 C 
ATOM      3  C   LIG d   1      -6.434  94.956 119.039  0.00  0.00     0.038 C 
ATOM      4  C   LIG d   1      -6.448  93.656 118.512  0.00  0.00     0.028 C 
ATOM      5  C   LIG d   1      -5.115  93.236 117.902  0.00  0.00    -0.047 C 
ATOM      6  C   LIG d   1      -3.988  93.497 118.927  0.00  0.00     0.091 C 
ENDROOT
BRANCH   1   7
ATOM      7  O   LIG d   1      -3.254  95.089 120.639  0.00  0.00    -0.368 OA
BRANCH   7   8
ATOM      8  C   LIG d   1      -2.092  95.954 120.614  0.00  0.00     0.119 C 
BRANCH   8   9
ATOM      9  C   LIG d   1      -2.003  96.571 119.205  0.00  0.00     0.028 C 
ATOM     10  C   LIG d   1      -0.668  96.255 118.509  0.00  0.00     0.006 C 
ENDBRANCH   8   9
BRANCH   8  11
ATOM     11  C   LIG d   1      -0.798  95.154 120.789  0.00  0.00     0.028 C 
ATOM     12  C   LIG d   1      -0.999  93.867 121.604  0.00  0.00     0.006 C 
ENDBRANCH   8  11
ENDBRANCH   7   8
ENDBRANCH   1   7
BRANCH   6  13
ATOM     13  N   LIG d   1      -2.641  93.192 118.379  0.00  0.00    -0.311 N 
ATOM     14  C   LIG d   1      -2.024  92.025 118.558  0.00  0.00     0.210 C 
ATOM     15  C   LIG d   1      -0.632  91.926 117.926  0.00  0.00     0.109 C 
ATOM     16  O   LIG d   1      -2.510  91.052 119.154  0.00  0.00    -0.276 OA
ATOM     17  H   LIG d   1      -2.187  93.915 117.856  0.00  0.00     0.149 HD
ENDBRANCH   6  13
BRANCH   5  18
ATOM     18  N   LIG d   1      -5.229  91.816 117.517  0.00  0.00     0.381 N 
ATOM     19  H   LIG d   1      -4.797  91.670 116.627  0.00  0.00    -0.090 HD
ATOM     20  H   LIG d   1      -6.202  91.578 117.438  0.00  0.00    -0.090 HD
ATOM     21  H   LIG d   1      -4.794  91.241 118.204  0.00  0.00    -0.090 HD
ENDBRANCH   5  18
BRANCH   3  22
ATOM     22  C   LIG d   1      -7.616  95.681 119.035  0.00  0.00     0.382 C 
ATOM     23  O   LIG d   1      -8.650  95.192 118.518  0.00  0.00    -0.241 OA
ATOM     24  O   LIG d   1      -7.651  96.836 119.501  0.00  0.00    -0.241 OA
ENDBRANCH   3  22
TORSDOF 7
ENDMDL
MODEL 6
REMARK VINA RESULT:      -4.1      3.298      6.727
REMARK  7 active torsions:
REMARK  status: ('A' for Active; 'I' for Inactive)
REMARK    1  A    between atoms: C_2  and  C_3 
REMARK    2  A    between atoms: C_3  and  O_6 
REMARK    3  A    between atoms: C_3  and  C_4 
REMARK    4  A    between atoms: C_7  and  O_6 
REMARK    5  A    between atoms: C_9  and  C_10 
REMARK    6  A    between atoms: N_15  and  C_14 
REMARK    7  A    between atoms: N_20  and  C_19 
REMARK       I    between atoms: C_22  and  N_20 
ROOT
ATOM      1  C   LIG d   1      -0.112  91.380 117.681  0.00  0.00     0.161 C 
ATOM      2  C   LIG d   1       1.230  91.695 117.950  0.00  0.00     0.016 C 
ATOM      3  C   LIG d   1       1.691  93.013 118.170  0.00  0.00     0.038 C 
ATOM      4  C   LIG d   1       0.808  94.097 118.286  0.00  0.00     0.028 C 
ATOM      5  C   LIG d   1      -0.497  93.901 117.522  0.00  0.00    -0.047 C 
ATOM      6  C   LIG d   1      -1.107  92.536 117.914  0.00  0.00     0.091 C 
ENDROOT
BRANCH   1   7
ATOM      7  O   LIG d   1      -0.504  90.220 118.443  0.00  0.00    -0.368 OA
BRANCH   7   8
ATOM      8  C   LIG d   1       0.045  88.954 118.003  0.00  0.00     0.119 C 
BRANCH   8   9
ATOM      9  C   LIG d   1      -0.848  88.435 116.858  0.00  0.00     0.028 C 
ATOM     10  C   LIG d   1      -2.346  88.535 117.191  0.00  0.00     0.006 C 
ENDBRANCH   8   9
BRANCH   8  11
ATOM     11  C   LIG d   1      -0.050  87.893 119.103  0.00  0.00     0.028 C 
ATOM     12  C   LIG d   1      -0.157  88.502 120.510  0.00  0.00     0.006 C 
ENDBRANCH   8  11
ENDBRANCH   7   8
ENDBRANCH   1   7
BRANCH   6  13
ATOM     13  N   LIG d   1      -2.343  92.227 117.149  0.00  0.00    -0.311 N 
ATOM     14  C   LIG d   1      -3.566  92.542 117.573  0.00  0.00     0.210 C 
ATOM     15  C   LIG d   1      -4.704  92.114 116.640  0.00  0.00     0.109 C 
ATOM     16  O   LIG d   1      -3.814  93.163 118.617  0.00  0.00    -0.276 OA
ATOM     17  H   LIG d   1      -2.232  91.751 116.275  0.00  0.00     0.149 HD
ENDBRANCH   6  13
BRANCH   5  18
ATOM     18  N   LIG d   1      -1.377  95.041 117.842  0.00  0.00     0.381 N 
ATOM     19  H   LIG d   1      -2.079  95.135 117.136  0.00  0.00    -0.090 HD
ATOM     20  H   LIG d   1      -0.827  95.882 117.854  0.00  0.00    -0.090 HD
ATOM     21  H   LIG d   1      -1.805  94.902 118.730  0.00  0.00    -0.090 HD
ENDBRANCH   5  18
BRANCH   3  22
ATOM     22  C   LIG d   1       3.053  93.263 118.236  0.00  0.00     0.382 C 
ATOM     23  O   LIG d   1       3.795  92.955 117.272  0.00  0.00    -0.241 OA
ATOM     24  O   LIG d   1       3.556  93.752 119.265  0.00  0.00    -0.241 OA
ENDBRANCH   3  22
TORSDOF 7
ENDMDL
MODEL 7
REMARK VINA RESULT:      -4.1      2.245      3.998
REMARK  7 active torsions:
REMARK  status: ('A' for Active; 'I' for Inactive)
REMARK    1  A    between atoms: C_2  and  C_3 
REMARK    2  A    between atoms: C_3  and  O_6 
REMARK    3  A    between atoms: C_3  and  C_4 
REMARK    4  A    between atoms: C_7  and  O_6 
REMARK    5  A    between atoms: C_9  and  C_10 
REMARK    6  A    between atoms: N_15  and  C_14 
REMARK    7  A    between atoms: N_20  and  C_19 
REMARK       I    between atoms: C_22  and  N_20 
ROOT
ATOM      1  C   LIG d   1      -3.909  94.274 119.095  0.00  0.00     0.161 C 
ATOM      2  C   LIG d   1      -5.086  95.011 119.308  0.00  0.00     0.016 C 
ATOM      3  C   LIG d   1      -6.328  94.680 118.721  0.00  0.00     0.038 C 
ATOM      4  C   LIG d   1      -6.513  93.494 117.995  0.00  0.00     0.028 C 
ATOM      5  C   LIG d   1      -5.236  92.983 117.335  0.00  0.00    -0.047 C 
ATOM      6  C   LIG d   1      -4.115  92.914 118.397  0.00  0.00     0.091 C 
ENDROOT
BRANCH   1   7
ATOM      7  O   LIG d   1      -3.212  94.095 120.344  0.00  0.00    -0.368 OA
BRANCH   7   8
ATOM      8  C   LIG d   1      -4.041  93.984 121.527  0.00  0.00     0.119 C 
BRANCH   8   9
ATOM      9  C   LIG d   1      -3.431  94.897 122.608  0.00  0.00     0.028 C 
ATOM     10  C   LIG d   1      -4.236  96.192 122.805  0.00  0.00     0.006 C 
ENDBRANCH   8   9
BRANCH   8  11
ATOM     11  C   LIG d   1      -3.988  92.570 122.114  0.00  0.00     0.028 C 
ATOM     12  C   LIG d   1      -5.189  91.706 121.696  0.00  0.00     0.006 C 
ENDBRANCH   8  11
ENDBRANCH   7   8
ENDBRANCH   1   7
BRANCH   6  13
ATOM     13  N   LIG d   1      -2.810  92.503 117.817  0.00  0.00    -0.311 N 
ATOM     14  C   LIG d   1      -2.066  91.515 118.311  0.00  0.00     0.210 C 
ATOM     15  C   LIG d   1      -0.746  91.269 117.574  0.00  0.00     0.109 C 
ATOM     16  O   LIG d   1      -2.390  90.798 119.270  0.00  0.00    -0.276 OA
ATOM     17  H   LIG d   1      -2.486  93.012 117.017  0.00  0.00     0.149 HD
ENDBRANCH   6  13
BRANCH   5  18
ATOM     18  N   LIG d   1      -5.541  91.673 116.730  0.00  0.00     0.381 N 
ATOM     19  H   LIG d   1      -6.177  91.792 115.966  0.00  0.00    -0.090 HD
ATOM     20  H   LIG d   1      -5.984  91.091 117.420  0.00  0.00    -0.090 HD
ATOM     21  H   LIG d   1      -4.702  91.241 116.409  0.00  0.00    -0.090 HD
ENDBRANCH   5  18
BRANCH   3  22
ATOM     22  C   LIG d   1      -7.393  95.562 118.823  0.00  0.00     0.382 C 
ATOM     23  O   LIG d   1      -7.201  96.733 119.231  0.00  0.00    -0.241 OA
ATOM     24  O   LIG d   1      -8.551  95.188 118.555  0.00  0.00    -0.241 OA
ENDBRANCH   3  22
TORSDOF 7
ENDMDL
MODEL 8
REMARK VINA RESULT:      -4.1      2.169      4.974
REMARK  7 active torsions:
REMARK  status: ('A' for Active; 'I' for Inactive)
REMARK    1  A    between atoms: C_2  and  C_3 
REMARK    2  A    between atoms: C_3  and  O_6 
REMARK    3  A    between atoms: C_3  and  C_4 
REMARK    4  A    between atoms: C_7  and  O_6 
REMARK    5  A    between atoms: C_9  and  C_10 
REMARK    6  A    between atoms: N_15  and  C_14 
REMARK    7  A    between atoms: N_20  and  C_19 
REMARK       I    between atoms: C_22  and  N_20 
ROOT
ATOM      1  C   LIG d   1      -3.727  93.617 119.351  0.00  0.00     0.161 C 
ATOM      2  C   LIG d   1      -3.536  92.547 118.462  0.00  0.00     0.016 C 
ATOM      3  C   LIG d   1      -4.505  92.139 117.516  0.00  0.00     0.038 C 
ATOM      4  C   LIG d   1      -5.678  92.874 117.292  0.00  0.00     0.028 C 
ATOM      5  C   LIG d   1      -6.140  93.664 118.511  0.00  0.00    -0.047 C 
ATOM      6  C   LIG d   1      -4.955  94.501 119.046  0.00  0.00     0.091 C 
ENDROOT
BRANCH   1   7
ATOM      7  O   LIG d   1      -2.533  94.423 119.411  0.00  0.00    -0.368 OA
BRANCH   7   8
ATOM      8  C   LIG d   1      -1.374  93.895 118.721  0.00  0.00     0.119 C 
BRANCH   8   9
ATOM      9  C   LIG d   1      -0.281  93.643 119.778  0.00  0.00     0.028 C 
ATOM     10  C   LIG d   1       1.128  93.591 119.164  0.00  0.00     0.006 C 
ENDBRANCH   8   9
BRANCH   8  11
ATOM     11  C   LIG d   1      -0.778  94.929 117.761  0.00  0.00     0.028 C 
ATOM     12  C   LIG d   1      -0.968  96.374 118.249  0.00  0.00     0.006 C 
ENDBRANCH   8  11
ENDBRANCH   7   8
ENDBRANCH   1   7
BRANCH   6  13
ATOM     13  N   LIG d   1      -5.298  95.239 120.289  0.00  0.00    -0.311 N 
ATOM     14  C   LIG d   1      -5.700  96.509 120.300  0.00  0.00     0.210 C 
ATOM     15  C   LIG d   1      -5.983  97.085 121.691  0.00  0.00     0.109 C 
ATOM     16  O   LIG d   1      -5.880  97.203 119.288  0.00  0.00    -0.276 OA
ATOM     17  H   LIG d   1      -5.210  94.742 121.154  0.00  0.00     0.149 HD
ENDBRANCH   6  13
BRANCH   5  18
ATOM     18  N   LIG d   1      -7.291  94.490 118.098  0.00  0.00     0.381 N 
ATOM     19  H   LIG d   1      -8.137  94.095 118.456  0.00  0.00    -0.090 HD
ATOM     20  H   LIG d   1      -7.344  94.494 117.095  0.00  0.00    -0.090 HD
ATOM     21  H   LIG d   1      -7.181  95.421 118.436  0.00  0.00    -0.090 HD
ENDBRANCH   5  18
BRANCH   3  22
ATOM     22  C   LIG d   1      -4.321  90.960 116.810  0.00  0.00     0.382 C 
ATOM     23  O   LIG d   1      -3.164  90.589 116.498  0.00  0.00    -0.241 OA
ATOM     24  O   LIG d   1      -5.301  90.285 116.442  0.00  0.00    -0.241 OA
ENDBRANCH   3  22
TORSDOF 7
ENDMDL
MODEL 9
REMARK VINA RESULT:      -4.0      2.311      3.761
REMARK  7 active torsions:
REMARK  status: ('A' for Active; 'I' for Inactive)
REMARK    1  A    between atoms: C_2  and  C_3 
REMARK    2  A    between atoms: C_3  and  O_6 
REMARK    3  A    between atoms: C_3  and  C_4 
REMARK    4  A    between atoms: C_7  and  O_6 
REMARK    5  A    between atoms: C_9  and  C_10 
REMARK    6  A    between atoms: N_15  and  C_14 
REMARK    7  A    between atoms: N_20  and  C_19 
REMARK       I    between atoms: C_22  and  N_20 
ROOT
ATOM      1  C   LIG d   1      -3.310  93.810 118.891  0.00  0.00     0.161 C 
ATOM      2  C   LIG d   1      -4.522  94.480 119.125  0.00  0.00     0.016 C 
ATOM      3  C   LIG d   1      -5.746  94.109 118.522  0.00  0.00     0.038 C 
ATOM      4  C   LIG d   1      -5.870  92.941 117.755  0.00  0.00     0.028 C 
ATOM      5  C   LIG d   1      -4.569  92.517 117.082  0.00  0.00    -0.047 C 
ATOM      6  C   LIG d   1      -3.448  92.466 118.145  0.00  0.00     0.091 C 
ENDROOT
BRANCH   1   7
ATOM      7  O   LIG d   1      -2.607  93.622 120.135  0.00  0.00    -0.368 OA
BRANCH   7   8
ATOM      8  C   LIG d   1      -2.705  92.305 120.730  0.00  0.00     0.119 C 
BRANCH   8   9
ATOM      9  C   LIG d   1      -3.689  92.401 121.911  0.00  0.00     0.028 C 
ATOM     10  C   LIG d   1      -5.069  91.810 121.575  0.00  0.00     0.006 C 
ENDBRANCH   8   9
BRANCH   8  11
ATOM     11  C   LIG d   1      -1.371  91.872 121.347  0.00  0.00     0.028 C 
ATOM     12  C   LIG d   1      -0.156  92.381 120.557  0.00  0.00     0.006 C 
ENDBRANCH   8  11
ENDBRANCH   7   8
ENDBRANCH   1   7
BRANCH   6  13
ATOM     13  N   LIG d   1      -2.123  92.141 117.556  0.00  0.00    -0.311 N 
ATOM     14  C   LIG d   1      -1.638  90.903 117.480  0.00  0.00     0.210 C 
ATOM     15  C   LIG d   1      -0.244  90.791 116.855  0.00  0.00     0.109 C 
ATOM     16  O   LIG d   1      -2.244  89.883 117.843  0.00  0.00    -0.276 OA
ATOM     17  H   LIG d   1      -1.578  92.906 117.209  0.00  0.00     0.149 HD
ENDBRANCH   6  13
BRANCH   5  18
ATOM     18  N   LIG d   1      -4.808  91.215 116.431  0.00  0.00     0.381 N 
ATOM     19  H   LIG d   1      -4.037  90.988 115.835  0.00  0.00    -0.090 HD
ATOM     20  H   LIG d   1      -5.635  91.282 115.865  0.00  0.00    -0.090 HD
ATOM     21  H   LIG d   1      -4.925  90.505 117.121  0.00  0.00    -0.090 HD
ENDBRANCH   5  18
BRANCH   3  22
ATOM     22  C   LIG d   1      -6.853  94.934 118.651  0.00  0.00     0.382 C 
ATOM     23  O   LIG d   1      -8.004  94.436 118.691  0.00  0.00    -0.241 OA
ATOM     24  O   LIG d   1      -6.719  96.172 118.683  0.00  0.00    -0.241 OA
ENDBRANCH   3  22
TORSDOF 7
ENDMDL
