MODEL 1
REMARK VINA RESULT:      -4.2      0.000      0.000
REMARK  7 active torsions:
REMARK  status: ('A' for Active; 'I' for Inactive)
REMARK    1  A    between atoms: C_2  and  C_3 
REMARK    2  A    between atoms: C_3  and  O_6 
REMARK    3  A    between atoms: C_3  and  C_4 
REMARK    4  A    between atoms: C_7  and  O_6 
REMARK    5  A    between atoms: C_9  and  C_10 
REMARK    6  A    between atoms: N_15  and  C_14 
REMARK    7  A    between atoms: N_20  and  C_19 
REMARK       I    between atoms: C_22  and  N_20 
ROOT
ATOM      1  C   LIG d   1      -2.033  93.587 121.276  0.00  0.00     0.161 C 
ATOM      2  C   LIG d   1      -0.743  93.519 120.723  0.00  0.00     0.016 C 
ATOM      3  C   LIG d   1      -0.437  92.791 119.550  0.00  0.00     0.038 C 
ATOM      4  C   LIG d   1      -1.437  92.202 118.761  0.00  0.00     0.028 C 
ATOM      5  C   LIG d   1      -2.684  91.819 119.551  0.00  0.00    -0.047 C 
ATOM      6  C   LIG d   1      -3.156  93.043 120.369  0.00  0.00     0.091 C 
ENDROOT
BRANCH   1   7
ATOM      7  O   LIG d   1      -2.323  94.942 121.674  0.00  0.00    -0.368 OA
BRANCH   7   8
ATOM      8  C   LIG d   1      -2.534  95.890 120.599  0.00  0.00     0.119 C 
BRANCH   8   9
ATOM      9  C   LIG d   1      -1.709  97.150 120.925  0.00  0.00     0.028 C 
ATOM     10  C   LIG d   1      -1.275  97.203 122.400  0.00  0.00     0.006 C 
ENDBRANCH   8   9
BRANCH   8  11
ATOM     11  C   LIG d   1      -3.990  96.361 120.550  0.00  0.00     0.028 C 
ATOM     12  C   LIG d   1      -4.470  96.664 119.121  0.00  0.00     0.006 C 
ENDBRANCH   8  11
ENDBRANCH   7   8
ENDBRANCH   1   7
BRANCH   6  13
ATOM     13  N   LIG d   1      -4.322  92.730 121.235  0.00  0.00    -0.311 N 
ATOM     14  C   LIG d   1      -5.582  92.989 120.889  0.00  0.00     0.210 C 
ATOM     15  C   LIG d   1      -6.632  92.605 121.937  0.00  0.00     0.109 C 
ATOM     16  O   LIG d   1      -5.932  93.470 119.801  0.00  0.00    -0.276 OA
ATOM     17  H   LIG d   1      -4.131  92.309 122.123  0.00  0.00     0.149 HD
ENDBRANCH   6  13
BRANCH   5  18
ATOM     18  N   LIG d   1      -3.694  91.345 118.585  0.00  0.00     0.381 N 
ATOM     19  H   LIG d   1      -4.323  90.711 119.037  0.00  0.00    -0.090 HD
ATOM     20  H   LIG d   1      -3.228  90.852 117.844  0.00  0.00    -0.090 HD
ATOM     21  H   LIG d   1      -4.200  92.118 118.214  0.00  0.00    -0.090 HD
ENDBRANCH   5  18
BRANCH   3  22
ATOM     22  C   LIG d   1       0.886  92.614 119.177  0.00  0.00     0.382 C 
ATOM     23  O   LIG d   1       1.180  91.785 118.282  0.00  0.00    -0.241 OA
ATOM     24  O   LIG d   1       1.795  93.240 119.755  0.00  0.00    -0.241 OA
ENDBRANCH   3  22
TORSDOF 7
ENDMDL
MODEL 2
REMARK VINA RESULT:      -4.0      2.826      5.916
REMARK  7 active torsions:
REMARK  status: ('A' for Active; 'I' for Inactive)
REMARK    1  A    between atoms: C_2  and  C_3 
REMARK    2  A    between atoms: C_3  and  O_6 
REMARK    3  A    between atoms: C_3  and  C_4 
REMARK    4  A    between atoms: C_7  and  O_6 
REMARK    5  A    between atoms: C_9  and  C_10 
REMARK    6  A    between atoms: N_15  and  C_14 
REMARK    7  A    between atoms: N_20  and  C_19 
REMARK       I    between atoms: C_22  and  N_20 
ROOT
ATOM      1  C   LIG d   1      -5.523  93.644 120.140  0.00  0.00     0.161 C 
ATOM      2  C   LIG d   1      -6.773  94.204 119.828  0.00  0.00     0.016 C 
ATOM      3  C   LIG d   1      -7.918  94.058 120.645  0.00  0.00     0.038 C 
ATOM      4  C   LIG d   1      -7.852  93.464 121.914  0.00  0.00     0.028 C 
ATOM      5  C   LIG d   1      -6.727  92.443 122.047  0.00  0.00    -0.047 C 
ATOM      6  C   LIG d   1      -5.404  93.088 121.575  0.00  0.00     0.091 C 
ENDROOT
BRANCH   1   7
ATOM      7  O   LIG d   1      -4.480  94.606 119.888  0.00  0.00    -0.368 OA
BRANCH   7   8
ATOM      8  C   LIG d   1      -4.094  95.437 121.010  0.00  0.00     0.119 C 
BRANCH   8   9
ATOM      9  C   LIG d   1      -4.496  96.886 120.674  0.00  0.00     0.028 C 
ATOM     10  C   LIG d   1      -4.400  97.187 119.169  0.00  0.00     0.006 C 
ENDBRANCH   8   9
BRANCH   8  11
ATOM     11  C   LIG d   1      -2.572  95.468 121.183  0.00  0.00     0.028 C 
ATOM     12  C   LIG d   1      -1.843  94.532 120.207  0.00  0.00     0.006 C 
ENDBRANCH   8  11
ENDBRANCH   7   8
ENDBRANCH   1   7
BRANCH   6  13
ATOM     13  N   LIG d   1      -4.268  92.130 121.593  0.00  0.00    -0.311 N 
ATOM     14  C   LIG d   1      -3.406  92.035 122.603  0.00  0.00     0.210 C 
ATOM     15  C   LIG d   1      -2.296  90.997 122.411  0.00  0.00     0.109 C 
ATOM     16  O   LIG d   1      -3.473  92.690 123.655  0.00  0.00    -0.276 OA
ATOM     17  H   LIG d   1      -4.157  91.539 120.793  0.00  0.00     0.149 HD
ENDBRANCH   6  13
BRANCH   5  18
ATOM     18  N   LIG d   1      -6.686  92.006 123.456  0.00  0.00     0.381 N 
ATOM     19  H   LIG d   1      -6.567  91.013 123.499  0.00  0.00    -0.090 HD
ATOM     20  H   LIG d   1      -7.561  92.238 123.893  0.00  0.00    -0.090 HD
ATOM     21  H   LIG d   1      -5.937  92.458 123.932  0.00  0.00    -0.090 HD
ENDBRANCH   5  18
BRANCH   3  22
ATOM     22  C   LIG d   1      -9.155  94.473 120.176  0.00  0.00     0.382 C 
ATOM     23  O   LIG d   1      -9.461  94.294 118.972  0.00  0.00    -0.241 OA
ATOM     24  O   LIG d   1      -9.951  95.064 120.930  0.00  0.00    -0.241 OA
ENDBRANCH   3  22
TORSDOF 7
ENDMDL
MODEL 3
REMARK VINA RESULT:      -3.9      1.959      5.092
REMARK  7 active torsions:
REMARK  status: ('A' for Active; 'I' for Inactive)
REMARK    1  A    between atoms: C_2  and  C_3 
REMARK    2  A    between atoms: C_3  and  O_6 
REMARK    3  A    between atoms: C_3  and  C_4 
REMARK    4  A    between atoms: C_7  and  O_6 
REMARK    5  A    between atoms: C_9  and  C_10 
REMARK    6  A    between atoms: N_15  and  C_14 
REMARK    7  A    between atoms: N_20  and  C_19 
REMARK       I    between atoms: C_22  and  N_20 
ROOT
ATOM      1  C   LIG d   1      -2.770  93.211 119.980  0.00  0.00     0.161 C 
ATOM      2  C   LIG d   1      -4.045  93.161 120.566  0.00  0.00     0.016 C 
ATOM      3  C   LIG d   1      -4.387  92.269 121.609  0.00  0.00     0.038 C 
ATOM      4  C   LIG d   1      -3.427  91.467 122.243  0.00  0.00     0.028 C 
ATOM      5  C   LIG d   1      -2.242  91.120 121.349  0.00  0.00    -0.047 C 
ATOM      6  C   LIG d   1      -1.680  92.421 120.733  0.00  0.00     0.091 C 
ENDROOT
BRANCH   1   7
ATOM      7  O   LIG d   1      -2.365  94.584 119.808  0.00  0.00    -0.368 OA
BRANCH   7   8
ATOM      8  C   LIG d   1      -2.823  95.515 120.819  0.00  0.00     0.119 C 
BRANCH   8   9
ATOM      9  C   LIG d   1      -3.223  96.819 120.102  0.00  0.00     0.028 C 
ATOM     10  C   LIG d   1      -4.375  96.611 119.104  0.00  0.00     0.006 C 
ENDBRANCH   8   9
BRANCH   8  11
ATOM     11  C   LIG d   1      -1.689  95.907 121.770  0.00  0.00     0.028 C 
ATOM     12  C   LIG d   1      -1.784  95.203 123.133  0.00  0.00     0.006 C 
ENDBRANCH   8  11
ENDBRANCH   7   8
ENDBRANCH   1   7
BRANCH   6  13
ATOM     13  N   LIG d   1      -0.570  92.164 119.779  0.00  0.00    -0.311 N 
ATOM     14  C   LIG d   1       0.621  92.755 119.862  0.00  0.00     0.210 C 
ATOM     15  C   LIG d   1       1.616  92.363 118.765  0.00  0.00     0.109 C 
ATOM     16  O   LIG d   1       0.958  93.543 120.758  0.00  0.00    -0.276 OA
ATOM     17  H   LIG d   1      -0.747  91.514 119.038  0.00  0.00     0.149 HD
ENDBRANCH   6  13
BRANCH   5  18
ATOM     18  N   LIG d   1      -1.256  90.399 122.176  0.00  0.00     0.381 N 
ATOM     19  H   LIG d   1      -1.243  90.783 123.100  0.00  0.00    -0.090 HD
ATOM     20  H   LIG d   1      -0.343  90.518 121.772  0.00  0.00    -0.090 HD
ATOM     21  H   LIG d   1      -1.486  89.430 122.215  0.00  0.00    -0.090 HD
ENDBRANCH   5  18
BRANCH   3  22
ATOM     22  C   LIG d   1      -5.712  92.146 122.001  0.00  0.00     0.382 C 
ATOM     23  O   LIG d   1      -6.556  93.000 121.636  0.00  0.00    -0.241 OA
ATOM     24  O   LIG d   1      -6.065  91.215 122.750  0.00  0.00    -0.241 OA
ENDBRANCH   3  22
TORSDOF 7
ENDMDL
MODEL 4
REMARK VINA RESULT:      -3.9      2.500      6.307
REMARK  7 active torsions:
REMARK  status: ('A' for Active; 'I' for Inactive)
REMARK    1  A    between atoms: C_2  and  C_3 
REMARK    2  A    between atoms: C_3  and  O_6 
REMARK    3  A    between atoms: C_3  and  C_4 
REMARK    4  A    between atoms: C_7  and  O_6 
REMARK    5  A    between atoms: C_9  and  C_10 
REMARK    6  A    between atoms: N_15  and  C_14 
REMARK    7  A    between atoms: N_20  and  C_19 
REMARK       I    between atoms: C_22  and  N_20 
ROOT
ATOM      1  C   LIG d   1      -4.933  93.665 120.704  0.00  0.00     0.161 C 
ATOM      2  C   LIG d   1      -6.263  93.453 120.307  0.00  0.00     0.016 C 
ATOM      3  C   LIG d   1      -7.245  94.470 120.301  0.00  0.00     0.038 C 
ATOM      4  C   LIG d   1      -6.924  95.813 120.550  0.00  0.00     0.028 C 
ATOM      5  C   LIG d   1      -5.701  95.987 121.445  0.00  0.00    -0.047 C 
ATOM      6  C   LIG d   1      -4.537  95.147 120.873  0.00  0.00     0.091 C 
ENDROOT
BRANCH   1   7
ATOM      7  O   LIG d   1      -4.038  93.009 119.785  0.00  0.00    -0.368 OA
BRANCH   7   8
ATOM      8  C   LIG d   1      -3.352  91.836 120.290  0.00  0.00     0.119 C 
BRANCH   8   9
ATOM      9  C   LIG d   1      -3.540  91.813 121.819  0.00  0.00     0.028 C 
ATOM     10  C   LIG d   1      -2.628  90.784 122.507  0.00  0.00     0.006 C 
ENDBRANCH   8   9
BRANCH   8  11
ATOM     11  C   LIG d   1      -1.840  91.936 120.069  0.00  0.00     0.028 C 
ATOM     12  C   LIG d   1      -1.476  92.549 118.707  0.00  0.00     0.006 C 
ENDBRANCH   8  11
ENDBRANCH   7   8
ENDBRANCH   1   7
BRANCH   6  13
ATOM     13  N   LIG d   1      -3.327  95.194 121.735  0.00  0.00    -0.311 N 
ATOM     14  C   LIG d   1      -2.113  95.496 121.279  0.00  0.00     0.210 C 
ATOM     15  C   LIG d   1      -1.001  95.468 122.332  0.00  0.00     0.109 C 
ATOM     16  O   LIG d   1      -1.857  95.817 120.108  0.00  0.00    -0.276 OA
ATOM     17  H   LIG d   1      -3.450  94.978 122.705  0.00  0.00     0.149 HD
ENDBRANCH   6  13
BRANCH   5  18
ATOM     18  N   LIG d   1      -5.398  97.429 121.509  0.00  0.00     0.381 N 
ATOM     19  H   LIG d   1      -4.709  97.599 122.214  0.00  0.00    -0.090 HD
ATOM     20  H   LIG d   1      -6.234  97.926 121.759  0.00  0.00    -0.090 HD
ATOM     21  H   LIG d   1      -5.065  97.747 120.626  0.00  0.00    -0.090 HD
ENDBRANCH   5  18
BRANCH   3  22
ATOM     22  C   LIG d   1      -8.574  94.141 120.082  0.00  0.00     0.382 C 
ATOM     23  O   LIG d   1      -9.302  93.800 121.045  0.00  0.00    -0.241 OA
ATOM     24  O   LIG d   1      -9.043  94.138 118.928  0.00  0.00    -0.241 OA
ENDBRANCH   3  22
TORSDOF 7
ENDMDL
MODEL 5
REMARK VINA RESULT:      -3.8      2.962      5.224
REMARK  7 active torsions:
REMARK  status: ('A' for Active; 'I' for Inactive)
REMARK    1  A    between atoms: C_2  and  C_3 
REMARK    2  A    between atoms: C_3  and  O_6 
REMARK    3  A    between atoms: C_3  and  C_4 
REMARK    4  A    between atoms: C_7  and  O_6 
REMARK    5  A    between atoms: C_9  and  C_10 
REMARK    6  A    between atoms: N_15  and  C_14 
REMARK    7  A    between atoms: N_20  and  C_19 
REMARK       I    between atoms: C_22  and  N_20 
ROOT
ATOM      1  C   LIG d   1       1.548  92.567 120.317  0.00  0.00     0.161 C 
ATOM      2  C   LIG d   1       2.369  91.834 119.444  0.00  0.00     0.016 C 
ATOM      3  C   LIG d   1       1.961  91.419 118.155  0.00  0.00     0.038 C 
ATOM      4  C   LIG d   1       0.749  91.842 117.589  0.00  0.00     0.028 C 
ATOM      5  C   LIG d   1      -0.324  92.161 118.625  0.00  0.00    -0.047 C 
ATOM      6  C   LIG d   1       0.264  93.133 119.674  0.00  0.00     0.091 C 
ENDROOT
BRANCH   1   7
ATOM      7  O   LIG d   1       2.309  93.625 120.931  0.00  0.00    -0.368 OA
BRANCH   7   8
ATOM      8  C   LIG d   1       3.688  93.317 121.249  0.00  0.00     0.119 C 
BRANCH   8   9
ATOM      9  C   LIG d   1       3.792  93.187 122.780  0.00  0.00     0.028 C 
ATOM     10  C   LIG d   1       3.734  91.723 123.251  0.00  0.00     0.006 C 
ENDBRANCH   8   9
BRANCH   8  11
ATOM     11  C   LIG d   1       4.619  94.475 120.876  0.00  0.00     0.028 C 
ATOM     12  C   LIG d   1       5.414  94.209 119.587  0.00  0.00     0.006 C 
ENDBRANCH   8  11
ENDBRANCH   7   8
ENDBRANCH   1   7
BRANCH   6  13
ATOM     13  N   LIG d   1      -0.694  93.431 120.770  0.00  0.00    -0.311 N 
ATOM     14  C   LIG d   1      -1.495  94.495 120.775  0.00  0.00     0.210 C 
ATOM     15  C   LIG d   1      -2.391  94.625 122.010  0.00  0.00     0.109 C 
ATOM     16  O   LIG d   1      -1.570  95.328 119.858  0.00  0.00    -0.276 OA
ATOM     17  H   LIG d   1      -0.721  92.790 121.539  0.00  0.00     0.149 HD
ENDBRANCH   6  13
BRANCH   5  18
ATOM     18  N   LIG d   1      -1.484  92.720 117.906  0.00  0.00     0.381 N 
ATOM     19  H   LIG d   1      -1.387  92.553 116.924  0.00  0.00    -0.090 HD
ATOM     20  H   LIG d   1      -1.512  93.713 118.055  0.00  0.00    -0.090 HD
ATOM     21  H   LIG d   1      -2.325  92.303 118.239  0.00  0.00    -0.090 HD
ENDBRANCH   5  18
BRANCH   3  22
ATOM     22  C   LIG d   1       2.753  90.538 117.434  0.00  0.00     0.382 C 
ATOM     23  O   LIG d   1       3.614  90.979 116.636  0.00  0.00    -0.241 OA
ATOM     24  O   LIG d   1       2.586  89.308 117.539  0.00  0.00    -0.241 OA
ENDBRANCH   3  22
TORSDOF 7
ENDMDL
MODEL 6
REMARK VINA RESULT:      -3.8      3.671      6.394
REMARK  7 active torsions:
REMARK  status: ('A' for Active; 'I' for Inactive)
REMARK    1  A    between atoms: C_2  and  C_3 
REMARK    2  A    between atoms: C_3  and  O_6 
REMARK    3  A    between atoms: C_3  and  C_4 
REMARK    4  A    between atoms: C_7  and  O_6 
REMARK    5  A    between atoms: C_9  and  C_10 
REMARK    6  A    between atoms: N_15  and  C_14 
REMARK    7  A    between atoms: N_20  and  C_19 
REMARK       I    between atoms: C_22  and  N_20 
ROOT
ATOM      1  C   LIG d   1       1.549  92.052 120.106  0.00  0.00     0.161 C 
ATOM      2  C   LIG d   1       1.766  93.050 121.071  0.00  0.00     0.016 C 
ATOM      3  C   LIG d   1       3.029  93.635 121.316  0.00  0.00     0.038 C 
ATOM      4  C   LIG d   1       4.141  93.366 120.503  0.00  0.00     0.028 C 
ATOM      5  C   LIG d   1       4.090  91.993 119.842  0.00  0.00    -0.047 C 
ATOM      6  C   LIG d   1       2.726  91.826 119.134  0.00  0.00     0.091 C 
ENDROOT
BRANCH   1   7
ATOM      7  O   LIG d   1       0.341  92.335 119.373  0.00  0.00    -0.368 OA
BRANCH   7   8
ATOM      8  C   LIG d   1      -0.715  92.994 120.114  0.00  0.00     0.119 C 
BRANCH   8   9
ATOM      9  C   LIG d   1      -1.745  91.917 120.507  0.00  0.00     0.028 C 
ATOM     10  C   LIG d   1      -2.715  91.586 119.360  0.00  0.00     0.006 C 
ENDBRANCH   8   9
BRANCH   8  11
ATOM     11  C   LIG d   1      -1.480  93.985 119.232  0.00  0.00     0.028 C 
ATOM     12  C   LIG d   1      -2.043  95.175 120.025  0.00  0.00     0.006 C 
ENDBRANCH   8  11
ENDBRANCH   7   8
ENDBRANCH   1   7
BRANCH   6  13
ATOM     13  N   LIG d   1       2.561  90.477 118.533  0.00  0.00    -0.311 N 
ATOM     14  C   LIG d   1       2.897  90.188 117.277  0.00  0.00     0.210 C 
ATOM     15  C   LIG d   1       2.625  88.742 116.851  0.00  0.00     0.109 C 
ATOM     16  O   LIG d   1       3.425  90.983 116.485  0.00  0.00    -0.276 OA
ATOM     17  H   LIG d   1       2.169  89.764 119.115  0.00  0.00     0.149 HD
ENDBRANCH   6  13
BRANCH   5  18
ATOM     18  N   LIG d   1       5.237  91.901 118.918  0.00  0.00     0.381 N 
ATOM     19  H   LIG d   1       5.398  90.944 118.673  0.00  0.00    -0.090 HD
ATOM     20  H   LIG d   1       6.057  92.250 119.382  0.00  0.00    -0.090 HD
ATOM     21  H   LIG d   1       5.057  92.436 118.097  0.00  0.00    -0.090 HD
ENDBRANCH   5  18
BRANCH   3  22
ATOM     22  C   LIG d   1       3.200  94.469 122.410  0.00  0.00     0.382 C 
ATOM     23  O   LIG d   1       2.631  95.587 122.441  0.00  0.00    -0.241 OA
ATOM     24  O   LIG d   1       3.951  94.137 123.347  0.00  0.00    -0.241 OA
ENDBRANCH   3  22
TORSDOF 7
ENDMDL
MODEL 7
REMARK VINA RESULT:      -3.6      1.391      1.623
REMARK  7 active torsions:
REMARK  status: ('A' for Active; 'I' for Inactive)
REMARK    1  A    between atoms: C_2  and  C_3 
REMARK    2  A    between atoms: C_3  and  O_6 
REMARK    3  A    between atoms: C_3  and  C_4 
REMARK    4  A    between atoms: C_7  and  O_6 
REMARK    5  A    between atoms: C_9  and  C_10 
REMARK    6  A    between atoms: N_15  and  C_14 
REMARK    7  A    between atoms: N_20  and  C_19 
REMARK       I    between atoms: C_22  and  N_20 
ROOT
ATOM      1  C   LIG d   1      -3.641  94.053 121.806  0.00  0.00     0.161 C 
ATOM      2  C   LIG d   1      -2.292  93.903 121.443  0.00  0.00     0.016 C 
ATOM      3  C   LIG d   1      -1.865  93.134 120.336  0.00  0.00     0.038 C 
ATOM      4  C   LIG d   1      -2.774  92.583 119.421  0.00  0.00     0.028 C 
ATOM      5  C   LIG d   1      -4.141  92.285 120.030  0.00  0.00    -0.047 C 
ATOM      6  C   LIG d   1      -4.653  93.550 120.755  0.00  0.00     0.091 C 
ENDROOT
BRANCH   1   7
ATOM      7  O   LIG d   1      -3.907  95.430 122.139  0.00  0.00    -0.368 OA
BRANCH   7   8
ATOM      8  C   LIG d   1      -3.179  96.423 121.376  0.00  0.00     0.119 C 
BRANCH   8   9
ATOM      9  C   LIG d   1      -2.581  97.430 122.377  0.00  0.00     0.028 C 
ATOM     10  C   LIG d   1      -1.047  97.346 122.449  0.00  0.00     0.006 C 
ENDBRANCH   8   9
BRANCH   8  11
ATOM     11  C   LIG d   1      -4.119  97.244 120.488  0.00  0.00     0.028 C 
ATOM     12  C   LIG d   1      -4.306  96.631 119.091  0.00  0.00     0.006 C 
ENDBRANCH   8  11
ENDBRANCH   7   8
ENDBRANCH   1   7
BRANCH   6  13
ATOM     13  N   LIG d   1      -5.946  93.321 121.450  0.00  0.00    -0.311 N 
ATOM     14  C   LIG d   1      -7.083  93.923 121.103  0.00  0.00     0.210 C 
ATOM     15  C   LIG d   1      -8.296  93.559 121.964  0.00  0.00     0.109 C 
ATOM     16  O   LIG d   1      -7.207  94.699 120.144  0.00  0.00    -0.276 OA
ATOM     17  H   LIG d   1      -5.943  92.681 122.221  0.00  0.00     0.149 HD
ENDBRANCH   6  13
BRANCH   5  18
ATOM     18  N   LIG d   1      -5.029  91.845 118.938  0.00  0.00     0.381 N 
ATOM     19  H   LIG d   1      -4.852  92.390 118.117  0.00  0.00    -0.090 HD
ATOM     20  H   LIG d   1      -5.983  91.993 119.215  0.00  0.00    -0.090 HD
ATOM     21  H   LIG d   1      -4.877  90.880 118.743  0.00  0.00    -0.090 HD
ENDBRANCH   5  18
BRANCH   3  22
ATOM     22  C   LIG d   1      -0.514  92.878 120.158  0.00  0.00     0.382 C 
ATOM     23  O   LIG d   1      -0.002  91.844 120.652  0.00  0.00    -0.241 OA
ATOM     24  O   LIG d   1       0.208  93.688 119.548  0.00  0.00    -0.241 OA
ENDBRANCH   3  22
TORSDOF 7
ENDMDL
MODEL 8
REMARK VINA RESULT:      -3.6      3.377      4.997
REMARK  7 active torsions:
REMARK  status: ('A' for Active; 'I' for Inactive)
REMARK    1  A    between atoms: C_2  and  C_3 
REMARK    2  A    between atoms: C_3  and  O_6 
REMARK    3  A    between atoms: C_3  and  C_4 
REMARK    4  A    between atoms: C_7  and  O_6 
REMARK    5  A    between atoms: C_9  and  C_10 
REMARK    6  A    between atoms: N_15  and  C_14 
REMARK    7  A    between atoms: N_20  and  C_19 
REMARK       I    between atoms: C_22  and  N_20 
ROOT
ATOM      1  C   LIG d   1       2.227  92.953 120.810  0.00  0.00     0.161 C 
ATOM      2  C   LIG d   1       3.581  93.087 120.460  0.00  0.00     0.016 C 
ATOM      3  C   LIG d   1       4.098  92.724 119.195  0.00  0.00     0.038 C 
ATOM      4  C   LIG d   1       3.262  92.341 118.135  0.00  0.00     0.028 C 
ATOM      5  C   LIG d   1       1.952  91.710 118.594  0.00  0.00    -0.047 C 
ATOM      6  C   LIG d   1       1.282  92.642 119.630  0.00  0.00     0.091 C 
ENDROOT
BRANCH   1   7
ATOM      7  O   LIG d   1       1.784  94.134 121.508  0.00  0.00    -0.368 OA
BRANCH   7   8
ATOM      8  C   LIG d   1       1.453  93.959 122.908  0.00  0.00     0.119 C 
BRANCH   8   9
ATOM      9  C   LIG d   1      -0.042  94.294 123.075  0.00  0.00     0.028 C 
ATOM     10  C   LIG d   1      -0.853  93.103 123.615  0.00  0.00     0.006 C 
ENDBRANCH   8   9
BRANCH   8  11
ATOM     11  C   LIG d   1       2.195  94.970 123.786  0.00  0.00     0.028 C 
ATOM     12  C   LIG d   1       3.171  95.850 122.988  0.00  0.00     0.006 C 
ENDBRANCH   8  11
ENDBRANCH   7   8
ENDBRANCH   1   7
BRANCH   6  13
ATOM     13  N   LIG d   1       0.036  92.060 120.194  0.00  0.00    -0.311 N 
ATOM     14  C   LIG d   1      -1.178  92.320 119.712  0.00  0.00     0.210 C 
ATOM     15  C   LIG d   1      -2.329  91.633 120.452  0.00  0.00     0.109 C 
ATOM     16  O   LIG d   1      -1.408  93.030 118.721  0.00  0.00    -0.276 OA
ATOM     17  H   LIG d   1       0.134  91.448 120.980  0.00  0.00     0.149 HD
ENDBRANCH   6  13
BRANCH   5  18
ATOM     18  N   LIG d   1       1.122  91.486 117.396  0.00  0.00     0.381 N 
ATOM     19  H   LIG d   1       1.041  90.505 117.219  0.00  0.00    -0.090 HD
ATOM     20  H   LIG d   1       1.570  91.913 116.605  0.00  0.00    -0.090 HD
ATOM     21  H   LIG d   1       0.217  91.882 117.529  0.00  0.00    -0.090 HD
ENDBRANCH   5  18
BRANCH   3  22
ATOM     22  C   LIG d   1       5.469  92.705 118.993  0.00  0.00     0.382 C 
ATOM     23  O   LIG d   1       6.050  91.622 118.737  0.00  0.00    -0.241 OA
ATOM     24  O   LIG d   1       6.140  93.748 119.106  0.00  0.00    -0.241 OA
ENDBRANCH   3  22
TORSDOF 7
ENDMDL
MODEL 9
REMARK VINA RESULT:      -3.6      4.934      9.047
REMARK  7 active torsions:
REMARK  status: ('A' for Active; 'I' for Inactive)
REMARK    1  A    between atoms: C_2  and  C_3 
REMARK    2  A    between atoms: C_3  and  O_6 
REMARK    3  A    between atoms: C_3  and  C_4 
REMARK    4  A    between atoms: C_7  and  O_6 
REMARK    5  A    between atoms: C_9  and  C_10 
REMARK    6  A    between atoms: N_15  and  C_14 
REMARK    7  A    between atoms: N_20  and  C_19 
REMARK       I    between atoms: C_22  and  N_20 
ROOT
ATOM      1  C   LIG d   1       3.322  91.234 118.384  0.00  0.00     0.161 C 
ATOM      2  C   LIG d   1       2.025  91.755 118.248  0.00  0.00     0.016 C 
ATOM      3  C   LIG d   1       1.406  92.567 119.226  0.00  0.00     0.038 C 
ATOM      4  C   LIG d   1       2.104  93.040 120.347  0.00  0.00     0.028 C 
ATOM      5  C   LIG d   1       3.249  92.129 120.776  0.00  0.00    -0.047 C 
ATOM      6  C   LIG d   1       4.140  91.830 119.549  0.00  0.00     0.091 C 
ENDROOT
BRANCH   1   7
ATOM      7  O   LIG d   1       4.040  91.379 117.142  0.00  0.00    -0.368 OA
BRANCH   7   8
ATOM      8  C   LIG d   1       4.346  90.151 116.436  0.00  0.00     0.119 C 
BRANCH   8   9
ATOM      9  C   LIG d   1       3.717  88.991 117.231  0.00  0.00     0.028 C 
ATOM     10  C   LIG d   1       2.631  88.252 116.430  0.00  0.00     0.006 C 
ENDBRANCH   8   9
BRANCH   8  11
ATOM     11  C   LIG d   1       5.852  89.871 116.434  0.00  0.00     0.028 C 
ATOM     12  C   LIG d   1       6.211  88.535 117.103  0.00  0.00     0.006 C 
ENDBRANCH   8  11
ENDBRANCH   7   8
ENDBRANCH   1   7
BRANCH   6  13
ATOM     13  N   LIG d   1       5.237  90.877 119.862  0.00  0.00    -0.311 N 
ATOM     14  C   LIG d   1       6.526  91.212 119.846  0.00  0.00     0.210 C 
ATOM     15  C   LIG d   1       7.494  90.073 120.181  0.00  0.00     0.109 C 
ATOM     16  O   LIG d   1       6.957  92.352 119.619  0.00  0.00    -0.276 OA
ATOM     17  H   LIG d   1       4.974  89.938 120.088  0.00  0.00     0.149 HD
ENDBRANCH   6  13
BRANCH   5  18
ATOM     18  N   LIG d   1       3.975  92.808 121.866  0.00  0.00     0.381 N 
ATOM     19  H   LIG d   1       3.763  93.786 121.856  0.00  0.00    -0.090 HD
ATOM     20  H   LIG d   1       4.963  92.698 121.717  0.00  0.00    -0.090 HD
ATOM     21  H   LIG d   1       3.719  92.414 122.744  0.00  0.00    -0.090 HD
ENDBRANCH   5  18
BRANCH   3  22
ATOM     22  C   LIG d   1       0.060  92.881 119.108  0.00  0.00     0.382 C 
ATOM     23  O   LIG d   1      -0.321  94.068 119.248  0.00  0.00    -0.241 OA
ATOM     24  O   LIG d   1      -0.782  91.985 118.907  0.00  0.00    -0.241 OA
ENDBRANCH   3  22
TORSDOF 7
ENDMDL
