MODEL 1
REMARK VINA RESULT:      -4.4      0.000      0.000
REMARK  7 active torsions:
REMARK  status: ('A' for Active; 'I' for Inactive)
REMARK    1  A    between atoms: C_2  and  C_3 
REMARK    2  A    between atoms: C_3  and  O_6 
REMARK    3  A    between atoms: C_3  and  C_4 
REMARK    4  A    between atoms: C_7  and  O_6 
REMARK    5  A    between atoms: C_9  and  C_10 
REMARK    6  A    between atoms: N_15  and  C_14 
REMARK    7  A    between atoms: N_20  and  C_19 
REMARK       I    between atoms: C_22  and  N_20 
ROOT
ATOM      1  C   LIG d   1      -2.718  92.953 120.170  0.00  0.00     0.161 C 
ATOM      2  C   LIG d   1      -2.156  91.890 119.444  0.00  0.00     0.016 C 
ATOM      3  C   LIG d   1      -2.797  91.272 118.346  0.00  0.00     0.038 C 
ATOM      4  C   LIG d   1      -3.986  91.778 117.800  0.00  0.00     0.028 C 
ATOM      5  C   LIG d   1      -4.841  92.535 118.810  0.00  0.00    -0.047 C 
ATOM      6  C   LIG d   1      -3.964  93.592 119.520  0.00  0.00     0.091 C 
ENDROOT
BRANCH   1   7
ATOM      7  O   LIG d   1      -1.715  93.957 120.423  0.00  0.00    -0.368 OA
BRANCH   7   8
ATOM      8  C   LIG d   1      -0.702  94.117 119.400  0.00  0.00     0.119 C 
BRANCH   8   9
ATOM      9  C   LIG d   1       0.650  94.309 120.113  0.00  0.00     0.028 C 
ATOM     10  C   LIG d   1       1.746  93.387 119.552  0.00  0.00     0.006 C 
ENDBRANCH   8   9
BRANCH   8  11
ATOM     11  C   LIG d   1      -0.922  95.402 118.595  0.00  0.00     0.028 C 
ATOM     12  C   LIG d   1      -1.670  96.483 119.391  0.00  0.00     0.006 C 
ENDBRANCH   8  11
ENDBRANCH   7   8
ENDBRANCH   1   7
BRANCH   6  13
ATOM     13  N   LIG d   1      -4.703  94.320 120.584  0.00  0.00    -0.311 N 
ATOM     14  C   LIG d   1      -5.310  95.489 120.386  0.00  0.00     0.210 C 
ATOM     15  C   LIG d   1      -5.997  96.078 121.622  0.00  0.00     0.109 C 
ATOM     16  O   LIG d   1      -5.372  96.078 119.297  0.00  0.00    -0.276 OA
ATOM     17  H   LIG d   1      -4.729  93.898 121.492  0.00  0.00     0.149 HD
ENDBRANCH   6  13
BRANCH   5  18
ATOM     18  N   LIG d   1      -5.978  93.125 118.078  0.00  0.00     0.381 N 
ATOM     19  H   LIG d   1      -6.816  92.621 118.290  0.00  0.00    -0.090 HD
ATOM     20  H   LIG d   1      -5.804  93.048 117.092  0.00  0.00    -0.090 HD
ATOM     21  H   LIG d   1      -6.086  94.083 118.330  0.00  0.00    -0.090 HD
ENDBRANCH   5  18
BRANCH   3  22
ATOM     22  C   LIG d   1      -2.268  90.109 117.807  0.00  0.00     0.382 C 
ATOM     23  O   LIG d   1      -3.028  89.162 117.490  0.00  0.00    -0.241 OA
ATOM     24  O   LIG d   1      -1.036  89.977 117.675  0.00  0.00    -0.241 OA
ENDBRANCH   3  22
TORSDOF 7
ENDMDL
MODEL 2
REMARK VINA RESULT:      -4.3      3.296      5.727
REMARK  7 active torsions:
REMARK  status: ('A' for Active; 'I' for Inactive)
REMARK    1  A    between atoms: C_2  and  C_3 
REMARK    2  A    between atoms: C_3  and  O_6 
REMARK    3  A    between atoms: C_3  and  C_4 
REMARK    4  A    between atoms: C_7  and  O_6 
REMARK    5  A    between atoms: C_9  and  C_10 
REMARK    6  A    between atoms: N_15  and  C_14 
REMARK    7  A    between atoms: N_20  and  C_19 
REMARK       I    between atoms: C_22  and  N_20 
ROOT
ATOM      1  C   LIG d   1       0.137  91.524 117.148  0.00  0.00     0.161 C 
ATOM      2  C   LIG d   1       1.484  91.885 117.316  0.00  0.00     0.016 C 
ATOM      3  C   LIG d   1       1.913  92.899 118.203  0.00  0.00     0.038 C 
ATOM      4  C   LIG d   1       1.031  93.520 119.101  0.00  0.00     0.028 C 
ATOM      5  C   LIG d   1      -0.413  93.544 118.613  0.00  0.00    -0.047 C 
ATOM      6  C   LIG d   1      -0.827  92.113 118.199  0.00  0.00     0.091 C 
ENDROOT
BRANCH   1   7
ATOM      7  O   LIG d   1       0.017  90.088 117.108  0.00  0.00    -0.368 OA
BRANCH   7   8
ATOM      8  C   LIG d   1       1.133  89.340 117.653  0.00  0.00     0.119 C 
BRANCH   8   9
ATOM      9  C   LIG d   1       1.244  88.027 116.855  0.00  0.00     0.028 C 
ATOM     10  C   LIG d   1       1.909  86.902 117.665  0.00  0.00     0.006 C 
ENDBRANCH   8   9
BRANCH   8  11
ATOM     11  C   LIG d   1       0.864  88.914 119.099  0.00  0.00     0.028 C 
ATOM     12  C   LIG d   1       1.752  89.654 120.113  0.00  0.00     0.006 C 
ENDBRANCH   8  11
ENDBRANCH   7   8
ENDBRANCH   1   7
BRANCH   6  13
ATOM     13  N   LIG d   1      -2.199  92.062 117.630  0.00  0.00    -0.311 N 
ATOM     14  C   LIG d   1      -3.294  91.894 118.370  0.00  0.00     0.210 C 
ATOM     15  C   LIG d   1      -4.607  91.851 117.582  0.00  0.00     0.109 C 
ATOM     16  O   LIG d   1      -3.305  91.810 119.607  0.00  0.00    -0.276 OA
ATOM     17  H   LIG d   1      -2.285  92.154 116.637  0.00  0.00     0.149 HD
ENDBRANCH   6  13
BRANCH   5  18
ATOM     18  N   LIG d   1      -1.242  94.094 119.701  0.00  0.00     0.381 N 
ATOM     19  H   LIG d   1      -1.818  94.833 119.349  0.00  0.00    -0.090 HD
ATOM     20  H   LIG d   1      -0.639  94.474 120.409  0.00  0.00    -0.090 HD
ATOM     21  H   LIG d   1      -1.813  93.376 120.091  0.00  0.00    -0.090 HD
ENDBRANCH   5  18
BRANCH   3  22
ATOM     22  C   LIG d   1       3.231  93.328 118.171  0.00  0.00     0.382 C 
ATOM     23  O   LIG d   1       3.894  93.236 117.110  0.00  0.00    -0.241 OA
ATOM     24  O   LIG d   1       3.778  93.766 119.200  0.00  0.00    -0.241 OA
ENDBRANCH   3  22
TORSDOF 7
ENDMDL
MODEL 3
REMARK VINA RESULT:      -4.3      2.510      5.196
REMARK  7 active torsions:
REMARK  status: ('A' for Active; 'I' for Inactive)
REMARK    1  A    between atoms: C_2  and  C_3 
REMARK    2  A    between atoms: C_3  and  O_6 
REMARK    3  A    between atoms: C_3  and  C_4 
REMARK    4  A    between atoms: C_7  and  O_6 
REMARK    5  A    between atoms: C_9  and  C_10 
REMARK    6  A    between atoms: N_15  and  C_14 
REMARK    7  A    between atoms: N_20  and  C_19 
REMARK       I    between atoms: C_22  and  N_20 
ROOT
ATOM      1  C   LIG d   1      -4.651  93.710 120.278  0.00  0.00     0.161 C 
ATOM      2  C   LIG d   1      -6.022  93.618 119.985  0.00  0.00     0.016 C 
ATOM      3  C   LIG d   1      -6.783  94.695 119.474  0.00  0.00     0.038 C 
ATOM      4  C   LIG d   1      -6.186  95.901 119.077  0.00  0.00     0.028 C 
ATOM      5  C   LIG d   1      -4.895  96.213 119.825  0.00  0.00    -0.047 C 
ATOM      6  C   LIG d   1      -3.961  94.984 119.747  0.00  0.00     0.091 C 
ENDROOT
BRANCH   1   7
ATOM      7  O   LIG d   1      -3.969  92.534 119.800  0.00  0.00    -0.368 OA
BRANCH   7   8
ATOM      8  C   LIG d   1      -3.512  92.576 118.426  0.00  0.00     0.119 C 
BRANCH   8   9
ATOM      9  C   LIG d   1      -4.160  91.390 117.686  0.00  0.00     0.028 C 
ATOM     10  C   LIG d   1      -5.400  91.809 116.878  0.00  0.00     0.006 C 
ENDBRANCH   8   9
BRANCH   8  11
ATOM     11  C   LIG d   1      -2.003  92.336 118.333  0.00  0.00     0.028 C 
ATOM     12  C   LIG d   1      -1.409  91.767 119.631  0.00  0.00     0.006 C 
ENDBRANCH   8  11
ENDBRANCH   7   8
ENDBRANCH   1   7
BRANCH   6  13
ATOM     13  N   LIG d   1      -2.708  95.174 120.525  0.00  0.00    -0.311 N 
ATOM     14  C   LIG d   1      -1.570  95.607 119.986  0.00  0.00     0.210 C 
ATOM     15  C   LIG d   1      -0.393  95.712 120.961  0.00  0.00     0.109 C 
ATOM     16  O   LIG d   1      -1.431  95.944 118.801  0.00  0.00    -0.276 OA
ATOM     17  H   LIG d   1      -2.740  94.954 121.501  0.00  0.00     0.149 HD
ENDBRANCH   6  13
BRANCH   5  18
ATOM     18  N   LIG d   1      -4.309  97.423 119.217  0.00  0.00     0.381 N 
ATOM     19  H   LIG d   1      -3.829  97.180 118.373  0.00  0.00    -0.090 HD
ATOM     20  H   LIG d   1      -3.642  97.818 119.857  0.00  0.00    -0.090 HD
ATOM     21  H   LIG d   1      -5.026  98.087 119.021  0.00  0.00    -0.090 HD
ENDBRANCH   5  18
BRANCH   3  22
ATOM     22  C   LIG d   1      -8.162  94.584 119.393  0.00  0.00     0.382 C 
ATOM     23  O   LIG d   1      -8.736  94.696 118.283  0.00  0.00    -0.241 OA
ATOM     24  O   LIG d   1      -8.844  94.419 120.423  0.00  0.00    -0.241 OA
ENDBRANCH   3  22
TORSDOF 7
ENDMDL
MODEL 4
REMARK VINA RESULT:      -4.2      1.489      2.085
REMARK  7 active torsions:
REMARK  status: ('A' for Active; 'I' for Inactive)
REMARK    1  A    between atoms: C_2  and  C_3 
REMARK    2  A    between atoms: C_3  and  O_6 
REMARK    3  A    between atoms: C_3  and  C_4 
REMARK    4  A    between atoms: C_7  and  O_6 
REMARK    5  A    between atoms: C_9  and  C_10 
REMARK    6  A    between atoms: N_15  and  C_14 
REMARK    7  A    between atoms: N_20  and  C_19 
REMARK       I    between atoms: C_22  and  N_20 
ROOT
ATOM      1  C   LIG d   1      -3.615  93.063 120.540  0.00  0.00     0.161 C 
ATOM      2  C   LIG d   1      -2.510  92.333 120.070  0.00  0.00     0.016 C 
ATOM      3  C   LIG d   1      -2.477  91.698 118.807  0.00  0.00     0.038 C 
ATOM      4  C   LIG d   1      -3.496  91.878 117.860  0.00  0.00     0.028 C 
ATOM      5  C   LIG d   1      -4.853  92.190 118.482  0.00  0.00    -0.047 C 
ATOM      6  C   LIG d   1      -4.691  93.363 119.476  0.00  0.00     0.091 C 
ENDROOT
BRANCH   1   7
ATOM      7  O   LIG d   1      -3.166  94.286 121.157  0.00  0.00    -0.368 OA
BRANCH   7   8
ATOM      8  C   LIG d   1      -3.048  95.435 120.283  0.00  0.00     0.119 C 
BRANCH   8   9
ATOM      9  C   LIG d   1      -1.546  95.729 120.105  0.00  0.00     0.028 C 
ATOM     10  C   LIG d   1      -1.065  95.479 118.666  0.00  0.00     0.006 C 
ENDBRANCH   8   9
BRANCH   8  11
ATOM     11  C   LIG d   1      -3.633  96.692 120.933  0.00  0.00     0.028 C 
ATOM     12  C   LIG d   1      -4.484  96.380 122.175  0.00  0.00     0.006 C 
ENDBRANCH   8  11
ENDBRANCH   7   8
ENDBRANCH   1   7
BRANCH   6  13
ATOM     13  N   LIG d   1      -5.955  93.678 120.192  0.00  0.00    -0.311 N 
ATOM     14  C   LIG d   1      -6.783  94.654 119.823  0.00  0.00     0.210 C 
ATOM     15  C   LIG d   1      -8.020  94.822 120.711  0.00  0.00     0.109 C 
ATOM     16  O   LIG d   1      -6.626  95.376 118.827  0.00  0.00    -0.276 OA
ATOM     17  H   LIG d   1      -6.176  93.120 120.994  0.00  0.00     0.149 HD
ENDBRANCH   6  13
BRANCH   5  18
ATOM     18  N   LIG d   1      -5.789  92.489 117.382  0.00  0.00     0.381 N 
ATOM     19  H   LIG d   1      -6.515  91.801 117.359  0.00  0.00    -0.090 HD
ATOM     20  H   LIG d   1      -5.290  92.450 116.511  0.00  0.00    -0.090 HD
ATOM     21  H   LIG d   1      -6.184  93.395 117.507  0.00  0.00    -0.090 HD
ENDBRANCH   5  18
BRANCH   3  22
ATOM     22  C   LIG d   1      -1.433  90.840 118.497  0.00  0.00     0.382 C 
ATOM     23  O   LIG d   1      -1.590  89.951 117.626  0.00  0.00    -0.241 OA
ATOM     24  O   LIG d   1      -0.350  90.916 119.108  0.00  0.00    -0.241 OA
ENDBRANCH   3  22
TORSDOF 7
ENDMDL
MODEL 5
REMARK VINA RESULT:      -4.0      2.397      3.700
REMARK  7 active torsions:
REMARK  status: ('A' for Active; 'I' for Inactive)
REMARK    1  A    between atoms: C_2  and  C_3 
REMARK    2  A    between atoms: C_3  and  O_6 
REMARK    3  A    between atoms: C_3  and  C_4 
REMARK    4  A    between atoms: C_7  and  O_6 
REMARK    5  A    between atoms: C_9  and  C_10 
REMARK    6  A    between atoms: N_15  and  C_14 
REMARK    7  A    between atoms: N_20  and  C_19 
REMARK       I    between atoms: C_22  and  N_20 
ROOT
ATOM      1  C   LIG d   1      -1.714  92.269 118.927  0.00  0.00     0.161 C 
ATOM      2  C   LIG d   1      -2.605  91.809 117.943  0.00  0.00     0.016 C 
ATOM      3  C   LIG d   1      -4.007  91.968 118.028  0.00  0.00     0.038 C 
ATOM      4  C   LIG d   1      -4.607  92.736 119.037  0.00  0.00     0.028 C 
ATOM      5  C   LIG d   1      -3.790  92.791 120.323  0.00  0.00    -0.047 C 
ATOM      6  C   LIG d   1      -2.341  93.207 119.980  0.00  0.00     0.091 C 
ENDROOT
BRANCH   1   7
ATOM      7  O   LIG d   1      -0.581  92.904 118.302  0.00  0.00    -0.368 OA
BRANCH   7   8
ATOM      8  C   LIG d   1       0.690  92.222 118.443  0.00  0.00     0.119 C 
BRANCH   8   9
ATOM      9  C   LIG d   1       1.781  93.302 118.581  0.00  0.00     0.028 C 
ATOM     10  C   LIG d   1       3.040  92.971 117.762  0.00  0.00     0.006 C 
ENDBRANCH   8   9
BRANCH   8  11
ATOM     11  C   LIG d   1       1.048  91.442 117.175  0.00  0.00     0.028 C 
ATOM     12  C   LIG d   1       0.735  89.942 117.290  0.00  0.00     0.006 C 
ENDBRANCH   8  11
ENDBRANCH   7   8
ENDBRANCH   1   7
BRANCH   6  13
ATOM     13  N   LIG d   1      -1.453  93.203 121.171  0.00  0.00    -0.311 N 
ATOM     14  C   LIG d   1      -0.592  94.182 121.447  0.00  0.00     0.210 C 
ATOM     15  C   LIG d   1       0.243  93.970 122.714  0.00  0.00     0.109 C 
ATOM     16  O   LIG d   1      -0.464  95.219 120.780  0.00  0.00    -0.276 OA
ATOM     17  H   LIG d   1      -1.514  92.413 121.783  0.00  0.00     0.149 HD
ENDBRANCH   6  13
BRANCH   5  18
ATOM     18  N   LIG d   1      -4.461  93.734 121.238  0.00  0.00     0.381 N 
ATOM     19  H   LIG d   1      -5.064  94.339 120.717  0.00  0.00    -0.090 HD
ATOM     20  H   LIG d   1      -3.764  94.297 121.692  0.00  0.00    -0.090 HD
ATOM     21  H   LIG d   1      -4.988  93.232 121.918  0.00  0.00    -0.090 HD
ENDBRANCH   5  18
BRANCH   3  22
ATOM     22  C   LIG d   1      -4.828  91.320 117.117  0.00  0.00     0.382 C 
ATOM     23  O   LIG d   1      -5.887  91.869 116.727  0.00  0.00    -0.241 OA
ATOM     24  O   LIG d   1      -4.547  90.175 116.716  0.00  0.00    -0.241 OA
ENDBRANCH   3  22
TORSDOF 7
ENDMDL
MODEL 6
REMARK VINA RESULT:      -4.0      2.419      3.317
REMARK  7 active torsions:
REMARK  status: ('A' for Active; 'I' for Inactive)
REMARK    1  A    between atoms: C_2  and  C_3 
REMARK    2  A    between atoms: C_3  and  O_6 
REMARK    3  A    between atoms: C_3  and  C_4 
REMARK    4  A    between atoms: C_7  and  O_6 
REMARK    5  A    between atoms: C_9  and  C_10 
REMARK    6  A    between atoms: N_15  and  C_14 
REMARK    7  A    between atoms: N_20  and  C_19 
REMARK       I    between atoms: C_22  and  N_20 
ROOT
ATOM      1  C   LIG d   1      -0.178  90.894 119.894  0.00  0.00     0.161 C 
ATOM      2  C   LIG d   1       0.701  90.102 119.137  0.00  0.00     0.016 C 
ATOM      3  C   LIG d   1       0.333  89.469 117.927  0.00  0.00     0.038 C 
ATOM      4  C   LIG d   1      -0.904  89.710 117.311  0.00  0.00     0.028 C 
ATOM      5  C   LIG d   1      -2.004  90.100 118.292  0.00  0.00    -0.047 C 
ATOM      6  C   LIG d   1      -1.497  91.259 119.181  0.00  0.00     0.091 C 
ENDROOT
BRANCH   1   7
ATOM      7  O   LIG d   1       0.498  92.086 120.338  0.00  0.00    -0.368 OA
BRANCH   7   8
ATOM      8  C   LIG d   1       0.675  93.126 119.345  0.00  0.00     0.119 C 
BRANCH   8   9
ATOM      9  C   LIG d   1       2.190  93.355 119.179  0.00  0.00     0.028 C 
ATOM     10  C   LIG d   1       2.692  92.962 117.779  0.00  0.00     0.006 C 
ENDBRANCH   8   9
BRANCH   8  11
ATOM     11  C   LIG d   1       0.114  94.465 119.834  0.00  0.00     0.028 C 
ATOM     12  C   LIG d   1      -0.747  95.172 118.776  0.00  0.00     0.006 C 
ENDBRANCH   8  11
ENDBRANCH   7   8
ENDBRANCH   1   7
BRANCH   6  13
ATOM     13  N   LIG d   1      -2.481  91.645 120.225  0.00  0.00    -0.311 N 
ATOM     14  C   LIG d   1      -3.405  92.588 120.049  0.00  0.00     0.210 C 
ATOM     15  C   LIG d   1      -4.307  92.844 121.260  0.00  0.00     0.109 C 
ATOM     16  O   LIG d   1      -3.585  93.213 118.993  0.00  0.00    -0.276 OA
ATOM     17  H   LIG d   1      -2.427  91.165 121.102  0.00  0.00     0.149 HD
ENDBRANCH   6  13
BRANCH   5  18
ATOM     18  N   LIG d   1      -3.199  90.456 117.504  0.00  0.00     0.381 N 
ATOM     19  H   LIG d   1      -3.377  91.437 117.584  0.00  0.00    -0.090 HD
ATOM     20  H   LIG d   1      -3.991  89.960 117.873  0.00  0.00    -0.090 HD
ATOM     21  H   LIG d   1      -3.062  90.213 116.548  0.00  0.00    -0.090 HD
ENDBRANCH   5  18
BRANCH   3  22
ATOM     22  C   LIG d   1       1.193  88.552 117.342  0.00  0.00     0.382 C 
ATOM     23  O   LIG d   1       2.395  88.504 117.698  0.00  0.00    -0.241 OA
ATOM     24  O   LIG d   1       0.792  87.803 116.431  0.00  0.00    -0.241 OA
ENDBRANCH   3  22
TORSDOF 7
ENDMDL
MODEL 7
REMARK VINA RESULT:      -4.0      3.352      5.990
REMARK  7 active torsions:
REMARK  status: ('A' for Active; 'I' for Inactive)
REMARK    1  A    between atoms: C_2  and  C_3 
REMARK    2  A    between atoms: C_3  and  O_6 
REMARK    3  A    between atoms: C_3  and  C_4 
REMARK    4  A    between atoms: C_7  and  O_6 
REMARK    5  A    between atoms: C_9  and  C_10 
REMARK    6  A    between atoms: N_15  and  C_14 
REMARK    7  A    between atoms: N_20  and  C_19 
REMARK       I    between atoms: C_22  and  N_20 
ROOT
ATOM      1  C   LIG d   1      -0.259  91.341 118.469  0.00  0.00     0.161 C 
ATOM      2  C   LIG d   1      -1.649  91.243 118.293  0.00  0.00     0.016 C 
ATOM      3  C   LIG d   1      -2.514  92.362 118.292  0.00  0.00     0.038 C 
ATOM      4  C   LIG d   1      -2.026  93.677 118.317  0.00  0.00     0.028 C 
ATOM      5  C   LIG d   1      -0.669  93.806 119.002  0.00  0.00    -0.047 C 
ATOM      6  C   LIG d   1       0.304  92.776 118.386  0.00  0.00     0.091 C 
ENDROOT
BRANCH   1   7
ATOM      7  O   LIG d   1       0.415  90.484 117.526  0.00  0.00    -0.368 OA
BRANCH   7   8
ATOM      8  C   LIG d   1       0.664  89.126 117.966  0.00  0.00     0.119 C 
BRANCH   8   9
ATOM      9  C   LIG d   1       1.304  89.202 119.366  0.00  0.00     0.028 C 
ATOM     10  C   LIG d   1       2.840  89.151 119.313  0.00  0.00     0.006 C 
ENDBRANCH   8   9
BRANCH   8  11
ATOM     11  C   LIG d   1       1.707  88.437 117.081  0.00  0.00     0.028 C 
ATOM     12  C   LIG d   1       1.179  87.148 116.430  0.00  0.00     0.006 C 
ENDBRANCH   8  11
ENDBRANCH   7   8
ENDBRANCH   1   7
BRANCH   6  13
ATOM     13  N   LIG d   1       1.631  92.778 119.057  0.00  0.00    -0.311 N 
ATOM     14  C   LIG d   1       2.783  92.905 118.401  0.00  0.00     0.210 C 
ATOM     15  C   LIG d   1       4.036  92.861 119.282  0.00  0.00     0.109 C 
ATOM     16  O   LIG d   1       2.885  93.083 117.178  0.00  0.00    -0.276 OA
ATOM     17  H   LIG d   1       1.639  92.670 120.052  0.00  0.00     0.149 HD
ENDBRANCH   6  13
BRANCH   5  18
ATOM     18  N   LIG d   1      -0.217  95.200 118.835  0.00  0.00     0.381 N 
ATOM     19  H   LIG d   1       0.357  95.466 119.610  0.00  0.00    -0.090 HD
ATOM     20  H   LIG d   1      -1.021  95.803 118.817  0.00  0.00    -0.090 HD
ATOM     21  H   LIG d   1       0.296  95.293 117.985  0.00  0.00    -0.090 HD
ENDBRANCH   5  18
BRANCH   3  22
ATOM     22  C   LIG d   1      -3.887  92.169 118.307  0.00  0.00     0.382 C 
ATOM     23  O   LIG d   1      -4.426  91.434 117.445  0.00  0.00    -0.241 OA
ATOM     24  O   LIG d   1      -4.599  92.755 119.144  0.00  0.00    -0.241 OA
ENDBRANCH   3  22
TORSDOF 7
ENDMDL
MODEL 8
REMARK VINA RESULT:      -3.9      2.698      4.667
REMARK  7 active torsions:
REMARK  status: ('A' for Active; 'I' for Inactive)
REMARK    1  A    between atoms: C_2  and  C_3 
REMARK    2  A    between atoms: C_3  and  O_6 
REMARK    3  A    between atoms: C_3  and  C_4 
REMARK    4  A    between atoms: C_7  and  O_6 
REMARK    5  A    between atoms: C_9  and  C_10 
REMARK    6  A    between atoms: N_15  and  C_14 
REMARK    7  A    between atoms: N_20  and  C_19 
REMARK       I    between atoms: C_22  and  N_20 
ROOT
ATOM      1  C   LIG d   1      -0.855  90.990 119.422  0.00  0.00     0.161 C 
ATOM      2  C   LIG d   1      -1.913  90.689 118.548  0.00  0.00     0.016 C 
ATOM      3  C   LIG d   1      -2.946  91.602 118.232  0.00  0.00     0.038 C 
ATOM      4  C   LIG d   1      -2.908  92.939 118.654  0.00  0.00     0.028 C 
ATOM      5  C   LIG d   1      -2.125  93.144 119.947  0.00  0.00    -0.047 C 
ATOM      6  C   LIG d   1      -0.737  92.480 119.804  0.00  0.00     0.091 C 
ENDROOT
BRANCH   1   7
ATOM      7  O   LIG d   1       0.387  90.515 118.867  0.00  0.00    -0.368 OA
BRANCH   7   8
ATOM      8  C   LIG d   1       0.386  90.241 117.444  0.00  0.00     0.119 C 
BRANCH   8   9
ATOM      9  C   LIG d   1       0.896  88.800 117.249  0.00  0.00     0.028 C 
ATOM     10  C   LIG d   1       1.787  88.331 118.411  0.00  0.00     0.006 C 
ENDBRANCH   8   9
BRANCH   8  11
ATOM     11  C   LIG d   1       1.391  91.130 116.705  0.00  0.00     0.028 C 
ATOM     12  C   LIG d   1       2.111  92.118 117.636  0.00  0.00     0.006 C 
ENDBRANCH   8  11
ENDBRANCH   7   8
ENDBRANCH   1   7
BRANCH   6  13
ATOM     13  N   LIG d   1       0.062  92.562 121.055  0.00  0.00    -0.311 N 
ATOM     14  C   LIG d   1       0.980  93.500 121.279  0.00  0.00     0.210 C 
ATOM     15  C   LIG d   1       1.703  93.390 122.625  0.00  0.00     0.109 C 
ATOM     16  O   LIG d   1       1.242  94.433 120.504  0.00  0.00    -0.276 OA
ATOM     17  H   LIG d   1      -0.108  91.862 121.751  0.00  0.00     0.149 HD
ENDBRANCH   6  13
BRANCH   5  18
ATOM     18  N   LIG d   1      -2.049  94.596 120.196  0.00  0.00     0.381 N 
ATOM     19  H   LIG d   1      -2.490  95.092 119.447  0.00  0.00    -0.090 HD
ATOM     20  H   LIG d   1      -1.083  94.870 120.230  0.00  0.00    -0.090 HD
ATOM     21  H   LIG d   1      -2.495  94.818 121.059  0.00  0.00    -0.090 HD
ENDBRANCH   5  18
BRANCH   3  22
ATOM     22  C   LIG d   1      -4.053  91.168 117.518  0.00  0.00     0.382 C 
ATOM     23  O   LIG d   1      -5.079  91.886 117.455  0.00  0.00    -0.241 OA
ATOM     24  O   LIG d   1      -4.054  90.047 116.975  0.00  0.00    -0.241 OA
ENDBRANCH   3  22
TORSDOF 7
ENDMDL
MODEL 9
REMARK VINA RESULT:      -3.9      2.591      4.061
REMARK  7 active torsions:
REMARK  status: ('A' for Active; 'I' for Inactive)
REMARK    1  A    between atoms: C_2  and  C_3 
REMARK    2  A    between atoms: C_3  and  O_6 
REMARK    3  A    between atoms: C_3  and  C_4 
REMARK    4  A    between atoms: C_7  and  O_6 
REMARK    5  A    between atoms: C_9  and  C_10 
REMARK    6  A    between atoms: N_15  and  C_14 
REMARK    7  A    between atoms: N_20  and  C_19 
REMARK       I    between atoms: C_22  and  N_20 
ROOT
ATOM      1  C   LIG d   1      -0.979  94.176 119.321  0.00  0.00     0.161 C 
ATOM      2  C   LIG d   1       0.334  94.206 118.823  0.00  0.00     0.016 C 
ATOM      3  C   LIG d   1       1.078  93.042 118.520  0.00  0.00     0.038 C 
ATOM      4  C   LIG d   1       0.501  91.764 118.550  0.00  0.00     0.028 C 
ATOM      5  C   LIG d   1      -0.663  91.649 119.529  0.00  0.00    -0.047 C 
ATOM      6  C   LIG d   1      -1.664  92.794 119.256  0.00  0.00     0.091 C 
ENDROOT
BRANCH   1   7
ATOM      7  O   LIG d   1      -1.781  95.164 118.644  0.00  0.00    -0.368 OA
BRANCH   7   8
ATOM      8  C   LIG d   1      -1.857  96.465 119.278  0.00  0.00     0.119 C 
BRANCH   8   9
ATOM      9  C   LIG d   1      -1.796  96.242 120.802  0.00  0.00     0.028 C 
ATOM     10  C   LIG d   1      -0.854  97.234 121.503  0.00  0.00     0.006 C 
ENDBRANCH   8   9
BRANCH   8  11
ATOM     11  C   LIG d   1      -3.211  97.132 119.020  0.00  0.00     0.028 C 
ATOM     12  C   LIG d   1      -4.379  96.389 119.687  0.00  0.00     0.006 C 
ENDBRANCH   8  11
ENDBRANCH   7   8
ENDBRANCH   1   7
BRANCH   6  13
ATOM     13  N   LIG d   1      -2.791  92.805 120.224  0.00  0.00    -0.311 N 
ATOM     14  C   LIG d   1      -4.068  92.686 119.864  0.00  0.00     0.210 C 
ATOM     15  C   LIG d   1      -5.074  92.742 121.018  0.00  0.00     0.109 C 
ATOM     16  O   LIG d   1      -4.462  92.507 118.701  0.00  0.00    -0.276 OA
ATOM     17  H   LIG d   1      -2.560  92.915 121.192  0.00  0.00     0.149 HD
ENDBRANCH   6  13
BRANCH   5  18
ATOM     18  N   LIG d   1      -1.257  90.309 119.359  0.00  0.00     0.381 N 
ATOM     19  H   LIG d   1      -2.244  90.354 119.515  0.00  0.00    -0.090 HD
ATOM     20  H   LIG d   1      -0.858  89.688 120.040  0.00  0.00    -0.090 HD
ATOM     21  H   LIG d   1      -1.074  89.969 118.440  0.00  0.00    -0.090 HD
ENDBRANCH   5  18
BRANCH   3  22
ATOM     22  C   LIG d   1       2.427  93.149 118.218  0.00  0.00     0.382 C 
ATOM     23  O   LIG d   1       2.860  92.723 117.120  0.00  0.00    -0.241 OA
ATOM     24  O   LIG d   1       3.224  93.625 119.049  0.00  0.00    -0.241 OA
ENDBRANCH   3  22
TORSDOF 7
ENDMDL
