MODEL 1
REMARK VINA RESULT:      -4.6      0.000      0.000
REMARK  7 active torsions:
REMARK  status: ('A' for Active; 'I' for Inactive)
REMARK    1  A    between atoms: C_2  and  C_3 
REMARK    2  A    between atoms: C_3  and  O_6 
REMARK    3  A    between atoms: C_3  and  C_4 
REMARK    4  A    between atoms: C_7  and  O_6 
REMARK    5  A    between atoms: C_9  and  C_10 
REMARK    6  A    between atoms: N_15  and  C_14 
REMARK    7  A    between atoms: N_20  and  C_19 
REMARK       I    between atoms: C_22  and  N_20 
ROOT
ATOM      1  C   LIG d   1      -5.051  93.778 119.313  0.00  0.00     0.161 C 
ATOM      2  C   LIG d   1      -6.403  93.663 118.951  0.00  0.00     0.016 C 
ATOM      3  C   LIG d   1      -7.343  94.707 119.109  0.00  0.00     0.038 C 
ATOM      4  C   LIG d   1      -6.958  95.997 119.503  0.00  0.00     0.028 C 
ATOM      5  C   LIG d   1      -5.696  96.018 120.359  0.00  0.00    -0.047 C 
ATOM      6  C   LIG d   1      -4.589  95.213 119.641  0.00  0.00     0.091 C 
ENDROOT
BRANCH   1   7
ATOM      7  O   LIG d   1      -4.219  93.207 118.284  0.00  0.00    -0.368 OA
BRANCH   7   8
ATOM      8  C   LIG d   1      -3.775  91.846 118.506  0.00  0.00     0.119 C 
BRANCH   8   9
ATOM      9  C   LIG d   1      -2.286  91.903 118.899  0.00  0.00     0.028 C 
ATOM     10  C   LIG d   1      -1.454  92.753 117.924  0.00  0.00     0.006 C 
ENDBRANCH   8   9
BRANCH   8  11
ATOM     11  C   LIG d   1      -3.821  91.026 117.213  0.00  0.00     0.028 C 
ATOM     12  C   LIG d   1      -5.155  91.172 116.463  0.00  0.00     0.006 C 
ENDBRANCH   8  11
ENDBRANCH   7   8
ENDBRANCH   1   7
BRANCH   6  13
ATOM     13  N   LIG d   1      -3.346  95.112 120.449  0.00  0.00    -0.311 N 
ATOM     14  C   LIG d   1      -2.175  95.612 120.058  0.00  0.00     0.210 C 
ATOM     15  C   LIG d   1      -1.016  95.381 121.033  0.00  0.00     0.109 C 
ATOM     16  O   LIG d   1      -1.993  96.253 119.012  0.00  0.00    -0.276 OA
ATOM     17  H   LIG d   1      -3.410  94.635 121.327  0.00  0.00     0.149 HD
ENDBRANCH   6  13
BRANCH   5  18
ATOM     18  N   LIG d   1      -5.332  97.430 120.582  0.00  0.00     0.381 N 
ATOM     19  H   LIG d   1      -4.896  97.801 119.762  0.00  0.00    -0.090 HD
ATOM     20  H   LIG d   1      -4.674  97.480 121.340  0.00  0.00    -0.090 HD
ATOM     21  H   LIG d   1      -6.146  97.961 120.804  0.00  0.00    -0.090 HD
ENDBRANCH   5  18
BRANCH   3  22
ATOM     22  C   LIG d   1      -8.692  94.454 118.910  0.00  0.00     0.382 C 
ATOM     23  O   LIG d   1      -9.134  94.288 117.748  0.00  0.00    -0.241 OA
ATOM     24  O   LIG d   1      -9.480  94.434 119.875  0.00  0.00    -0.241 OA
ENDBRANCH   3  22
TORSDOF 7
ENDMDL
MODEL 2
REMARK VINA RESULT:      -4.5      2.502      5.714
REMARK  7 active torsions:
REMARK  status: ('A' for Active; 'I' for Inactive)
REMARK    1  A    between atoms: C_2  and  C_3 
REMARK    2  A    between atoms: C_3  and  O_6 
REMARK    3  A    between atoms: C_3  and  C_4 
REMARK    4  A    between atoms: C_7  and  O_6 
REMARK    5  A    between atoms: C_9  and  C_10 
REMARK    6  A    between atoms: N_15  and  C_14 
REMARK    7  A    between atoms: N_20  and  C_19 
REMARK       I    between atoms: C_22  and  N_20 
ROOT
ATOM      1  C   LIG d   1      -3.959  93.121 119.084  0.00  0.00     0.161 C 
ATOM      2  C   LIG d   1      -2.921  92.268 118.673  0.00  0.00     0.016 C 
ATOM      3  C   LIG d   1      -3.107  91.196 117.771  0.00  0.00     0.038 C 
ATOM      4  C   LIG d   1      -4.320  90.995 117.096  0.00  0.00     0.028 C 
ATOM      5  C   LIG d   1      -5.531  91.522 117.860  0.00  0.00    -0.047 C 
ATOM      6  C   LIG d   1      -5.265  92.987 118.274  0.00  0.00     0.091 C 
ENDROOT
BRANCH   1   7
ATOM      7  O   LIG d   1      -3.501  94.488 119.073  0.00  0.00    -0.368 OA
BRANCH   7   8
ATOM      8  C   LIG d   1      -2.068  94.679 118.988  0.00  0.00     0.119 C 
BRANCH   8   9
ATOM      9  C   LIG d   1      -1.586  95.189 120.360  0.00  0.00     0.028 C 
ATOM     10  C   LIG d   1      -0.732  94.150 121.106  0.00  0.00     0.006 C 
ENDBRANCH   8   9
BRANCH   8  11
ATOM     11  C   LIG d   1      -1.711  95.790 117.995  0.00  0.00     0.028 C 
ATOM     12  C   LIG d   1      -0.445  95.478 117.182  0.00  0.00     0.006 C 
ENDBRANCH   8  11
ENDBRANCH   7   8
ENDBRANCH   1   7
BRANCH   6  13
ATOM     13  N   LIG d   1      -6.366  93.552 119.098  0.00  0.00    -0.311 N 
ATOM     14  C   LIG d   1      -7.425  94.172 118.581  0.00  0.00     0.210 C 
ATOM     15  C   LIG d   1      -8.432  94.697 119.609  0.00  0.00     0.109 C 
ATOM     16  O   LIG d   1      -7.641  94.310 117.368  0.00  0.00    -0.276 OA
ATOM     17  H   LIG d   1      -6.286  93.457 120.091  0.00  0.00     0.149 HD
ENDBRANCH   6  13
BRANCH   5  18
ATOM     18  N   LIG d   1      -6.709  91.373 116.984  0.00  0.00     0.381 N 
ATOM     19  H   LIG d   1      -6.648  90.512 116.478  0.00  0.00    -0.090 HD
ATOM     20  H   LIG d   1      -6.719  92.128 116.322  0.00  0.00    -0.090 HD
ATOM     21  H   LIG d   1      -7.543  91.388 117.529  0.00  0.00    -0.090 HD
ENDBRANCH   5  18
BRANCH   3  22
ATOM     22  C   LIG d   1      -2.081  90.285 117.565  0.00  0.00     0.382 C 
ATOM     23  O   LIG d   1      -2.202  89.103 117.967  0.00  0.00    -0.241 OA
ATOM     24  O   LIG d   1      -1.019  90.643 117.022  0.00  0.00    -0.241 OA
ENDBRANCH   3  22
TORSDOF 7
ENDMDL
MODEL 3
REMARK VINA RESULT:      -4.5      2.928      4.721
REMARK  7 active torsions:
REMARK  status: ('A' for Active; 'I' for Inactive)
REMARK    1  A    between atoms: C_2  and  C_3 
REMARK    2  A    between atoms: C_3  and  O_6 
REMARK    3  A    between atoms: C_3  and  C_4 
REMARK    4  A    between atoms: C_7  and  O_6 
REMARK    5  A    between atoms: C_9  and  C_10 
REMARK    6  A    between atoms: N_15  and  C_14 
REMARK    7  A    between atoms: N_20  and  C_19 
REMARK       I    between atoms: C_22  and  N_20 
ROOT
ATOM      1  C   LIG d   1      -4.038  93.312 119.034  0.00  0.00     0.161 C 
ATOM      2  C   LIG d   1      -5.254  92.956 118.428  0.00  0.00     0.016 C 
ATOM      3  C   LIG d   1      -5.373  91.919 117.474  0.00  0.00     0.038 C 
ATOM      4  C   LIG d   1      -4.304  91.063 117.171  0.00  0.00     0.028 C 
ATOM      5  C   LIG d   1      -2.936  91.704 117.382  0.00  0.00    -0.047 C 
ATOM      6  C   LIG d   1      -2.882  92.316 118.800  0.00  0.00     0.091 C 
ENDROOT
BRANCH   1   7
ATOM      7  O   LIG d   1      -4.239  93.523 120.446  0.00  0.00    -0.368 OA
BRANCH   7   8
ATOM      8  C   LIG d   1      -4.729  92.385 121.197  0.00  0.00     0.119 C 
BRANCH   8   9
ATOM      9  C   LIG d   1      -5.862  92.888 122.112  0.00  0.00     0.028 C 
ATOM     10  C   LIG d   1      -6.493  91.756 122.941  0.00  0.00     0.006 C 
ENDBRANCH   8   9
BRANCH   8  11
ATOM     11  C   LIG d   1      -3.657  91.837 122.143  0.00  0.00     0.028 C 
ATOM     12  C   LIG d   1      -2.728  92.932 122.689  0.00  0.00     0.006 C 
ENDBRANCH   8  11
ENDBRANCH   7   8
ENDBRANCH   1   7
BRANCH   6  13
ATOM     13  N   LIG d   1      -1.608  93.037 119.058  0.00  0.00    -0.311 N 
ATOM     14  C   LIG d   1      -0.569  92.487 119.684  0.00  0.00     0.210 C 
ATOM     15  C   LIG d   1       0.640  93.411 119.864  0.00  0.00     0.109 C 
ATOM     16  O   LIG d   1      -0.521  91.312 120.078  0.00  0.00    -0.276 OA
ATOM     17  H   LIG d   1      -1.549  93.986 118.744  0.00  0.00     0.149 HD
ENDBRANCH   6  13
BRANCH   5  18
ATOM     18  N   LIG d   1      -1.917  90.660 117.163  0.00  0.00     0.381 N 
ATOM     19  H   LIG d   1      -1.959  89.986 117.901  0.00  0.00    -0.090 HD
ATOM     20  H   LIG d   1      -1.007  91.087 117.178  0.00  0.00    -0.090 HD
ATOM     21  H   LIG d   1      -2.069  90.214 116.286  0.00  0.00    -0.090 HD
ENDBRANCH   5  18
BRANCH   3  22
ATOM     22  C   LIG d   1      -6.563  91.757 116.781  0.00  0.00     0.382 C 
ATOM     23  O   LIG d   1      -7.227  92.763 116.430  0.00  0.00    -0.241 OA
ATOM     24  O   LIG d   1      -7.004  90.617 116.541  0.00  0.00    -0.241 OA
ENDBRANCH   3  22
TORSDOF 7
ENDMDL
MODEL 4
REMARK VINA RESULT:      -4.4      2.544      4.785
REMARK  7 active torsions:
REMARK  status: ('A' for Active; 'I' for Inactive)
REMARK    1  A    between atoms: C_2  and  C_3 
REMARK    2  A    between atoms: C_3  and  O_6 
REMARK    3  A    between atoms: C_3  and  C_4 
REMARK    4  A    between atoms: C_7  and  O_6 
REMARK    5  A    between atoms: C_9  and  C_10 
REMARK    6  A    between atoms: N_15  and  C_14 
REMARK    7  A    between atoms: N_20  and  C_19 
REMARK       I    between atoms: C_22  and  N_20 
ROOT
ATOM      1  C   LIG d   1      -3.997  93.235 119.110  0.00  0.00     0.161 C 
ATOM      2  C   LIG d   1      -5.207  92.890 118.487  0.00  0.00     0.016 C 
ATOM      3  C   LIG d   1      -5.315  91.886 117.497  0.00  0.00     0.038 C 
ATOM      4  C   LIG d   1      -4.238  91.048 117.171  0.00  0.00     0.028 C 
ATOM      5  C   LIG d   1      -2.876  91.692 117.409  0.00  0.00    -0.047 C 
ATOM      6  C   LIG d   1      -2.833  92.257 118.848  0.00  0.00     0.091 C 
ENDROOT
BRANCH   1   7
ATOM      7  O   LIG d   1      -4.206  93.396 120.527  0.00  0.00    -0.368 OA
BRANCH   7   8
ATOM      8  C   LIG d   1      -4.203  94.758 121.021  0.00  0.00     0.119 C 
BRANCH   8   9
ATOM      9  C   LIG d   1      -5.670  95.172 121.246  0.00  0.00     0.028 C 
ATOM     10  C   LIG d   1      -6.082  96.371 120.374  0.00  0.00     0.006 C 
ENDBRANCH   8   9
BRANCH   8  11
ATOM     11  C   LIG d   1      -3.663  95.731 119.968  0.00  0.00     0.028 C 
ATOM     12  C   LIG d   1      -2.319  96.359 120.370  0.00  0.00     0.006 C 
ENDBRANCH   8  11
ENDBRANCH   7   8
ENDBRANCH   1   7
BRANCH   6  13
ATOM     13  N   LIG d   1      -1.565  92.978 119.135  0.00  0.00    -0.311 N 
ATOM     14  C   LIG d   1      -0.511  92.405 119.714  0.00  0.00     0.210 C 
ATOM     15  C   LIG d   1       0.687  93.334 119.938  0.00  0.00     0.109 C 
ATOM     16  O   LIG d   1      -0.443  91.209 120.034  0.00  0.00    -0.276 OA
ATOM     17  H   LIG d   1      -1.523  93.945 118.880  0.00  0.00     0.149 HD
ENDBRANCH   6  13
BRANCH   5  18
ATOM     18  N   LIG d   1      -1.848  90.664 117.160  0.00  0.00     0.381 N 
ATOM     19  H   LIG d   1      -1.323  90.901 116.342  0.00  0.00    -0.090 HD
ATOM     20  H   LIG d   1      -2.301  89.782 117.000  0.00  0.00    -0.090 HD
ATOM     21  H   LIG d   1      -1.238  90.595 117.945  0.00  0.00    -0.090 HD
ENDBRANCH   5  18
BRANCH   3  22
ATOM     22  C   LIG d   1      -6.501  91.738 116.794  0.00  0.00     0.382 C 
ATOM     23  O   LIG d   1      -7.147  92.751 116.434  0.00  0.00    -0.241 OA
ATOM     24  O   LIG d   1      -6.955  90.603 116.554  0.00  0.00    -0.241 OA
ENDBRANCH   3  22
TORSDOF 7
ENDMDL
MODEL 5
REMARK VINA RESULT:      -4.4      3.826      7.367
REMARK  7 active torsions:
REMARK  status: ('A' for Active; 'I' for Inactive)
REMARK    1  A    between atoms: C_2  and  C_3 
REMARK    2  A    between atoms: C_3  and  O_6 
REMARK    3  A    between atoms: C_3  and  C_4 
REMARK    4  A    between atoms: C_7  and  O_6 
REMARK    5  A    between atoms: C_9  and  C_10 
REMARK    6  A    between atoms: N_15  and  C_14 
REMARK    7  A    between atoms: N_20  and  C_19 
REMARK       I    between atoms: C_22  and  N_20 
ROOT
ATOM      1  C   LIG d   1      -0.208  91.079 117.037  0.00  0.00     0.161 C 
ATOM      2  C   LIG d   1       1.158  91.326 117.251  0.00  0.00     0.016 C 
ATOM      3  C   LIG d   1       1.646  92.462 117.938  0.00  0.00     0.038 C 
ATOM      4  C   LIG d   1       0.787  93.356 118.595  0.00  0.00     0.028 C 
ATOM      5  C   LIG d   1      -0.606  93.421 117.978  0.00  0.00    -0.047 C 
ATOM      6  C   LIG d   1      -1.163  91.985 117.842  0.00  0.00     0.091 C 
ENDROOT
BRANCH   1   7
ATOM      7  O   LIG d   1      -0.499  89.691 117.294  0.00  0.00    -0.368 OA
BRANCH   7   8
ATOM      8  C   LIG d   1      -0.118  89.191 118.600  0.00  0.00     0.119 C 
BRANCH   8   9
ATOM      9  C   LIG d   1       0.744  87.932 118.380  0.00  0.00     0.028 C 
ATOM     10  C   LIG d   1       0.606  87.368 116.956  0.00  0.00     0.006 C 
ENDBRANCH   8   9
BRANCH   8  11
ATOM     11  C   LIG d   1      -1.338  88.713 119.392  0.00  0.00     0.028 C 
ATOM     12  C   LIG d   1      -2.596  88.570 118.520  0.00  0.00     0.006 C 
ENDBRANCH   8  11
ENDBRANCH   7   8
ENDBRANCH   1   7
BRANCH   6  13
ATOM     13  N   LIG d   1      -2.488  91.952 117.170  0.00  0.00    -0.311 N 
ATOM     14  C   LIG d   1      -3.645  91.965 117.829  0.00  0.00     0.210 C 
ATOM     15  C   LIG d   1      -4.894  91.905 116.944  0.00  0.00     0.109 C 
ATOM     16  O   LIG d   1      -3.756  92.054 119.061  0.00  0.00    -0.276 OA
ATOM     17  H   LIG d   1      -2.491  91.911 116.169  0.00  0.00     0.149 HD
ENDBRANCH   6  13
BRANCH   5  18
ATOM     18  N   LIG d   1      -1.436  94.284 118.840  0.00  0.00     0.381 N 
ATOM     19  H   LIG d   1      -0.935  95.120 119.065  0.00  0.00    -0.090 HD
ATOM     20  H   LIG d   1      -1.633  93.795 119.696  0.00  0.00    -0.090 HD
ATOM     21  H   LIG d   1      -2.287  94.512 118.376  0.00  0.00    -0.090 HD
ENDBRANCH   5  18
BRANCH   3  22
ATOM     22  C   LIG d   1       3.005  92.733 117.940  0.00  0.00     0.382 C 
ATOM     23  O   LIG d   1       3.626  92.818 119.027  0.00  0.00    -0.241 OA
ATOM     24  O   LIG d   1       3.610  92.939 116.870  0.00  0.00    -0.241 OA
ENDBRANCH   3  22
TORSDOF 7
ENDMDL
MODEL 6
REMARK VINA RESULT:      -4.3      3.577      5.708
REMARK  7 active torsions:
REMARK  status: ('A' for Active; 'I' for Inactive)
REMARK    1  A    between atoms: C_2  and  C_3 
REMARK    2  A    between atoms: C_3  and  O_6 
REMARK    3  A    between atoms: C_3  and  C_4 
REMARK    4  A    between atoms: C_7  and  O_6 
REMARK    5  A    between atoms: C_9  and  C_10 
REMARK    6  A    between atoms: N_15  and  C_14 
REMARK    7  A    between atoms: N_20  and  C_19 
REMARK       I    between atoms: C_22  and  N_20 
ROOT
ATOM      1  C   LIG d   1      -1.661  93.179 117.611  0.00  0.00     0.161 C 
ATOM      2  C   LIG d   1      -3.028  92.859 117.573  0.00  0.00     0.016 C 
ATOM      3  C   LIG d   1      -3.518  91.534 117.618  0.00  0.00     0.038 C 
ATOM      4  C   LIG d   1      -2.675  90.439 117.858  0.00  0.00     0.028 C 
ATOM      5  C   LIG d   1      -1.239  90.668 117.397  0.00  0.00    -0.047 C 
ATOM      6  C   LIG d   1      -0.732  92.005 117.984  0.00  0.00     0.091 C 
ENDROOT
BRANCH   1   7
ATOM      7  O   LIG d   1      -1.444  94.292 118.500  0.00  0.00    -0.368 OA
BRANCH   7   8
ATOM      8  C   LIG d   1      -1.236  95.580 117.871  0.00  0.00     0.119 C 
BRANCH   8   9
ATOM      9  C   LIG d   1       0.258  95.928 118.010  0.00  0.00     0.028 C 
ATOM     10  C   LIG d   1       0.835  95.505 119.371  0.00  0.00     0.006 C 
ENDBRANCH   8   9
BRANCH   8  11
ATOM     11  C   LIG d   1      -1.982  96.691 118.616  0.00  0.00     0.028 C 
ATOM     12  C   LIG d   1      -3.131  96.158 119.486  0.00  0.00     0.006 C 
ENDBRANCH   8  11
ENDBRANCH   7   8
ENDBRANCH   1   7
BRANCH   6  13
ATOM     13  N   LIG d   1       0.636  92.347 117.514  0.00  0.00    -0.311 N 
ATOM     14  C   LIG d   1       1.741  92.059 118.200  0.00  0.00     0.210 C 
ATOM     15  C   LIG d   1       3.047  92.518 117.545  0.00  0.00     0.109 C 
ATOM     16  O   LIG d   1       1.765  91.438 119.273  0.00  0.00    -0.276 OA
ATOM     17  H   LIG d   1       0.711  92.825 116.637  0.00  0.00     0.149 HD
ENDBRANCH   6  13
BRANCH   5  18
ATOM     18  N   LIG d   1      -0.441  89.506 117.832  0.00  0.00     0.381 N 
ATOM     19  H   LIG d   1       0.498  89.793 118.025  0.00  0.00    -0.090 HD
ATOM     20  H   LIG d   1      -0.418  88.831 117.088  0.00  0.00    -0.090 HD
ATOM     21  H   LIG d   1      -0.846  89.100 118.646  0.00  0.00    -0.090 HD
ENDBRANCH   5  18
BRANCH   3  22
ATOM     22  C   LIG d   1      -4.863  91.290 117.383  0.00  0.00     0.382 C 
ATOM     23  O   LIG d   1      -5.207  90.328 116.654  0.00  0.00    -0.241 OA
ATOM     24  O   LIG d   1      -5.734  92.046 117.853  0.00  0.00    -0.241 OA
ENDBRANCH   3  22
TORSDOF 7
ENDMDL
MODEL 7
REMARK VINA RESULT:      -4.3      2.361      5.377
REMARK  7 active torsions:
REMARK  status: ('A' for Active; 'I' for Inactive)
REMARK    1  A    between atoms: C_2  and  C_3 
REMARK    2  A    between atoms: C_3  and  O_6 
REMARK    3  A    between atoms: C_3  and  C_4 
REMARK    4  A    between atoms: C_7  and  O_6 
REMARK    5  A    between atoms: C_9  and  C_10 
REMARK    6  A    between atoms: N_15  and  C_14 
REMARK    7  A    between atoms: N_20  and  C_19 
REMARK       I    between atoms: C_22  and  N_20 
ROOT
ATOM      1  C   LIG d   1      -4.513  92.855 119.977  0.00  0.00     0.161 C 
ATOM      2  C   LIG d   1      -3.572  91.959 119.442  0.00  0.00     0.016 C 
ATOM      3  C   LIG d   1      -3.732  91.316 118.194  0.00  0.00     0.038 C 
ATOM      4  C   LIG d   1      -4.781  91.642 117.321  0.00  0.00     0.028 C 
ATOM      5  C   LIG d   1      -6.022  92.165 118.035  0.00  0.00    -0.047 C 
ATOM      6  C   LIG d   1      -5.608  93.308 118.990  0.00  0.00     0.091 C 
ENDROOT
BRANCH   1   7
ATOM      7  O   LIG d   1      -3.836  93.999 120.535  0.00  0.00    -0.368 OA
BRANCH   7   8
ATOM      8  C   LIG d   1      -3.682  95.140 119.655  0.00  0.00     0.119 C 
BRANCH   8   9
ATOM      9  C   LIG d   1      -2.179  95.288 119.349  0.00  0.00     0.028 C 
ATOM     10  C   LIG d   1      -1.825  94.846 117.919  0.00  0.00     0.006 C 
ENDBRANCH   8   9
BRANCH   8  11
ATOM     11  C   LIG d   1      -4.084  96.441 120.354  0.00  0.00     0.028 C 
ATOM     12  C   LIG d   1      -4.817  97.418 119.421  0.00  0.00     0.006 C 
ENDBRANCH   8  11
ENDBRANCH   7   8
ENDBRANCH   1   7
BRANCH   6  13
ATOM     13  N   LIG d   1      -6.751  93.820 119.790  0.00  0.00    -0.311 N 
ATOM     14  C   LIG d   1      -7.543  94.812 119.386  0.00  0.00     0.210 C 
ATOM     15  C   LIG d   1      -8.650  95.198 120.373  0.00  0.00     0.109 C 
ATOM     16  O   LIG d   1      -7.453  95.387 118.291  0.00  0.00    -0.276 OA
ATOM     17  H   LIG d   1      -6.915  93.389 120.679  0.00  0.00     0.149 HD
ENDBRANCH   6  13
BRANCH   5  18
ATOM     18  N   LIG d   1      -6.983  92.596 117.001  0.00  0.00     0.381 N 
ATOM     19  H   LIG d   1      -6.967  93.592 116.917  0.00  0.00    -0.090 HD
ATOM     20  H   LIG d   1      -7.907  92.317 117.280  0.00  0.00    -0.090 HD
ATOM     21  H   LIG d   1      -6.752  92.178 116.126  0.00  0.00    -0.090 HD
ENDBRANCH   5  18
BRANCH   3  22
ATOM     22  C   LIG d   1      -2.858  90.304 117.825  0.00  0.00     0.382 C 
ATOM     23  O   LIG d   1      -1.753  90.590 117.305  0.00  0.00    -0.241 OA
ATOM     24  O   LIG d   1      -3.181  89.109 117.964  0.00  0.00    -0.241 OA
ENDBRANCH   3  22
TORSDOF 7
ENDMDL
MODEL 8
REMARK VINA RESULT:      -4.1      1.312      2.113
REMARK  7 active torsions:
REMARK  status: ('A' for Active; 'I' for Inactive)
REMARK    1  A    between atoms: C_2  and  C_3 
REMARK    2  A    between atoms: C_3  and  O_6 
REMARK    3  A    between atoms: C_3  and  C_4 
REMARK    4  A    between atoms: C_7  and  O_6 
REMARK    5  A    between atoms: C_9  and  C_10 
REMARK    6  A    between atoms: N_15  and  C_14 
REMARK    7  A    between atoms: N_20  and  C_19 
REMARK       I    between atoms: C_22  and  N_20 
ROOT
ATOM      1  C   LIG d   1      -5.257  93.492 119.889  0.00  0.00     0.161 C 
ATOM      2  C   LIG d   1      -6.630  93.781 119.961  0.00  0.00     0.016 C 
ATOM      3  C   LIG d   1      -7.164  95.075 119.766  0.00  0.00     0.038 C 
ATOM      4  C   LIG d   1      -6.369  96.148 119.335  0.00  0.00     0.028 C 
ATOM      5  C   LIG d   1      -4.905  96.018 119.740  0.00  0.00    -0.047 C 
ATOM      6  C   LIG d   1      -4.387  94.627 119.310  0.00  0.00     0.091 C 
ENDROOT
BRANCH   1   7
ATOM      7  O   LIG d   1      -5.052  92.274 119.145  0.00  0.00    -0.368 OA
BRANCH   7   8
ATOM      8  C   LIG d   1      -4.754  92.431 117.736  0.00  0.00     0.119 C 
BRANCH   8   9
ATOM      9  C   LIG d   1      -6.090  92.372 116.971  0.00  0.00     0.028 C 
ATOM     10  C   LIG d   1      -6.396  90.965 116.431  0.00  0.00     0.006 C 
ENDBRANCH   8   9
BRANCH   8  11
ATOM     11  C   LIG d   1      -3.931  91.252 117.206  0.00  0.00     0.028 C 
ATOM     12  C   LIG d   1      -2.484  91.255 117.724  0.00  0.00     0.006 C 
ENDBRANCH   8  11
ENDBRANCH   7   8
ENDBRANCH   1   7
BRANCH   6  13
ATOM     13  N   LIG d   1      -2.986  94.385 119.743  0.00  0.00    -0.311 N 
ATOM     14  C   LIG d   1      -1.926  94.647 118.979  0.00  0.00     0.210 C 
ATOM     15  C   LIG d   1      -0.573  94.305 119.610  0.00  0.00     0.109 C 
ATOM     16  O   LIG d   1      -1.978  95.161 117.851  0.00  0.00    -0.276 OA
ATOM     17  H   LIG d   1      -2.851  93.999 120.657  0.00  0.00     0.149 HD
ENDBRANCH   6  13
BRANCH   5  18
ATOM     18  N   LIG d   1      -4.168  97.130 119.109  0.00  0.00     0.381 N 
ATOM     19  H   LIG d   1      -4.582  98.002 119.371  0.00  0.00    -0.090 HD
ATOM     20  H   LIG d   1      -4.233  97.038 118.111  0.00  0.00    -0.090 HD
ATOM     21  H   LIG d   1      -3.213  97.109 119.391  0.00  0.00    -0.090 HD
ENDBRANCH   5  18
BRANCH   3  22
ATOM     22  C   LIG d   1      -8.501  95.316 120.043  0.00  0.00     0.382 C 
ATOM     23  O   LIG d   1      -9.355  94.420 119.837  0.00  0.00    -0.241 OA
ATOM     24  O   LIG d   1      -8.870  96.432 120.455  0.00  0.00    -0.241 OA
ENDBRANCH   3  22
TORSDOF 7
ENDMDL
MODEL 9
REMARK VINA RESULT:      -4.1      1.877      2.446
REMARK  7 active torsions:
REMARK  status: ('A' for Active; 'I' for Inactive)
REMARK    1  A    between atoms: C_2  and  C_3 
REMARK    2  A    between atoms: C_3  and  O_6 
REMARK    3  A    between atoms: C_3  and  C_4 
REMARK    4  A    between atoms: C_7  and  O_6 
REMARK    5  A    between atoms: C_9  and  C_10 
REMARK    6  A    between atoms: N_15  and  C_14 
REMARK    7  A    between atoms: N_20  and  C_19 
REMARK       I    between atoms: C_22  and  N_20 
ROOT
ATOM      1  C   LIG d   1      -4.994  93.750 119.757  0.00  0.00     0.161 C 
ATOM      2  C   LIG d   1      -5.911  93.699 118.694  0.00  0.00     0.016 C 
ATOM      3  C   LIG d   1      -7.193  94.293 118.744  0.00  0.00     0.038 C 
ATOM      4  C   LIG d   1      -7.589  95.113 119.810  0.00  0.00     0.028 C 
ATOM      5  C   LIG d   1      -6.892  94.777 121.124  0.00  0.00    -0.047 C 
ATOM      6  C   LIG d   1      -5.365  94.734 120.885  0.00  0.00     0.091 C 
ENDROOT
BRANCH   1   7
ATOM      7  O   LIG d   1      -3.676  94.042 119.251  0.00  0.00    -0.368 OA
BRANCH   7   8
ATOM      8  C   LIG d   1      -2.724  92.950 119.284  0.00  0.00     0.119 C 
BRANCH   8   9
ATOM      9  C   LIG d   1      -2.495  92.492 117.830  0.00  0.00     0.028 C 
ATOM     10  C   LIG d   1      -3.306  91.234 117.477  0.00  0.00     0.006 C 
ENDBRANCH   8   9
BRANCH   8  11
ATOM     11  C   LIG d   1      -3.301  91.729 120.007  0.00  0.00     0.028 C 
ATOM     12  C   LIG d   1      -2.515  91.361 121.275  0.00  0.00     0.006 C 
ENDBRANCH   8  11
ENDBRANCH   7   8
ENDBRANCH   1   7
BRANCH   6  13
ATOM     13  N   LIG d   1      -4.613  94.330 122.101  0.00  0.00    -0.311 N 
ATOM     14  C   LIG d   1      -3.522  94.962 122.533  0.00  0.00     0.210 C 
ATOM     15  C   LIG d   1      -2.888  94.369 123.795  0.00  0.00     0.109 C 
ATOM     16  O   LIG d   1      -3.039  95.976 122.008  0.00  0.00    -0.276 OA
ATOM     17  H   LIG d   1      -4.954  93.535 122.606  0.00  0.00     0.149 HD
ENDBRANCH   6  13
BRANCH   5  18
ATOM     18  N   LIG d   1      -7.294  95.794 122.115  0.00  0.00     0.381 N 
ATOM     19  H   LIG d   1      -6.486  96.280 122.448  0.00  0.00    -0.090 HD
ATOM     20  H   LIG d   1      -7.729  95.334 122.895  0.00  0.00    -0.090 HD
ATOM     21  H   LIG d   1      -7.931  96.439 121.702  0.00  0.00    -0.090 HD
ENDBRANCH   5  18
BRANCH   3  22
ATOM     22  C   LIG d   1      -8.109  94.035 117.735  0.00  0.00     0.382 C 
ATOM     23  O   LIG d   1      -9.313  94.354 117.885  0.00  0.00    -0.241 OA
ATOM     24  O   LIG d   1      -7.755  93.448 116.695  0.00  0.00    -0.241 OA
ENDBRANCH   3  22
TORSDOF 7
ENDMDL
