MODEL 1
REMARK VINA RESULT:      -5.1      0.000      0.000
REMARK  7 active torsions:
REMARK  status: ('A' for Active; 'I' for Inactive)
REMARK    1  A    between atoms: C_2  and  C_3 
REMARK    2  A    between atoms: C_3  and  O_6 
REMARK    3  A    between atoms: C_3  and  C_4 
REMARK    4  A    between atoms: C_7  and  O_6 
REMARK    5  A    between atoms: C_9  and  C_10 
REMARK    6  A    between atoms: N_15  and  C_14 
REMARK    7  A    between atoms: N_20  and  C_19 
REMARK       I    between atoms: C_22  and  N_20 
ROOT
ATOM      1  C   LIG d   1      -4.224  91.794 119.290  0.00  0.00     0.161 C 
ATOM      2  C   LIG d   1      -5.458  91.373 118.768  0.00  0.00     0.016 C 
ATOM      3  C   LIG d   1      -5.581  90.568 117.612  0.00  0.00     0.038 C 
ATOM      4  C   LIG d   1      -4.463  90.001 116.982  0.00  0.00     0.028 C 
ATOM      5  C   LIG d   1      -3.184  90.809 117.174  0.00  0.00    -0.047 C 
ATOM      6  C   LIG d   1      -2.991  91.093 118.681  0.00  0.00     0.091 C 
ENDROOT
BRANCH   1   7
ATOM      7  O   LIG d   1      -4.224  91.649 120.724  0.00  0.00    -0.368 OA
BRANCH   7   8
ATOM      8  C   LIG d   1      -4.294  92.877 121.489  0.00  0.00     0.119 C 
BRANCH   8   9
ATOM      9  C   LIG d   1      -5.724  92.992 122.052  0.00  0.00     0.028 C 
ATOM     10  C   LIG d   1      -6.567  94.039 121.304  0.00  0.00     0.006 C 
ENDBRANCH   8   9
BRANCH   8  11
ATOM     11  C   LIG d   1      -4.112  94.104 120.590  0.00  0.00     0.028 C 
ATOM     12  C   LIG d   1      -2.836  94.897 120.915  0.00  0.00     0.006 C 
ENDBRANCH   8  11
ENDBRANCH   7   8
ENDBRANCH   1   7
BRANCH   6  13
ATOM     13  N   LIG d   1      -1.808  91.950 118.949  0.00  0.00    -0.311 N 
ATOM     14  C   LIG d   1      -0.603  91.465 119.246  0.00  0.00     0.210 C 
ATOM     15  C   LIG d   1       0.474  92.523 119.506  0.00  0.00     0.109 C 
ATOM     16  O   LIG d   1      -0.317  90.259 119.287  0.00  0.00    -0.276 OA
ATOM     17  H   LIG d   1      -1.943  92.941 118.906  0.00  0.00     0.149 HD
ENDBRANCH   6  13
BRANCH   5  18
ATOM     18  N   LIG d   1      -2.076  90.034 116.585  0.00  0.00     0.381 N 
ATOM     19  H   LIG d   1      -2.438  89.361 115.940  0.00  0.00    -0.090 HD
ATOM     20  H   LIG d   1      -1.597  89.542 117.319  0.00  0.00    -0.090 HD
ATOM     21  H   LIG d   1      -1.443  90.646 116.118  0.00  0.00    -0.090 HD
ENDBRANCH   5  18
BRANCH   3  22
ATOM     22  C   LIG d   1      -6.831  90.357 117.052  0.00  0.00     0.382 C 
ATOM     23  O   LIG d   1      -7.740  91.209 117.206  0.00  0.00    -0.241 OA
ATOM     24  O   LIG d   1      -7.076  89.306 116.431  0.00  0.00    -0.241 OA
ENDBRANCH   3  22
TORSDOF 7
ENDMDL
MODEL 2
REMARK VINA RESULT:      -5.0      0.832      1.914
REMARK  7 active torsions:
REMARK  status: ('A' for Active; 'I' for Inactive)
REMARK    1  A    between atoms: C_2  and  C_3 
REMARK    2  A    between atoms: C_3  and  O_6 
REMARK    3  A    between atoms: C_3  and  C_4 
REMARK    4  A    between atoms: C_7  and  O_6 
REMARK    5  A    between atoms: C_9  and  C_10 
REMARK    6  A    between atoms: N_15  and  C_14 
REMARK    7  A    between atoms: N_20  and  C_19 
REMARK       I    between atoms: C_22  and  N_20 
ROOT
ATOM      1  C   LIG d   1      -4.115  91.801 119.312  0.00  0.00     0.161 C 
ATOM      2  C   LIG d   1      -5.367  91.399 118.817  0.00  0.00     0.016 C 
ATOM      3  C   LIG d   1      -5.526  90.581 117.674  0.00  0.00     0.038 C 
ATOM      4  C   LIG d   1      -4.431  89.982 117.033  0.00  0.00     0.028 C 
ATOM      5  C   LIG d   1      -3.133  90.766 117.192  0.00  0.00    -0.047 C 
ATOM      6  C   LIG d   1      -2.908  91.066 118.691  0.00  0.00     0.091 C 
ENDROOT
BRANCH   1   7
ATOM      7  O   LIG d   1      -4.094  91.675 120.747  0.00  0.00    -0.368 OA
BRANCH   7   8
ATOM      8  C   LIG d   1      -3.865  92.897 121.491  0.00  0.00     0.119 C 
BRANCH   8   9
ATOM      9  C   LIG d   1      -2.674  92.649 122.436  0.00  0.00     0.028 C 
ATOM     10  C   LIG d   1      -2.297  91.160 122.526  0.00  0.00     0.006 C 
ENDBRANCH   8   9
BRANCH   8  11
ATOM     11  C   LIG d   1      -5.049  93.222 122.407  0.00  0.00     0.028 C 
ATOM     12  C   LIG d   1      -6.014  92.037 122.576  0.00  0.00     0.006 C 
ENDBRANCH   8  11
ENDBRANCH   7   8
ENDBRANCH   1   7
BRANCH   6  13
ATOM     13  N   LIG d   1      -1.702  91.903 118.927  0.00  0.00    -0.311 N 
ATOM     14  C   LIG d   1      -0.509  91.398 119.234  0.00  0.00     0.210 C 
ATOM     15  C   LIG d   1       0.595  92.437 119.456  0.00  0.00     0.109 C 
ATOM     16  O   LIG d   1      -0.251  90.188 119.311  0.00  0.00    -0.276 OA
ATOM     17  H   LIG d   1      -1.814  92.895 118.854  0.00  0.00     0.149 HD
ENDBRANCH   6  13
BRANCH   5  18
ATOM     18  N   LIG d   1      -2.050  89.961 116.594  0.00  0.00     0.381 N 
ATOM     19  H   LIG d   1      -2.362  89.020 116.461  0.00  0.00    -0.090 HD
ATOM     20  H   LIG d   1      -1.269  89.948 117.226  0.00  0.00    -0.090 HD
ATOM     21  H   LIG d   1      -1.775  90.355 115.722  0.00  0.00    -0.090 HD
ENDBRANCH   5  18
BRANCH   3  22
ATOM     22  C   LIG d   1      -6.790  90.389 117.138  0.00  0.00     0.382 C 
ATOM     23  O   LIG d   1      -7.023  89.379 116.430  0.00  0.00    -0.241 OA
ATOM     24  O   LIG d   1      -7.687  91.234 117.316  0.00  0.00    -0.241 OA
ENDBRANCH   3  22
TORSDOF 7
ENDMDL
MODEL 3
REMARK VINA RESULT:      -4.8      2.068      4.174
REMARK  7 active torsions:
REMARK  status: ('A' for Active; 'I' for Inactive)
REMARK    1  A    between atoms: C_2  and  C_3 
REMARK    2  A    between atoms: C_3  and  O_6 
REMARK    3  A    between atoms: C_3  and  C_4 
REMARK    4  A    between atoms: C_7  and  O_6 
REMARK    5  A    between atoms: C_9  and  C_10 
REMARK    6  A    between atoms: N_15  and  C_14 
REMARK    7  A    between atoms: N_20  and  C_19 
REMARK       I    between atoms: C_22  and  N_20 
ROOT
ATOM      1  C   LIG d   1      -3.341  90.802 118.421  0.00  0.00     0.161 C 
ATOM      2  C   LIG d   1      -4.432  90.495 117.590  0.00  0.00     0.016 C 
ATOM      3  C   LIG d   1      -5.749  90.947 117.836  0.00  0.00     0.038 C 
ATOM      4  C   LIG d   1      -6.038  91.869 118.852  0.00  0.00     0.028 C 
ATOM      5  C   LIG d   1      -5.060  91.811 120.020  0.00  0.00    -0.047 C 
ATOM      6  C   LIG d   1      -3.617  91.898 119.472  0.00  0.00     0.091 C 
ENDROOT
BRANCH   1   7
ATOM      7  O   LIG d   1      -2.199  91.157 117.616  0.00  0.00    -0.368 OA
BRANCH   7   8
ATOM      8  C   LIG d   1      -1.129  90.181 117.564  0.00  0.00     0.119 C 
BRANCH   8   9
ATOM      9  C   LIG d   1      -1.444  89.092 118.607  0.00  0.00     0.028 C 
ATOM     10  C   LIG d   1      -0.374  89.007 119.709  0.00  0.00     0.006 C 
ENDBRANCH   8   9
BRANCH   8  11
ATOM     11  C   LIG d   1       0.204  90.792 118.006  0.00  0.00     0.028 C 
ATOM     12  C   LIG d   1       1.236  90.857 116.869  0.00  0.00     0.006 C 
ENDBRANCH   8  11
ENDBRANCH   7   8
ENDBRANCH   1   7
BRANCH   6  13
ATOM     13  N   LIG d   1      -2.595  91.763 120.541  0.00  0.00    -0.311 N 
ATOM     14  C   LIG d   1      -1.579  92.611 120.696  0.00  0.00     0.210 C 
ATOM     15  C   LIG d   1      -0.628  92.277 121.849  0.00  0.00     0.109 C 
ATOM     16  O   LIG d   1      -1.393  93.625 120.007  0.00  0.00    -0.276 OA
ATOM     17  H   LIG d   1      -2.687  90.985 121.165  0.00  0.00     0.149 HD
ENDBRANCH   6  13
BRANCH   5  18
ATOM     18  N   LIG d   1      -5.396  92.914 120.940  0.00  0.00     0.381 N 
ATOM     19  H   LIG d   1      -6.290  93.294 120.699  0.00  0.00    -0.090 HD
ATOM     20  H   LIG d   1      -4.708  93.639 120.843  0.00  0.00    -0.090 HD
ATOM     21  H   LIG d   1      -5.410  92.583 121.879  0.00  0.00    -0.090 HD
ENDBRANCH   5  18
BRANCH   3  22
ATOM     22  C   LIG d   1      -6.799  90.444 117.083  0.00  0.00     0.382 C 
ATOM     23  O   LIG d   1      -6.660  89.369 116.453  0.00  0.00    -0.241 OA
ATOM     24  O   LIG d   1      -7.869  91.075 116.992  0.00  0.00    -0.241 OA
ENDBRANCH   3  22
TORSDOF 7
ENDMDL
MODEL 4
REMARK VINA RESULT:      -4.6      2.579      5.970
REMARK  7 active torsions:
REMARK  status: ('A' for Active; 'I' for Inactive)
REMARK    1  A    between atoms: C_2  and  C_3 
REMARK    2  A    between atoms: C_3  and  O_6 
REMARK    3  A    between atoms: C_3  and  C_4 
REMARK    4  A    between atoms: C_7  and  O_6 
REMARK    5  A    between atoms: C_9  and  C_10 
REMARK    6  A    between atoms: N_15  and  C_14 
REMARK    7  A    between atoms: N_20  and  C_19 
REMARK       I    between atoms: C_22  and  N_20 
ROOT
ATOM      1  C   LIG d   1      -1.291  92.037 118.091  0.00  0.00     0.161 C 
ATOM      2  C   LIG d   1      -0.125  91.502 117.517  0.00  0.00     0.016 C 
ATOM      3  C   LIG d   1       1.173  91.989 117.795  0.00  0.00     0.038 C 
ATOM      4  C   LIG d   1       1.406  92.952 118.788  0.00  0.00     0.028 C 
ATOM      5  C   LIG d   1       0.216  93.874 119.030  0.00  0.00    -0.047 C 
ATOM      6  C   LIG d   1      -1.047  93.013 119.260  0.00  0.00     0.091 C 
ENDROOT
BRANCH   1   7
ATOM      7  O   LIG d   1      -2.166  90.969 118.504  0.00  0.00    -0.368 OA
BRANCH   7   8
ATOM      8  C   LIG d   1      -3.421  90.861 117.789  0.00  0.00     0.119 C 
BRANCH   8   9
ATOM      9  C   LIG d   1      -4.527  90.601 118.830  0.00  0.00     0.028 C 
ATOM     10  C   LIG d   1      -5.719  91.559 118.672  0.00  0.00     0.006 C 
ENDBRANCH   8   9
BRANCH   8  11
ATOM     11  C   LIG d   1      -3.435  89.636 116.869  0.00  0.00     0.028 C 
ATOM     12  C   LIG d   1      -2.527  88.502 117.374  0.00  0.00     0.006 C 
ENDBRANCH   8  11
ENDBRANCH   7   8
ENDBRANCH   1   7
BRANCH   6  13
ATOM     13  N   LIG d   1      -2.273  93.838 119.421  0.00  0.00    -0.311 N 
ATOM     14  C   LIG d   1      -3.125  93.694 120.434  0.00  0.00     0.210 C 
ATOM     15  C   LIG d   1      -4.336  94.632 120.399  0.00  0.00     0.109 C 
ATOM     16  O   LIG d   1      -2.977  92.901 121.376  0.00  0.00    -0.276 OA
ATOM     17  H   LIG d   1      -2.454  94.527 118.718  0.00  0.00     0.149 HD
ENDBRANCH   6  13
BRANCH   5  18
ATOM     18  N   LIG d   1       0.547  94.736 120.181  0.00  0.00     0.381 N 
ATOM     19  H   LIG d   1       0.616  95.688 119.882  0.00  0.00    -0.090 HD
ATOM     20  H   LIG d   1       1.437  94.456 120.552  0.00  0.00    -0.090 HD
ATOM     21  H   LIG d   1      -0.155  94.651 120.883  0.00  0.00    -0.090 HD
ENDBRANCH   5  18
BRANCH   3  22
ATOM     22  C   LIG d   1       2.250  91.540 117.047  0.00  0.00     0.382 C 
ATOM     23  O   LIG d   1       3.284  92.244 116.952  0.00  0.00    -0.241 OA
ATOM     24  O   LIG d   1       2.184  90.460 116.430  0.00  0.00    -0.241 OA
ENDBRANCH   3  22
TORSDOF 7
ENDMDL
MODEL 5
REMARK VINA RESULT:      -4.4      2.952      6.101
REMARK  7 active torsions:
REMARK  status: ('A' for Active; 'I' for Inactive)
REMARK    1  A    between atoms: C_2  and  C_3 
REMARK    2  A    between atoms: C_3  and  O_6 
REMARK    3  A    between atoms: C_3  and  C_4 
REMARK    4  A    between atoms: C_7  and  O_6 
REMARK    5  A    between atoms: C_9  and  C_10 
REMARK    6  A    between atoms: N_15  and  C_14 
REMARK    7  A    between atoms: N_20  and  C_19 
REMARK       I    between atoms: C_22  and  N_20 
ROOT
ATOM      1  C   LIG d   1      -1.166  92.440 117.832  0.00  0.00     0.161 C 
ATOM      2  C   LIG d   1      -0.017  91.785 117.357  0.00  0.00     0.016 C 
ATOM      3  C   LIG d   1       1.287  92.063 117.825  0.00  0.00     0.038 C 
ATOM      4  C   LIG d   1       1.518  92.913 118.917  0.00  0.00     0.028 C 
ATOM      5  C   LIG d   1       0.439  93.977 119.093  0.00  0.00    -0.047 C 
ATOM      6  C   LIG d   1      -0.946  93.291 119.100  0.00  0.00     0.091 C 
ENDROOT
BRANCH   1   7
ATOM      7  O   LIG d   1      -2.220  91.482 118.048  0.00  0.00    -0.368 OA
BRANCH   7   8
ATOM      8  C   LIG d   1      -2.150  90.724 119.281  0.00  0.00     0.119 C 
BRANCH   8   9
ATOM      9  C   LIG d   1      -1.909  89.249 118.904  0.00  0.00     0.028 C 
ATOM     10  C   LIG d   1      -2.602  88.859 117.588  0.00  0.00     0.006 C 
ENDBRANCH   8   9
BRANCH   8  11
ATOM     11  C   LIG d   1      -3.491  90.739 120.021  0.00  0.00     0.028 C 
ATOM     12  C   LIG d   1      -4.565  91.560 119.292  0.00  0.00     0.006 C 
ENDBRANCH   8  11
ENDBRANCH   7   8
ENDBRANCH   1   7
BRANCH   6  13
ATOM     13  N   LIG d   1      -2.062  94.269 119.184  0.00  0.00    -0.311 N 
ATOM     14  C   LIG d   1      -2.663  94.599 120.326  0.00  0.00     0.210 C 
ATOM     15  C   LIG d   1      -3.804  95.611 120.188  0.00  0.00     0.109 C 
ATOM     16  O   LIG d   1      -2.338  94.174 121.445  0.00  0.00    -0.276 OA
ATOM     17  H   LIG d   1      -2.369  94.685 118.327  0.00  0.00     0.149 HD
ENDBRANCH   6  13
BRANCH   5  18
ATOM     18  N   LIG d   1       0.731  94.704 120.343  0.00  0.00     0.381 N 
ATOM     19  H   LIG d   1       1.105  94.072 121.023  0.00  0.00    -0.090 HD
ATOM     20  H   LIG d   1      -0.126  95.085 120.705  0.00  0.00    -0.090 HD
ATOM     21  H   LIG d   1       1.381  95.438 120.168  0.00  0.00    -0.090 HD
ENDBRANCH   5  18
BRANCH   3  22
ATOM     22  C   LIG d   1       2.383  91.516 117.174  0.00  0.00     0.382 C 
ATOM     23  O   LIG d   1       3.373  92.236 116.900  0.00  0.00    -0.241 OA
ATOM     24  O   LIG d   1       2.375  90.323 116.817  0.00  0.00    -0.241 OA
ENDBRANCH   3  22
TORSDOF 7
ENDMDL
MODEL 6
REMARK VINA RESULT:      -4.3      3.009      7.033
REMARK  7 active torsions:
REMARK  status: ('A' for Active; 'I' for Inactive)
REMARK    1  A    between atoms: C_2  and  C_3 
REMARK    2  A    between atoms: C_3  and  O_6 
REMARK    3  A    between atoms: C_3  and  C_4 
REMARK    4  A    between atoms: C_7  and  O_6 
REMARK    5  A    between atoms: C_9  and  C_10 
REMARK    6  A    between atoms: N_15  and  C_14 
REMARK    7  A    between atoms: N_20  and  C_19 
REMARK       I    between atoms: C_22  and  N_20 
ROOT
ATOM      1  C   LIG d   1      -0.807  90.425 117.457  0.00  0.00     0.161 C 
ATOM      2  C   LIG d   1       0.578  90.657 117.488  0.00  0.00     0.016 C 
ATOM      3  C   LIG d   1       1.153  91.882 117.898  0.00  0.00     0.038 C 
ATOM      4  C   LIG d   1       0.382  92.915 118.451  0.00  0.00     0.028 C 
ATOM      5  C   LIG d   1      -1.065  92.915 117.969  0.00  0.00    -0.047 C 
ATOM      6  C   LIG d   1      -1.659  91.501 118.163  0.00  0.00     0.091 C 
ENDROOT
BRANCH   1   7
ATOM      7  O   LIG d   1      -1.096  89.122 118.000  0.00  0.00    -0.368 OA
BRANCH   7   8
ATOM      8  C   LIG d   1      -0.282  88.030 117.505  0.00  0.00     0.119 C 
BRANCH   8   9
ATOM      9  C   LIG d   1      -1.206  87.086 116.711  0.00  0.00     0.028 C 
ATOM     10  C   LIG d   1      -0.699  85.634 116.708  0.00  0.00     0.006 C 
ENDBRANCH   8   9
BRANCH   8  11
ATOM     11  C   LIG d   1       0.273  87.183 118.654  0.00  0.00     0.028 C 
ATOM     12  C   LIG d   1       0.573  88.011 119.914  0.00  0.00     0.006 C 
ENDBRANCH   8  11
ENDBRANCH   7   8
ENDBRANCH   1   7
BRANCH   6  13
ATOM     13  N   LIG d   1      -3.045  91.392 117.639  0.00  0.00    -0.311 N 
ATOM     14  C   LIG d   1      -4.074  90.966 118.370  0.00  0.00     0.210 C 
ATOM     15  C   LIG d   1      -5.414  90.910 117.631  0.00  0.00     0.109 C 
ATOM     16  O   LIG d   1      -4.009  90.659 119.570  0.00  0.00    -0.276 OA
ATOM     17  H   LIG d   1      -3.193  91.650 116.683  0.00  0.00     0.149 HD
ENDBRANCH   6  13
BRANCH   5  18
ATOM     18  N   LIG d   1      -1.787  93.954 118.728  0.00  0.00     0.381 N 
ATOM     19  H   LIG d   1      -1.662  94.844 118.288  0.00  0.00    -0.090 HD
ATOM     20  H   LIG d   1      -1.405  94.004 119.656  0.00  0.00    -0.090 HD
ATOM     21  H   LIG d   1      -2.757  93.731 118.772  0.00  0.00    -0.090 HD
ENDBRANCH   5  18
BRANCH   3  22
ATOM     22  C   LIG d   1       2.511  92.099 117.717  0.00  0.00     0.382 C 
ATOM     23  O   LIG d   1       3.070  91.727 116.657  0.00  0.00    -0.241 OA
ATOM     24  O   LIG d   1       3.193  92.621 118.619  0.00  0.00    -0.241 OA
ENDBRANCH   3  22
TORSDOF 7
ENDMDL
MODEL 7
REMARK VINA RESULT:      -4.2      1.993      4.404
REMARK  7 active torsions:
REMARK  status: ('A' for Active; 'I' for Inactive)
REMARK    1  A    between atoms: C_2  and  C_3 
REMARK    2  A    between atoms: C_3  and  O_6 
REMARK    3  A    between atoms: C_3  and  C_4 
REMARK    4  A    between atoms: C_7  and  O_6 
REMARK    5  A    between atoms: C_9  and  C_10 
REMARK    6  A    between atoms: N_15  and  C_14 
REMARK    7  A    between atoms: N_20  and  C_19 
REMARK       I    between atoms: C_22  and  N_20 
ROOT
ATOM      1  C   LIG d   1      -4.457  90.990 119.961  0.00  0.00     0.161 C 
ATOM      2  C   LIG d   1      -5.440  91.994 119.961  0.00  0.00     0.016 C 
ATOM      3  C   LIG d   1      -5.159  93.358 120.207  0.00  0.00     0.038 C 
ATOM      4  C   LIG d   1      -3.845  93.835 120.322  0.00  0.00     0.028 C 
ATOM      5  C   LIG d   1      -2.862  92.787 120.831  0.00  0.00    -0.047 C 
ATOM      6  C   LIG d   1      -3.004  91.508 119.974  0.00  0.00     0.091 C 
ENDROOT
BRANCH   1   7
ATOM      7  O   LIG d   1      -4.663  90.104 118.843  0.00  0.00    -0.368 OA
BRANCH   7   8
ATOM      8  C   LIG d   1      -4.506  90.691 117.527  0.00  0.00     0.119 C 
BRANCH   8   9
ATOM      9  C   LIG d   1      -5.656  90.166 116.646  0.00  0.00     0.028 C 
ATOM     10  C   LIG d   1      -7.028  90.698 117.093  0.00  0.00     0.006 C 
ENDBRANCH   8   9
BRANCH   8  11
ATOM     11  C   LIG d   1      -3.221  90.205 116.850  0.00  0.00     0.028 C 
ATOM     12  C   LIG d   1      -2.857  88.761 117.231  0.00  0.00     0.006 C 
ENDBRANCH   8  11
ENDBRANCH   7   8
ENDBRANCH   1   7
BRANCH   6  13
ATOM     13  N   LIG d   1      -2.137  90.403 120.458  0.00  0.00    -0.311 N 
ATOM     14  C   LIG d   1      -0.912  90.171 119.988  0.00  0.00     0.210 C 
ATOM     15  C   LIG d   1      -0.197  88.968 120.610  0.00  0.00     0.109 C 
ATOM     16  O   LIG d   1      -0.338  90.868 119.137  0.00  0.00    -0.276 OA
ATOM     17  H   LIG d   1      -2.512  89.807 121.170  0.00  0.00     0.149 HD
ENDBRANCH   6  13
BRANCH   5  18
ATOM     18  N   LIG d   1      -1.511  93.376 120.771  0.00  0.00     0.381 N 
ATOM     19  H   LIG d   1      -0.882  92.737 120.328  0.00  0.00    -0.090 HD
ATOM     20  H   LIG d   1      -1.186  93.541 121.707  0.00  0.00    -0.090 HD
ATOM     21  H   LIG d   1      -1.536  94.234 120.264  0.00  0.00    -0.090 HD
ENDBRANCH   5  18
BRANCH   3  22
ATOM     22  C   LIG d   1      -6.203  94.254 120.381  0.00  0.00     0.382 C 
ATOM     23  O   LIG d   1      -7.378  93.909 120.104  0.00  0.00    -0.241 OA
ATOM     24  O   LIG d   1      -5.980  95.416 120.769  0.00  0.00    -0.241 OA
ENDBRANCH   3  22
TORSDOF 7
ENDMDL
MODEL 8
REMARK VINA RESULT:      -4.0      2.508      3.806
REMARK  7 active torsions:
REMARK  status: ('A' for Active; 'I' for Inactive)
REMARK    1  A    between atoms: C_2  and  C_3 
REMARK    2  A    between atoms: C_3  and  O_6 
REMARK    3  A    between atoms: C_3  and  C_4 
REMARK    4  A    between atoms: C_7  and  O_6 
REMARK    5  A    between atoms: C_9  and  C_10 
REMARK    6  A    between atoms: N_15  and  C_14 
REMARK    7  A    between atoms: N_20  and  C_19 
REMARK       I    between atoms: C_22  and  N_20 
ROOT
ATOM      1  C   LIG d   1      -1.198  92.034 117.977  0.00  0.00     0.161 C 
ATOM      2  C   LIG d   1      -2.515  91.545 117.955  0.00  0.00     0.016 C 
ATOM      3  C   LIG d   1      -2.850  90.231 117.554  0.00  0.00     0.038 C 
ATOM      4  C   LIG d   1      -1.869  89.264 117.289  0.00  0.00     0.028 C 
ATOM      5  C   LIG d   1      -0.548  89.856 116.810  0.00  0.00    -0.047 C 
ATOM      6  C   LIG d   1      -0.106  90.960 117.797  0.00  0.00     0.091 C 
ENDROOT
BRANCH   1   7
ATOM      7  O   LIG d   1      -0.974  92.780 119.190  0.00  0.00    -0.368 OA
BRANCH   7   8
ATOM      8  C   LIG d   1      -0.342  94.074 119.035  0.00  0.00     0.119 C 
BRANCH   8   9
ATOM      9  C   LIG d   1       0.808  94.153 120.058  0.00  0.00     0.028 C 
ATOM     10  C   LIG d   1       0.858  92.924 120.981  0.00  0.00     0.006 C 
ENDBRANCH   8   9
BRANCH   8  11
ATOM     11  C   LIG d   1      -1.298  95.210 119.412  0.00  0.00     0.028 C 
ATOM     12  C   LIG d   1      -2.377  94.772 120.415  0.00  0.00     0.006 C 
ENDBRANCH   8  11
ENDBRANCH   7   8
ENDBRANCH   1   7
BRANCH   6  13
ATOM     13  N   LIG d   1       1.136  91.649 117.358  0.00  0.00    -0.311 N 
ATOM     14  C   LIG d   1       2.354  91.294 117.762  0.00  0.00     0.210 C 
ATOM     15  C   LIG d   1       3.495  92.151 117.205  0.00  0.00     0.109 C 
ATOM     16  O   LIG d   1       2.600  90.332 118.504  0.00  0.00    -0.276 OA
ATOM     17  H   LIG d   1       1.030  92.423 116.731  0.00  0.00     0.149 HD
ENDBRANCH   6  13
BRANCH   5  18
ATOM     18  N   LIG d   1       0.424  88.751 116.704  0.00  0.00     0.381 N 
ATOM     19  H   LIG d   1       1.283  89.013 117.145  0.00  0.00    -0.090 HD
ATOM     20  H   LIG d   1       0.609  88.573 115.733  0.00  0.00    -0.090 HD
ATOM     21  H   LIG d   1       0.056  87.932 117.135  0.00  0.00    -0.090 HD
ENDBRANCH   5  18
BRANCH   3  22
ATOM     22  C   LIG d   1      -4.181  89.885 117.375  0.00  0.00     0.382 C 
ATOM     23  O   LIG d   1      -4.511  89.129 116.430  0.00  0.00    -0.241 OA
ATOM     24  O   LIG d   1      -5.061  90.356 118.121  0.00  0.00    -0.241 OA
ENDBRANCH   3  22
TORSDOF 7
ENDMDL
MODEL 9
REMARK VINA RESULT:      -4.0      1.928      2.662
REMARK  7 active torsions:
REMARK  status: ('A' for Active; 'I' for Inactive)
REMARK    1  A    between atoms: C_2  and  C_3 
REMARK    2  A    between atoms: C_3  and  O_6 
REMARK    3  A    between atoms: C_3  and  C_4 
REMARK    4  A    between atoms: C_7  and  O_6 
REMARK    5  A    between atoms: C_9  and  C_10 
REMARK    6  A    between atoms: N_15  and  C_14 
REMARK    7  A    between atoms: N_20  and  C_19 
REMARK       I    between atoms: C_22  and  N_20 
ROOT
ATOM      1  C   LIG d   1      -1.952  91.588 118.452  0.00  0.00     0.161 C 
ATOM      2  C   LIG d   1      -3.339  91.462 118.269  0.00  0.00     0.016 C 
ATOM      3  C   LIG d   1      -3.945  90.339 117.660  0.00  0.00     0.038 C 
ATOM      4  C   LIG d   1      -3.212  89.191 117.326  0.00  0.00     0.028 C 
ATOM      5  C   LIG d   1      -1.743  89.475 117.030  0.00  0.00    -0.047 C 
ATOM      6  C   LIG d   1      -1.146  90.297 118.195  0.00  0.00     0.091 C 
ENDROOT
BRANCH   1   7
ATOM      7  O   LIG d   1      -1.678  92.095 119.773  0.00  0.00    -0.368 OA
BRANCH   7   8
ATOM      8  C   LIG d   1      -2.758  91.991 120.733  0.00  0.00     0.119 C 
BRANCH   8   9
ATOM      9  C   LIG d   1      -2.848  93.338 121.476  0.00  0.00     0.028 C 
ATOM     10  C   LIG d   1      -3.384  94.468 120.581  0.00  0.00     0.006 C 
ENDBRANCH   8   9
BRANCH   8  11
ATOM     11  C   LIG d   1      -2.445  90.952 121.814  0.00  0.00     0.028 C 
ATOM     12  C   LIG d   1      -3.120  89.597 121.550  0.00  0.00     0.006 C 
ENDBRANCH   8  11
ENDBRANCH   7   8
ENDBRANCH   1   7
BRANCH   6  13
ATOM     13  N   LIG d   1       0.265  90.690 117.947  0.00  0.00    -0.311 N 
ATOM     14  C   LIG d   1       1.267  90.386 118.771  0.00  0.00     0.210 C 
ATOM     15  C   LIG d   1       2.641  90.905 118.337  0.00  0.00     0.109 C 
ATOM     16  O   LIG d   1       1.152  89.708 119.803  0.00  0.00    -0.276 OA
ATOM     17  H   LIG d   1       0.453  91.216 117.116  0.00  0.00     0.149 HD
ENDBRANCH   6  13
BRANCH   5  18
ATOM     18  N   LIG d   1      -1.069  88.178 116.833  0.00  0.00     0.381 N 
ATOM     19  H   LIG d   1      -0.165  88.197 117.261  0.00  0.00    -0.090 HD
ATOM     20  H   LIG d   1      -0.948  88.021 115.848  0.00  0.00    -0.090 HD
ATOM     21  H   LIG d   1      -1.616  87.446 117.229  0.00  0.00    -0.090 HD
ENDBRANCH   5  18
BRANCH   3  22
ATOM     22  C   LIG d   1      -5.294  90.375 117.342  0.00  0.00     0.382 C 
ATOM     23  O   LIG d   1      -5.790  89.482 116.612  0.00  0.00    -0.241 OA
ATOM     24  O   LIG d   1      -6.013  91.312 117.739  0.00  0.00    -0.241 OA
ENDBRANCH   3  22
TORSDOF 7
ENDMDL
