MODEL 1
REMARK VINA RESULT:      -5.0      0.000      0.000
REMARK  7 active torsions:
REMARK  status: ('A' for Active; 'I' for Inactive)
REMARK    1  A    between atoms: C_2  and  C_3 
REMARK    2  A    between atoms: C_3  and  O_6 
REMARK    3  A    between atoms: C_3  and  C_4 
REMARK    4  A    between atoms: C_7  and  O_6 
REMARK    5  A    between atoms: C_9  and  C_10 
REMARK    6  A    between atoms: N_15  and  C_14 
REMARK    7  A    between atoms: N_20  and  C_19 
REMARK       I    between atoms: C_22  and  N_20 
ROOT
ATOM      1  C   LIG d   1      -6.134  93.232 119.492  0.00  0.00     0.161 C 
ATOM      2  C   LIG d   1      -7.433  93.752 119.375  0.00  0.00     0.016 C 
ATOM      3  C   LIG d   1      -7.707  95.127 119.186  0.00  0.00     0.038 C 
ATOM      4  C   LIG d   1      -6.687  96.060 118.949  0.00  0.00     0.028 C 
ATOM      5  C   LIG d   1      -5.348  95.662 119.561  0.00  0.00    -0.047 C 
ATOM      6  C   LIG d   1      -5.006  94.219 119.125  0.00  0.00     0.091 C 
ENDROOT
BRANCH   1   7
ATOM      7  O   LIG d   1      -6.018  92.026 118.711  0.00  0.00    -0.368 OA
BRANCH   7   8
ATOM      8  C   LIG d   1      -5.567  92.193 117.344  0.00  0.00     0.119 C 
BRANCH   8   9
ATOM      9  C   LIG d   1      -6.800  92.055 116.430  0.00  0.00     0.028 C 
ATOM     10  C   LIG d   1      -7.374  90.628 116.430  0.00  0.00     0.006 C 
ENDBRANCH   8   9
BRANCH   8  11
ATOM     11  C   LIG d   1      -4.624  91.061 116.927  0.00  0.00     0.028 C 
ATOM     12  C   LIG d   1      -3.809  90.499 118.103  0.00  0.00     0.006 C 
ENDBRANCH   8  11
ENDBRANCH   7   8
ENDBRANCH   1   7
BRANCH   6  13
ATOM     13  N   LIG d   1      -3.752  93.721 119.749  0.00  0.00    -0.311 N 
ATOM     14  C   LIG d   1      -2.570  93.740 119.135  0.00  0.00     0.210 C 
ATOM     15  C   LIG d   1      -1.409  93.160 119.948  0.00  0.00     0.109 C 
ATOM     16  O   LIG d   1      -2.368  94.213 118.006  0.00  0.00    -0.276 OA
ATOM     17  H   LIG d   1      -3.820  93.349 120.676  0.00  0.00     0.149 HD
ENDBRANCH   6  13
BRANCH   5  18
ATOM     18  N   LIG d   1      -4.346  96.651 119.122  0.00  0.00     0.381 N 
ATOM     19  H   LIG d   1      -3.728  96.234 118.455  0.00  0.00    -0.090 HD
ATOM     20  H   LIG d   1      -3.803  96.939 119.917  0.00  0.00    -0.090 HD
ATOM     21  H   LIG d   1      -4.800  97.440 118.717  0.00  0.00    -0.090 HD
ENDBRANCH   5  18
BRANCH   3  22
ATOM     22  C   LIG d   1      -9.012  95.586 119.272  0.00  0.00     0.382 C 
ATOM     23  O   LIG d   1      -9.968  94.799 119.071  0.00  0.00    -0.241 OA
ATOM     24  O   LIG d   1      -9.246  96.787 119.506  0.00  0.00    -0.241 OA
ENDBRANCH   3  22
TORSDOF 7
ENDMDL
MODEL 2
REMARK VINA RESULT:      -4.6      2.208      4.437
REMARK  7 active torsions:
REMARK  status: ('A' for Active; 'I' for Inactive)
REMARK    1  A    between atoms: C_2  and  C_3 
REMARK    2  A    between atoms: C_3  and  O_6 
REMARK    3  A    between atoms: C_3  and  C_4 
REMARK    4  A    between atoms: C_7  and  O_6 
REMARK    5  A    between atoms: C_9  and  C_10 
REMARK    6  A    between atoms: N_15  and  C_14 
REMARK    7  A    between atoms: N_20  and  C_19 
REMARK       I    between atoms: C_22  and  N_20 
ROOT
ATOM      1  C   LIG d   1      -5.009  93.024 119.346  0.00  0.00     0.161 C 
ATOM      2  C   LIG d   1      -5.321  91.996 118.440  0.00  0.00     0.016 C 
ATOM      3  C   LIG d   1      -6.339  92.101 117.464  0.00  0.00     0.038 C 
ATOM      4  C   LIG d   1      -7.018  93.306 117.228  0.00  0.00     0.028 C 
ATOM      5  C   LIG d   1      -7.086  94.213 118.452  0.00  0.00    -0.047 C 
ATOM      6  C   LIG d   1      -5.663  94.385 119.029  0.00  0.00     0.091 C 
ENDROOT
BRANCH   1   7
ATOM      7  O   LIG d   1      -3.579  93.167 119.448  0.00  0.00    -0.368 OA
BRANCH   7   8
ATOM      8  C   LIG d   1      -2.861  93.304 118.197  0.00  0.00     0.119 C 
BRANCH   8   9
ATOM      9  C   LIG d   1      -1.763  92.222 118.172  0.00  0.00     0.028 C 
ATOM     10  C   LIG d   1      -1.597  91.523 119.532  0.00  0.00     0.006 C 
ENDBRANCH   8   9
BRANCH   8  11
ATOM     11  C   LIG d   1      -2.115  94.640 118.126  0.00  0.00     0.028 C 
ATOM     12  C   LIG d   1      -0.793  94.544 117.347  0.00  0.00     0.006 C 
ENDBRANCH   8  11
ENDBRANCH   7   8
ENDBRANCH   1   7
BRANCH   6  13
ATOM     13  N   LIG d   1      -5.652  95.190 120.279  0.00  0.00    -0.311 N 
ATOM     14  C   LIG d   1      -5.438  96.505 120.302  0.00  0.00     0.210 C 
ATOM     15  C   LIG d   1      -5.448  97.137 121.697  0.00  0.00     0.109 C 
ATOM     16  O   LIG d   1      -5.272  97.212 119.296  0.00  0.00    -0.276 OA
ATOM     17  H   LIG d   1      -5.809  94.701 121.138  0.00  0.00     0.149 HD
ENDBRANCH   6  13
BRANCH   5  18
ATOM     18  N   LIG d   1      -7.696  95.488 118.028  0.00  0.00     0.381 N 
ATOM     19  H   LIG d   1      -7.409  96.222 118.644  0.00  0.00    -0.090 HD
ATOM     20  H   LIG d   1      -8.696  95.404 118.083  0.00  0.00    -0.090 HD
ATOM     21  H   LIG d   1      -7.424  95.702 117.094  0.00  0.00    -0.090 HD
ENDBRANCH   5  18
BRANCH   3  22
ATOM     22  C   LIG d   1      -6.715  90.980 116.740  0.00  0.00     0.382 C 
ATOM     23  O   LIG d   1      -7.919  90.809 116.430  0.00  0.00    -0.241 OA
ATOM     24  O   LIG d   1      -5.873  90.116 116.430  0.00  0.00    -0.241 OA
ENDBRANCH   3  22
TORSDOF 7
ENDMDL
MODEL 3
REMARK VINA RESULT:      -4.5      2.177      3.568
REMARK  7 active torsions:
REMARK  status: ('A' for Active; 'I' for Inactive)
REMARK    1  A    between atoms: C_2  and  C_3 
REMARK    2  A    between atoms: C_3  and  O_6 
REMARK    3  A    between atoms: C_3  and  C_4 
REMARK    4  A    between atoms: C_7  and  O_6 
REMARK    5  A    between atoms: C_9  and  C_10 
REMARK    6  A    between atoms: N_15  and  C_14 
REMARK    7  A    between atoms: N_20  and  C_19 
REMARK       I    between atoms: C_22  and  N_20 
ROOT
ATOM      1  C   LIG d   1      -5.050  94.124 119.105  0.00  0.00     0.161 C 
ATOM      2  C   LIG d   1      -6.219  94.902 119.113  0.00  0.00     0.016 C 
ATOM      3  C   LIG d   1      -7.344  94.626 118.302  0.00  0.00     0.038 C 
ATOM      4  C   LIG d   1      -7.434  93.457 117.532  0.00  0.00     0.028 C 
ATOM      5  C   LIG d   1      -6.077  92.906 117.106  0.00  0.00    -0.047 C 
ATOM      6  C   LIG d   1      -5.172  92.781 118.354  0.00  0.00     0.091 C 
ENDROOT
BRANCH   1   7
ATOM      7  O   LIG d   1      -4.600  93.903 120.456  0.00  0.00    -0.368 OA
BRANCH   7   8
ATOM      8  C   LIG d   1      -5.038  92.671 121.080  0.00  0.00     0.119 C 
BRANCH   8   9
ATOM      9  C   LIG d   1      -6.256  93.007 121.963  0.00  0.00     0.028 C 
ATOM     10  C   LIG d   1      -7.524  92.256 121.523  0.00  0.00     0.006 C 
ENDBRANCH   8   9
BRANCH   8  11
ATOM     11  C   LIG d   1      -3.978  92.126 122.042  0.00  0.00     0.028 C 
ATOM     12  C   LIG d   1      -2.565  92.136 121.439  0.00  0.00     0.006 C 
ENDBRANCH   8  11
ENDBRANCH   7   8
ENDBRANCH   1   7
BRANCH   6  13
ATOM     13  N   LIG d   1      -3.798  92.329 118.014  0.00  0.00    -0.311 N 
ATOM     14  C   LIG d   1      -3.419  91.053 118.040  0.00  0.00     0.210 C 
ATOM     15  C   LIG d   1      -1.952  90.806 117.674  0.00  0.00     0.109 C 
ATOM     16  O   LIG d   1      -4.167  90.098 118.300  0.00  0.00    -0.276 OA
ATOM     17  H   LIG d   1      -3.135  93.035 117.761  0.00  0.00     0.149 HD
ENDBRANCH   6  13
BRANCH   5  18
ATOM     18  N   LIG d   1      -6.312  91.616 116.431  0.00  0.00     0.381 N 
ATOM     19  H   LIG d   1      -7.261  91.564 116.120  0.00  0.00    -0.090 HD
ATOM     20  H   LIG d   1      -6.153  90.872 117.087  0.00  0.00    -0.090 HD
ATOM     21  H   LIG d   1      -5.695  91.521 115.654  0.00  0.00    -0.090 HD
ENDBRANCH   5  18
BRANCH   3  22
ATOM     22  C   LIG d   1      -8.378  95.547 118.225  0.00  0.00     0.382 C 
ATOM     23  O   LIG d   1      -8.125  96.775 118.214  0.00  0.00    -0.241 OA
ATOM     24  O   LIG d   1      -9.564  95.165 118.212  0.00  0.00    -0.241 OA
ENDBRANCH   3  22
TORSDOF 7
ENDMDL
MODEL 4
REMARK VINA RESULT:      -4.5      2.758      4.547
REMARK  7 active torsions:
REMARK  status: ('A' for Active; 'I' for Inactive)
REMARK    1  A    between atoms: C_2  and  C_3 
REMARK    2  A    between atoms: C_3  and  O_6 
REMARK    3  A    between atoms: C_3  and  C_4 
REMARK    4  A    between atoms: C_7  and  O_6 
REMARK    5  A    between atoms: C_9  and  C_10 
REMARK    6  A    between atoms: N_15  and  C_14 
REMARK    7  A    between atoms: N_20  and  C_19 
REMARK       I    between atoms: C_22  and  N_20 
ROOT
ATOM      1  C   LIG d   1      -2.787  90.983 118.398  0.00  0.00     0.161 C 
ATOM      2  C   LIG d   1      -4.123  90.706 118.066  0.00  0.00     0.016 C 
ATOM      3  C   LIG d   1      -5.110  91.706 117.909  0.00  0.00     0.038 C 
ATOM      4  C   LIG d   1      -4.790  93.072 117.925  0.00  0.00     0.028 C 
ATOM      5  C   LIG d   1      -3.552  93.395 118.756  0.00  0.00    -0.047 C 
ATOM      6  C   LIG d   1      -2.394  92.473 118.310  0.00  0.00     0.091 C 
ENDROOT
BRANCH   1   7
ATOM      7  O   LIG d   1      -1.905  90.184 117.584  0.00  0.00    -0.368 OA
BRANCH   7   8
ATOM      8  C   LIG d   1      -1.626  88.848 118.069  0.00  0.00     0.119 C 
BRANCH   8   9
ATOM      9  C   LIG d   1      -1.667  88.897 119.609  0.00  0.00     0.028 C 
ATOM     10  C   LIG d   1      -2.468  87.730 120.212  0.00  0.00     0.006 C 
ENDBRANCH   8   9
BRANCH   8  11
ATOM     11  C   LIG d   1      -0.202  88.412 117.715  0.00  0.00     0.028 C 
ATOM     12  C   LIG d   1       0.853  89.469 118.081  0.00  0.00     0.006 C 
ENDBRANCH   8  11
ENDBRANCH   7   8
ENDBRANCH   1   7
BRANCH   6  13
ATOM     13  N   LIG d   1      -1.169  92.664 119.129  0.00  0.00    -0.311 N 
ATOM     14  C   LIG d   1      -0.036  93.170 118.646  0.00  0.00     0.210 C 
ATOM     15  C   LIG d   1       1.112  93.264 119.656  0.00  0.00     0.109 C 
ATOM     16  O   LIG d   1       0.118  93.581 117.486  0.00  0.00    -0.276 OA
ATOM     17  H   LIG d   1      -1.216  92.387 120.090  0.00  0.00     0.149 HD
ENDBRANCH   6  13
BRANCH   5  18
ATOM     18  N   LIG d   1      -3.254  94.828 118.573  0.00  0.00     0.381 N 
ATOM     19  H   LIG d   1      -4.100  95.359 118.622  0.00  0.00    -0.090 HD
ATOM     20  H   LIG d   1      -2.849  94.962 117.663  0.00  0.00    -0.090 HD
ATOM     21  H   LIG d   1      -2.618  95.136 119.276  0.00  0.00    -0.090 HD
ENDBRANCH   5  18
BRANCH   3  22
ATOM     22  C   LIG d   1      -6.441  91.344 117.773  0.00  0.00     0.382 C 
ATOM     23  O   LIG d   1      -7.330  91.975 118.395  0.00  0.00    -0.241 OA
ATOM     24  O   LIG d   1      -6.761  90.365 117.071  0.00  0.00    -0.241 OA
ENDBRANCH   3  22
TORSDOF 7
ENDMDL
MODEL 5
REMARK VINA RESULT:      -4.4      2.489      4.390
REMARK  7 active torsions:
REMARK  status: ('A' for Active; 'I' for Inactive)
REMARK    1  A    between atoms: C_2  and  C_3 
REMARK    2  A    between atoms: C_3  and  O_6 
REMARK    3  A    between atoms: C_3  and  C_4 
REMARK    4  A    between atoms: C_7  and  O_6 
REMARK    5  A    between atoms: C_9  and  C_10 
REMARK    6  A    between atoms: N_15  and  C_14 
REMARK    7  A    between atoms: N_20  and  C_19 
REMARK       I    between atoms: C_22  and  N_20 
ROOT
ATOM      1  C   LIG d   1      -3.596  92.630 118.499  0.00  0.00     0.161 C 
ATOM      2  C   LIG d   1      -4.396  91.766 117.733  0.00  0.00     0.016 C 
ATOM      3  C   LIG d   1      -5.729  92.061 117.367  0.00  0.00     0.038 C 
ATOM      4  C   LIG d   1      -6.306  93.316 117.615  0.00  0.00     0.028 C 
ATOM      5  C   LIG d   1      -5.710  94.028 118.824  0.00  0.00    -0.047 C 
ATOM      6  C   LIG d   1      -4.170  94.050 118.684  0.00  0.00     0.091 C 
ENDROOT
BRANCH   1   7
ATOM      7  O   LIG d   1      -2.270  92.695 117.936  0.00  0.00    -0.368 OA
BRANCH   7   8
ATOM      8  C   LIG d   1      -1.227  92.023 118.684  0.00  0.00     0.119 C 
BRANCH   8   9
ATOM      9  C   LIG d   1      -0.151  93.073 119.024  0.00  0.00     0.028 C 
ATOM     10  C   LIG d   1       0.063  94.084 117.884  0.00  0.00     0.006 C 
ENDBRANCH   8   9
BRANCH   8  11
ATOM     11  C   LIG d   1      -0.513  90.975 117.825  0.00  0.00     0.028 C 
ATOM     12  C   LIG d   1      -1.238  89.620 117.812  0.00  0.00     0.006 C 
ENDBRANCH   8  11
ENDBRANCH   7   8
ENDBRANCH   1   7
BRANCH   6  13
ATOM     13  N   LIG d   1      -3.502  94.655 119.866  0.00  0.00    -0.311 N 
ATOM     14  C   LIG d   1      -2.714  95.726 119.795  0.00  0.00     0.210 C 
ATOM     15  C   LIG d   1      -2.109  96.174 121.129  0.00  0.00     0.109 C 
ATOM     16  O   LIG d   1      -2.483  96.366 118.758  0.00  0.00    -0.276 OA
ATOM     17  H   LIG d   1      -3.660  94.217 120.753  0.00  0.00     0.149 HD
ENDBRANCH   6  13
BRANCH   5  18
ATOM     18  N   LIG d   1      -6.304  95.377 118.884  0.00  0.00     0.381 N 
ATOM     19  H   LIG d   1      -6.106  95.795 119.772  0.00  0.00    -0.090 HD
ATOM     20  H   LIG d   1      -7.301  95.298 118.789  0.00  0.00    -0.090 HD
ATOM     21  H   LIG d   1      -5.937  95.945 118.153  0.00  0.00    -0.090 HD
ENDBRANCH   5  18
BRANCH   3  22
ATOM     22  C   LIG d   1      -6.514  91.080 116.779  0.00  0.00     0.382 C 
ATOM     23  O   LIG d   1      -7.746  91.266 116.635  0.00  0.00    -0.241 OA
ATOM     24  O   LIG d   1      -6.012  89.995 116.431  0.00  0.00    -0.241 OA
ENDBRANCH   3  22
TORSDOF 7
ENDMDL
MODEL 6
REMARK VINA RESULT:      -4.3      3.978      6.362
REMARK  7 active torsions:
REMARK  status: ('A' for Active; 'I' for Inactive)
REMARK    1  A    between atoms: C_2  and  C_3 
REMARK    2  A    between atoms: C_3  and  O_6 
REMARK    3  A    between atoms: C_3  and  C_4 
REMARK    4  A    between atoms: C_7  and  O_6 
REMARK    5  A    between atoms: C_9  and  C_10 
REMARK    6  A    between atoms: N_15  and  C_14 
REMARK    7  A    between atoms: N_20  and  C_19 
REMARK       I    between atoms: C_22  and  N_20 
ROOT
ATOM      1  C   LIG d   1      -0.624  91.084 117.956  0.00  0.00     0.161 C 
ATOM      2  C   LIG d   1      -1.981  90.895 117.645  0.00  0.00     0.016 C 
ATOM      3  C   LIG d   1      -2.943  91.929 117.703  0.00  0.00     0.038 C 
ATOM      4  C   LIG d   1      -2.583  93.266 117.932  0.00  0.00     0.028 C 
ATOM      5  C   LIG d   1      -1.303  93.417 118.746  0.00  0.00    -0.047 C 
ATOM      6  C   LIG d   1      -0.192  92.558 118.099  0.00  0.00     0.091 C 
ENDROOT
BRANCH   1   7
ATOM      7  O   LIG d   1       0.198  90.414 116.980  0.00  0.00    -0.368 OA
BRANCH   7   8
ATOM      8  C   LIG d   1       1.107  89.409 117.494  0.00  0.00     0.119 C 
BRANCH   8   9
ATOM      9  C   LIG d   1       2.370  89.432 116.612  0.00  0.00     0.028 C 
ATOM     10  C   LIG d   1       3.665  89.450 117.441  0.00  0.00     0.006 C 
ENDBRANCH   8   9
BRANCH   8  11
ATOM     11  C   LIG d   1       0.527  88.000 117.336  0.00  0.00     0.028 C 
ATOM     12  C   LIG d   1      -0.057  87.446 118.645  0.00  0.00     0.006 C 
ENDBRANCH   8  11
ENDBRANCH   7   8
ENDBRANCH   1   7
BRANCH   6  13
ATOM     13  N   LIG d   1       1.071  92.583 118.882  0.00  0.00    -0.311 N 
ATOM     14  C   LIG d   1       2.269  92.785 118.334  0.00  0.00     0.210 C 
ATOM     15  C   LIG d   1       3.443  92.752 119.317  0.00  0.00     0.109 C 
ATOM     16  O   LIG d   1       2.466  93.022 117.133  0.00  0.00    -0.276 OA
ATOM     17  H   LIG d   1       1.000  92.431 119.869  0.00  0.00     0.149 HD
ENDBRANCH   6  13
BRANCH   5  18
ATOM     18  N   LIG d   1      -0.970  94.853 118.792  0.00  0.00     0.381 N 
ATOM     19  H   LIG d   1      -0.244  95.054 118.133  0.00  0.00    -0.090 HD
ATOM     20  H   LIG d   1      -0.634  95.080 119.711  0.00  0.00    -0.090 HD
ATOM     21  H   LIG d   1      -1.779  95.397 118.582  0.00  0.00    -0.090 HD
ENDBRANCH   5  18
BRANCH   3  22
ATOM     22  C   LIG d   1      -4.289  91.624 117.571  0.00  0.00     0.382 C 
ATOM     23  O   LIG d   1      -5.006  92.280 116.777  0.00  0.00    -0.241 OA
ATOM     24  O   LIG d   1      -4.806  90.729 118.268  0.00  0.00    -0.241 OA
ENDBRANCH   3  22
TORSDOF 7
ENDMDL
MODEL 7
REMARK VINA RESULT:      -4.3      2.373      6.136
REMARK  7 active torsions:
REMARK  status: ('A' for Active; 'I' for Inactive)
REMARK    1  A    between atoms: C_2  and  C_3 
REMARK    2  A    between atoms: C_3  and  O_6 
REMARK    3  A    between atoms: C_3  and  C_4 
REMARK    4  A    between atoms: C_7  and  O_6 
REMARK    5  A    between atoms: C_9  and  C_10 
REMARK    6  A    between atoms: N_15  and  C_14 
REMARK    7  A    between atoms: N_20  and  C_19 
REMARK       I    between atoms: C_22  and  N_20 
ROOT
ATOM      1  C   LIG d   1      -4.297  93.267 119.359  0.00  0.00     0.161 C 
ATOM      2  C   LIG d   1      -3.384  92.269 118.981  0.00  0.00     0.016 C 
ATOM      3  C   LIG d   1      -3.758  91.095 118.287  0.00  0.00     0.038 C 
ATOM      4  C   LIG d   1      -5.057  90.910 117.789  0.00  0.00     0.028 C 
ATOM      5  C   LIG d   1      -6.122  91.656 118.584  0.00  0.00    -0.047 C 
ATOM      6  C   LIG d   1      -5.698  93.136 118.727  0.00  0.00     0.091 C 
ENDROOT
BRANCH   1   7
ATOM      7  O   LIG d   1      -3.741  94.568 119.081  0.00  0.00    -0.368 OA
BRANCH   7   8
ATOM      8  C   LIG d   1      -2.324  94.724 119.338  0.00  0.00     0.119 C 
BRANCH   8   9
ATOM      9  C   LIG d   1      -2.175  95.659 120.554  0.00  0.00     0.028 C 
ATOM     10  C   LIG d   1      -0.768  96.271 120.654  0.00  0.00     0.006 C 
ENDBRANCH   8   9
BRANCH   8  11
ATOM     11  C   LIG d   1      -1.624  95.446 118.183  0.00  0.00     0.028 C 
ATOM     12  C   LIG d   1      -0.751  94.507 117.335  0.00  0.00     0.006 C 
ENDBRANCH   8  11
ENDBRANCH   7   8
ENDBRANCH   1   7
BRANCH   6  13
ATOM     13  N   LIG d   1      -6.644  93.918 119.564  0.00  0.00    -0.311 N 
ATOM     14  C   LIG d   1      -7.718  94.536 119.075  0.00  0.00     0.210 C 
ATOM     15  C   LIG d   1      -8.549  95.304 120.107  0.00  0.00     0.109 C 
ATOM     16  O   LIG d   1      -8.079  94.494 117.889  0.00  0.00    -0.276 OA
ATOM     17  H   LIG d   1      -6.444  93.979 120.543  0.00  0.00     0.149 HD
ENDBRANCH   6  13
BRANCH   5  18
ATOM     18  N   LIG d   1      -7.406  91.488 117.877  0.00  0.00     0.381 N 
ATOM     19  H   LIG d   1      -8.045  92.205 118.159  0.00  0.00    -0.090 HD
ATOM     20  H   LIG d   1      -7.800  90.598 118.125  0.00  0.00    -0.090 HD
ATOM     21  H   LIG d   1      -7.260  91.533 116.892  0.00  0.00    -0.090 HD
ENDBRANCH   5  18
BRANCH   3  22
ATOM     22  C   LIG d   1      -2.837  90.072 118.121  0.00  0.00     0.382 C 
ATOM     23  O   LIG d   1      -3.176  88.883 118.334  0.00  0.00    -0.241 OA
ATOM     24  O   LIG d   1      -1.660  90.327 117.803  0.00  0.00    -0.241 OA
ENDBRANCH   3  22
TORSDOF 7
ENDMDL
MODEL 8
REMARK VINA RESULT:      -4.3      2.542      4.767
REMARK  7 active torsions:
REMARK  status: ('A' for Active; 'I' for Inactive)
REMARK    1  A    between atoms: C_2  and  C_3 
REMARK    2  A    between atoms: C_3  and  O_6 
REMARK    3  A    between atoms: C_3  and  C_4 
REMARK    4  A    between atoms: C_7  and  O_6 
REMARK    5  A    between atoms: C_9  and  C_10 
REMARK    6  A    between atoms: N_15  and  C_14 
REMARK    7  A    between atoms: N_20  and  C_19 
REMARK       I    between atoms: C_22  and  N_20 
ROOT
ATOM      1  C   LIG d   1      -3.388  93.077 118.434  0.00  0.00     0.161 C 
ATOM      2  C   LIG d   1      -4.620  93.744 118.543  0.00  0.00     0.016 C 
ATOM      3  C   LIG d   1      -5.826  93.244 118.000  0.00  0.00     0.038 C 
ATOM      4  C   LIG d   1      -5.910  91.961 117.438  0.00  0.00     0.028 C 
ATOM      5  C   LIG d   1      -4.590  91.466 116.857  0.00  0.00    -0.047 C 
ATOM      6  C   LIG d   1      -3.482  91.625 117.922  0.00  0.00     0.091 C 
ENDROOT
BRANCH   1   7
ATOM      7  O   LIG d   1      -2.697  93.120 119.698  0.00  0.00    -0.368 OA
BRANCH   7   8
ATOM      8  C   LIG d   1      -1.585  94.045 119.786  0.00  0.00     0.119 C 
BRANCH   8   9
ATOM      9  C   LIG d   1      -1.294  94.555 118.361  0.00  0.00     0.028 C 
ATOM     10  C   LIG d   1       0.127  94.202 117.890  0.00  0.00     0.006 C 
ENDBRANCH   8   9
BRANCH   8  11
ATOM     11  C   LIG d   1      -0.303  93.335 120.232  0.00  0.00     0.028 C 
ATOM     12  C   LIG d   1       0.157  93.762 121.635  0.00  0.00     0.006 C 
ENDBRANCH   8  11
ENDBRANCH   7   8
ENDBRANCH   1   7
BRANCH   6  13
ATOM     13  N   LIG d   1      -2.141  91.243 117.406  0.00  0.00    -0.311 N 
ATOM     14  C   LIG d   1      -1.293  90.463 118.075  0.00  0.00     0.210 C 
ATOM     15  C   LIG d   1       0.044  90.209 117.372  0.00  0.00     0.109 C 
ATOM     16  O   LIG d   1      -1.535  89.932 119.170  0.00  0.00    -0.276 OA
ATOM     17  H   LIG d   1      -1.877  91.605 116.511  0.00  0.00     0.149 HD
ENDBRANCH   6  13
BRANCH   5  18
ATOM     18  N   LIG d   1      -4.787  90.068 116.430  0.00  0.00     0.381 N 
ATOM     19  H   LIG d   1      -5.720  89.945 116.091  0.00  0.00    -0.090 HD
ATOM     20  H   LIG d   1      -4.658  89.465 117.224  0.00  0.00    -0.090 HD
ATOM     21  H   LIG d   1      -4.133  89.834 115.716  0.00  0.00    -0.090 HD
ENDBRANCH   5  18
BRANCH   3  22
ATOM     22  C   LIG d   1      -6.956  94.047 117.980  0.00  0.00     0.382 C 
ATOM     23  O   LIG d   1      -6.992  95.095 118.669  0.00  0.00    -0.241 OA
ATOM     24  O   LIG d   1      -7.957  93.713 117.318  0.00  0.00    -0.241 OA
ENDBRANCH   3  22
TORSDOF 7
ENDMDL
MODEL 9
REMARK VINA RESULT:      -4.3      2.006      3.955
REMARK  7 active torsions:
REMARK  status: ('A' for Active; 'I' for Inactive)
REMARK    1  A    between atoms: C_2  and  C_3 
REMARK    2  A    between atoms: C_3  and  O_6 
REMARK    3  A    between atoms: C_3  and  C_4 
REMARK    4  A    between atoms: C_7  and  O_6 
REMARK    5  A    between atoms: C_9  and  C_10 
REMARK    6  A    between atoms: N_15  and  C_14 
REMARK    7  A    between atoms: N_20  and  C_19 
REMARK       I    between atoms: C_22  and  N_20 
ROOT
ATOM      1  C   LIG d   1      -5.029  94.165 119.088  0.00  0.00     0.161 C 
ATOM      2  C   LIG d   1      -6.202  94.938 119.112  0.00  0.00     0.016 C 
ATOM      3  C   LIG d   1      -7.347  94.639 118.338  0.00  0.00     0.038 C 
ATOM      4  C   LIG d   1      -7.451  93.453 117.596  0.00  0.00     0.028 C 
ATOM      5  C   LIG d   1      -6.103  92.900 117.145  0.00  0.00    -0.047 C 
ATOM      6  C   LIG d   1      -5.165  92.806 118.370  0.00  0.00     0.091 C 
ENDROOT
BRANCH   1   7
ATOM      7  O   LIG d   1      -4.542  93.976 120.431  0.00  0.00    -0.368 OA
BRANCH   7   8
ATOM      8  C   LIG d   1      -3.376  94.752 120.802  0.00  0.00     0.119 C 
BRANCH   8   9
ATOM      9  C   LIG d   1      -2.807  95.377 119.513  0.00  0.00     0.028 C 
ATOM     10  C   LIG d   1      -2.618  96.899 119.633  0.00  0.00     0.006 C 
ENDBRANCH   8   9
BRANCH   8  11
ATOM     11  C   LIG d   1      -2.259  93.856 121.345  0.00  0.00     0.028 C 
ATOM     12  C   LIG d   1      -1.213  93.495 120.278  0.00  0.00     0.006 C 
ENDBRANCH   8  11
ENDBRANCH   7   8
ENDBRANCH   1   7
BRANCH   6  13
ATOM     13  N   LIG d   1      -3.797  92.354 118.003  0.00  0.00    -0.311 N 
ATOM     14  C   LIG d   1      -3.404  91.083 118.070  0.00  0.00     0.210 C 
ATOM     15  C   LIG d   1      -1.947  90.836 117.665  0.00  0.00     0.109 C 
ATOM     16  O   LIG d   1      -4.132  90.133 118.394  0.00  0.00    -0.276 OA
ATOM     17  H   LIG d   1      -3.151  93.055 117.699  0.00  0.00     0.149 HD
ENDBRANCH   6  13
BRANCH   5  18
ATOM     18  N   LIG d   1      -6.349  91.594 116.504  0.00  0.00     0.381 N 
ATOM     19  H   LIG d   1      -5.639  90.944 116.777  0.00  0.00    -0.090 HD
ATOM     20  H   LIG d   1      -6.306  91.709 115.507  0.00  0.00    -0.090 HD
ATOM     21  H   LIG d   1      -7.245  91.248 116.768  0.00  0.00    -0.090 HD
ENDBRANCH   5  18
BRANCH   3  22
ATOM     22  C   LIG d   1      -8.388  95.553 118.269  0.00  0.00     0.382 C 
ATOM     23  O   LIG d   1      -9.576  95.150 118.278  0.00  0.00    -0.241 OA
ATOM     24  O   LIG d   1      -8.153  96.770 118.154  0.00  0.00    -0.241 OA
ENDBRANCH   3  22
TORSDOF 7
ENDMDL
