MODEL 1
REMARK VINA RESULT:      -4.7      0.000      0.000
REMARK  7 active torsions:
REMARK  status: ('A' for Active; 'I' for Inactive)
REMARK    1  A    between atoms: C_2  and  C_3 
REMARK    2  A    between atoms: C_3  and  O_6 
REMARK    3  A    between atoms: C_3  and  C_4 
REMARK    4  A    between atoms: C_7  and  O_6 
REMARK    5  A    between atoms: C_9  and  C_10 
REMARK    6  A    between atoms: N_15  and  C_14 
REMARK    7  A    between atoms: N_20  and  C_19 
REMARK       I    between atoms: C_22  and  N_20 
ROOT
ATOM      1  C   LIG d   1      -4.743  92.253 119.996  0.00  0.00     0.161 C 
ATOM      2  C   LIG d   1      -6.132  92.445 120.091  0.00  0.00     0.016 C 
ATOM      3  C   LIG d   1      -6.760  93.696 119.890  0.00  0.00     0.038 C 
ATOM      4  C   LIG d   1      -6.052  94.815 119.428  0.00  0.00     0.028 C 
ATOM      5  C   LIG d   1      -4.575  94.796 119.805  0.00  0.00    -0.047 C 
ATOM      6  C   LIG d   1      -3.967  93.438 119.384  0.00  0.00     0.091 C 
ENDROOT
BRANCH   1   7
ATOM      7  O   LIG d   1      -4.467  91.042 119.265  0.00  0.00    -0.368 OA
BRANCH   7   8
ATOM      8  C   LIG d   1      -4.154  91.203 117.859  0.00  0.00     0.119 C 
BRANCH   8   9
ATOM      9  C   LIG d   1      -5.398  90.775 117.057  0.00  0.00     0.028 C 
ATOM     10  C   LIG d   1      -6.133  91.972 116.430  0.00  0.00     0.006 C 
ENDBRANCH   8   9
BRANCH   8  11
ATOM     11  C   LIG d   1      -3.041  90.247 117.423  0.00  0.00     0.028 C 
ATOM     12  C   LIG d   1      -2.366  89.537 118.607  0.00  0.00     0.006 C 
ENDBRANCH   8  11
ENDBRANCH   7   8
ENDBRANCH   1   7
BRANCH   6  13
ATOM     13  N   LIG d   1      -2.545  93.303 119.793  0.00  0.00    -0.311 N 
ATOM     14  C   LIG d   1      -1.527  93.369 118.936  0.00  0.00     0.210 C 
ATOM     15  C   LIG d   1      -0.141  93.184 119.563  0.00  0.00     0.109 C 
ATOM     16  O   LIG d   1      -1.637  93.596 117.722  0.00  0.00    -0.276 OA
ATOM     17  H   LIG d   1      -2.362  93.148 120.765  0.00  0.00     0.149 HD
ENDBRANCH   6  13
BRANCH   5  18
ATOM     18  N   LIG d   1      -3.931  95.947 119.145  0.00  0.00     0.381 N 
ATOM     19  H   LIG d   1      -3.467  95.644 118.312  0.00  0.00    -0.090 HD
ATOM     20  H   LIG d   1      -3.243  96.335 119.766  0.00  0.00    -0.090 HD
ATOM     21  H   LIG d   1      -4.614  96.637 118.921  0.00  0.00    -0.090 HD
ENDBRANCH   5  18
BRANCH   3  22
ATOM     22  C   LIG d   1      -8.106  93.845 120.190  0.00  0.00     0.382 C 
ATOM     23  O   LIG d   1      -8.547  94.962 120.552  0.00  0.00    -0.241 OA
ATOM     24  O   LIG d   1      -8.875  92.867 120.146  0.00  0.00    -0.241 OA
ENDBRANCH   3  22
TORSDOF 7
ENDMDL
MODEL 2
REMARK VINA RESULT:      -4.6      2.281      5.769
REMARK  7 active torsions:
REMARK  status: ('A' for Active; 'I' for Inactive)
REMARK    1  A    between atoms: C_2  and  C_3 
REMARK    2  A    between atoms: C_3  and  O_6 
REMARK    3  A    between atoms: C_3  and  C_4 
REMARK    4  A    between atoms: C_7  and  O_6 
REMARK    5  A    between atoms: C_9  and  C_10 
REMARK    6  A    between atoms: N_15  and  C_14 
REMARK    7  A    between atoms: N_20  and  C_19 
REMARK       I    between atoms: C_22  and  N_20 
ROOT
ATOM      1  C   LIG d   1      -4.067  92.143 119.542  0.00  0.00     0.161 C 
ATOM      2  C   LIG d   1      -3.020  91.489 118.871  0.00  0.00     0.016 C 
ATOM      3  C   LIG d   1      -3.160  90.909 117.590  0.00  0.00     0.038 C 
ATOM      4  C   LIG d   1      -4.322  91.077 116.822  0.00  0.00     0.028 C 
ATOM      5  C   LIG d   1      -5.576  91.295 117.662  0.00  0.00    -0.047 C 
ATOM      6  C   LIG d   1      -5.309  92.433 118.674  0.00  0.00     0.091 C 
ENDROOT
BRANCH   1   7
ATOM      7  O   LIG d   1      -3.579  93.360 120.140  0.00  0.00    -0.368 OA
BRANCH   7   8
ATOM      8  C   LIG d   1      -3.534  94.522 119.276  0.00  0.00     0.119 C 
BRANCH   8   9
ATOM      9  C   LIG d   1      -2.053  94.907 119.095  0.00  0.00     0.028 C 
ATOM     10  C   LIG d   1      -1.577  94.742 117.642  0.00  0.00     0.006 C 
ENDBRANCH   8   9
BRANCH   8  11
ATOM     11  C   LIG d   1      -4.190  95.736 119.940  0.00  0.00     0.028 C 
ATOM     12  C   LIG d   1      -4.756  95.420 121.334  0.00  0.00     0.006 C 
ENDBRANCH   8  11
ENDBRANCH   7   8
ENDBRANCH   1   7
BRANCH   6  13
ATOM     13  N   LIG d   1      -6.457  92.655 119.592  0.00  0.00    -0.311 N 
ATOM     14  C   LIG d   1      -7.395  93.577 119.383  0.00  0.00     0.210 C 
ATOM     15  C   LIG d   1      -8.479  93.653 120.463  0.00  0.00     0.109 C 
ATOM     16  O   LIG d   1      -7.450  94.318 118.390  0.00  0.00    -0.276 OA
ATOM     17  H   LIG d   1      -6.508  92.076 120.408  0.00  0.00     0.149 HD
ENDBRANCH   6  13
BRANCH   5  18
ATOM     18  N   LIG d   1      -6.686  91.593 116.737  0.00  0.00     0.381 N 
ATOM     19  H   LIG d   1      -6.890  92.572 116.757  0.00  0.00    -0.090 HD
ATOM     20  H   LIG d   1      -7.504  91.094 117.040  0.00  0.00    -0.090 HD
ATOM     21  H   LIG d   1      -6.442  91.315 115.812  0.00  0.00    -0.090 HD
ENDBRANCH   5  18
BRANCH   3  22
ATOM     22  C   LIG d   1      -2.142  90.116 117.079  0.00  0.00     0.382 C 
ATOM     23  O   LIG d   1      -2.340  88.894 116.880  0.00  0.00    -0.241 OA
ATOM     24  O   LIG d   1      -1.016  90.600 116.858  0.00  0.00    -0.241 OA
ENDBRANCH   3  22
TORSDOF 7
ENDMDL
MODEL 3
REMARK VINA RESULT:      -4.6      2.221      4.799
REMARK  7 active torsions:
REMARK  status: ('A' for Active; 'I' for Inactive)
REMARK    1  A    between atoms: C_2  and  C_3 
REMARK    2  A    between atoms: C_3  and  O_6 
REMARK    3  A    between atoms: C_3  and  C_4 
REMARK    4  A    between atoms: C_7  and  O_6 
REMARK    5  A    between atoms: C_9  and  C_10 
REMARK    6  A    between atoms: N_15  and  C_14 
REMARK    7  A    between atoms: N_20  and  C_19 
REMARK       I    between atoms: C_22  and  N_20 
ROOT
ATOM      1  C   LIG d   1      -3.888  92.837 119.413  0.00  0.00     0.161 C 
ATOM      2  C   LIG d   1      -3.822  91.777 118.493  0.00  0.00     0.016 C 
ATOM      3  C   LIG d   1      -4.821  91.523 117.525  0.00  0.00     0.038 C 
ATOM      4  C   LIG d   1      -5.888  92.408 117.312  0.00  0.00     0.028 C 
ATOM      5  C   LIG d   1      -6.263  93.214 118.551  0.00  0.00    -0.047 C 
ATOM      6  C   LIG d   1      -4.989  93.877 119.123  0.00  0.00     0.091 C 
ENDROOT
BRANCH   1   7
ATOM      7  O   LIG d   1      -2.602  93.481 119.509  0.00  0.00    -0.368 OA
BRANCH   7   8
ATOM      8  C   LIG d   1      -1.701  93.276 118.393  0.00  0.00     0.119 C 
BRANCH   8   9
ATOM      9  C   LIG d   1      -0.294  93.035 118.972  0.00  0.00     0.028 C 
ATOM     10  C   LIG d   1       0.041  91.539 119.097  0.00  0.00     0.006 C 
ENDBRANCH   8   9
BRANCH   8  11
ATOM     11  C   LIG d   1      -1.577  94.540 117.537  0.00  0.00     0.028 C 
ATOM     12  C   LIG d   1      -1.885  95.824 118.324  0.00  0.00     0.006 C 
ENDBRANCH   8  11
ENDBRANCH   7   8
ENDBRANCH   1   7
BRANCH   6  13
ATOM     13  N   LIG d   1      -5.253  94.617 120.384  0.00  0.00    -0.311 N 
ATOM     14  C   LIG d   1      -5.460  95.932 120.434  0.00  0.00     0.210 C 
ATOM     15  C   LIG d   1      -5.693  96.497 121.838  0.00  0.00     0.109 C 
ATOM     16  O   LIG d   1      -5.505  96.678 119.444  0.00  0.00    -0.276 OA
ATOM     17  H   LIG d   1      -5.265  94.084 121.232  0.00  0.00     0.149 HD
ENDBRANCH   6  13
BRANCH   5  18
ATOM     18  N   LIG d   1      -7.294  94.191 118.152  0.00  0.00     0.381 N 
ATOM     19  H   LIG d   1      -8.199  93.767 118.200  0.00  0.00    -0.090 HD
ATOM     20  H   LIG d   1      -7.127  94.469 117.201  0.00  0.00    -0.090 HD
ATOM     21  H   LIG d   1      -7.259  94.987 118.749  0.00  0.00    -0.090 HD
ENDBRANCH   5  18
BRANCH   3  22
ATOM     22  C   LIG d   1      -4.779  90.351 116.785  0.00  0.00     0.382 C 
ATOM     23  O   LIG d   1      -3.675  89.873 116.430  0.00  0.00    -0.241 OA
ATOM     24  O   LIG d   1      -5.833  89.790 116.431  0.00  0.00    -0.241 OA
ENDBRANCH   3  22
TORSDOF 7
ENDMDL
MODEL 4
REMARK VINA RESULT:      -4.6      2.773      4.629
REMARK  7 active torsions:
REMARK  status: ('A' for Active; 'I' for Inactive)
REMARK    1  A    between atoms: C_2  and  C_3 
REMARK    2  A    between atoms: C_3  and  O_6 
REMARK    3  A    between atoms: C_3  and  C_4 
REMARK    4  A    between atoms: C_7  and  O_6 
REMARK    5  A    between atoms: C_9  and  C_10 
REMARK    6  A    between atoms: N_15  and  C_14 
REMARK    7  A    between atoms: N_20  and  C_19 
REMARK       I    between atoms: C_22  and  N_20 
ROOT
ATOM      1  C   LIG d   1      -2.281  92.799 117.902  0.00  0.00     0.161 C 
ATOM      2  C   LIG d   1      -3.676  92.960 117.917  0.00  0.00     0.016 C 
ATOM      3  C   LIG d   1      -4.581  91.941 117.539  0.00  0.00     0.038 C 
ATOM      4  C   LIG d   1      -4.153  90.634 117.263  0.00  0.00     0.028 C 
ATOM      5  C   LIG d   1      -2.720  90.563 116.746  0.00  0.00    -0.047 C 
ATOM      6  C   LIG d   1      -1.799  91.346 117.710  0.00  0.00     0.091 C 
ENDROOT
BRANCH   1   7
ATOM      7  O   LIG d   1      -1.711  93.361 119.100  0.00  0.00    -0.368 OA
BRANCH   7   8
ATOM      8  C   LIG d   1      -1.933  92.616 120.322  0.00  0.00     0.119 C 
BRANCH   8   9
ATOM      9  C   LIG d   1      -2.618  93.564 121.325  0.00  0.00     0.028 C 
ATOM     10  C   LIG d   1      -2.507  95.040 120.907  0.00  0.00     0.006 C 
ENDBRANCH   8   9
BRANCH   8  11
ATOM     11  C   LIG d   1      -0.608  92.217 120.980  0.00  0.00     0.028 C 
ATOM     12  C   LIG d   1       0.594  92.991 120.416  0.00  0.00     0.006 C 
ENDBRANCH   8  11
ENDBRANCH   7   8
ENDBRANCH   1   7
BRANCH   6  13
ATOM     13  N   LIG d   1      -0.393  91.397 117.233  0.00  0.00    -0.311 N 
ATOM     14  C   LIG d   1       0.553  90.556 117.647  0.00  0.00     0.210 C 
ATOM     15  C   LIG d   1       1.941  90.796 117.045  0.00  0.00     0.109 C 
ATOM     16  O   LIG d   1       0.367  89.613 118.432  0.00  0.00    -0.276 OA
ATOM     17  H   LIG d   1      -0.161  92.112 116.571  0.00  0.00     0.149 HD
ENDBRANCH   6  13
BRANCH   5  18
ATOM     18  N   LIG d   1      -2.358  89.137 116.631  0.00  0.00     0.381 N 
ATOM     19  H   LIG d   1      -3.161  88.568 116.810  0.00  0.00    -0.090 HD
ATOM     20  H   LIG d   1      -1.659  88.923 117.320  0.00  0.00    -0.090 HD
ATOM     21  H   LIG d   1      -2.005  88.948 115.719  0.00  0.00    -0.090 HD
ENDBRANCH   5  18
BRANCH   3  22
ATOM     22  C   LIG d   1      -5.928  92.237 117.397  0.00  0.00     0.382 C 
ATOM     23  O   LIG d   1      -6.575  91.765 116.430  0.00  0.00    -0.241 OA
ATOM     24  O   LIG d   1      -6.495  93.005 118.197  0.00  0.00    -0.241 OA
ENDBRANCH   3  22
TORSDOF 7
ENDMDL
MODEL 5
REMARK VINA RESULT:      -4.5      1.746      5.505
REMARK  7 active torsions:
REMARK  status: ('A' for Active; 'I' for Inactive)
REMARK    1  A    between atoms: C_2  and  C_3 
REMARK    2  A    between atoms: C_3  and  O_6 
REMARK    3  A    between atoms: C_3  and  C_4 
REMARK    4  A    between atoms: C_7  and  O_6 
REMARK    5  A    between atoms: C_9  and  C_10 
REMARK    6  A    between atoms: N_15  and  C_14 
REMARK    7  A    between atoms: N_20  and  C_19 
REMARK       I    between atoms: C_22  and  N_20 
ROOT
ATOM      1  C   LIG d   1      -2.574  93.157 117.736  0.00  0.00     0.161 C 
ATOM      2  C   LIG d   1      -1.242  92.709 117.721  0.00  0.00     0.016 C 
ATOM      3  C   LIG d   1      -0.435  92.632 118.879  0.00  0.00     0.038 C 
ATOM      4  C   LIG d   1      -0.955  92.855 120.163  0.00  0.00     0.028 C 
ATOM      5  C   LIG d   1      -2.155  93.796 120.174  0.00  0.00    -0.047 C 
ATOM      6  C   LIG d   1      -3.193  93.299 119.142  0.00  0.00     0.091 C 
ENDROOT
BRANCH   1   7
ATOM      7  O   LIG d   1      -3.387  92.296 116.915  0.00  0.00    -0.368 OA
BRANCH   7   8
ATOM      8  C   LIG d   1      -3.897  91.100 117.555  0.00  0.00     0.119 C 
BRANCH   8   9
ATOM      9  C   LIG d   1      -3.019  89.920 117.097  0.00  0.00     0.028 C 
ATOM     10  C   LIG d   1      -2.264  89.262 118.265  0.00  0.00     0.006 C 
ENDBRANCH   8   9
BRANCH   8  11
ATOM     11  C   LIG d   1      -5.311  90.767 117.068  0.00  0.00     0.028 C 
ATOM     12  C   LIG d   1      -6.057  91.994 116.519  0.00  0.00     0.006 C 
ENDBRANCH   8  11
ENDBRANCH   7   8
ENDBRANCH   1   7
BRANCH   6  13
ATOM     13  N   LIG d   1      -4.362  94.210 119.029  0.00  0.00    -0.311 N 
ATOM     14  C   LIG d   1      -5.514  94.006 119.665  0.00  0.00     0.210 C 
ATOM     15  C   LIG d   1      -6.596  95.056 119.394  0.00  0.00     0.109 C 
ATOM     16  O   LIG d   1      -5.732  93.073 120.453  0.00  0.00    -0.276 OA
ATOM     17  H   LIG d   1      -4.261  95.009 118.435  0.00  0.00     0.149 HD
ENDBRANCH   6  13
BRANCH   5  18
ATOM     18  N   LIG d   1      -2.681  93.831 121.552  0.00  0.00     0.381 N 
ATOM     19  H   LIG d   1      -1.993  94.216 122.168  0.00  0.00    -0.090 HD
ATOM     20  H   LIG d   1      -2.878  92.891 121.849  0.00  0.00    -0.090 HD
ATOM     21  H   LIG d   1      -3.512  94.379 121.586  0.00  0.00    -0.090 HD
ENDBRANCH   5  18
BRANCH   3  22
ATOM     22  C   LIG d   1       0.921  92.366 118.755  0.00  0.00     0.382 C 
ATOM     23  O   LIG d   1       1.415  92.145 117.624  0.00  0.00    -0.241 OA
ATOM     24  O   LIG d   1       1.647  92.302 119.765  0.00  0.00    -0.241 OA
ENDBRANCH   3  22
TORSDOF 7
ENDMDL
MODEL 6
REMARK VINA RESULT:      -4.4      1.360      2.172
REMARK  7 active torsions:
REMARK  status: ('A' for Active; 'I' for Inactive)
REMARK    1  A    between atoms: C_2  and  C_3 
REMARK    2  A    between atoms: C_3  and  O_6 
REMARK    3  A    between atoms: C_3  and  C_4 
REMARK    4  A    between atoms: C_7  and  O_6 
REMARK    5  A    between atoms: C_9  and  C_10 
REMARK    6  A    between atoms: N_15  and  C_14 
REMARK    7  A    between atoms: N_20  and  C_19 
REMARK       I    between atoms: C_22  and  N_20 
ROOT
ATOM      1  C   LIG d   1      -5.049  93.368 119.209  0.00  0.00     0.161 C 
ATOM      2  C   LIG d   1      -6.391  93.604 118.865  0.00  0.00     0.016 C 
ATOM      3  C   LIG d   1      -7.055  94.827 119.115  0.00  0.00     0.038 C 
ATOM      4  C   LIG d   1      -6.373  95.956 119.592  0.00  0.00     0.028 C 
ATOM      5  C   LIG d   1      -5.142  95.614 120.423  0.00  0.00    -0.047 C 
ATOM      6  C   LIG d   1      -4.259  94.625 119.629  0.00  0.00     0.091 C 
ENDROOT
BRANCH   1   7
ATOM      7  O   LIG d   1      -4.379  92.693 118.126  0.00  0.00    -0.368 OA
BRANCH   7   8
ATOM      8  C   LIG d   1      -4.220  91.260 118.269  0.00  0.00     0.119 C 
BRANCH   8   9
ATOM      9  C   LIG d   1      -2.729  90.985 118.546  0.00  0.00     0.028 C 
ATOM     10  C   LIG d   1      -2.421  89.483 118.659  0.00  0.00     0.006 C 
ENDBRANCH   8   9
BRANCH   8  11
ATOM     11  C   LIG d   1      -4.530  90.531 116.958  0.00  0.00     0.028 C 
ATOM     12  C   LIG d   1      -5.946  90.822 116.436  0.00  0.00     0.006 C 
ENDBRANCH   8  11
ENDBRANCH   7   8
ENDBRANCH   1   7
BRANCH   6  13
ATOM     13  N   LIG d   1      -3.075  94.173 120.405  0.00  0.00    -0.311 N 
ATOM     14  C   LIG d   1      -1.828  94.228 119.939  0.00  0.00     0.210 C 
ATOM     15  C   LIG d   1      -0.756  93.693 120.893  0.00  0.00     0.109 C 
ATOM     16  O   LIG d   1      -1.505  94.700 118.838  0.00  0.00    -0.276 OA
ATOM     17  H   LIG d   1      -3.243  93.805 121.320  0.00  0.00     0.149 HD
ENDBRANCH   6  13
BRANCH   5  18
ATOM     18  N   LIG d   1      -4.452  96.879 120.740  0.00  0.00     0.381 N 
ATOM     19  H   LIG d   1      -3.829  96.742 121.510  0.00  0.00    -0.090 HD
ATOM     20  H   LIG d   1      -5.136  97.565 121.006  0.00  0.00    -0.090 HD
ATOM     21  H   LIG d   1      -3.943  97.198 119.945  0.00  0.00    -0.090 HD
ENDBRANCH   5  18
BRANCH   3  22
ATOM     22  C   LIG d   1      -8.425  94.916 118.924  0.00  0.00     0.382 C 
ATOM     23  O   LIG d   1      -8.907  95.877 118.276  0.00  0.00    -0.241 OA
ATOM     24  O   LIG d   1      -9.190  94.072 119.428  0.00  0.00    -0.241 OA
ENDBRANCH   3  22
TORSDOF 7
ENDMDL
MODEL 7
REMARK VINA RESULT:      -4.3      2.408      4.647
REMARK  7 active torsions:
REMARK  status: ('A' for Active; 'I' for Inactive)
REMARK    1  A    between atoms: C_2  and  C_3 
REMARK    2  A    between atoms: C_3  and  O_6 
REMARK    3  A    between atoms: C_3  and  C_4 
REMARK    4  A    between atoms: C_7  and  O_6 
REMARK    5  A    between atoms: C_9  and  C_10 
REMARK    6  A    between atoms: N_15  and  C_14 
REMARK    7  A    between atoms: N_20  and  C_19 
REMARK       I    between atoms: C_22  and  N_20 
ROOT
ATOM      1  C   LIG d   1      -4.765  94.001 119.991  0.00  0.00     0.161 C 
ATOM      2  C   LIG d   1      -4.326  92.925 120.779  0.00  0.00     0.016 C 
ATOM      3  C   LIG d   1      -5.204  92.011 121.406  0.00  0.00     0.038 C 
ATOM      4  C   LIG d   1      -6.585  92.022 121.162  0.00  0.00     0.028 C 
ATOM      5  C   LIG d   1      -7.120  93.397 120.776  0.00  0.00    -0.047 C 
ATOM      6  C   LIG d   1      -6.263  93.964 119.622  0.00  0.00     0.091 C 
ENDROOT
BRANCH   1   7
ATOM      7  O   LIG d   1      -3.958  94.096 118.800  0.00  0.00    -0.368 OA
BRANCH   7   8
ATOM      8  C   LIG d   1      -3.308  92.874 118.372  0.00  0.00     0.119 C 
BRANCH   8   9
ATOM      9  C   LIG d   1      -1.900  93.249 117.872  0.00  0.00     0.028 C 
ATOM     10  C   LIG d   1      -1.761  94.753 117.582  0.00  0.00     0.006 C 
ENDBRANCH   8   9
BRANCH   8  11
ATOM     11  C   LIG d   1      -4.018  92.260 117.162  0.00  0.00     0.028 C 
ATOM     12  C   LIG d   1      -4.947  91.096 117.543  0.00  0.00     0.006 C 
ENDBRANCH   8  11
ENDBRANCH   7   8
ENDBRANCH   1   7
BRANCH   6  13
ATOM     13  N   LIG d   1      -6.666  95.343 119.240  0.00  0.00    -0.311 N 
ATOM     14  C   LIG d   1      -7.672  95.608 118.409  0.00  0.00     0.210 C 
ATOM     15  C   LIG d   1      -7.908  97.097 118.133  0.00  0.00     0.109 C 
ATOM     16  O   LIG d   1      -8.412  94.754 117.898  0.00  0.00    -0.276 OA
ATOM     17  H   LIG d   1      -6.139  96.098 119.633  0.00  0.00     0.149 HD
ENDBRANCH   6  13
BRANCH   5  18
ATOM     18  N   LIG d   1      -8.542  93.237 120.416  0.00  0.00     0.381 N 
ATOM     19  H   LIG d   1      -9.101  93.214 121.246  0.00  0.00    -0.090 HD
ATOM     20  H   LIG d   1      -8.658  92.364 119.933  0.00  0.00    -0.090 HD
ATOM     21  H   LIG d   1      -8.832  93.990 119.832  0.00  0.00    -0.090 HD
ENDBRANCH   5  18
BRANCH   3  22
ATOM     22  C   LIG d   1      -4.705  91.096 122.321  0.00  0.00     0.382 C 
ATOM     23  O   LIG d   1      -3.477  90.837 122.343  0.00  0.00    -0.241 OA
ATOM     24  O   LIG d   1      -5.472  90.493 123.095  0.00  0.00    -0.241 OA
ENDBRANCH   3  22
TORSDOF 7
ENDMDL
MODEL 8
REMARK VINA RESULT:      -4.3      2.380      5.974
REMARK  7 active torsions:
REMARK  status: ('A' for Active; 'I' for Inactive)
REMARK    1  A    between atoms: C_2  and  C_3 
REMARK    2  A    between atoms: C_3  and  O_6 
REMARK    3  A    between atoms: C_3  and  C_4 
REMARK    4  A    between atoms: C_7  and  O_6 
REMARK    5  A    between atoms: C_9  and  C_10 
REMARK    6  A    between atoms: N_15  and  C_14 
REMARK    7  A    between atoms: N_20  and  C_19 
REMARK       I    between atoms: C_22  and  N_20 
ROOT
ATOM      1  C   LIG d   1      -3.756  92.943 119.121  0.00  0.00     0.161 C 
ATOM      2  C   LIG d   1      -2.538  92.548 118.542  0.00  0.00     0.016 C 
ATOM      3  C   LIG d   1      -2.437  91.541 117.555  0.00  0.00     0.038 C 
ATOM      4  C   LIG d   1      -3.572  90.961 116.968  0.00  0.00     0.028 C 
ATOM      5  C   LIG d   1      -4.795  90.968 117.878  0.00  0.00    -0.047 C 
ATOM      6  C   LIG d   1      -5.015  92.401 118.414  0.00  0.00     0.091 C 
ENDROOT
BRANCH   1   7
ATOM      7  O   LIG d   1      -3.811  94.381 119.210  0.00  0.00    -0.368 OA
BRANCH   7   8
ATOM      8  C   LIG d   1      -3.289  94.965 120.429  0.00  0.00     0.119 C 
BRANCH   8   9
ATOM      9  C   LIG d   1      -4.493  95.390 121.291  0.00  0.00     0.028 C 
ATOM     10  C   LIG d   1      -5.434  96.354 120.550  0.00  0.00     0.006 C 
ENDBRANCH   8   9
BRANCH   8  11
ATOM     11  C   LIG d   1      -2.519  96.258 120.142  0.00  0.00     0.028 C 
ATOM     12  C   LIG d   1      -2.061  96.367 118.679  0.00  0.00     0.006 C 
ENDBRANCH   8  11
ENDBRANCH   7   8
ENDBRANCH   1   7
BRANCH   6  13
ATOM     13  N   LIG d   1      -6.142  92.479 119.379  0.00  0.00    -0.311 N 
ATOM     14  C   LIG d   1      -7.140  93.355 119.272  0.00  0.00     0.210 C 
ATOM     15  C   LIG d   1      -8.189  93.278 120.386  0.00  0.00     0.109 C 
ATOM     16  O   LIG d   1      -7.272  94.166 118.344  0.00  0.00    -0.276 OA
ATOM     17  H   LIG d   1      -6.131  91.836 120.147  0.00  0.00     0.149 HD
ENDBRANCH   6  13
BRANCH   5  18
ATOM     18  N   LIG d   1      -5.937  90.462 117.094  0.00  0.00     0.381 N 
ATOM     19  H   LIG d   1      -6.562  91.214 116.882  0.00  0.00    -0.090 HD
ATOM     20  H   LIG d   1      -6.435  89.784 117.644  0.00  0.00    -0.090 HD
ATOM     21  H   LIG d   1      -5.613  90.042 116.250  0.00  0.00    -0.090 HD
ENDBRANCH   5  18
BRANCH   3  22
ATOM     22  C   LIG d   1      -1.188  91.075 117.175  0.00  0.00     0.382 C 
ATOM     23  O   LIG d   1      -0.237  91.879 117.028  0.00  0.00    -0.241 OA
ATOM     24  O   LIG d   1      -1.012  89.865 116.933  0.00  0.00    -0.241 OA
ENDBRANCH   3  22
TORSDOF 7
ENDMDL
MODEL 9
REMARK VINA RESULT:      -4.1      3.054      4.612
REMARK  7 active torsions:
REMARK  status: ('A' for Active; 'I' for Inactive)
REMARK    1  A    between atoms: C_2  and  C_3 
REMARK    2  A    between atoms: C_3  and  O_6 
REMARK    3  A    between atoms: C_3  and  C_4 
REMARK    4  A    between atoms: C_7  and  O_6 
REMARK    5  A    between atoms: C_9  and  C_10 
REMARK    6  A    between atoms: N_15  and  C_14 
REMARK    7  A    between atoms: N_20  and  C_19 
REMARK       I    between atoms: C_22  and  N_20 
ROOT
ATOM      1  C   LIG d   1      -2.644  92.098 119.025  0.00  0.00     0.161 C 
ATOM      2  C   LIG d   1      -3.949  91.893 118.546  0.00  0.00     0.016 C 
ATOM      3  C   LIG d   1      -4.266  90.973 117.520  0.00  0.00     0.038 C 
ATOM      4  C   LIG d   1      -3.314  90.080 117.005  0.00  0.00     0.028 C 
ATOM      5  C   LIG d   1      -1.883  90.598 117.102  0.00  0.00    -0.047 C 
ATOM      6  C   LIG d   1      -1.611  91.053 118.554  0.00  0.00     0.091 C 
ENDROOT
BRANCH   1   7
ATOM      7  O   LIG d   1      -2.659  92.173 120.464  0.00  0.00    -0.368 OA
BRANCH   7   8
ATOM      8  C   LIG d   1      -3.430  91.155 121.148  0.00  0.00     0.119 C 
BRANCH   8   9
ATOM      9  C   LIG d   1      -4.351  91.869 122.156  0.00  0.00     0.028 C 
ATOM     10  C   LIG d   1      -5.506  90.973 122.633  0.00  0.00     0.006 C 
ENDBRANCH   8   9
BRANCH   8  11
ATOM     11  C   LIG d   1      -2.530  90.249 121.994  0.00  0.00     0.028 C 
ATOM     12  C   LIG d   1      -1.197  90.916 122.369  0.00  0.00     0.006 C 
ENDBRANCH   8  11
ENDBRANCH   7   8
ENDBRANCH   1   7
BRANCH   6  13
ATOM     13  N   LIG d   1      -0.260  91.652 118.716  0.00  0.00    -0.311 N 
ATOM     14  C   LIG d   1       0.793  90.973 119.168  0.00  0.00     0.210 C 
ATOM     15  C   LIG d   1       2.087  91.786 119.278  0.00  0.00     0.109 C 
ATOM     16  O   LIG d   1       0.786  89.767 119.457  0.00  0.00    -0.276 OA
ATOM     17  H   LIG d   1      -0.158  92.618 118.475  0.00  0.00     0.149 HD
ENDBRANCH   6  13
BRANCH   5  18
ATOM     18  N   LIG d   1      -0.986  89.514 116.658  0.00  0.00     0.381 N 
ATOM     19  H   LIG d   1      -1.472  88.909 116.026  0.00  0.00    -0.090 HD
ATOM     20  H   LIG d   1      -0.707  88.975 117.459  0.00  0.00    -0.090 HD
ATOM     21  H   LIG d   1      -0.183  89.898 116.211  0.00  0.00    -0.090 HD
ENDBRANCH   5  18
BRANCH   3  22
ATOM     22  C   LIG d   1      -5.539  90.968 116.970  0.00  0.00     0.382 C 
ATOM     23  O   LIG d   1      -6.262  91.990 117.054  0.00  0.00    -0.241 OA
ATOM     24  O   LIG d   1      -5.990  89.940 116.431  0.00  0.00    -0.241 OA
ENDBRANCH   3  22
TORSDOF 7
ENDMDL
