MODEL 1
REMARK VINA RESULT:      -4.6      0.000      0.000
REMARK  7 active torsions:
REMARK  status: ('A' for Active; 'I' for Inactive)
REMARK    1  A    between atoms: C_2  and  C_3 
REMARK    2  A    between atoms: C_3  and  O_6 
REMARK    3  A    between atoms: C_3  and  C_4 
REMARK    4  A    between atoms: C_7  and  O_6 
REMARK    5  A    between atoms: C_9  and  C_10 
REMARK    6  A    between atoms: N_15  and  C_14 
REMARK    7  A    between atoms: N_20  and  C_19 
REMARK       I    between atoms: C_22  and  N_20 
ROOT
ATOM      1  C   LIG d   1      -4.127  90.999 118.415  0.00  0.00     0.161 C 
ATOM      2  C   LIG d   1      -5.238  91.012 117.555  0.00  0.00     0.016 C 
ATOM      3  C   LIG d   1      -6.342  91.879 117.723  0.00  0.00     0.038 C 
ATOM      4  C   LIG d   1      -6.341  92.904 118.682  0.00  0.00     0.028 C 
ATOM      5  C   LIG d   1      -5.463  92.600 119.891  0.00  0.00    -0.047 C 
ATOM      6  C   LIG d   1      -4.058  92.185 119.400  0.00  0.00     0.091 C 
ENDROOT
BRANCH   1   7
ATOM      7  O   LIG d   1      -2.913  90.917 117.643  0.00  0.00    -0.368 OA
BRANCH   7   8
ATOM      8  C   LIG d   1      -2.355  89.591 117.470  0.00  0.00     0.119 C 
BRANCH   8   9
ATOM      9  C   LIG d   1      -2.533  88.837 118.802  0.00  0.00     0.028 C 
ATOM     10  C   LIG d   1      -1.449  87.768 119.020  0.00  0.00     0.006 C 
ENDBRANCH   8   9
BRANCH   8  11
ATOM     11  C   LIG d   1      -0.843  89.649 117.235  0.00  0.00     0.028 C 
ATOM     12  C   LIG d   1      -0.226  90.993 117.654  0.00  0.00     0.006 C 
ENDBRANCH   8  11
ENDBRANCH   7   8
ENDBRANCH   1   7
BRANCH   6  13
ATOM     13  N   LIG d   1      -3.161  91.789 120.517  0.00  0.00    -0.311 N 
ATOM     14  C   LIG d   1      -1.968  92.342 120.730  0.00  0.00     0.210 C 
ATOM     15  C   LIG d   1      -1.196  91.774 121.925  0.00  0.00     0.109 C 
ATOM     16  O   LIG d   1      -1.490  93.271 120.062  0.00  0.00    -0.276 OA
ATOM     17  H   LIG d   1      -3.484  91.064 121.127  0.00  0.00     0.149 HD
ENDBRANCH   6  13
BRANCH   5  18
ATOM     18  N   LIG d   1      -5.446  93.805 120.742  0.00  0.00     0.381 N 
ATOM     19  H   LIG d   1      -5.917  94.555 120.278  0.00  0.00    -0.090 HD
ATOM     20  H   LIG d   1      -4.491  94.080 120.897  0.00  0.00    -0.090 HD
ATOM     21  H   LIG d   1      -5.889  93.614 121.614  0.00  0.00    -0.090 HD
ENDBRANCH   5  18
BRANCH   3  22
ATOM     22  C   LIG d   1      -7.481  91.700 116.952  0.00  0.00     0.382 C 
ATOM     23  O   LIG d   1      -8.279  92.653 116.782  0.00  0.00    -0.241 OA
ATOM     24  O   LIG d   1      -7.742  90.585 116.462  0.00  0.00    -0.241 OA
ENDBRANCH   3  22
TORSDOF 7
ENDMDL
MODEL 2
REMARK VINA RESULT:      -4.6      1.932      3.892
REMARK  7 active torsions:
REMARK  status: ('A' for Active; 'I' for Inactive)
REMARK    1  A    between atoms: C_2  and  C_3 
REMARK    2  A    between atoms: C_3  and  O_6 
REMARK    3  A    between atoms: C_3  and  C_4 
REMARK    4  A    between atoms: C_7  and  O_6 
REMARK    5  A    between atoms: C_9  and  C_10 
REMARK    6  A    between atoms: N_15  and  C_14 
REMARK    7  A    between atoms: N_20  and  C_19 
REMARK       I    between atoms: C_22  and  N_20 
ROOT
ATOM      1  C   LIG d   1      -4.714  92.404 119.493  0.00  0.00     0.161 C 
ATOM      2  C   LIG d   1      -6.031  92.740 119.137  0.00  0.00     0.016 C 
ATOM      3  C   LIG d   1      -6.673  92.248 117.977  0.00  0.00     0.038 C 
ATOM      4  C   LIG d   1      -6.090  91.261 117.169  0.00  0.00     0.028 C 
ATOM      5  C   LIG d   1      -4.566  91.268 117.208  0.00  0.00    -0.047 C 
ATOM      6  C   LIG d   1      -4.102  91.242 118.683  0.00  0.00     0.091 C 
ENDROOT
BRANCH   1   7
ATOM      7  O   LIG d   1      -4.647  92.121 120.904  0.00  0.00    -0.368 OA
BRANCH   7   8
ATOM      8  C   LIG d   1      -3.878  93.051 121.705  0.00  0.00     0.119 C 
BRANCH   8   9
ATOM      9  C   LIG d   1      -3.381  94.168 120.767  0.00  0.00     0.028 C 
ATOM     10  C   LIG d   1      -1.855  94.352 120.830  0.00  0.00     0.006 C 
ENDBRANCH   8   9
BRANCH   8  11
ATOM     11  C   LIG d   1      -2.610  92.394 122.260  0.00  0.00     0.028 C 
ATOM     12  C   LIG d   1      -2.783  90.888 122.514  0.00  0.00     0.006 C 
ENDBRANCH   8  11
ENDBRANCH   7   8
ENDBRANCH   1   7
BRANCH   6  13
ATOM     13  N   LIG d   1      -2.624  91.332 118.814  0.00  0.00    -0.311 N 
ATOM     14  C   LIG d   1      -1.836  90.269 118.965  0.00  0.00     0.210 C 
ATOM     15  C   LIG d   1      -0.343  90.586 119.102  0.00  0.00     0.109 C 
ATOM     16  O   LIG d   1      -2.227  89.092 118.965  0.00  0.00    -0.276 OA
ATOM     17  H   LIG d   1      -2.219  92.247 118.793  0.00  0.00     0.149 HD
ENDBRANCH   6  13
BRANCH   5  18
ATOM     18  N   LIG d   1      -4.094  90.105 116.433  0.00  0.00     0.381 N 
ATOM     19  H   LIG d   1      -3.289  89.707 116.875  0.00  0.00    -0.090 HD
ATOM     20  H   LIG d   1      -3.829  90.413 115.514  0.00  0.00    -0.090 HD
ATOM     21  H   LIG d   1      -4.817  89.423 116.368  0.00  0.00    -0.090 HD
ENDBRANCH   5  18
BRANCH   3  22
ATOM     22  C   LIG d   1      -7.897  92.775 117.593  0.00  0.00     0.382 C 
ATOM     23  O   LIG d   1      -8.590  93.418 118.419  0.00  0.00    -0.241 OA
ATOM     24  O   LIG d   1      -8.338  92.578 116.445  0.00  0.00    -0.241 OA
ENDBRANCH   3  22
TORSDOF 7
ENDMDL
MODEL 3
REMARK VINA RESULT:      -4.5      1.361      2.046
REMARK  7 active torsions:
REMARK  status: ('A' for Active; 'I' for Inactive)
REMARK    1  A    between atoms: C_2  and  C_3 
REMARK    2  A    between atoms: C_3  and  O_6 
REMARK    3  A    between atoms: C_3  and  C_4 
REMARK    4  A    between atoms: C_7  and  O_6 
REMARK    5  A    between atoms: C_9  and  C_10 
REMARK    6  A    between atoms: N_15  and  C_14 
REMARK    7  A    between atoms: N_20  and  C_19 
REMARK       I    between atoms: C_22  and  N_20 
ROOT
ATOM      1  C   LIG d   1      -4.656  91.678 119.152  0.00  0.00     0.161 C 
ATOM      2  C   LIG d   1      -5.575  91.430 118.119  0.00  0.00     0.016 C 
ATOM      3  C   LIG d   1      -6.687  92.262 117.850  0.00  0.00     0.038 C 
ATOM      4  C   LIG d   1      -6.870  93.489 118.504  0.00  0.00     0.028 C 
ATOM      5  C   LIG d   1      -6.249  93.532 119.897  0.00  0.00    -0.047 C 
ATOM      6  C   LIG d   1      -4.776  93.071 119.804  0.00  0.00     0.091 C 
ENDROOT
BRANCH   1   7
ATOM      7  O   LIG d   1      -3.314  91.464 118.673  0.00  0.00    -0.368 OA
BRANCH   7   8
ATOM      8  C   LIG d   1      -2.512  90.519 119.424  0.00  0.00     0.119 C 
BRANCH   8   9
ATOM      9  C   LIG d   1      -1.073  91.068 119.473  0.00  0.00     0.028 C 
ATOM     10  C   LIG d   1      -0.944  92.437 118.783  0.00  0.00     0.006 C 
ENDBRANCH   8   9
BRANCH   8  11
ATOM     11  C   LIG d   1      -2.408  89.175 118.696  0.00  0.00     0.028 C 
ATOM     12  C   LIG d   1      -2.513  89.314 117.169  0.00  0.00     0.006 C 
ENDBRANCH   8  11
ENDBRANCH   7   8
ENDBRANCH   1   7
BRANCH   6  13
ATOM     13  N   LIG d   1      -4.119  93.003 121.135  0.00  0.00    -0.311 N 
ATOM     14  C   LIG d   1      -3.145  93.828 121.515  0.00  0.00     0.210 C 
ATOM     15  C   LIG d   1      -2.592  93.572 122.921  0.00  0.00     0.109 C 
ATOM     16  O   LIG d   1      -2.708  94.767 120.834  0.00  0.00    -0.276 OA
ATOM     17  H   LIG d   1      -4.434  92.289 121.763  0.00  0.00     0.149 HD
ENDBRANCH   6  13
BRANCH   5  18
ATOM     18  N   LIG d   1      -6.394  94.908 120.407  0.00  0.00     0.381 N 
ATOM     19  H   LIG d   1      -5.525  95.219 120.794  0.00  0.00    -0.090 HD
ATOM     20  H   LIG d   1      -7.084  94.913 121.137  0.00  0.00    -0.090 HD
ATOM     21  H   LIG d   1      -6.674  95.517 119.671  0.00  0.00    -0.090 HD
ENDBRANCH   5  18
BRANCH   3  22
ATOM     22  C   LIG d   1      -7.651  91.848 116.944  0.00  0.00     0.382 C 
ATOM     23  O   LIG d   1      -7.714  90.643 116.602  0.00  0.00    -0.241 OA
ATOM     24  O   LIG d   1      -8.431  92.673 116.431  0.00  0.00    -0.241 OA
ENDBRANCH   3  22
TORSDOF 7
ENDMDL
MODEL 4
REMARK VINA RESULT:      -4.4      2.387      5.278
REMARK  7 active torsions:
REMARK  status: ('A' for Active; 'I' for Inactive)
REMARK    1  A    between atoms: C_2  and  C_3 
REMARK    2  A    between atoms: C_3  and  O_6 
REMARK    3  A    between atoms: C_3  and  C_4 
REMARK    4  A    between atoms: C_7  and  O_6 
REMARK    5  A    between atoms: C_9  and  C_10 
REMARK    6  A    between atoms: N_15  and  C_14 
REMARK    7  A    between atoms: N_20  and  C_19 
REMARK       I    between atoms: C_22  and  N_20 
ROOT
ATOM      1  C   LIG d   1      -4.476  92.177 120.169  0.00  0.00     0.161 C 
ATOM      2  C   LIG d   1      -3.488  91.372 119.578  0.00  0.00     0.016 C 
ATOM      3  C   LIG d   1      -3.577  90.875 118.257  0.00  0.00     0.038 C 
ATOM      4  C   LIG d   1      -4.596  91.278 117.381  0.00  0.00     0.028 C 
ATOM      5  C   LIG d   1      -5.881  91.685 118.093  0.00  0.00    -0.047 C 
ATOM      6  C   LIG d   1      -5.540  92.717 119.192  0.00  0.00     0.091 C 
ENDROOT
BRANCH   1   7
ATOM      7  O   LIG d   1      -3.856  93.263 120.886  0.00  0.00    -0.368 OA
BRANCH   7   8
ATOM      8  C   LIG d   1      -3.487  94.420 120.096  0.00  0.00     0.119 C 
BRANCH   8   9
ATOM      9  C   LIG d   1      -1.956  94.573 120.186  0.00  0.00     0.028 C 
ATOM     10  C   LIG d   1      -1.287  94.605 118.802  0.00  0.00     0.006 C 
ENDBRANCH   8   9
BRANCH   8  11
ATOM     11  C   LIG d   1      -4.060  95.708 120.694  0.00  0.00     0.028 C 
ATOM     12  C   LIG d   1      -4.467  96.732 119.622  0.00  0.00     0.006 C 
ENDBRANCH   8  11
ENDBRANCH   7   8
ENDBRANCH   1   7
BRANCH   6  13
ATOM     13  N   LIG d   1      -6.730  93.106 119.993  0.00  0.00    -0.311 N 
ATOM     14  C   LIG d   1      -7.489  94.164 119.712  0.00  0.00     0.210 C 
ATOM     15  C   LIG d   1      -8.656  94.397 120.677  0.00  0.00     0.109 C 
ATOM     16  O   LIG d   1      -7.327  94.911 118.736  0.00  0.00    -0.276 OA
ATOM     17  H   LIG d   1      -6.953  92.536 120.785  0.00  0.00     0.149 HD
ENDBRANCH   6  13
BRANCH   5  18
ATOM     18  N   LIG d   1      -6.808  92.212 117.073  0.00  0.00     0.381 N 
ATOM     19  H   LIG d   1      -7.487  92.805 117.507  0.00  0.00    -0.090 HD
ATOM     20  H   LIG d   1      -7.290  91.442 116.643  0.00  0.00    -0.090 HD
ATOM     21  H   LIG d   1      -6.302  92.723 116.384  0.00  0.00    -0.090 HD
ENDBRANCH   5  18
BRANCH   3  22
ATOM     22  C   LIG d   1      -2.661  89.934 117.814  0.00  0.00     0.382 C 
ATOM     23  O   LIG d   1      -1.485  89.948 118.252  0.00  0.00    -0.241 OA
ATOM     24  O   LIG d   1      -2.982  89.098 116.948  0.00  0.00    -0.241 OA
ENDBRANCH   3  22
TORSDOF 7
ENDMDL
MODEL 5
REMARK VINA RESULT:      -4.3      2.260      3.922
REMARK  7 active torsions:
REMARK  status: ('A' for Active; 'I' for Inactive)
REMARK    1  A    between atoms: C_2  and  C_3 
REMARK    2  A    between atoms: C_3  and  O_6 
REMARK    3  A    between atoms: C_3  and  C_4 
REMARK    4  A    between atoms: C_7  and  O_6 
REMARK    5  A    between atoms: C_9  and  C_10 
REMARK    6  A    between atoms: N_15  and  C_14 
REMARK    7  A    between atoms: N_20  and  C_19 
REMARK       I    between atoms: C_22  and  N_20 
ROOT
ATOM      1  C   LIG d   1      -4.220  92.962 119.801  0.00  0.00     0.161 C 
ATOM      2  C   LIG d   1      -5.485  92.595 119.312  0.00  0.00     0.016 C 
ATOM      3  C   LIG d   1      -5.674  91.673 118.257  0.00  0.00     0.038 C 
ATOM      4  C   LIG d   1      -4.610  90.936 117.717  0.00  0.00     0.028 C 
ATOM      5  C   LIG d   1      -3.263  91.643 117.833  0.00  0.00    -0.047 C 
ATOM      6  C   LIG d   1      -3.054  92.085 119.299  0.00  0.00     0.091 C 
ENDROOT
BRANCH   1   7
ATOM      7  O   LIG d   1      -4.243  92.989 121.242  0.00  0.00    -0.368 OA
BRANCH   7   8
ATOM      8  C   LIG d   1      -4.176  91.703 121.905  0.00  0.00     0.119 C 
BRANCH   8   9
ATOM      9  C   LIG d   1      -5.403  91.595 122.831  0.00  0.00     0.028 C 
ATOM     10  C   LIG d   1      -6.119  92.944 123.016  0.00  0.00     0.006 C 
ENDBRANCH   8   9
BRANCH   8  11
ATOM     11  C   LIG d   1      -2.960  91.615 122.831  0.00  0.00     0.028 C 
ATOM     12  C   LIG d   1      -2.333  92.988 123.122  0.00  0.00     0.006 C 
ENDBRANCH   8  11
ENDBRANCH   7   8
ENDBRANCH   1   7
BRANCH   6  13
ATOM     13  N   LIG d   1      -1.798  92.859 119.484  0.00  0.00    -0.311 N 
ATOM     14  C   LIG d   1      -0.650  92.310 119.877  0.00  0.00     0.210 C 
ATOM     15  C   LIG d   1       0.518  93.290 120.024  0.00  0.00     0.109 C 
ATOM     16  O   LIG d   1      -0.480  91.100 120.086  0.00  0.00    -0.276 OA
ATOM     17  H   LIG d   1      -1.839  93.843 119.305  0.00  0.00     0.149 HD
ENDBRANCH   6  13
BRANCH   5  18
ATOM     18  N   LIG d   1      -2.227  90.707 117.358  0.00  0.00     0.381 N 
ATOM     19  H   LIG d   1      -2.169  89.923 117.976  0.00  0.00    -0.090 HD
ATOM     20  H   LIG d   1      -1.338  91.178 117.361  0.00  0.00    -0.090 HD
ATOM     21  H   LIG d   1      -2.443  90.398 116.436  0.00  0.00    -0.090 HD
ENDBRANCH   5  18
BRANCH   3  22
ATOM     22  C   LIG d   1      -6.935  91.510 117.704  0.00  0.00     0.382 C 
ATOM     23  O   LIG d   1      -7.773  92.442 117.767  0.00  0.00    -0.241 OA
ATOM     24  O   LIG d   1      -7.262  90.427 117.183  0.00  0.00    -0.241 OA
ENDBRANCH   3  22
TORSDOF 7
ENDMDL
MODEL 6
REMARK VINA RESULT:      -4.3      2.100      4.052
REMARK  7 active torsions:
REMARK  status: ('A' for Active; 'I' for Inactive)
REMARK    1  A    between atoms: C_2  and  C_3 
REMARK    2  A    between atoms: C_3  and  O_6 
REMARK    3  A    between atoms: C_3  and  C_4 
REMARK    4  A    between atoms: C_7  and  O_6 
REMARK    5  A    between atoms: C_9  and  C_10 
REMARK    6  A    between atoms: N_15  and  C_14 
REMARK    7  A    between atoms: N_20  and  C_19 
REMARK       I    between atoms: C_22  and  N_20 
ROOT
ATOM      1  C   LIG d   1      -4.584  92.438 119.426  0.00  0.00     0.161 C 
ATOM      2  C   LIG d   1      -5.922  92.679 119.071  0.00  0.00     0.016 C 
ATOM      3  C   LIG d   1      -6.539  92.114 117.932  0.00  0.00     0.038 C 
ATOM      4  C   LIG d   1      -5.899  91.142 117.148  0.00  0.00     0.028 C 
ATOM      5  C   LIG d   1      -4.378  91.247 117.175  0.00  0.00    -0.047 C 
ATOM      6  C   LIG d   1      -3.904  91.294 118.646  0.00  0.00     0.091 C 
ENDROOT
BRANCH   1   7
ATOM      7  O   LIG d   1      -4.490  92.202 120.845  0.00  0.00    -0.368 OA
BRANCH   7   8
ATOM      8  C   LIG d   1      -3.563  93.046 121.571  0.00  0.00     0.119 C 
BRANCH   8   9
ATOM      9  C   LIG d   1      -4.200  93.364 122.938  0.00  0.00     0.028 C 
ATOM     10  C   LIG d   1      -5.735  93.433 122.868  0.00  0.00     0.006 C 
ENDBRANCH   8   9
BRANCH   8  11
ATOM     11  C   LIG d   1      -3.385  94.402 120.881  0.00  0.00     0.028 C 
ATOM     12  C   LIG d   1      -1.949  94.635 120.385  0.00  0.00     0.006 C 
ENDBRANCH   8  11
ENDBRANCH   7   8
ENDBRANCH   1   7
BRANCH   6  13
ATOM     13  N   LIG d   1      -2.435  91.481 118.762  0.00  0.00    -0.311 N 
ATOM     14  C   LIG d   1      -1.579  90.476 118.936  0.00  0.00     0.210 C 
ATOM     15  C   LIG d   1      -0.109  90.890 119.052  0.00  0.00     0.109 C 
ATOM     16  O   LIG d   1      -1.894  89.277 118.975  0.00  0.00    -0.276 OA
ATOM     17  H   LIG d   1      -2.089  92.420 118.710  0.00  0.00     0.149 HD
ENDBRANCH   6  13
BRANCH   5  18
ATOM     18  N   LIG d   1      -3.839  90.094 116.430  0.00  0.00     0.381 N 
ATOM     19  H   LIG d   1      -4.509  89.782 115.756  0.00  0.00    -0.090 HD
ATOM     20  H   LIG d   1      -3.666  89.342 117.075  0.00  0.00    -0.090 HD
ATOM     21  H   LIG d   1      -2.991  90.349 115.973  0.00  0.00    -0.090 HD
ENDBRANCH   5  18
BRANCH   3  22
ATOM     22  C   LIG d   1      -7.797  92.550 117.544  0.00  0.00     0.382 C 
ATOM     23  O   LIG d   1      -8.262  92.208 116.430  0.00  0.00    -0.241 OA
ATOM     24  O   LIG d   1      -8.452  93.317 118.274  0.00  0.00    -0.241 OA
ENDBRANCH   3  22
TORSDOF 7
ENDMDL
MODEL 7
REMARK VINA RESULT:      -4.2      2.652      5.469
REMARK  7 active torsions:
REMARK  status: ('A' for Active; 'I' for Inactive)
REMARK    1  A    between atoms: C_2  and  C_3 
REMARK    2  A    between atoms: C_3  and  O_6 
REMARK    3  A    between atoms: C_3  and  C_4 
REMARK    4  A    between atoms: C_7  and  O_6 
REMARK    5  A    between atoms: C_9  and  C_10 
REMARK    6  A    between atoms: N_15  and  C_14 
REMARK    7  A    between atoms: N_20  and  C_19 
REMARK       I    between atoms: C_22  and  N_20 
ROOT
ATOM      1  C   LIG d   1      -5.207  92.555 119.710  0.00  0.00     0.161 C 
ATOM      2  C   LIG d   1      -4.193  91.802 119.096  0.00  0.00     0.016 C 
ATOM      3  C   LIG d   1      -4.342  91.178 117.835  0.00  0.00     0.038 C 
ATOM      4  C   LIG d   1      -5.471  91.394 117.031  0.00  0.00     0.028 C 
ATOM      5  C   LIG d   1      -6.726  91.736 117.826  0.00  0.00    -0.047 C 
ATOM      6  C   LIG d   1      -6.404  92.894 118.798  0.00  0.00     0.091 C 
ENDROOT
BRANCH   1   7
ATOM      7  O   LIG d   1      -4.648  93.760 120.271  0.00  0.00    -0.368 OA
BRANCH   7   8
ATOM      8  C   LIG d   1      -4.323  93.714 121.683  0.00  0.00     0.119 C 
BRANCH   8   9
ATOM      9  C   LIG d   1      -5.374  92.822 122.371  0.00  0.00     0.028 C 
ATOM     10  C   LIG d   1      -4.735  91.713 123.223  0.00  0.00     0.006 C 
ENDBRANCH   8   9
BRANCH   8  11
ATOM     11  C   LIG d   1      -4.473  95.093 122.333  0.00  0.00     0.028 C 
ATOM     12  C   LIG d   1      -5.855  95.304 122.972  0.00  0.00     0.006 C 
ENDBRANCH   8  11
ENDBRANCH   7   8
ENDBRANCH   1   7
BRANCH   6  13
ATOM     13  N   LIG d   1      -7.555  93.235 119.675  0.00  0.00    -0.311 N 
ATOM     14  C   LIG d   1      -7.912  94.485 119.962  0.00  0.00     0.210 C 
ATOM     15  C   LIG d   1      -9.116  94.614 120.902  0.00  0.00     0.109 C 
ATOM     16  O   LIG d   1      -7.367  95.500 119.503  0.00  0.00    -0.276 OA
ATOM     17  H   LIG d   1      -8.073  92.472 120.065  0.00  0.00     0.149 HD
ENDBRANCH   6  13
BRANCH   5  18
ATOM     18  N   LIG d   1      -7.789  92.070 116.860  0.00  0.00     0.381 N 
ATOM     19  H   LIG d   1      -7.500  91.814 115.937  0.00  0.00    -0.090 HD
ATOM     20  H   LIG d   1      -7.945  93.062 116.879  0.00  0.00    -0.090 HD
ATOM     21  H   LIG d   1      -8.629  91.590 117.098  0.00  0.00    -0.090 HD
ENDBRANCH   5  18
BRANCH   3  22
ATOM     22  C   LIG d   1      -3.371  90.296 117.386  0.00  0.00     0.382 C 
ATOM     23  O   LIG d   1      -3.622  89.523 116.430  0.00  0.00    -0.241 OA
ATOM     24  O   LIG d   1      -2.264  90.233 117.953  0.00  0.00    -0.241 OA
ENDBRANCH   3  22
TORSDOF 7
ENDMDL
MODEL 8
REMARK VINA RESULT:      -4.1      2.529      5.671
REMARK  7 active torsions:
REMARK  status: ('A' for Active; 'I' for Inactive)
REMARK    1  A    between atoms: C_2  and  C_3 
REMARK    2  A    between atoms: C_3  and  O_6 
REMARK    3  A    between atoms: C_3  and  C_4 
REMARK    4  A    between atoms: C_7  and  O_6 
REMARK    5  A    between atoms: C_9  and  C_10 
REMARK    6  A    between atoms: N_15  and  C_14 
REMARK    7  A    between atoms: N_20  and  C_19 
REMARK       I    between atoms: C_22  and  N_20 
ROOT
ATOM      1  C   LIG d   1      -0.917  91.185 118.801  0.00  0.00     0.161 C 
ATOM      2  C   LIG d   1       0.269  91.549 119.460  0.00  0.00     0.016 C 
ATOM      3  C   LIG d   1       0.581  92.879 119.822  0.00  0.00     0.038 C 
ATOM      4  C   LIG d   1      -0.346  93.923 119.683  0.00  0.00     0.028 C 
ATOM      5  C   LIG d   1      -1.355  93.691 118.564  0.00  0.00    -0.047 C 
ATOM      6  C   LIG d   1      -1.990  92.293 118.741  0.00  0.00     0.091 C 
ENDROOT
BRANCH   1   7
ATOM      7  O   LIG d   1      -1.462  89.992 119.399  0.00  0.00    -0.368 OA
BRANCH   7   8
ATOM      8  C   LIG d   1      -1.554  88.832 118.537  0.00  0.00     0.119 C 
BRANCH   8   9
ATOM      9  C   LIG d   1      -2.266  87.720 119.331  0.00  0.00     0.028 C 
ATOM     10  C   LIG d   1      -1.280  86.701 119.927  0.00  0.00     0.006 C 
ENDBRANCH   8   9
BRANCH   8  11
ATOM     11  C   LIG d   1      -0.167  88.271 118.208  0.00  0.00     0.028 C 
ATOM     12  C   LIG d   1       0.131  88.262 116.700  0.00  0.00     0.006 C 
ENDBRANCH   8  11
ENDBRANCH   7   8
ENDBRANCH   1   7
BRANCH   6  13
ATOM     13  N   LIG d   1      -2.927  91.952 117.640  0.00  0.00    -0.311 N 
ATOM     14  C   LIG d   1      -4.127  91.409 117.840  0.00  0.00     0.210 C 
ATOM     15  C   LIG d   1      -4.926  91.119 116.566  0.00  0.00     0.109 C 
ATOM     16  O   LIG d   1      -4.618  91.171 118.953  0.00  0.00    -0.276 OA
ATOM     17  H   LIG d   1      -2.621  92.141 116.705  0.00  0.00     0.149 HD
ENDBRANCH   6  13
BRANCH   5  18
ATOM     18  N   LIG d   1      -2.342  94.786 118.620  0.00  0.00     0.381 N 
ATOM     19  H   LIG d   1      -2.075  95.447 119.322  0.00  0.00    -0.090 HD
ATOM     20  H   LIG d   1      -3.237  94.404 118.871  0.00  0.00    -0.090 HD
ATOM     21  H   LIG d   1      -2.403  95.237 117.734  0.00  0.00    -0.090 HD
ENDBRANCH   5  18
BRANCH   3  22
ATOM     22  C   LIG d   1       1.850  93.184 120.293  0.00  0.00     0.382 C 
ATOM     23  O   LIG d   1       2.848  92.569 119.847  0.00  0.00    -0.241 OA
ATOM     24  O   LIG d   1       2.003  94.034 121.190  0.00  0.00    -0.241 OA
ENDBRANCH   3  22
TORSDOF 7
ENDMDL
MODEL 9
REMARK VINA RESULT:      -4.1      3.201      4.750
REMARK  7 active torsions:
REMARK  status: ('A' for Active; 'I' for Inactive)
REMARK    1  A    between atoms: C_2  and  C_3 
REMARK    2  A    between atoms: C_3  and  O_6 
REMARK    3  A    between atoms: C_3  and  C_4 
REMARK    4  A    between atoms: C_7  and  O_6 
REMARK    5  A    between atoms: C_9  and  C_10 
REMARK    6  A    between atoms: N_15  and  C_14 
REMARK    7  A    between atoms: N_20  and  C_19 
REMARK       I    between atoms: C_22  and  N_20 
ROOT
ATOM      1  C   LIG d   1      -0.101  90.239 118.099  0.00  0.00     0.161 C 
ATOM      2  C   LIG d   1      -1.492  90.096 117.957  0.00  0.00     0.016 C 
ATOM      3  C   LIG d   1      -2.399  91.176 118.051  0.00  0.00     0.038 C 
ATOM      4  C   LIG d   1      -1.961  92.506 118.144  0.00  0.00     0.028 C 
ATOM      5  C   LIG d   1      -0.590  92.649 118.796  0.00  0.00    -0.047 C 
ATOM      6  C   LIG d   1       0.403  91.698 118.089  0.00  0.00     0.091 C 
ENDROOT
BRANCH   1   7
ATOM      7  O   LIG d   1       0.575  89.469 117.085  0.00  0.00    -0.368 OA
BRANCH   7   8
ATOM      8  C   LIG d   1       1.468  88.433 117.563  0.00  0.00     0.119 C 
BRANCH   8   9
ATOM      9  C   LIG d   1       2.631  88.326 116.557  0.00  0.00     0.028 C 
ATOM     10  C   LIG d   1       4.002  88.260 117.250  0.00  0.00     0.006 C 
ENDBRANCH   8   9
BRANCH   8  11
ATOM     11  C   LIG d   1       0.790  87.060 117.546  0.00  0.00     0.028 C 
ATOM     12  C   LIG d   1       0.314  86.615 118.938  0.00  0.00     0.006 C 
ENDBRANCH   8  11
ENDBRANCH   7   8
ENDBRANCH   1   7
BRANCH   6  13
ATOM     13  N   LIG d   1       1.748  91.713 118.719  0.00  0.00    -0.311 N 
ATOM     14  C   LIG d   1       2.883  91.783 118.025  0.00  0.00     0.210 C 
ATOM     15  C   LIG d   1       4.160  91.765 118.870  0.00  0.00     0.109 C 
ATOM     16  O   LIG d   1       2.951  91.892 116.792  0.00  0.00    -0.276 OA
ATOM     17  H   LIG d   1       1.784  91.660 119.719  0.00  0.00     0.149 HD
ENDBRANCH   6  13
BRANCH   5  18
ATOM     18  N   LIG d   1      -0.198  94.068 118.702  0.00  0.00     0.381 N 
ATOM     19  H   LIG d   1       0.010  94.300 117.752  0.00  0.00    -0.090 HD
ATOM     20  H   LIG d   1       0.632  94.212 119.251  0.00  0.00    -0.090 HD
ATOM     21  H   LIG d   1      -0.934  94.648 119.040  0.00  0.00    -0.090 HD
ENDBRANCH   5  18
BRANCH   3  22
ATOM     22  C   LIG d   1      -3.762  90.927 118.094  0.00  0.00     0.382 C 
ATOM     23  O   LIG d   1      -4.433  91.276 119.095  0.00  0.00    -0.241 OA
ATOM     24  O   LIG d   1      -4.323  90.319 117.162  0.00  0.00    -0.241 OA
ENDBRANCH   3  22
TORSDOF 7
ENDMDL
