MODEL 1
REMARK VINA RESULT:      -4.4      0.000      0.000
REMARK  7 active torsions:
REMARK  status: ('A' for Active; 'I' for Inactive)
REMARK    1  A    between atoms: C_2  and  C_3 
REMARK    2  A    between atoms: C_3  and  O_6 
REMARK    3  A    between atoms: C_3  and  C_4 
REMARK    4  A    between atoms: C_7  and  O_6 
REMARK    5  A    between atoms: C_9  and  C_10 
REMARK    6  A    between atoms: N_15  and  C_14 
REMARK    7  A    between atoms: N_20  and  C_19 
REMARK       I    between atoms: C_22  and  N_20 
ROOT
ATOM      1  C   LIG d   1      -2.842  92.977 117.839  0.00  0.00     0.161 C 
ATOM      2  C   LIG d   1      -4.150  93.465 117.998  0.00  0.00     0.016 C 
ATOM      3  C   LIG d   1      -5.305  92.708 117.692  0.00  0.00     0.038 C 
ATOM      4  C   LIG d   1      -5.232  91.350 117.348  0.00  0.00     0.028 C 
ATOM      5  C   LIG d   1      -3.913  90.962 116.689  0.00  0.00    -0.047 C 
ATOM      6  C   LIG d   1      -2.746  91.460 117.571  0.00  0.00     0.091 C 
ENDROOT
BRANCH   1   7
ATOM      7  O   LIG d   1      -2.045  93.335 118.986  0.00  0.00    -0.368 OA
BRANCH   7   8
ATOM      8  C   LIG d   1      -1.157  94.466 118.816  0.00  0.00     0.119 C 
BRANCH   8   9
ATOM      9  C   LIG d   1       0.286  93.924 118.798  0.00  0.00     0.028 C 
ATOM     10  C   LIG d   1       0.591  93.029 120.011  0.00  0.00     0.006 C 
ENDBRANCH   8   9
BRANCH   8  11
ATOM     11  C   LIG d   1      -1.220  95.410 120.020  0.00  0.00     0.028 C 
ATOM     12  C   LIG d   1      -0.492  96.741 119.774  0.00  0.00     0.006 C 
ENDBRANCH   8  11
ENDBRANCH   7   8
ENDBRANCH   1   7
BRANCH   6  13
ATOM     13  N   LIG d   1      -1.418  91.196 116.957  0.00  0.00    -0.311 N 
ATOM     14  C   LIG d   1      -0.471  90.467 117.545  0.00  0.00     0.210 C 
ATOM     15  C   LIG d   1       0.831  90.335 116.748  0.00  0.00     0.109 C 
ATOM     16  O   LIG d   1      -0.597  89.891 118.636  0.00  0.00    -0.276 OA
ATOM     17  H   LIG d   1      -1.243  91.600 116.058  0.00  0.00     0.149 HD
ENDBRANCH   6  13
BRANCH   5  18
ATOM     18  N   LIG d   1      -3.918  89.498 116.510  0.00  0.00     0.381 N 
ATOM     19  H   LIG d   1      -3.116  89.219 115.982  0.00  0.00    -0.090 HD
ATOM     20  H   LIG d   1      -4.741  89.236 115.995  0.00  0.00    -0.090 HD
ATOM     21  H   LIG d   1      -3.915  89.046 117.398  0.00  0.00    -0.090 HD
ENDBRANCH   5  18
BRANCH   3  22
ATOM     22  C   LIG d   1      -6.548  93.323 117.691  0.00  0.00     0.382 C 
ATOM     23  O   LIG d   1      -7.153  93.515 118.773  0.00  0.00    -0.241 OA
ATOM     24  O   LIG d   1      -7.092  93.646 116.618  0.00  0.00    -0.241 OA
ENDBRANCH   3  22
TORSDOF 7
ENDMDL
MODEL 2
REMARK VINA RESULT:      -4.3      2.738      5.221
REMARK  7 active torsions:
REMARK  status: ('A' for Active; 'I' for Inactive)
REMARK    1  A    between atoms: C_2  and  C_3 
REMARK    2  A    between atoms: C_3  and  O_6 
REMARK    3  A    between atoms: C_3  and  C_4 
REMARK    4  A    between atoms: C_7  and  O_6 
REMARK    5  A    between atoms: C_9  and  C_10 
REMARK    6  A    between atoms: N_15  and  C_14 
REMARK    7  A    between atoms: N_20  and  C_19 
REMARK       I    between atoms: C_22  and  N_20 
ROOT
ATOM      1  C   LIG d   1      -5.948  93.077 119.384  0.00  0.00     0.161 C 
ATOM      2  C   LIG d   1      -7.281  93.507 119.284  0.00  0.00     0.016 C 
ATOM      3  C   LIG d   1      -7.649  94.844 119.006  0.00  0.00     0.038 C 
ATOM      4  C   LIG d   1      -6.701  95.817 118.659  0.00  0.00     0.028 C 
ATOM      5  C   LIG d   1      -5.317  95.549 119.240  0.00  0.00    -0.047 C 
ATOM      6  C   LIG d   1      -4.900  94.101 118.897  0.00  0.00     0.091 C 
ENDROOT
BRANCH   1   7
ATOM      7  O   LIG d   1      -5.785  91.825 118.689  0.00  0.00    -0.368 OA
BRANCH   7   8
ATOM      8  C   LIG d   1      -5.368  91.914 117.304  0.00  0.00     0.119 C 
BRANCH   8   9
ATOM      9  C   LIG d   1      -6.591  91.574 116.430  0.00  0.00     0.028 C 
ATOM     10  C   LIG d   1      -7.107  90.146 116.673  0.00  0.00     0.006 C 
ENDBRANCH   8   9
BRANCH   8  11
ATOM     11  C   LIG d   1      -4.321  90.848 116.968  0.00  0.00     0.028 C 
ATOM     12  C   LIG d   1      -3.655  90.252 118.218  0.00  0.00     0.006 C 
ENDBRANCH   8  11
ENDBRANCH   7   8
ENDBRANCH   1   7
BRANCH   6  13
ATOM     13  N   LIG d   1      -3.594  93.729 119.501  0.00  0.00    -0.311 N 
ATOM     14  C   LIG d   1      -2.472  93.596 118.796  0.00  0.00     0.210 C 
ATOM     15  C   LIG d   1      -1.241  93.187 119.611  0.00  0.00     0.109 C 
ATOM     16  O   LIG d   1      -2.372  93.810 117.579  0.00  0.00    -0.276 OA
ATOM     17  H   LIG d   1      -3.578  93.567 120.489  0.00  0.00     0.149 HD
ENDBRANCH   6  13
BRANCH   5  18
ATOM     18  N   LIG d   1      -4.397  96.561 118.687  0.00  0.00     0.381 N 
ATOM     19  H   LIG d   1      -3.584  96.113 118.316  0.00  0.00    -0.090 HD
ATOM     20  H   LIG d   1      -4.109  97.177 119.427  0.00  0.00    -0.090 HD
ATOM     21  H   LIG d   1      -4.854  97.082 117.971  0.00  0.00    -0.090 HD
ENDBRANCH   5  18
BRANCH   3  22
ATOM     22  C   LIG d   1      -8.977  95.227 119.115  0.00  0.00     0.382 C 
ATOM     23  O   LIG d   1      -9.297  96.430 118.955  0.00  0.00    -0.241 OA
ATOM     24  O   LIG d   1      -9.853  94.394 119.415  0.00  0.00    -0.241 OA
ENDBRANCH   3  22
TORSDOF 7
ENDMDL
MODEL 3
REMARK VINA RESULT:      -4.2      2.144      4.332
REMARK  7 active torsions:
REMARK  status: ('A' for Active; 'I' for Inactive)
REMARK    1  A    between atoms: C_2  and  C_3 
REMARK    2  A    between atoms: C_3  and  O_6 
REMARK    3  A    between atoms: C_3  and  C_4 
REMARK    4  A    between atoms: C_7  and  O_6 
REMARK    5  A    between atoms: C_9  and  C_10 
REMARK    6  A    between atoms: N_15  and  C_14 
REMARK    7  A    between atoms: N_20  and  C_19 
REMARK       I    between atoms: C_22  and  N_20 
ROOT
ATOM      1  C   LIG d   1      -2.919  90.999 118.115  0.00  0.00     0.161 C 
ATOM      2  C   LIG d   1      -4.076  90.531 117.471  0.00  0.00     0.016 C 
ATOM      3  C   LIG d   1      -5.173  91.361 117.141  0.00  0.00     0.038 C 
ATOM      4  C   LIG d   1      -5.122  92.754 117.300  0.00  0.00     0.028 C 
ATOM      5  C   LIG d   1      -4.177  93.203 118.409  0.00  0.00    -0.047 C 
ATOM      6  C   LIG d   1      -2.799  92.535 118.195  0.00  0.00     0.091 C 
ENDROOT
BRANCH   1   7
ATOM      7  O   LIG d   1      -1.749  90.437 117.487  0.00  0.00    -0.368 OA
BRANCH   7   8
ATOM      8  C   LIG d   1      -0.981  89.506 118.287  0.00  0.00     0.119 C 
BRANCH   8   9
ATOM      9  C   LIG d   1       0.466  89.523 117.756  0.00  0.00     0.028 C 
ATOM     10  C   LIG d   1       1.167  90.869 118.005  0.00  0.00     0.006 C 
ENDBRANCH   8   9
BRANCH   8  11
ATOM     11  C   LIG d   1      -1.469  88.068 118.090  0.00  0.00     0.028 C 
ATOM     12  C   LIG d   1      -2.047  87.453 119.375  0.00  0.00     0.006 C 
ENDBRANCH   8  11
ENDBRANCH   7   8
ENDBRANCH   1   7
BRANCH   6  13
ATOM     13  N   LIG d   1      -1.839  92.855 119.284  0.00  0.00    -0.311 N 
ATOM     14  C   LIG d   1      -0.948  93.842 119.208  0.00  0.00     0.210 C 
ATOM     15  C   LIG d   1      -0.040  93.988 120.433  0.00  0.00     0.109 C 
ATOM     16  O   LIG d   1      -0.844  94.630 118.256  0.00  0.00    -0.276 OA
ATOM     17  H   LIG d   1      -1.875  92.285 120.106  0.00  0.00     0.149 HD
ENDBRANCH   6  13
BRANCH   5  18
ATOM     18  N   LIG d   1      -4.116  94.677 118.373  0.00  0.00     0.381 N 
ATOM     19  H   LIG d   1      -4.367  95.004 117.461  0.00  0.00    -0.090 HD
ATOM     20  H   LIG d   1      -3.174  94.968 118.564  0.00  0.00    -0.090 HD
ATOM     21  H   LIG d   1      -4.735  95.060 119.053  0.00  0.00    -0.090 HD
ENDBRANCH   5  18
BRANCH   3  22
ATOM     22  C   LIG d   1      -6.352  90.792 116.684  0.00  0.00     0.382 C 
ATOM     23  O   LIG d   1      -6.414  89.556 116.481  0.00  0.00    -0.241 OA
ATOM     24  O   LIG d   1      -7.340  91.506 116.430  0.00  0.00    -0.241 OA
ENDBRANCH   3  22
TORSDOF 7
ENDMDL
MODEL 4
REMARK VINA RESULT:      -4.1      2.204      4.249
REMARK  7 active torsions:
REMARK  status: ('A' for Active; 'I' for Inactive)
REMARK    1  A    between atoms: C_2  and  C_3 
REMARK    2  A    between atoms: C_3  and  O_6 
REMARK    3  A    between atoms: C_3  and  C_4 
REMARK    4  A    between atoms: C_7  and  O_6 
REMARK    5  A    between atoms: C_9  and  C_10 
REMARK    6  A    between atoms: N_15  and  C_14 
REMARK    7  A    between atoms: N_20  and  C_19 
REMARK       I    between atoms: C_22  and  N_20 
ROOT
ATOM      1  C   LIG d   1      -3.181  91.009 119.456  0.00  0.00     0.161 C 
ATOM      2  C   LIG d   1      -4.240  90.424 118.742  0.00  0.00     0.016 C 
ATOM      3  C   LIG d   1      -5.066  91.143 117.847  0.00  0.00     0.038 C 
ATOM      4  C   LIG d   1      -4.792  92.471 117.490  0.00  0.00     0.028 C 
ATOM      5  C   LIG d   1      -4.039  93.245 118.567  0.00  0.00    -0.047 C 
ATOM      6  C   LIG d   1      -2.797  92.431 118.995  0.00  0.00     0.091 C 
ENDROOT
BRANCH   1   7
ATOM      7  O   LIG d   1      -2.030  90.142 119.419  0.00  0.00    -0.368 OA
BRANCH   7   8
ATOM      8  C   LIG d   1      -1.368  90.016 118.137  0.00  0.00     0.119 C 
BRANCH   8   9
ATOM      9  C   LIG d   1      -1.234  88.512 117.831  0.00  0.00     0.028 C 
ATOM     10  C   LIG d   1      -1.716  87.631 118.996  0.00  0.00     0.006 C 
ENDBRANCH   8   9
BRANCH   8  11
ATOM     11  C   LIG d   1       0.068  90.547 118.196  0.00  0.00     0.028 C 
ATOM     12  C   LIG d   1       0.734  90.619 116.813  0.00  0.00     0.006 C 
ENDBRANCH   8  11
ENDBRANCH   7   8
ENDBRANCH   1   7
BRANCH   6  13
ATOM     13  N   LIG d   1      -2.050  93.077 120.105  0.00  0.00    -0.311 N 
ATOM     14  C   LIG d   1      -0.995  93.868 119.916  0.00  0.00     0.210 C 
ATOM     15  C   LIG d   1      -0.360  94.415 121.198  0.00  0.00     0.109 C 
ATOM     16  O   LIG d   1      -0.545  94.193 118.808  0.00  0.00    -0.276 OA
ATOM     17  H   LIG d   1      -2.367  92.892 121.037  0.00  0.00     0.149 HD
ENDBRANCH   6  13
BRANCH   5  18
ATOM     18  N   LIG d   1      -3.699  94.568 118.009  0.00  0.00     0.381 N 
ATOM     19  H   LIG d   1      -2.705  94.662 117.943  0.00  0.00    -0.090 HD
ATOM     20  H   LIG d   1      -4.043  95.280 118.629  0.00  0.00    -0.090 HD
ATOM     21  H   LIG d   1      -4.110  94.675 117.108  0.00  0.00    -0.090 HD
ENDBRANCH   5  18
BRANCH   3  22
ATOM     22  C   LIG d   1      -6.205  90.543 117.331  0.00  0.00     0.382 C 
ATOM     23  O   LIG d   1      -6.102  89.675 116.431  0.00  0.00    -0.241 OA
ATOM     24  O   LIG d   1      -7.335  90.891 117.722  0.00  0.00    -0.241 OA
ENDBRANCH   3  22
TORSDOF 7
ENDMDL
MODEL 5
REMARK VINA RESULT:      -4.1      2.793      6.453
REMARK  7 active torsions:
REMARK  status: ('A' for Active; 'I' for Inactive)
REMARK    1  A    between atoms: C_2  and  C_3 
REMARK    2  A    between atoms: C_3  and  O_6 
REMARK    3  A    between atoms: C_3  and  C_4 
REMARK    4  A    between atoms: C_7  and  O_6 
REMARK    5  A    between atoms: C_9  and  C_10 
REMARK    6  A    between atoms: N_15  and  C_14 
REMARK    7  A    between atoms: N_20  and  C_19 
REMARK       I    between atoms: C_22  and  N_20 
ROOT
ATOM      1  C   LIG d   1       0.498  90.891 116.851  0.00  0.00     0.161 C 
ATOM      2  C   LIG d   1       1.765  91.414 117.159  0.00  0.00     0.016 C 
ATOM      3  C   LIG d   1       1.959  92.555 117.971  0.00  0.00     0.038 C 
ATOM      4  C   LIG d   1       0.899  93.165 118.658  0.00  0.00     0.028 C 
ATOM      5  C   LIG d   1      -0.452  92.980 117.975  0.00  0.00    -0.047 C 
ATOM      6  C   LIG d   1      -0.663  91.477 117.681  0.00  0.00     0.091 C 
ENDROOT
BRANCH   1   7
ATOM      7  O   LIG d   1       0.521  89.454 116.966  0.00  0.00    -0.368 OA
BRANCH   7   8
ATOM      8  C   LIG d   1       0.088  88.910 118.237  0.00  0.00     0.119 C 
BRANCH   8   9
ATOM      9  C   LIG d   1       1.321  88.283 118.916  0.00  0.00     0.028 C 
ATOM     10  C   LIG d   1       1.818  89.112 120.112  0.00  0.00     0.006 C 
ENDBRANCH   8   9
BRANCH   8  11
ATOM     11  C   LIG d   1      -0.899  87.755 118.042  0.00  0.00     0.028 C 
ATOM     12  C   LIG d   1      -1.950  87.673 119.160  0.00  0.00     0.006 C 
ENDBRANCH   8  11
ENDBRANCH   7   8
ENDBRANCH   1   7
BRANCH   6  13
ATOM     13  N   LIG d   1      -1.924  91.217 116.939  0.00  0.00    -0.311 N 
ATOM     14  C   LIG d   1      -3.080  90.928 117.535  0.00  0.00     0.210 C 
ATOM     15  C   LIG d   1      -4.253  90.675 116.582  0.00  0.00     0.109 C 
ATOM     16  O   LIG d   1      -3.252  90.889 118.762  0.00  0.00    -0.276 OA
ATOM     17  H   LIG d   1      -1.881  91.258 115.939  0.00  0.00     0.149 HD
ENDBRANCH   6  13
BRANCH   5  18
ATOM     18  N   LIG d   1      -1.482  93.545 118.866  0.00  0.00     0.381 N 
ATOM     19  H   LIG d   1      -2.267  92.926 118.912  0.00  0.00    -0.090 HD
ATOM     20  H   LIG d   1      -1.794  94.422 118.487  0.00  0.00    -0.090 HD
ATOM     21  H   LIG d   1      -1.106  93.684 119.778  0.00  0.00    -0.090 HD
ENDBRANCH   5  18
BRANCH   3  22
ATOM     22  C   LIG d   1       3.221  93.121 118.069  0.00  0.00     0.382 C 
ATOM     23  O   LIG d   1       3.605  93.611 119.159  0.00  0.00    -0.241 OA
ATOM     24  O   LIG d   1       3.963  93.188 117.071  0.00  0.00    -0.241 OA
ENDBRANCH   3  22
TORSDOF 7
ENDMDL
MODEL 6
REMARK VINA RESULT:      -4.0      2.069      3.212
REMARK  7 active torsions:
REMARK  status: ('A' for Active; 'I' for Inactive)
REMARK    1  A    between atoms: C_2  and  C_3 
REMARK    2  A    between atoms: C_3  and  O_6 
REMARK    3  A    between atoms: C_3  and  C_4 
REMARK    4  A    between atoms: C_7  and  O_6 
REMARK    5  A    between atoms: C_9  and  C_10 
REMARK    6  A    between atoms: N_15  and  C_14 
REMARK    7  A    between atoms: N_20  and  C_19 
REMARK       I    between atoms: C_22  and  N_20 
ROOT
ATOM      1  C   LIG d   1      -3.667  93.089 117.746  0.00  0.00     0.161 C 
ATOM      2  C   LIG d   1      -4.927  92.557 117.427  0.00  0.00     0.016 C 
ATOM      3  C   LIG d   1      -5.156  91.180 117.205  0.00  0.00     0.038 C 
ATOM      4  C   LIG d   1      -4.164  90.216 117.437  0.00  0.00     0.028 C 
ATOM      5  C   LIG d   1      -2.747  90.753 117.270  0.00  0.00    -0.047 C 
ATOM      6  C   LIG d   1      -2.596  92.040 118.112  0.00  0.00     0.091 C 
ENDROOT
BRANCH   1   7
ATOM      7  O   LIG d   1      -3.800  94.060 118.803  0.00  0.00    -0.368 OA
BRANCH   7   8
ATOM      8  C   LIG d   1      -4.978  93.936 119.637  0.00  0.00     0.119 C 
BRANCH   8   9
ATOM      9  C   LIG d   1      -5.560  95.350 119.828  0.00  0.00     0.028 C 
ATOM     10  C   LIG d   1      -4.678  96.439 119.194  0.00  0.00     0.006 C 
ENDBRANCH   8   9
BRANCH   8  11
ATOM     11  C   LIG d   1      -4.615  93.454 121.045  0.00  0.00     0.028 C 
ATOM     12  C   LIG d   1      -3.137  93.689 121.393  0.00  0.00     0.006 C 
ENDBRANCH   8  11
ENDBRANCH   7   8
ENDBRANCH   1   7
BRANCH   6  13
ATOM     13  N   LIG d   1      -1.264  92.678 117.940  0.00  0.00    -0.311 N 
ATOM     14  C   LIG d   1      -0.246  92.486 118.776  0.00  0.00     0.210 C 
ATOM     15  C   LIG d   1       1.032  93.254 118.425  0.00  0.00     0.109 C 
ATOM     16  O   LIG d   1      -0.270  91.729 119.758  0.00  0.00    -0.276 OA
ATOM     17  H   LIG d   1      -1.148  93.284 117.151  0.00  0.00     0.149 HD
ENDBRANCH   6  13
BRANCH   5  18
ATOM     18  N   LIG d   1      -1.814  89.684 117.674  0.00  0.00     0.381 N 
ATOM     19  H   LIG d   1      -2.191  88.792 117.423  0.00  0.00    -0.090 HD
ATOM     20  H   LIG d   1      -1.704  89.710 118.673  0.00  0.00    -0.090 HD
ATOM     21  H   LIG d   1      -0.931  89.817 117.232  0.00  0.00    -0.090 HD
ENDBRANCH   5  18
BRANCH   3  22
ATOM     22  C   LIG d   1      -6.380  90.758 116.707  0.00  0.00     0.382 C 
ATOM     23  O   LIG d   1      -7.268  91.601 116.431  0.00  0.00    -0.241 OA
ATOM     24  O   LIG d   1      -6.623  89.544 116.572  0.00  0.00    -0.241 OA
ENDBRANCH   3  22
TORSDOF 7
ENDMDL
MODEL 7
REMARK VINA RESULT:      -3.9      1.421      2.025
REMARK  7 active torsions:
REMARK  status: ('A' for Active; 'I' for Inactive)
REMARK    1  A    between atoms: C_2  and  C_3 
REMARK    2  A    between atoms: C_3  and  O_6 
REMARK    3  A    between atoms: C_3  and  C_4 
REMARK    4  A    between atoms: C_7  and  O_6 
REMARK    5  A    between atoms: C_9  and  C_10 
REMARK    6  A    between atoms: N_15  and  C_14 
REMARK    7  A    between atoms: N_20  and  C_19 
REMARK       I    between atoms: C_22  and  N_20 
ROOT
ATOM      1  C   LIG d   1      -2.796  92.862 117.565  0.00  0.00     0.161 C 
ATOM      2  C   LIG d   1      -4.169  93.014 117.820  0.00  0.00     0.016 C 
ATOM      3  C   LIG d   1      -5.061  91.925 117.951  0.00  0.00     0.038 C 
ATOM      4  C   LIG d   1      -4.610  90.598 117.987  0.00  0.00     0.028 C 
ATOM      5  C   LIG d   1      -3.304  90.381 117.231  0.00  0.00    -0.047 C 
ATOM      6  C   LIG d   1      -2.266  91.421 117.712  0.00  0.00     0.091 C 
ENDROOT
BRANCH   1   7
ATOM      7  O   LIG d   1      -2.041  93.761 118.403  0.00  0.00    -0.368 OA
BRANCH   7   8
ATOM      8  C   LIG d   1      -2.722  94.255 119.582  0.00  0.00     0.119 C 
BRANCH   8   9
ATOM      9  C   LIG d   1      -2.462  95.772 119.666  0.00  0.00     0.028 C 
ATOM     10  C   LIG d   1      -3.652  96.600 119.152  0.00  0.00     0.006 C 
ENDBRANCH   8   9
BRANCH   8  11
ATOM     11  C   LIG d   1      -2.116  93.669 120.861  0.00  0.00     0.028 C 
ATOM     12  C   LIG d   1      -2.475  94.480 122.117  0.00  0.00     0.006 C 
ENDBRANCH   8  11
ENDBRANCH   7   8
ENDBRANCH   1   7
BRANCH   6  13
ATOM     13  N   LIG d   1      -0.986  91.333 116.962  0.00  0.00    -0.311 N 
ATOM     14  C   LIG d   1       0.052  90.603 117.367  0.00  0.00     0.210 C 
ATOM     15  C   LIG d   1       1.282  90.669 116.457  0.00  0.00     0.109 C 
ATOM     16  O   LIG d   1       0.060  89.883 118.377  0.00  0.00    -0.276 OA
ATOM     17  H   LIG d   1      -0.917  91.861 116.115  0.00  0.00     0.149 HD
ENDBRANCH   6  13
BRANCH   5  18
ATOM     18  N   LIG d   1      -2.879  88.988 117.466  0.00  0.00     0.381 N 
ATOM     19  H   LIG d   1      -2.673  88.856 118.436  0.00  0.00    -0.090 HD
ATOM     20  H   LIG d   1      -2.042  88.810 116.939  0.00  0.00    -0.090 HD
ATOM     21  H   LIG d   1      -3.598  88.359 117.183  0.00  0.00    -0.090 HD
ENDBRANCH   5  18
BRANCH   3  22
ATOM     22  C   LIG d   1      -6.427  92.159 118.008  0.00  0.00     0.382 C 
ATOM     23  O   LIG d   1      -7.219  91.204 118.198  0.00  0.00    -0.241 OA
ATOM     24  O   LIG d   1      -6.880  93.305 117.829  0.00  0.00    -0.241 OA
ENDBRANCH   3  22
TORSDOF 7
ENDMDL
MODEL 8
REMARK VINA RESULT:      -3.9      2.725      4.477
REMARK  7 active torsions:
REMARK  status: ('A' for Active; 'I' for Inactive)
REMARK    1  A    between atoms: C_2  and  C_3 
REMARK    2  A    between atoms: C_3  and  O_6 
REMARK    3  A    between atoms: C_3  and  C_4 
REMARK    4  A    between atoms: C_7  and  O_6 
REMARK    5  A    between atoms: C_9  and  C_10 
REMARK    6  A    between atoms: N_15  and  C_14 
REMARK    7  A    between atoms: N_20  and  C_19 
REMARK       I    between atoms: C_22  and  N_20 
ROOT
ATOM      1  C   LIG d   1      -3.481  92.845 118.861  0.00  0.00     0.161 C 
ATOM      2  C   LIG d   1      -4.128  91.791 118.194  0.00  0.00     0.016 C 
ATOM      3  C   LIG d   1      -5.430  91.895 117.655  0.00  0.00     0.038 C 
ATOM      4  C   LIG d   1      -6.121  93.115 117.613  0.00  0.00     0.028 C 
ATOM      5  C   LIG d   1      -5.714  94.080 118.721  0.00  0.00    -0.047 C 
ATOM      6  C   LIG d   1      -4.174  94.217 118.727  0.00  0.00     0.091 C 
ENDROOT
BRANCH   1   7
ATOM      7  O   LIG d   1      -2.110  92.932 118.423  0.00  0.00    -0.368 OA
BRANCH   7   8
ATOM      8  C   LIG d   1      -1.109  92.497 119.376  0.00  0.00     0.119 C 
BRANCH   8   9
ATOM      9  C   LIG d   1      -0.364  93.752 119.870  0.00  0.00     0.028 C 
ATOM     10  C   LIG d   1      -0.190  94.805 118.763  0.00  0.00     0.006 C 
ENDBRANCH   8   9
BRANCH   8  11
ATOM     11  C   LIG d   1      -0.040  91.630 118.704  0.00  0.00     0.028 C 
ATOM     12  C   LIG d   1      -0.508  91.038 117.365  0.00  0.00     0.006 C 
ENDBRANCH   8  11
ENDBRANCH   7   8
ENDBRANCH   1   7
BRANCH   6  13
ATOM     13  N   LIG d   1      -3.686  95.078 119.835  0.00  0.00    -0.311 N 
ATOM     14  C   LIG d   1      -3.513  96.394 119.720  0.00  0.00     0.210 C 
ATOM     15  C   LIG d   1      -2.982  97.089 120.978  0.00  0.00     0.109 C 
ATOM     16  O   LIG d   1      -3.781  97.057 118.706  0.00  0.00    -0.276 OA
ATOM     17  H   LIG d   1      -3.474  94.628 120.704  0.00  0.00     0.149 HD
ENDBRANCH   6  13
BRANCH   5  18
ATOM     18  N   LIG d   1      -6.408  95.358 118.477  0.00  0.00     0.381 N 
ATOM     19  H   LIG d   1      -6.485  95.871 119.332  0.00  0.00    -0.090 HD
ATOM     20  H   LIG d   1      -7.334  95.166 118.140  0.00  0.00    -0.090 HD
ATOM     21  H   LIG d   1      -5.906  95.895 117.803  0.00  0.00    -0.090 HD
ENDBRANCH   5  18
BRANCH   3  22
ATOM     22  C   LIG d   1      -6.072  90.758 117.186  0.00  0.00     0.382 C 
ATOM     23  O   LIG d   1      -7.317  90.650 117.298  0.00  0.00    -0.241 OA
ATOM     24  O   LIG d   1      -5.417  89.821 116.692  0.00  0.00    -0.241 OA
ENDBRANCH   3  22
TORSDOF 7
ENDMDL
MODEL 9
REMARK VINA RESULT:      -3.9      2.173      4.817
REMARK  7 active torsions:
REMARK  status: ('A' for Active; 'I' for Inactive)
REMARK    1  A    between atoms: C_2  and  C_3 
REMARK    2  A    between atoms: C_3  and  O_6 
REMARK    3  A    between atoms: C_3  and  C_4 
REMARK    4  A    between atoms: C_7  and  O_6 
REMARK    5  A    between atoms: C_9  and  C_10 
REMARK    6  A    between atoms: N_15  and  C_14 
REMARK    7  A    between atoms: N_20  and  C_19 
REMARK       I    between atoms: C_22  and  N_20 
ROOT
ATOM      1  C   LIG d   1      -3.746  92.852 118.489  0.00  0.00     0.161 C 
ATOM      2  C   LIG d   1      -2.968  91.682 118.461  0.00  0.00     0.016 C 
ATOM      3  C   LIG d   1      -3.456  90.434 118.011  0.00  0.00     0.038 C 
ATOM      4  C   LIG d   1      -4.718  90.303 117.413  0.00  0.00     0.028 C 
ATOM      5  C   LIG d   1      -5.723  91.351 117.882  0.00  0.00    -0.047 C 
ATOM      6  C   LIG d   1      -5.089  92.754 117.736  0.00  0.00     0.091 C 
ENDROOT
BRANCH   1   7
ATOM      7  O   LIG d   1      -2.974  93.964 117.993  0.00  0.00    -0.368 OA
BRANCH   7   8
ATOM      8  C   LIG d   1      -2.674  95.009 118.950  0.00  0.00     0.119 C 
BRANCH   8   9
ATOM      9  C   LIG d   1      -1.141  95.094 119.079  0.00  0.00     0.028 C 
ATOM     10  C   LIG d   1      -0.670  96.462 119.599  0.00  0.00     0.006 C 
ENDBRANCH   8   9
BRANCH   8  11
ATOM     11  C   LIG d   1      -3.179  94.645 120.349  0.00  0.00     0.028 C 
ATOM     12  C   LIG d   1      -4.142  95.694 120.928  0.00  0.00     0.006 C 
ENDBRANCH   8  11
ENDBRANCH   7   8
ENDBRANCH   1   7
BRANCH   6  13
ATOM     13  N   LIG d   1      -5.974  93.831 118.252  0.00  0.00    -0.311 N 
ATOM     14  C   LIG d   1      -6.986  94.345 117.556  0.00  0.00     0.210 C 
ATOM     15  C   LIG d   1      -7.759  95.461 118.265  0.00  0.00     0.109 C 
ATOM     16  O   LIG d   1      -7.338  93.960 116.430  0.00  0.00    -0.276 OA
ATOM     17  H   LIG d   1      -5.779  94.181 119.170  0.00  0.00     0.149 HD
ENDBRANCH   6  13
BRANCH   5  18
ATOM     18  N   LIG d   1      -6.949  91.184 117.079  0.00  0.00     0.381 N 
ATOM     19  H   LIG d   1      -7.267  92.077 116.758  0.00  0.00    -0.090 HD
ATOM     20  H   LIG d   1      -7.665  90.783 117.658  0.00  0.00    -0.090 HD
ATOM     21  H   LIG d   1      -6.768  90.588 116.301  0.00  0.00    -0.090 HD
ENDBRANCH   5  18
BRANCH   3  22
ATOM     22  C   LIG d   1      -2.693  89.291 118.195  0.00  0.00     0.382 C 
ATOM     23  O   LIG d   1      -3.074  88.405 118.998  0.00  0.00    -0.241 OA
ATOM     24  O   LIG d   1      -1.607  89.155 117.601  0.00  0.00    -0.241 OA
ENDBRANCH   3  22
TORSDOF 7
ENDMDL
