MODEL 1
REMARK VINA RESULT:      -4.7      0.000      0.000
REMARK  7 active torsions:
REMARK  status: ('A' for Active; 'I' for Inactive)
REMARK    1  A    between atoms: C_2  and  C_3 
REMARK    2  A    between atoms: C_3  and  O_6 
REMARK    3  A    between atoms: C_3  and  C_4 
REMARK    4  A    between atoms: C_7  and  O_6 
REMARK    5  A    between atoms: C_9  and  C_10 
REMARK    6  A    between atoms: N_15  and  C_14 
REMARK    7  A    between atoms: N_20  and  C_19 
REMARK       I    between atoms: C_22  and  N_20 
ROOT
ATOM      1  C   LIG d   1      -4.663  92.210 119.659  0.00  0.00     0.161 C 
ATOM      2  C   LIG d   1      -5.756  91.857 118.850  0.00  0.00     0.016 C 
ATOM      3  C   LIG d   1      -5.626  91.154 117.630  0.00  0.00     0.038 C 
ATOM      4  C   LIG d   1      -4.399  90.622 117.208  0.00  0.00     0.028 C 
ATOM      5  C   LIG d   1      -3.191  91.388 117.738  0.00  0.00    -0.047 C 
ATOM      6  C   LIG d   1      -3.328  91.541 119.271  0.00  0.00     0.091 C 
ENDROOT
BRANCH   1   7
ATOM      7  O   LIG d   1      -4.973  91.946 121.041  0.00  0.00    -0.368 OA
BRANCH   7   8
ATOM      8  C   LIG d   1      -5.792  92.935 121.712  0.00  0.00     0.119 C 
BRANCH   8   9
ATOM      9  C   LIG d   1      -4.988  93.463 122.915  0.00  0.00     0.028 C 
ATOM     10  C   LIG d   1      -3.898  92.478 123.370  0.00  0.00     0.006 C 
ENDBRANCH   8   9
BRANCH   8  11
ATOM     11  C   LIG d   1      -7.051  92.302 122.311  0.00  0.00     0.028 C 
ATOM     12  C   LIG d   1      -8.323  92.636 121.515  0.00  0.00     0.006 C 
ENDBRANCH   8  11
ENDBRANCH   7   8
ENDBRANCH   1   7
BRANCH   6  13
ATOM     13  N   LIG d   1      -2.230  92.351 119.859  0.00  0.00    -0.311 N 
ATOM     14  C   LIG d   1      -1.374  91.879 120.763  0.00  0.00     0.210 C 
ATOM     15  C   LIG d   1      -0.331  92.888 121.254  0.00  0.00     0.109 C 
ATOM     16  O   LIG d   1      -1.358  90.712 121.181  0.00  0.00    -0.276 OA
ATOM     17  H   LIG d   1      -2.150  93.301 119.553  0.00  0.00     0.149 HD
ENDBRANCH   6  13
BRANCH   5  18
ATOM     18  N   LIG d   1      -1.981  90.646 117.337  0.00  0.00     0.381 N 
ATOM     19  H   LIG d   1      -1.296  90.696 118.065  0.00  0.00    -0.090 HD
ATOM     20  H   LIG d   1      -1.597  91.072 116.512  0.00  0.00    -0.090 HD
ATOM     21  H   LIG d   1      -2.211  89.694 117.151  0.00  0.00    -0.090 HD
ENDBRANCH   5  18
BRANCH   3  22
ATOM     22  C   LIG d   1      -6.726  91.013 116.797  0.00  0.00     0.382 C 
ATOM     23  O   LIG d   1      -7.368  92.027 116.430  0.00  0.00    -0.241 OA
ATOM     24  O   LIG d   1      -7.111  89.882 116.445  0.00  0.00    -0.241 OA
ENDBRANCH   3  22
TORSDOF 7
ENDMDL
MODEL 2
REMARK VINA RESULT:      -4.7      2.996      4.444
REMARK  7 active torsions:
REMARK  status: ('A' for Active; 'I' for Inactive)
REMARK    1  A    between atoms: C_2  and  C_3 
REMARK    2  A    between atoms: C_3  and  O_6 
REMARK    3  A    between atoms: C_3  and  C_4 
REMARK    4  A    between atoms: C_7  and  O_6 
REMARK    5  A    between atoms: C_9  and  C_10 
REMARK    6  A    between atoms: N_15  and  C_14 
REMARK    7  A    between atoms: N_20  and  C_19 
REMARK       I    between atoms: C_22  and  N_20 
ROOT
ATOM      1  C   LIG d   1      -6.845  93.123 120.332  0.00  0.00     0.161 C 
ATOM      2  C   LIG d   1      -7.991  93.886 120.610  0.00  0.00     0.016 C 
ATOM      3  C   LIG d   1      -8.958  94.222 119.635  0.00  0.00     0.038 C 
ATOM      4  C   LIG d   1      -8.922  93.685 118.339  0.00  0.00     0.028 C 
ATOM      5  C   LIG d   1      -7.516  93.320 117.874  0.00  0.00    -0.047 C 
ATOM      6  C   LIG d   1      -6.846  92.436 118.950  0.00  0.00     0.091 C 
ENDROOT
BRANCH   1   7
ATOM      7  O   LIG d   1      -6.641  92.149 121.375  0.00  0.00    -0.368 OA
BRANCH   7   8
ATOM      8  C   LIG d   1      -6.054  92.645 122.603  0.00  0.00     0.119 C 
BRANCH   8   9
ATOM      9  C   LIG d   1      -4.689  91.951 122.777  0.00  0.00     0.028 C 
ATOM     10  C   LIG d   1      -3.632  92.483 121.795  0.00  0.00     0.006 C 
ENDBRANCH   8   9
BRANCH   8  11
ATOM     11  C   LIG d   1      -6.880  92.227 123.824  0.00  0.00     0.028 C 
ATOM     12  C   LIG d   1      -8.117  91.394 123.450  0.00  0.00     0.006 C 
ENDBRANCH   8  11
ENDBRANCH   7   8
ENDBRANCH   1   7
BRANCH   6  13
ATOM     13  N   LIG d   1      -5.437  92.103 118.613  0.00  0.00    -0.311 N 
ATOM     14  C   LIG d   1      -5.092  91.085 117.827  0.00  0.00     0.210 C 
ATOM     15  C   LIG d   1      -3.584  90.906 117.624  0.00  0.00     0.109 C 
ATOM     16  O   LIG d   1      -5.893  90.332 117.252  0.00  0.00    -0.276 OA
ATOM     17  H   LIG d   1      -4.724  92.682 119.011  0.00  0.00     0.149 HD
ENDBRANCH   6  13
BRANCH   5  18
ATOM     18  N   LIG d   1      -7.640  92.648 116.567  0.00  0.00     0.381 N 
ATOM     19  H   LIG d   1      -6.880  92.009 116.442  0.00  0.00    -0.090 HD
ATOM     20  H   LIG d   1      -7.593  93.339 115.840  0.00  0.00    -0.090 HD
ATOM     21  H   LIG d   1      -8.507  92.159 116.516  0.00  0.00    -0.090 HD
ENDBRANCH   5  18
BRANCH   3  22
ATOM     22  C   LIG d   1      -9.955  95.135 119.942  0.00  0.00     0.382 C 
ATOM     23  O   LIG d   1     -11.161  94.809 119.827  0.00  0.00    -0.241 OA
ATOM     24  O   LIG d   1      -9.664  96.295 120.290  0.00  0.00    -0.241 OA
ENDBRANCH   3  22
TORSDOF 7
ENDMDL
MODEL 3
REMARK VINA RESULT:      -4.6      2.777      4.623
REMARK  7 active torsions:
REMARK  status: ('A' for Active; 'I' for Inactive)
REMARK    1  A    between atoms: C_2  and  C_3 
REMARK    2  A    between atoms: C_3  and  O_6 
REMARK    3  A    between atoms: C_3  and  C_4 
REMARK    4  A    between atoms: C_7  and  O_6 
REMARK    5  A    between atoms: C_9  and  C_10 
REMARK    6  A    between atoms: N_15  and  C_14 
REMARK    7  A    between atoms: N_20  and  C_19 
REMARK       I    between atoms: C_22  and  N_20 
ROOT
ATOM      1  C   LIG d   1      -5.804  92.860 120.487  0.00  0.00     0.161 C 
ATOM      2  C   LIG d   1      -7.049  92.776 119.842  0.00  0.00     0.016 C 
ATOM      3  C   LIG d   1      -7.690  93.883 119.241  0.00  0.00     0.038 C 
ATOM      4  C   LIG d   1      -7.055  95.127 119.111  0.00  0.00     0.028 C 
ATOM      5  C   LIG d   1      -6.010  95.389 120.191  0.00  0.00    -0.047 C 
ATOM      6  C   LIG d   1      -5.045  94.183 120.258  0.00  0.00     0.091 C 
ENDROOT
BRANCH   1   7
ATOM      7  O   LIG d   1      -4.981  91.739 120.108  0.00  0.00    -0.368 OA
BRANCH   7   8
ATOM      8  C   LIG d   1      -4.274  91.864 118.850  0.00  0.00     0.119 C 
BRANCH   8   9
ATOM      9  C   LIG d   1      -4.651  90.646 117.983  0.00  0.00     0.028 C 
ATOM     10  C   LIG d   1      -5.708  90.988 116.920  0.00  0.00     0.006 C 
ENDBRANCH   8   9
BRANCH   8  11
ATOM     11  C   LIG d   1      -2.758  91.765 119.050  0.00  0.00     0.028 C 
ATOM     12  C   LIG d   1      -1.965  92.549 117.993  0.00  0.00     0.006 C 
ENDBRANCH   8  11
ENDBRANCH   7   8
ENDBRANCH   1   7
BRANCH   6  13
ATOM     13  N   LIG d   1      -4.042  94.321 121.346  0.00  0.00    -0.311 N 
ATOM     14  C   LIG d   1      -2.839  94.864 121.170  0.00  0.00     0.210 C 
ATOM     15  C   LIG d   1      -1.951  94.890 122.419  0.00  0.00     0.109 C 
ATOM     16  O   LIG d   1      -2.434  95.357 120.106  0.00  0.00    -0.276 OA
ATOM     17  H   LIG d   1      -4.299  93.975 122.250  0.00  0.00     0.149 HD
ENDBRANCH   6  13
BRANCH   5  18
ATOM     18  N   LIG d   1      -5.331  96.655 119.856  0.00  0.00     0.381 N 
ATOM     19  H   LIG d   1      -4.598  96.831 120.514  0.00  0.00    -0.090 HD
ATOM     20  H   LIG d   1      -5.996  97.406 119.916  0.00  0.00    -0.090 HD
ATOM     21  H   LIG d   1      -4.955  96.607 118.935  0.00  0.00    -0.090 HD
ENDBRANCH   5  18
BRANCH   3  22
ATOM     22  C   LIG d   1      -8.998  93.762 118.797  0.00  0.00     0.382 C 
ATOM     23  O   LIG d   1      -9.335  94.262 117.697  0.00  0.00    -0.241 OA
ATOM     24  O   LIG d   1      -9.855  93.199 119.503  0.00  0.00    -0.241 OA
ENDBRANCH   3  22
TORSDOF 7
ENDMDL
MODEL 4
REMARK VINA RESULT:      -4.5      3.195      4.948
REMARK  7 active torsions:
REMARK  status: ('A' for Active; 'I' for Inactive)
REMARK    1  A    between atoms: C_2  and  C_3 
REMARK    2  A    between atoms: C_3  and  O_6 
REMARK    3  A    between atoms: C_3  and  C_4 
REMARK    4  A    between atoms: C_7  and  O_6 
REMARK    5  A    between atoms: C_9  and  C_10 
REMARK    6  A    between atoms: N_15  and  C_14 
REMARK    7  A    between atoms: N_20  and  C_19 
REMARK       I    between atoms: C_22  and  N_20 
ROOT
ATOM      1  C   LIG d   1      -6.150  93.026 119.820  0.00  0.00     0.161 C 
ATOM      2  C   LIG d   1      -5.821  91.982 118.939  0.00  0.00     0.016 C 
ATOM      3  C   LIG d   1      -6.495  91.754 117.717  0.00  0.00     0.038 C 
ATOM      4  C   LIG d   1      -7.450  92.653 117.218  0.00  0.00     0.028 C 
ATOM      5  C   LIG d   1      -8.168  93.441 118.308  0.00  0.00    -0.047 C 
ATOM      6  C   LIG d   1      -7.115  94.082 119.240  0.00  0.00     0.091 C 
ENDROOT
BRANCH   1   7
ATOM      7  O   LIG d   1      -4.946  93.657 120.300  0.00  0.00    -0.368 OA
BRANCH   7   8
ATOM      8  C   LIG d   1      -3.708  92.954 120.034  0.00  0.00     0.119 C 
BRANCH   8   9
ATOM      9  C   LIG d   1      -3.097  92.563 121.393  0.00  0.00     0.028 C 
ATOM     10  C   LIG d   1      -3.211  91.055 121.676  0.00  0.00     0.006 C 
ENDBRANCH   8   9
BRANCH   8  11
ATOM     11  C   LIG d   1      -2.676  93.873 119.374  0.00  0.00     0.028 C 
ATOM     12  C   LIG d   1      -1.888  93.176 118.254  0.00  0.00     0.006 C 
ENDBRANCH   8  11
ENDBRANCH   7   8
ENDBRANCH   1   7
BRANCH   6  13
ATOM     13  N   LIG d   1      -7.733  94.802 120.384  0.00  0.00    -0.311 N 
ATOM     14  C   LIG d   1      -7.610  96.114 120.576  0.00  0.00     0.210 C 
ATOM     15  C   LIG d   1      -8.310  96.652 121.828  0.00  0.00     0.109 C 
ATOM     16  O   LIG d   1      -7.015  96.889 119.812  0.00  0.00    -0.276 OA
ATOM     17  H   LIG d   1      -8.260  94.255 121.036  0.00  0.00     0.149 HD
ENDBRANCH   6  13
BRANCH   5  18
ATOM     18  N   LIG d   1      -9.033  94.434 117.644  0.00  0.00     0.381 N 
ATOM     19  H   LIG d   1      -9.686  93.968 117.046  0.00  0.00    -0.090 HD
ATOM     20  H   LIG d   1      -8.461  95.036 117.077  0.00  0.00    -0.090 HD
ATOM     21  H   LIG d   1      -9.521  94.972 118.326  0.00  0.00    -0.090 HD
ENDBRANCH   5  18
BRANCH   3  22
ATOM     22  C   LIG d   1      -6.242  90.595 116.999  0.00  0.00     0.382 C 
ATOM     23  O   LIG d   1      -7.184  89.992 116.431  0.00  0.00    -0.241 OA
ATOM     24  O   LIG d   1      -5.092  90.121 116.949  0.00  0.00    -0.241 OA
ENDBRANCH   3  22
TORSDOF 7
ENDMDL
MODEL 5
REMARK VINA RESULT:      -4.4      1.815      3.037
REMARK  7 active torsions:
REMARK  status: ('A' for Active; 'I' for Inactive)
REMARK    1  A    between atoms: C_2  and  C_3 
REMARK    2  A    between atoms: C_3  and  O_6 
REMARK    3  A    between atoms: C_3  and  C_4 
REMARK    4  A    between atoms: C_7  and  O_6 
REMARK    5  A    between atoms: C_9  and  C_10 
REMARK    6  A    between atoms: N_15  and  C_14 
REMARK    7  A    between atoms: N_20  and  C_19 
REMARK       I    between atoms: C_22  and  N_20 
ROOT
ATOM      1  C   LIG d   1      -2.823  92.399 119.395  0.00  0.00     0.161 C 
ATOM      2  C   LIG d   1      -4.193  92.202 119.158  0.00  0.00     0.016 C 
ATOM      3  C   LIG d   1      -4.694  91.288 118.202  0.00  0.00     0.038 C 
ATOM      4  C   LIG d   1      -3.855  90.395 117.520  0.00  0.00     0.028 C 
ATOM      5  C   LIG d   1      -2.428  90.907 117.358  0.00  0.00    -0.047 C 
ATOM      6  C   LIG d   1      -1.896  91.354 118.739  0.00  0.00     0.091 C 
ENDROOT
BRANCH   1   7
ATOM      7  O   LIG d   1      -2.577  92.467 120.813  0.00  0.00    -0.368 OA
BRANCH   7   8
ATOM      8  C   LIG d   1      -2.314  91.206 121.476  0.00  0.00     0.119 C 
BRANCH   8   9
ATOM      9  C   LIG d   1      -3.409  91.005 122.541  0.00  0.00     0.028 C 
ATOM     10  C   LIG d   1      -4.114  92.320 122.913  0.00  0.00     0.006 C 
ENDBRANCH   8   9
BRANCH   8  11
ATOM     11  C   LIG d   1      -0.995  91.249 122.253  0.00  0.00     0.028 C 
ATOM     12  C   LIG d   1      -0.348  92.643 122.252  0.00  0.00     0.006 C 
ENDBRANCH   8  11
ENDBRANCH   7   8
ENDBRANCH   1   7
BRANCH   6  13
ATOM     13  N   LIG d   1      -0.536  91.947 118.658  0.00  0.00    -0.311 N 
ATOM     14  C   LIG d   1       0.581  91.253 118.871  0.00  0.00     0.210 C 
ATOM     15  C   LIG d   1       1.877  92.062 118.756  0.00  0.00     0.109 C 
ATOM     16  O   LIG d   1       0.622  90.037 119.112  0.00  0.00    -0.276 OA
ATOM     17  H   LIG d   1      -0.476  92.922 118.436  0.00  0.00     0.149 HD
ENDBRANCH   6  13
BRANCH   5  18
ATOM     18  N   LIG d   1      -1.631  89.823 116.755  0.00  0.00     0.381 N 
ATOM     19  H   LIG d   1      -0.785  90.197 116.373  0.00  0.00    -0.090 HD
ATOM     20  H   LIG d   1      -2.159  89.409 116.007  0.00  0.00    -0.090 HD
ATOM     21  H   LIG d   1      -1.417  89.134 117.442  0.00  0.00    -0.090 HD
ENDBRANCH   5  18
BRANCH   3  22
ATOM     22  C   LIG d   1      -6.045  91.291 117.892  0.00  0.00     0.382 C 
ATOM     23  O   LIG d   1      -6.823  92.077 118.483  0.00  0.00    -0.241 OA
ATOM     24  O   LIG d   1      -6.504  90.485 117.059  0.00  0.00    -0.241 OA
ENDBRANCH   3  22
TORSDOF 7
ENDMDL
MODEL 6
REMARK VINA RESULT:      -4.3      2.538      4.659
REMARK  7 active torsions:
REMARK  status: ('A' for Active; 'I' for Inactive)
REMARK    1  A    between atoms: C_2  and  C_3 
REMARK    2  A    between atoms: C_3  and  O_6 
REMARK    3  A    between atoms: C_3  and  C_4 
REMARK    4  A    between atoms: C_7  and  O_6 
REMARK    5  A    between atoms: C_9  and  C_10 
REMARK    6  A    between atoms: N_15  and  C_14 
REMARK    7  A    between atoms: N_20  and  C_19 
REMARK       I    between atoms: C_22  and  N_20 
ROOT
ATOM      1  C   LIG d   1      -3.321  92.182 120.131  0.00  0.00     0.161 C 
ATOM      2  C   LIG d   1      -2.179  91.746 119.438  0.00  0.00     0.016 C 
ATOM      3  C   LIG d   1      -2.227  91.149 118.157  0.00  0.00     0.038 C 
ATOM      4  C   LIG d   1      -3.414  91.085 117.413  0.00  0.00     0.028 C 
ATOM      5  C   LIG d   1      -4.670  91.054 118.277  0.00  0.00    -0.047 C 
ATOM      6  C   LIG d   1      -4.613  92.222 119.288  0.00  0.00     0.091 C 
ENDROOT
BRANCH   1   7
ATOM      7  O   LIG d   1      -3.070  93.471 120.724  0.00  0.00    -0.368 OA
BRANCH   7   8
ATOM      8  C   LIG d   1      -3.193  94.614 119.842  0.00  0.00     0.119 C 
BRANCH   8   9
ATOM      9  C   LIG d   1      -1.863  95.390 119.900  0.00  0.00     0.028 C 
ATOM     10  C   LIG d   1      -0.928  94.869 121.005  0.00  0.00     0.006 C 
ENDBRANCH   8   9
BRANCH   8  11
ATOM     11  C   LIG d   1      -4.257  95.594 120.345  0.00  0.00     0.028 C 
ATOM     12  C   LIG d   1      -4.671  95.328 121.801  0.00  0.00     0.006 C 
ENDBRANCH   8  11
ENDBRANCH   7   8
ENDBRANCH   1   7
BRANCH   6  13
ATOM     13  N   LIG d   1      -5.764  92.215 120.229  0.00  0.00    -0.311 N 
ATOM     14  C   LIG d   1      -6.888  92.896 120.016  0.00  0.00     0.210 C 
ATOM     15  C   LIG d   1      -7.941  92.766 121.121  0.00  0.00     0.109 C 
ATOM     16  O   LIG d   1      -7.127  93.569 119.002  0.00  0.00    -0.276 OA
ATOM     17  H   LIG d   1      -5.668  91.669 121.063  0.00  0.00     0.149 HD
ENDBRANCH   6  13
BRANCH   5  18
ATOM     18  N   LIG d   1      -5.835  91.127 117.375  0.00  0.00     0.381 N 
ATOM     19  H   LIG d   1      -6.648  90.780 117.842  0.00  0.00    -0.090 HD
ATOM     20  H   LIG d   1      -5.661  90.548 116.572  0.00  0.00    -0.090 HD
ATOM     21  H   LIG d   1      -5.984  92.069 117.087  0.00  0.00    -0.090 HD
ENDBRANCH   5  18
BRANCH   3  22
ATOM     22  C   LIG d   1      -1.084  90.572 117.625  0.00  0.00     0.382 C 
ATOM     23  O   LIG d   1      -1.163  89.490 116.994  0.00  0.00    -0.241 OA
ATOM     24  O   LIG d   1       0.031  91.097 117.805  0.00  0.00    -0.241 OA
ENDBRANCH   3  22
TORSDOF 7
ENDMDL
MODEL 7
REMARK VINA RESULT:      -4.2      3.115      4.932
REMARK  7 active torsions:
REMARK  status: ('A' for Active; 'I' for Inactive)
REMARK    1  A    between atoms: C_2  and  C_3 
REMARK    2  A    between atoms: C_3  and  O_6 
REMARK    3  A    between atoms: C_3  and  C_4 
REMARK    4  A    between atoms: C_7  and  O_6 
REMARK    5  A    between atoms: C_9  and  C_10 
REMARK    6  A    between atoms: N_15  and  C_14 
REMARK    7  A    between atoms: N_20  and  C_19 
REMARK       I    between atoms: C_22  and  N_20 
ROOT
ATOM      1  C   LIG d   1      -5.813  93.213 120.091  0.00  0.00     0.161 C 
ATOM      2  C   LIG d   1      -7.162  92.823 120.105  0.00  0.00     0.016 C 
ATOM      3  C   LIG d   1      -8.230  93.722 120.329  0.00  0.00     0.038 C 
ATOM      4  C   LIG d   1      -8.028  95.108 120.405  0.00  0.00     0.028 C 
ATOM      5  C   LIG d   1      -6.638  95.492 120.899  0.00  0.00    -0.047 C 
ATOM      6  C   LIG d   1      -5.581  94.738 120.060  0.00  0.00     0.091 C 
ENDROOT
BRANCH   1   7
ATOM      7  O   LIG d   1      -5.133  92.581 118.988  0.00  0.00    -0.368 OA
BRANCH   7   8
ATOM      8  C   LIG d   1      -4.260  91.476 119.326  0.00  0.00     0.119 C 
BRANCH   8   9
ATOM      9  C   LIG d   1      -2.832  92.038 119.460  0.00  0.00     0.028 C 
ATOM     10  C   LIG d   1      -2.078  91.445 120.662  0.00  0.00     0.006 C 
ENDBRANCH   8   9
BRANCH   8  11
ATOM     11  C   LIG d   1      -4.189  90.453 118.188  0.00  0.00     0.028 C 
ATOM     12  C   LIG d   1      -5.002  90.877 116.954  0.00  0.00     0.006 C 
ENDBRANCH   8  11
ENDBRANCH   7   8
ENDBRANCH   1   7
BRANCH   6  13
ATOM     13  N   LIG d   1      -4.195  94.992 120.534  0.00  0.00    -0.311 N 
ATOM     14  C   LIG d   1      -3.388  95.899 119.986  0.00  0.00     0.210 C 
ATOM     15  C   LIG d   1      -1.993  95.986 120.613  0.00  0.00     0.109 C 
ATOM     16  O   LIG d   1      -3.705  96.662 119.061  0.00  0.00    -0.276 OA
ATOM     17  H   LIG d   1      -3.867  94.439 121.301  0.00  0.00     0.149 HD
ENDBRANCH   6  13
BRANCH   5  18
ATOM     18  N   LIG d   1      -6.518  96.959 120.798  0.00  0.00     0.381 N 
ATOM     19  H   LIG d   1      -6.161  97.208 119.897  0.00  0.00    -0.090 HD
ATOM     20  H   LIG d   1      -5.870  97.281 121.495  0.00  0.00    -0.090 HD
ATOM     21  H   LIG d   1      -7.408  97.384 120.940  0.00  0.00    -0.090 HD
ENDBRANCH   5  18
BRANCH   3  22
ATOM     22  C   LIG d   1      -9.513  93.232 120.520  0.00  0.00     0.382 C 
ATOM     23  O   LIG d   1     -10.384  93.391 119.631  0.00  0.00    -0.241 OA
ATOM     24  O   LIG d   1      -9.822  92.671 121.589  0.00  0.00    -0.241 OA
ENDBRANCH   3  22
TORSDOF 7
ENDMDL
MODEL 8
REMARK VINA RESULT:      -4.2      2.701      4.733
REMARK  7 active torsions:
REMARK  status: ('A' for Active; 'I' for Inactive)
REMARK    1  A    between atoms: C_2  and  C_3 
REMARK    2  A    between atoms: C_3  and  O_6 
REMARK    3  A    between atoms: C_3  and  C_4 
REMARK    4  A    between atoms: C_7  and  O_6 
REMARK    5  A    between atoms: C_9  and  C_10 
REMARK    6  A    between atoms: N_15  and  C_14 
REMARK    7  A    between atoms: N_20  and  C_19 
REMARK       I    between atoms: C_22  and  N_20 
ROOT
ATOM      1  C   LIG d   1      -5.820  92.804 120.261  0.00  0.00     0.161 C 
ATOM      2  C   LIG d   1      -6.956  92.925 119.443  0.00  0.00     0.016 C 
ATOM      3  C   LIG d   1      -8.015  93.822 119.711  0.00  0.00     0.038 C 
ATOM      4  C   LIG d   1      -7.939  94.773 120.739  0.00  0.00     0.028 C 
ATOM      5  C   LIG d   1      -7.038  94.347 121.893  0.00  0.00    -0.047 C 
ATOM      6  C   LIG d   1      -5.668  93.911 121.325  0.00  0.00     0.091 C 
ENDROOT
BRANCH   1   7
ATOM      7  O   LIG d   1      -4.636  92.728 119.444  0.00  0.00    -0.368 OA
BRANCH   7   8
ATOM      8  C   LIG d   1      -4.140  91.396 119.162  0.00  0.00     0.119 C 
BRANCH   8   9
ATOM      9  C   LIG d   1      -3.053  91.076 120.207  0.00  0.00     0.028 C 
ATOM     10  C   LIG d   1      -1.873  92.061 120.147  0.00  0.00     0.006 C 
ENDBRANCH   8   9
BRANCH   8  11
ATOM     11  C   LIG d   1      -3.428  91.342 117.807  0.00  0.00     0.028 C 
ATOM     12  C   LIG d   1      -3.946  90.210 116.906  0.00  0.00     0.006 C 
ENDBRANCH   8  11
ENDBRANCH   7   8
ENDBRANCH   1   7
BRANCH   6  13
ATOM     13  N   LIG d   1      -4.755  93.399 122.379  0.00  0.00    -0.311 N 
ATOM     14  C   LIG d   1      -3.619  94.004 122.722  0.00  0.00     0.210 C 
ATOM     15  C   LIG d   1      -2.815  93.298 123.819  0.00  0.00     0.109 C 
ATOM     16  O   LIG d   1      -3.216  95.076 122.244  0.00  0.00    -0.276 OA
ATOM     17  H   LIG d   1      -5.020  92.551 122.841  0.00  0.00     0.149 HD
ENDBRANCH   6  13
BRANCH   5  18
ATOM     18  N   LIG d   1      -6.941  95.486 122.826  0.00  0.00     0.381 N 
ATOM     19  H   LIG d   1      -7.799  95.585 123.330  0.00  0.00    -0.090 HD
ATOM     20  H   LIG d   1      -6.786  96.326 122.298  0.00  0.00    -0.090 HD
ATOM     21  H   LIG d   1      -6.188  95.341 123.463  0.00  0.00    -0.090 HD
ENDBRANCH   5  18
BRANCH   3  22
ATOM     22  C   LIG d   1      -9.184  93.746 118.969  0.00  0.00     0.382 C 
ATOM     23  O   LIG d   1      -9.203  94.160 117.784  0.00  0.00    -0.241 OA
ATOM     24  O   LIG d   1     -10.232  93.311 119.483  0.00  0.00    -0.241 OA
ENDBRANCH   3  22
TORSDOF 7
ENDMDL
MODEL 9
REMARK VINA RESULT:      -4.1      3.217      7.040
REMARK  7 active torsions:
REMARK  status: ('A' for Active; 'I' for Inactive)
REMARK    1  A    between atoms: C_2  and  C_3 
REMARK    2  A    between atoms: C_3  and  O_6 
REMARK    3  A    between atoms: C_3  and  C_4 
REMARK    4  A    between atoms: C_7  and  O_6 
REMARK    5  A    between atoms: C_9  and  C_10 
REMARK    6  A    between atoms: N_15  and  C_14 
REMARK    7  A    between atoms: N_20  and  C_19 
REMARK       I    between atoms: C_22  and  N_20 
ROOT
ATOM      1  C   LIG d   1      -0.900  92.875 119.191  0.00  0.00     0.161 C 
ATOM      2  C   LIG d   1      -0.351  93.842 120.049  0.00  0.00     0.016 C 
ATOM      3  C   LIG d   1      -1.133  94.759 120.789  0.00  0.00     0.038 C 
ATOM      4  C   LIG d   1      -2.532  94.671 120.836  0.00  0.00     0.028 C 
ATOM      5  C   LIG d   1      -3.142  94.033 119.592  0.00  0.00    -0.047 C 
ATOM      6  C   LIG d   1      -2.427  92.691 119.315  0.00  0.00     0.091 C 
ENDROOT
BRANCH   1   7
ATOM      7  O   LIG d   1      -0.227  91.615 119.382  0.00  0.00    -0.368 OA
BRANCH   7   8
ATOM      8  C   LIG d   1       0.573  91.145 118.269  0.00  0.00     0.119 C 
BRANCH   8   9
ATOM      9  C   LIG d   1       0.314  89.633 118.118  0.00  0.00     0.028 C 
ATOM     10  C   LIG d   1      -0.597  89.310 116.923  0.00  0.00     0.006 C 
ENDBRANCH   8   9
BRANCH   8  11
ATOM     11  C   LIG d   1       2.070  91.272 118.565  0.00  0.00     0.028 C 
ATOM     12  C   LIG d   1       2.924  91.370 117.291  0.00  0.00     0.006 C 
ENDBRANCH   8  11
ENDBRANCH   7   8
ENDBRANCH   1   7
BRANCH   6  13
ATOM     13  N   LIG d   1      -2.905  92.041 118.067  0.00  0.00    -0.311 N 
ATOM     14  C   LIG d   1      -3.846  91.099 118.045  0.00  0.00     0.210 C 
ATOM     15  C   LIG d   1      -4.177  90.548 116.655  0.00  0.00     0.109 C 
ATOM     16  O   LIG d   1      -4.461  90.691 119.042  0.00  0.00    -0.276 OA
ATOM     17  H   LIG d   1      -2.481  92.335 117.209  0.00  0.00     0.149 HD
ENDBRANCH   6  13
BRANCH   5  18
ATOM     18  N   LIG d   1      -4.589  93.879 119.834  0.00  0.00     0.381 N 
ATOM     19  H   LIG d   1      -5.092  94.590 119.342  0.00  0.00    -0.090 HD
ATOM     20  H   LIG d   1      -4.768  93.989 120.816  0.00  0.00    -0.090 HD
ATOM     21  H   LIG d   1      -4.891  92.979 119.532  0.00  0.00    -0.090 HD
ENDBRANCH   5  18
BRANCH   3  22
ATOM     22  C   LIG d   1      -0.516  95.804 121.460  0.00  0.00     0.382 C 
ATOM     23  O   LIG d   1       0.631  95.647 121.944  0.00  0.00    -0.241 OA
ATOM     24  O   LIG d   1      -1.109  96.886 121.626  0.00  0.00    -0.241 OA
ENDBRANCH   3  22
TORSDOF 7
ENDMDL
