MODEL 1
REMARK VINA RESULT:      -4.8      0.000      0.000
REMARK  7 active torsions:
REMARK  status: ('A' for Active; 'I' for Inactive)
REMARK    1  A    between atoms: C_2  and  C_3 
REMARK    2  A    between atoms: C_3  and  O_6 
REMARK    3  A    between atoms: C_3  and  C_4 
REMARK    4  A    between atoms: C_7  and  O_6 
REMARK    5  A    between atoms: C_9  and  C_10 
REMARK    6  A    between atoms: N_15  and  C_14 
REMARK    7  A    between atoms: N_20  and  C_19 
REMARK       I    between atoms: C_22  and  N_20 
ROOT
ATOM      1  C   LIG d   1      -4.297  94.110 118.229  0.00  0.00     0.161 C 
ATOM      2  C   LIG d   1      -5.606  94.611 118.134  0.00  0.00     0.016 C 
ATOM      3  C   LIG d   1      -6.668  93.903 117.528  0.00  0.00     0.038 C 
ATOM      4  C   LIG d   1      -6.527  92.572 117.107  0.00  0.00     0.028 C 
ATOM      5  C   LIG d   1      -5.097  92.206 116.724  0.00  0.00    -0.047 C 
ATOM      6  C   LIG d   1      -4.150  92.615 117.875  0.00  0.00     0.091 C 
ENDROOT
BRANCH   1   7
ATOM      7  O   LIG d   1      -3.769  94.368 119.545  0.00  0.00    -0.368 OA
BRANCH   7   8
ATOM      8  C   LIG d   1      -3.980  93.327 120.531  0.00  0.00     0.119 C 
BRANCH   8   9
ATOM      9  C   LIG d   1      -4.944  93.885 121.595  0.00  0.00     0.028 C 
ATOM     10  C   LIG d   1      -6.336  93.235 121.524  0.00  0.00     0.006 C 
ENDBRANCH   8   9
BRANCH   8  11
ATOM     11  C   LIG d   1      -2.686  93.005 121.286  0.00  0.00     0.028 C 
ATOM     12  C   LIG d   1      -1.472  93.773 120.742  0.00  0.00     0.006 C 
ENDBRANCH   8  11
ENDBRANCH   7   8
ENDBRANCH   1   7
BRANCH   6  13
ATOM     13  N   LIG d   1      -2.721  92.369 117.548  0.00  0.00    -0.311 N 
ATOM     14  C   LIG d   1      -2.045  91.303 117.972  0.00  0.00     0.210 C 
ATOM     15  C   LIG d   1      -0.577  91.254 117.537  0.00  0.00     0.109 C 
ATOM     16  O   LIG d   1      -2.529  90.378 118.641  0.00  0.00    -0.276 OA
ATOM     17  H   LIG d   1      -2.258  93.054 116.983  0.00  0.00     0.149 HD
ENDBRANCH   6  13
BRANCH   5  18
ATOM     18  N   LIG d   1      -5.068  90.759 116.439  0.00  0.00     0.381 N 
ATOM     19  H   LIG d   1      -4.364  90.563 115.756  0.00  0.00    -0.090 HD
ATOM     20  H   LIG d   1      -5.959  90.485 116.062  0.00  0.00    -0.090 HD
ATOM     21  H   LIG d   1      -4.882  90.250 117.275  0.00  0.00    -0.090 HD
ENDBRANCH   5  18
BRANCH   3  22
ATOM     22  C   LIG d   1      -7.879  94.540 117.301  0.00  0.00     0.382 C 
ATOM     23  O   LIG d   1      -8.701  94.054 116.487  0.00  0.00    -0.241 OA
ATOM     24  O   LIG d   1      -8.140  95.619 117.867  0.00  0.00    -0.241 OA
ENDBRANCH   3  22
TORSDOF 7
ENDMDL
MODEL 2
REMARK VINA RESULT:      -4.8      1.333      2.163
REMARK  7 active torsions:
REMARK  status: ('A' for Active; 'I' for Inactive)
REMARK    1  A    between atoms: C_2  and  C_3 
REMARK    2  A    between atoms: C_3  and  O_6 
REMARK    3  A    between atoms: C_3  and  C_4 
REMARK    4  A    between atoms: C_7  and  O_6 
REMARK    5  A    between atoms: C_9  and  C_10 
REMARK    6  A    between atoms: N_15  and  C_14 
REMARK    7  A    between atoms: N_20  and  C_19 
REMARK       I    between atoms: C_22  and  N_20 
ROOT
ATOM      1  C   LIG d   1      -4.332  94.043 118.307  0.00  0.00     0.161 C 
ATOM      2  C   LIG d   1      -5.621  94.595 118.220  0.00  0.00     0.016 C 
ATOM      3  C   LIG d   1      -6.706  93.941 117.591  0.00  0.00     0.038 C 
ATOM      4  C   LIG d   1      -6.612  92.617 117.138  0.00  0.00     0.028 C 
ATOM      5  C   LIG d   1      -5.194  92.208 116.752  0.00  0.00    -0.047 C 
ATOM      6  C   LIG d   1      -4.238  92.553 117.916  0.00  0.00     0.091 C 
ENDROOT
BRANCH   1   7
ATOM      7  O   LIG d   1      -3.801  94.248 119.632  0.00  0.00    -0.368 OA
BRANCH   7   8
ATOM      8  C   LIG d   1      -2.822  95.307 119.769  0.00  0.00     0.119 C 
BRANCH   8   9
ATOM      9  C   LIG d   1      -1.444  94.642 119.952  0.00  0.00     0.028 C 
ATOM     10  C   LIG d   1      -0.548  94.798 118.712  0.00  0.00     0.006 C 
ENDBRANCH   8   9
BRANCH   8  11
ATOM     11  C   LIG d   1      -3.054  96.117 121.048  0.00  0.00     0.028 C 
ATOM     12  C   LIG d   1      -4.424  96.813 121.072  0.00  0.00     0.006 C 
ENDBRANCH   8  11
ENDBRANCH   7   8
ENDBRANCH   1   7
BRANCH   6  13
ATOM     13  N   LIG d   1      -2.818  92.263 117.589  0.00  0.00    -0.311 N 
ATOM     14  C   LIG d   1      -2.113  91.297 118.175  0.00  0.00     0.210 C 
ATOM     15  C   LIG d   1      -0.660  91.180 117.704  0.00  0.00     0.109 C 
ATOM     16  O   LIG d   1      -2.562  90.505 119.016  0.00  0.00    -0.276 OA
ATOM     17  H   LIG d   1      -2.383  92.838 116.893  0.00  0.00     0.149 HD
ENDBRANCH   6  13
BRANCH   5  18
ATOM     18  N   LIG d   1      -5.217  90.769 116.430  0.00  0.00     0.381 N 
ATOM     19  H   LIG d   1      -4.299  90.385 116.529  0.00  0.00    -0.090 HD
ATOM     20  H   LIG d   1      -5.506  90.654 115.475  0.00  0.00    -0.090 HD
ATOM     21  H   LIG d   1      -5.850  90.294 117.036  0.00  0.00    -0.090 HD
ENDBRANCH   5  18
BRANCH   3  22
ATOM     22  C   LIG d   1      -7.891  94.629 117.376  0.00  0.00     0.382 C 
ATOM     23  O   LIG d   1      -8.770  94.142 116.626  0.00  0.00    -0.241 OA
ATOM     24  O   LIG d   1      -8.072  95.750 117.888  0.00  0.00    -0.241 OA
ENDBRANCH   3  22
TORSDOF 7
ENDMDL
MODEL 3
REMARK VINA RESULT:      -4.7      2.210      3.059
REMARK  7 active torsions:
REMARK  status: ('A' for Active; 'I' for Inactive)
REMARK    1  A    between atoms: C_2  and  C_3 
REMARK    2  A    between atoms: C_3  and  O_6 
REMARK    3  A    between atoms: C_3  and  C_4 
REMARK    4  A    between atoms: C_7  and  O_6 
REMARK    5  A    between atoms: C_9  and  C_10 
REMARK    6  A    between atoms: N_15  and  C_14 
REMARK    7  A    between atoms: N_20  and  C_19 
REMARK       I    between atoms: C_22  and  N_20 
ROOT
ATOM      1  C   LIG d   1      -4.913  92.396 117.693  0.00  0.00     0.161 C 
ATOM      2  C   LIG d   1      -5.820  93.382 117.269  0.00  0.00     0.016 C 
ATOM      3  C   LIG d   1      -6.864  93.879 118.082  0.00  0.00     0.038 C 
ATOM      4  C   LIG d   1      -6.979  93.532 119.436  0.00  0.00     0.028 C 
ATOM      5  C   LIG d   1      -6.394  92.162 119.762  0.00  0.00    -0.047 C 
ATOM      6  C   LIG d   1      -4.954  92.086 119.204  0.00  0.00     0.091 C 
ENDROOT
BRANCH   1   7
ATOM      7  O   LIG d   1      -3.576  92.758 117.293  0.00  0.00    -0.368 OA
BRANCH   7   8
ATOM      8  C   LIG d   1      -2.713  93.267 118.339  0.00  0.00     0.119 C 
BRANCH   8   9
ATOM      9  C   LIG d   1      -2.584  94.789 118.133  0.00  0.00     0.028 C 
ATOM     10  C   LIG d   1      -3.447  95.591 119.121  0.00  0.00     0.006 C 
ENDBRANCH   8   9
BRANCH   8  11
ATOM     11  C   LIG d   1      -1.290  92.718 118.205  0.00  0.00     0.028 C 
ATOM     12  C   LIG d   1      -1.256  91.278 117.668  0.00  0.00     0.006 C 
ENDBRANCH   8  11
ENDBRANCH   7   8
ENDBRANCH   1   7
BRANCH   6  13
ATOM     13  N   LIG d   1      -4.338  90.748 119.405  0.00  0.00    -0.311 N 
ATOM     14  C   LIG d   1      -3.538  90.456 120.429  0.00  0.00     0.210 C 
ATOM     15  C   LIG d   1      -2.994  89.024 120.436  0.00  0.00     0.109 C 
ATOM     16  O   LIG d   1      -3.252  91.238 121.348  0.00  0.00    -0.276 OA
ATOM     17  H   LIG d   1      -4.542  90.045 118.723  0.00  0.00     0.149 HD
ENDBRANCH   6  13
BRANCH   5  18
ATOM     18  N   LIG d   1      -6.457  91.986 121.225  0.00  0.00     0.381 N 
ATOM     19  H   LIG d   1      -7.346  92.296 121.565  0.00  0.00    -0.090 HD
ATOM     20  H   LIG d   1      -5.742  92.549 121.651  0.00  0.00    -0.090 HD
ATOM     21  H   LIG d   1      -6.320  91.028 121.460  0.00  0.00    -0.090 HD
ENDBRANCH   5  18
BRANCH   3  22
ATOM     22  C   LIG d   1      -7.831  94.706 117.529  0.00  0.00     0.382 C 
ATOM     23  O   LIG d   1      -7.844  95.929 117.808  0.00  0.00    -0.241 OA
ATOM     24  O   LIG d   1      -8.716  94.235 116.791  0.00  0.00    -0.241 OA
ENDBRANCH   3  22
TORSDOF 7
ENDMDL
MODEL 4
REMARK VINA RESULT:      -4.3      2.312      3.622
REMARK  7 active torsions:
REMARK  status: ('A' for Active; 'I' for Inactive)
REMARK    1  A    between atoms: C_2  and  C_3 
REMARK    2  A    between atoms: C_3  and  O_6 
REMARK    3  A    between atoms: C_3  and  C_4 
REMARK    4  A    between atoms: C_7  and  O_6 
REMARK    5  A    between atoms: C_9  and  C_10 
REMARK    6  A    between atoms: N_15  and  C_14 
REMARK    7  A    between atoms: N_20  and  C_19 
REMARK       I    between atoms: C_22  and  N_20 
ROOT
ATOM      1  C   LIG d   1      -5.414  93.050 119.811  0.00  0.00     0.161 C 
ATOM      2  C   LIG d   1      -6.767  93.429 119.797  0.00  0.00     0.016 C 
ATOM      3  C   LIG d   1      -7.209  94.720 119.426  0.00  0.00     0.038 C 
ATOM      4  C   LIG d   1      -6.335  95.679 118.894  0.00  0.00     0.028 C 
ATOM      5  C   LIG d   1      -4.894  95.511 119.365  0.00  0.00    -0.047 C 
ATOM      6  C   LIG d   1      -4.456  94.048 119.128  0.00  0.00     0.091 C 
ENDROOT
BRANCH   1   7
ATOM      7  O   LIG d   1      -5.269  91.738 119.231  0.00  0.00    -0.368 OA
BRANCH   7   8
ATOM      8  C   LIG d   1      -4.951  91.698 117.818  0.00  0.00     0.119 C 
BRANCH   8   9
ATOM      9  C   LIG d   1      -6.185  91.143 117.081  0.00  0.00     0.028 C 
ATOM     10  C   LIG d   1      -7.029  92.252 116.431  0.00  0.00     0.006 C 
ENDBRANCH   8   9
BRANCH   8  11
ATOM     11  C   LIG d   1      -3.824  90.703 117.528  0.00  0.00     0.028 C 
ATOM     12  C   LIG d   1      -3.082  90.257 118.798  0.00  0.00     0.006 C 
ENDBRANCH   8  11
ENDBRANCH   7   8
ENDBRANCH   1   7
BRANCH   6  13
ATOM     13  N   LIG d   1      -3.086  93.777 119.638  0.00  0.00    -0.311 N 
ATOM     14  C   LIG d   1      -2.001  93.790 118.866  0.00  0.00     0.210 C 
ATOM     15  C   LIG d   1      -0.690  93.464 119.589  0.00  0.00     0.109 C 
ATOM     16  O   LIG d   1      -1.995  94.073 117.659  0.00  0.00    -0.276 OA
ATOM     17  H   LIG d   1      -2.995  93.569 120.613  0.00  0.00     0.149 HD
ENDBRANCH   6  13
BRANCH   5  18
ATOM     18  N   LIG d   1      -4.068  96.488 118.629  0.00  0.00     0.381 N 
ATOM     19  H   LIG d   1      -3.275  96.744 119.181  0.00  0.00    -0.090 HD
ATOM     20  H   LIG d   1      -4.615  97.314 118.460  0.00  0.00    -0.090 HD
ATOM     21  H   LIG d   1      -3.768  96.097 117.763  0.00  0.00    -0.090 HD
ENDBRANCH   5  18
BRANCH   3  22
ATOM     22  C   LIG d   1      -8.535  95.074 119.623  0.00  0.00     0.382 C 
ATOM     23  O   LIG d   1      -9.451  94.278 119.305  0.00  0.00    -0.241 OA
ATOM     24  O   LIG d   1      -8.828  96.198 120.072  0.00  0.00    -0.241 OA
ENDBRANCH   3  22
TORSDOF 7
ENDMDL
MODEL 5
REMARK VINA RESULT:      -4.3      2.431      2.898
REMARK  7 active torsions:
REMARK  status: ('A' for Active; 'I' for Inactive)
REMARK    1  A    between atoms: C_2  and  C_3 
REMARK    2  A    between atoms: C_3  and  O_6 
REMARK    3  A    between atoms: C_3  and  C_4 
REMARK    4  A    between atoms: C_7  and  O_6 
REMARK    5  A    between atoms: C_9  and  C_10 
REMARK    6  A    between atoms: N_15  and  C_14 
REMARK    7  A    between atoms: N_20  and  C_19 
REMARK       I    between atoms: C_22  and  N_20 
ROOT
ATOM      1  C   LIG d   1      -3.160  93.010 117.617  0.00  0.00     0.161 C 
ATOM      2  C   LIG d   1      -4.551  92.925 117.790  0.00  0.00     0.016 C 
ATOM      3  C   LIG d   1      -5.180  91.911 118.549  0.00  0.00     0.038 C 
ATOM      4  C   LIG d   1      -4.445  90.995 119.315  0.00  0.00     0.028 C 
ATOM      5  C   LIG d   1      -3.046  90.732 118.768  0.00  0.00    -0.047 C 
ATOM      6  C   LIG d   1      -2.336  92.085 118.536  0.00  0.00     0.091 C 
ENDROOT
BRANCH   1   7
ATOM      7  O   LIG d   1      -2.731  94.378 117.768  0.00  0.00    -0.368 OA
BRANCH   7   8
ATOM      8  C   LIG d   1      -2.486  94.822 119.125  0.00  0.00     0.119 C 
BRANCH   8   9
ATOM      9  C   LIG d   1      -3.465  95.975 119.419  0.00  0.00     0.028 C 
ATOM     10  C   LIG d   1      -4.565  95.572 120.415  0.00  0.00     0.006 C 
ENDBRANCH   8   9
BRANCH   8  11
ATOM     11  C   LIG d   1      -1.088  95.431 119.268  0.00  0.00     0.028 C 
ATOM     12  C   LIG d   1      -0.468  95.182 120.652  0.00  0.00     0.006 C 
ENDBRANCH   8  11
ENDBRANCH   7   8
ENDBRANCH   1   7
BRANCH   6  13
ATOM     13  N   LIG d   1      -0.992  91.922 117.922  0.00  0.00    -0.311 N 
ATOM     14  C   LIG d   1       0.133  91.838 118.631  0.00  0.00     0.210 C 
ATOM     15  C   LIG d   1       1.411  91.693 117.799  0.00  0.00     0.109 C 
ATOM     16  O   LIG d   1       0.190  91.838 119.869  0.00  0.00    -0.276 OA
ATOM     17  H   LIG d   1      -0.949  91.881 116.923  0.00  0.00     0.149 HD
ENDBRANCH   6  13
BRANCH   5  18
ATOM     18  N   LIG d   1      -2.344  89.868 119.736  0.00  0.00     0.381 N 
ATOM     19  H   LIG d   1      -1.356  90.007 119.659  0.00  0.00    -0.090 HD
ATOM     20  H   LIG d   1      -2.544  88.908 119.519  0.00  0.00    -0.090 HD
ATOM     21  H   LIG d   1      -2.646  90.078 120.662  0.00  0.00    -0.090 HD
ENDBRANCH   5  18
BRANCH   3  22
ATOM     22  C   LIG d   1      -6.560  91.783 118.514  0.00  0.00     0.382 C 
ATOM     23  O   LIG d   1      -7.081  90.746 118.037  0.00  0.00    -0.241 OA
ATOM     24  O   LIG d   1      -7.291  92.709 118.912  0.00  0.00    -0.241 OA
ENDBRANCH   3  22
TORSDOF 7
ENDMDL
MODEL 6
REMARK VINA RESULT:      -4.2      2.280      3.802
REMARK  7 active torsions:
REMARK  status: ('A' for Active; 'I' for Inactive)
REMARK    1  A    between atoms: C_2  and  C_3 
REMARK    2  A    between atoms: C_3  and  O_6 
REMARK    3  A    between atoms: C_3  and  C_4 
REMARK    4  A    between atoms: C_7  and  O_6 
REMARK    5  A    between atoms: C_9  and  C_10 
REMARK    6  A    between atoms: N_15  and  C_14 
REMARK    7  A    between atoms: N_20  and  C_19 
REMARK       I    between atoms: C_22  and  N_20 
ROOT
ATOM      1  C   LIG d   1      -4.646  93.432 118.709  0.00  0.00     0.161 C 
ATOM      2  C   LIG d   1      -5.987  93.380 118.295  0.00  0.00     0.016 C 
ATOM      3  C   LIG d   1      -6.801  94.527 118.149  0.00  0.00     0.038 C 
ATOM      4  C   LIG d   1      -6.282  95.825 118.265  0.00  0.00     0.028 C 
ATOM      5  C   LIG d   1      -5.061  95.910 119.175  0.00  0.00    -0.047 C 
ATOM      6  C   LIG d   1      -4.030  94.847 118.732  0.00  0.00     0.091 C 
ENDROOT
BRANCH   1   7
ATOM      7  O   LIG d   1      -3.848  92.552 117.894  0.00  0.00    -0.368 OA
BRANCH   7   8
ATOM      8  C   LIG d   1      -3.074  91.553 118.603  0.00  0.00     0.119 C 
BRANCH   8   9
ATOM      9  C   LIG d   1      -2.056  90.964 117.608  0.00  0.00     0.028 C 
ATOM     10  C   LIG d   1      -0.602  91.283 117.997  0.00  0.00     0.006 C 
ENDBRANCH   8   9
BRANCH   8  11
ATOM     11  C   LIG d   1      -3.950  90.372 119.033  0.00  0.00     0.028 C 
ATOM     12  C   LIG d   1      -3.278  89.488 120.096  0.00  0.00     0.006 C 
ENDBRANCH   8  11
ENDBRANCH   7   8
ENDBRANCH   1   7
BRANCH   6  13
ATOM     13  N   LIG d   1      -2.841  94.806 119.623  0.00  0.00    -0.311 N 
ATOM     14  C   LIG d   1      -1.590  94.725 119.172  0.00  0.00     0.210 C 
ATOM     15  C   LIG d   1      -0.513  94.675 120.260  0.00  0.00     0.109 C 
ATOM     16  O   LIG d   1      -1.269  94.723 117.974  0.00  0.00    -0.276 OA
ATOM     17  H   LIG d   1      -3.009  94.834 120.609  0.00  0.00     0.149 HD
ENDBRANCH   6  13
BRANCH   5  18
ATOM     18  N   LIG d   1      -4.541  97.288 119.095  0.00  0.00     0.381 N 
ATOM     19  H   LIG d   1      -5.214  97.926 119.470  0.00  0.00    -0.090 HD
ATOM     20  H   LIG d   1      -4.388  97.523 118.130  0.00  0.00    -0.090 HD
ATOM     21  H   LIG d   1      -3.686  97.360 119.602  0.00  0.00    -0.090 HD
ENDBRANCH   5  18
BRANCH   3  22
ATOM     22  C   LIG d   1      -8.162  94.379 117.925  0.00  0.00     0.382 C 
ATOM     23  O   LIG d   1      -8.586  94.173 116.762  0.00  0.00    -0.241 OA
ATOM     24  O   LIG d   1      -8.973  94.495 118.863  0.00  0.00    -0.241 OA
ENDBRANCH   3  22
TORSDOF 7
ENDMDL
MODEL 7
REMARK VINA RESULT:      -4.2      2.599      5.950
REMARK  7 active torsions:
REMARK  status: ('A' for Active; 'I' for Inactive)
REMARK    1  A    between atoms: C_2  and  C_3 
REMARK    2  A    between atoms: C_3  and  O_6 
REMARK    3  A    between atoms: C_3  and  C_4 
REMARK    4  A    between atoms: C_7  and  O_6 
REMARK    5  A    between atoms: C_9  and  C_10 
REMARK    6  A    between atoms: N_15  and  C_14 
REMARK    7  A    between atoms: N_20  and  C_19 
REMARK       I    between atoms: C_22  and  N_20 
ROOT
ATOM      1  C   LIG d   1      -3.251  93.769 117.729  0.00  0.00     0.161 C 
ATOM      2  C   LIG d   1      -1.941  93.319 117.966  0.00  0.00     0.016 C 
ATOM      3  C   LIG d   1      -1.173  93.715 119.085  0.00  0.00     0.038 C 
ATOM      4  C   LIG d   1      -1.721  94.475 120.129  0.00  0.00     0.028 C 
ATOM      5  C   LIG d   1      -2.877  95.367 119.687  0.00  0.00    -0.047 C 
ATOM      6  C   LIG d   1      -3.905  94.510 118.914  0.00  0.00     0.091 C 
ENDROOT
BRANCH   1   7
ATOM      7  O   LIG d   1      -4.078  92.665 117.310  0.00  0.00    -0.368 OA
BRANCH   7   8
ATOM      8  C   LIG d   1      -4.598  91.822 118.367  0.00  0.00     0.119 C 
BRANCH   8   9
ATOM      9  C   LIG d   1      -3.874  90.464 118.274  0.00  0.00     0.028 C 
ATOM     10  C   LIG d   1      -3.365  89.976 119.640  0.00  0.00     0.006 C 
ENDBRANCH   8   9
BRANCH   8  11
ATOM     11  C   LIG d   1      -6.081  91.506 118.150  0.00  0.00     0.028 C 
ATOM     12  C   LIG d   1      -6.633  92.106 116.847  0.00  0.00     0.006 C 
ENDBRANCH   8  11
ENDBRANCH   7   8
ENDBRANCH   1   7
BRANCH   6  13
ATOM     13  N   LIG d   1      -5.026  95.321 118.373  0.00  0.00    -0.311 N 
ATOM     14  C   LIG d   1      -6.273  95.250 118.837  0.00  0.00     0.210 C 
ATOM     15  C   LIG d   1      -7.281  96.157 118.125  0.00  0.00     0.109 C 
ATOM     16  O   LIG d   1      -6.633  94.545 119.792  0.00  0.00    -0.276 OA
ATOM     17  H   LIG d   1      -4.817  95.943 117.617  0.00  0.00     0.149 HD
ENDBRANCH   6  13
BRANCH   5  18
ATOM     18  N   LIG d   1      -3.441  95.996 120.896  0.00  0.00     0.381 N 
ATOM     19  H   LIG d   1      -3.581  95.304 121.604  0.00  0.00    -0.090 HD
ATOM     20  H   LIG d   1      -4.333  96.398 120.667  0.00  0.00    -0.090 HD
ATOM     21  H   LIG d   1      -2.825  96.704 121.231  0.00  0.00    -0.090 HD
ENDBRANCH   5  18
BRANCH   3  22
ATOM     22  C   LIG d   1       0.172  93.383 119.147  0.00  0.00     0.382 C 
ATOM     23  O   LIG d   1       0.802  93.520 120.223  0.00  0.00    -0.241 OA
ATOM     24  O   LIG d   1       0.773  92.991 118.130  0.00  0.00    -0.241 OA
ENDBRANCH   3  22
TORSDOF 7
ENDMDL
MODEL 8
REMARK VINA RESULT:      -4.2      2.441      3.883
REMARK  7 active torsions:
REMARK  status: ('A' for Active; 'I' for Inactive)
REMARK    1  A    between atoms: C_2  and  C_3 
REMARK    2  A    between atoms: C_3  and  O_6 
REMARK    3  A    between atoms: C_3  and  C_4 
REMARK    4  A    between atoms: C_7  and  O_6 
REMARK    5  A    between atoms: C_9  and  C_10 
REMARK    6  A    between atoms: N_15  and  C_14 
REMARK    7  A    between atoms: N_20  and  C_19 
REMARK       I    between atoms: C_22  and  N_20 
ROOT
ATOM      1  C   LIG d   1      -3.206  92.149 118.469  0.00  0.00     0.161 C 
ATOM      2  C   LIG d   1      -4.322  91.608 117.809  0.00  0.00     0.016 C 
ATOM      3  C   LIG d   1      -5.454  92.371 117.442  0.00  0.00     0.038 C 
ATOM      4  C   LIG d   1      -5.482  93.767 117.576  0.00  0.00     0.028 C 
ATOM      5  C   LIG d   1      -4.587  94.287 118.696  0.00  0.00    -0.047 C 
ATOM      6  C   LIG d   1      -3.171  93.691 118.524  0.00  0.00     0.091 C 
ENDROOT
BRANCH   1   7
ATOM      7  O   LIG d   1      -1.994  91.642 117.876  0.00  0.00    -0.368 OA
BRANCH   7   8
ATOM      8  C   LIG d   1      -1.368  90.528 118.559  0.00  0.00     0.119 C 
BRANCH   8   9
ATOM      9  C   LIG d   1      -1.702  90.656 120.057  0.00  0.00     0.028 C 
ATOM     10  C   LIG d   1      -2.183  89.329 120.668  0.00  0.00     0.006 C 
ENDBRANCH   8   9
BRANCH   8  11
ATOM     11  C   LIG d   1       0.159  90.610 118.475  0.00  0.00     0.028 C 
ATOM     12  C   LIG d   1       0.646  91.771 117.594  0.00  0.00     0.006 C 
ENDBRANCH   8  11
ENDBRANCH   7   8
ENDBRANCH   1   7
BRANCH   6  13
ATOM     13  N   LIG d   1      -2.254  94.081 119.626  0.00  0.00    -0.311 N 
ATOM     14  C   LIG d   1      -1.056  94.626 119.424  0.00  0.00     0.210 C 
ATOM     15  C   LIG d   1      -0.263  94.935 120.698  0.00  0.00     0.109 C 
ATOM     16  O   LIG d   1      -0.588  94.914 118.312  0.00  0.00    -0.276 OA
ATOM     17  H   LIG d   1      -2.568  93.912 120.562  0.00  0.00     0.149 HD
ENDBRANCH   6  13
BRANCH   5  18
ATOM     18  N   LIG d   1      -4.606  95.760 118.634  0.00  0.00     0.381 N 
ATOM     19  H   LIG d   1      -5.078  96.127 119.437  0.00  0.00    -0.090 HD
ATOM     20  H   LIG d   1      -5.111  96.045 117.814  0.00  0.00    -0.090 HD
ATOM     21  H   LIG d   1      -3.674  96.112 118.598  0.00  0.00    -0.090 HD
ENDBRANCH   5  18
BRANCH   3  22
ATOM     22  C   LIG d   1      -6.590  91.731 116.971  0.00  0.00     0.382 C 
ATOM     23  O   LIG d   1      -6.684  90.483 117.047  0.00  0.00    -0.241 OA
ATOM     24  O   LIG d   1      -7.504  92.383 116.430  0.00  0.00    -0.241 OA
ENDBRANCH   3  22
TORSDOF 7
ENDMDL
MODEL 9
REMARK VINA RESULT:      -4.0      3.092      4.204
REMARK  7 active torsions:
REMARK  status: ('A' for Active; 'I' for Inactive)
REMARK    1  A    between atoms: C_2  and  C_3 
REMARK    2  A    between atoms: C_3  and  O_6 
REMARK    3  A    between atoms: C_3  and  C_4 
REMARK    4  A    between atoms: C_7  and  O_6 
REMARK    5  A    between atoms: C_9  and  C_10 
REMARK    6  A    between atoms: N_15  and  C_14 
REMARK    7  A    between atoms: N_20  and  C_19 
REMARK       I    between atoms: C_22  and  N_20 
ROOT
ATOM      1  C   LIG d   1      -3.075  90.771 119.792  0.00  0.00     0.161 C 
ATOM      2  C   LIG d   1      -4.443  90.696 119.477  0.00  0.00     0.016 C 
ATOM      3  C   LIG d   1      -5.072  91.540 118.534  0.00  0.00     0.038 C 
ATOM      4  C   LIG d   1      -4.341  92.422 117.725  0.00  0.00     0.028 C 
ATOM      5  C   LIG d   1      -3.037  92.889 118.362  0.00  0.00    -0.047 C 
ATOM      6  C   LIG d   1      -2.241  91.652 118.839  0.00  0.00     0.091 C 
ENDROOT
BRANCH   1   7
ATOM      7  O   LIG d   1      -2.517  89.445 119.865  0.00  0.00    -0.368 OA
BRANCH   7   8
ATOM      8  C   LIG d   1      -2.695  88.747 121.123  0.00  0.00     0.119 C 
BRANCH   8   9
ATOM      9  C   LIG d   1      -1.876  89.499 122.189  0.00  0.00     0.028 C 
ATOM     10  C   LIG d   1      -2.712  89.852 123.431  0.00  0.00     0.006 C 
ENDBRANCH   8   9
BRANCH   8  11
ATOM     11  C   LIG d   1      -2.095  87.339 121.069  0.00  0.00     0.028 C 
ATOM     12  C   LIG d   1      -3.150  86.235 121.244  0.00  0.00     0.006 C 
ENDBRANCH   8  11
ENDBRANCH   7   8
ENDBRANCH   1   7
BRANCH   6  13
ATOM     13  N   LIG d   1      -0.989  92.023 119.550  0.00  0.00    -0.311 N 
ATOM     14  C   LIG d   1       0.188  92.154 118.942  0.00  0.00     0.210 C 
ATOM     15  C   LIG d   1       1.355  92.523 119.864  0.00  0.00     0.109 C 
ATOM     16  O   LIG d   1       0.371  92.031 117.721  0.00  0.00    -0.276 OA
ATOM     17  H   LIG d   1      -1.053  92.172 120.538  0.00  0.00     0.149 HD
ENDBRANCH   6  13
BRANCH   5  18
ATOM     18  N   LIG d   1      -2.312  93.691 117.358  0.00  0.00     0.381 N 
ATOM     19  H   LIG d   1      -1.431  93.984 117.731  0.00  0.00    -0.090 HD
ATOM     20  H   LIG d   1      -2.853  94.511 117.145  0.00  0.00    -0.090 HD
ATOM     21  H   LIG d   1      -2.169  93.154 116.531  0.00  0.00    -0.090 HD
ENDBRANCH   5  18
BRANCH   3  22
ATOM     22  C   LIG d   1      -6.454  91.534 118.421  0.00  0.00     0.382 C 
ATOM     23  O   LIG d   1      -7.020  90.680 117.697  0.00  0.00    -0.241 OA
ATOM     24  O   LIG d   1      -7.139  92.400 118.998  0.00  0.00    -0.241 OA
ENDBRANCH   3  22
TORSDOF 7
ENDMDL
