MODEL 1
REMARK VINA RESULT:      -4.8      0.000      0.000
REMARK  7 active torsions:
REMARK  status: ('A' for Active; 'I' for Inactive)
REMARK    1  A    between atoms: C_2  and  C_3 
REMARK    2  A    between atoms: C_3  and  O_6 
REMARK    3  A    between atoms: C_3  and  C_4 
REMARK    4  A    between atoms: C_7  and  O_6 
REMARK    5  A    between atoms: C_9  and  C_10 
REMARK    6  A    between atoms: N_15  and  C_14 
REMARK    7  A    between atoms: N_20  and  C_19 
REMARK       I    between atoms: C_22  and  N_20 
ROOT
ATOM      1  C   LIG d   1      -2.931  89.778 118.282  0.00  0.00     0.161 C 
ATOM      2  C   LIG d   1      -4.318  89.873 118.074  0.00  0.00     0.016 C 
ATOM      3  C   LIG d   1      -4.963  91.059 117.656  0.00  0.00     0.038 C 
ATOM      4  C   LIG d   1      -4.241  92.199 117.270  0.00  0.00     0.028 C 
ATOM      5  C   LIG d   1      -2.878  92.310 117.945  0.00  0.00    -0.047 C 
ATOM      6  C   LIG d   1      -2.116  90.979 117.759  0.00  0.00     0.091 C 
ENDROOT
BRANCH   1   7
ATOM      7  O   LIG d   1      -2.435  88.550 117.715  0.00  0.00    -0.368 OA
BRANCH   7   8
ATOM      8  C   LIG d   1      -2.110  87.498 118.657  0.00  0.00     0.119 C 
BRANCH   8   9
ATOM      9  C   LIG d   1      -2.092  88.127 120.064  0.00  0.00     0.028 C 
ATOM     10  C   LIG d   1      -0.700  88.066 120.716  0.00  0.00     0.006 C 
ENDBRANCH   8   9
BRANCH   8  11
ATOM     11  C   LIG d   1      -0.691  86.967 118.432  0.00  0.00     0.028 C 
ATOM     12  C   LIG d   1      -0.164  87.257 117.018  0.00  0.00     0.006 C 
ENDBRANCH   8  11
ENDBRANCH   7   8
ENDBRANCH   1   7
BRANCH   6  13
ATOM     13  N   LIG d   1      -0.806  90.973 118.462  0.00  0.00    -0.311 N 
ATOM     14  C   LIG d   1       0.364  90.902 117.830  0.00  0.00     0.210 C 
ATOM     15  C   LIG d   1       1.593  90.889 118.745  0.00  0.00     0.109 C 
ATOM     16  O   LIG d   1       0.503  90.881 116.598  0.00  0.00    -0.276 OA
ATOM     17  H   LIG d   1      -0.825  91.019 119.462  0.00  0.00     0.149 HD
ENDBRANCH   6  13
BRANCH   5  18
ATOM     18  N   LIG d   1      -2.180  93.465 117.350  0.00  0.00     0.381 N 
ATOM     19  H   LIG d   1      -2.181  94.231 117.994  0.00  0.00    -0.090 HD
ATOM     20  H   LIG d   1      -2.670  93.750 116.521  0.00  0.00    -0.090 HD
ATOM     21  H   LIG d   1      -1.243  93.216 117.121  0.00  0.00    -0.090 HD
ENDBRANCH   5  18
BRANCH   3  22
ATOM     22  C   LIG d   1      -6.348  91.126 117.660  0.00  0.00     0.382 C 
ATOM     23  O   LIG d   1      -7.016  90.311 116.980  0.00  0.00    -0.241 OA
ATOM     24  O   LIG d   1      -6.935  92.020 118.298  0.00  0.00    -0.241 OA
ENDBRANCH   3  22
TORSDOF 7
ENDMDL
MODEL 2
REMARK VINA RESULT:      -4.5      2.357      4.456
REMARK  7 active torsions:
REMARK  status: ('A' for Active; 'I' for Inactive)
REMARK    1  A    between atoms: C_2  and  C_3 
REMARK    2  A    between atoms: C_3  and  O_6 
REMARK    3  A    between atoms: C_3  and  C_4 
REMARK    4  A    between atoms: C_7  and  O_6 
REMARK    5  A    between atoms: C_9  and  C_10 
REMARK    6  A    between atoms: N_15  and  C_14 
REMARK    7  A    between atoms: N_20  and  C_19 
REMARK       I    between atoms: C_22  and  N_20 
ROOT
ATOM      1  C   LIG d   1      -2.888  92.760 117.935  0.00  0.00     0.161 C 
ATOM      2  C   LIG d   1      -4.272  92.834 118.163  0.00  0.00     0.016 C 
ATOM      3  C   LIG d   1      -5.119  91.702 118.183  0.00  0.00     0.038 C 
ATOM      4  C   LIG d   1      -4.612  90.396 118.125  0.00  0.00     0.028 C 
ATOM      5  C   LIG d   1      -3.280  90.295 117.389  0.00  0.00    -0.047 C 
ATOM      6  C   LIG d   1      -2.300  91.334 117.981  0.00  0.00     0.091 C 
ENDROOT
BRANCH   1   7
ATOM      7  O   LIG d   1      -2.193  93.617 118.862  0.00  0.00    -0.368 OA
BRANCH   7   8
ATOM      8  C   LIG d   1      -1.397  94.677 118.276  0.00  0.00     0.119 C 
BRANCH   8   9
ATOM      9  C   LIG d   1       0.038  94.533 118.820  0.00  0.00     0.028 C 
ATOM     10  C   LIG d   1       0.113  93.592 120.034  0.00  0.00     0.006 C 
ENDBRANCH   8   9
BRANCH   8  11
ATOM     11  C   LIG d   1      -1.872  96.055 118.746  0.00  0.00     0.028 C 
ATOM     12  C   LIG d   1      -2.982  95.974 119.805  0.00  0.00     0.006 C 
ENDBRANCH   8  11
ENDBRANCH   7   8
ENDBRANCH   1   7
BRANCH   6  13
ATOM     13  N   LIG d   1      -1.000  91.360 117.262  0.00  0.00    -0.311 N 
ATOM     14  C   LIG d   1       0.072  90.678 117.661  0.00  0.00     0.210 C 
ATOM     15  C   LIG d   1       1.317  90.860 116.787  0.00  0.00     0.109 C 
ATOM     16  O   LIG d   1       0.101  89.914 118.638  0.00  0.00    -0.276 OA
ATOM     17  H   LIG d   1      -0.944  91.929 116.440  0.00  0.00     0.149 HD
ENDBRANCH   6  13
BRANCH   5  18
ATOM     18  N   LIG d   1      -2.801  88.906 117.524  0.00  0.00     0.381 N 
ATOM     19  H   LIG d   1      -1.990  88.883 118.109  0.00  0.00    -0.090 HD
ATOM     20  H   LIG d   1      -2.545  88.561 116.615  0.00  0.00    -0.090 HD
ATOM     21  H   LIG d   1      -3.518  88.334 117.914  0.00  0.00    -0.090 HD
ENDBRANCH   5  18
BRANCH   3  22
ATOM     22  C   LIG d   1      -6.495  91.874 118.221  0.00  0.00     0.382 C 
ATOM     23  O   LIG d   1      -7.186  91.627 117.204  0.00  0.00    -0.241 OA
ATOM     24  O   LIG d   1      -7.048  92.316 119.246  0.00  0.00    -0.241 OA
ENDBRANCH   3  22
TORSDOF 7
ENDMDL
MODEL 3
REMARK VINA RESULT:      -4.2      1.754      5.082
REMARK  7 active torsions:
REMARK  status: ('A' for Active; 'I' for Inactive)
REMARK    1  A    between atoms: C_2  and  C_3 
REMARK    2  A    between atoms: C_3  and  O_6 
REMARK    3  A    between atoms: C_3  and  C_4 
REMARK    4  A    between atoms: C_7  and  O_6 
REMARK    5  A    between atoms: C_9  and  C_10 
REMARK    6  A    between atoms: N_15  and  C_14 
REMARK    7  A    between atoms: N_20  and  C_19 
REMARK       I    between atoms: C_22  and  N_20 
ROOT
ATOM      1  C   LIG d   1      -2.231  91.135 117.454  0.00  0.00     0.161 C 
ATOM      2  C   LIG d   1      -0.865  91.129 117.785  0.00  0.00     0.016 C 
ATOM      3  C   LIG d   1      -0.208  92.222 118.395  0.00  0.00     0.038 C 
ATOM      4  C   LIG d   1      -0.910  93.346 118.856  0.00  0.00     0.028 C 
ATOM      5  C   LIG d   1      -2.202  93.609 118.090  0.00  0.00    -0.047 C 
ATOM      6  C   LIG d   1      -3.036  92.309 118.050  0.00  0.00     0.091 C 
ENDROOT
BRANCH   1   7
ATOM      7  O   LIG d   1      -2.829  89.877 117.825  0.00  0.00    -0.368 OA
BRANCH   7   8
ATOM      8  C   LIG d   1      -2.165  89.143 118.883  0.00  0.00     0.119 C 
BRANCH   8   9
ATOM      9  C   LIG d   1      -2.053  87.675 118.428  0.00  0.00     0.028 C 
ATOM     10  C   LIG d   1      -0.785  87.412 117.600  0.00  0.00     0.006 C 
ENDBRANCH   8   9
BRANCH   8  11
ATOM     11  C   LIG d   1      -3.015  89.110 120.156  0.00  0.00     0.028 C 
ATOM     12  C   LIG d   1      -2.711  90.279 121.106  0.00  0.00     0.006 C 
ENDBRANCH   8  11
ENDBRANCH   7   8
ENDBRANCH   1   7
BRANCH   6  13
ATOM     13  N   LIG d   1      -4.277  92.456 117.247  0.00  0.00    -0.311 N 
ATOM     14  C   LIG d   1      -5.489  92.153 117.709  0.00  0.00     0.210 C 
ATOM     15  C   LIG d   1      -6.632  92.360 116.710  0.00  0.00     0.109 C 
ATOM     16  O   LIG d   1      -5.730  91.762 118.861  0.00  0.00    -0.276 OA
ATOM     17  H   LIG d   1      -4.178  92.797 116.311  0.00  0.00     0.149 HD
ENDBRANCH   6  13
BRANCH   5  18
ATOM     18  N   LIG d   1      -2.899  94.723 118.762  0.00  0.00     0.381 N 
ATOM     19  H   LIG d   1      -3.748  94.932 118.277  0.00  0.00    -0.090 HD
ATOM     20  H   LIG d   1      -2.311  95.537 118.736  0.00  0.00    -0.090 HD
ATOM     21  H   LIG d   1      -3.099  94.479 119.707  0.00  0.00    -0.090 HD
ENDBRANCH   5  18
BRANCH   3  22
ATOM     22  C   LIG d   1       1.174  92.214 118.513  0.00  0.00     0.382 C 
ATOM     23  O   LIG d   1       1.891  92.210 117.484  0.00  0.00    -0.241 OA
ATOM     24  O   LIG d   1       1.711  92.165 119.635  0.00  0.00    -0.241 OA
ENDBRANCH   3  22
TORSDOF 7
ENDMDL
MODEL 4
REMARK VINA RESULT:      -4.1      3.283      6.358
REMARK  7 active torsions:
REMARK  status: ('A' for Active; 'I' for Inactive)
REMARK    1  A    between atoms: C_2  and  C_3 
REMARK    2  A    between atoms: C_3  and  O_6 
REMARK    3  A    between atoms: C_3  and  C_4 
REMARK    4  A    between atoms: C_7  and  O_6 
REMARK    5  A    between atoms: C_9  and  C_10 
REMARK    6  A    between atoms: N_15  and  C_14 
REMARK    7  A    between atoms: N_20  and  C_19 
REMARK       I    between atoms: C_22  and  N_20 
ROOT
ATOM      1  C   LIG d   1      -3.838  92.910 119.209  0.00  0.00     0.161 C 
ATOM      2  C   LIG d   1      -3.049  91.825 118.792  0.00  0.00     0.016 C 
ATOM      3  C   LIG d   1      -3.574  90.688 118.137  0.00  0.00     0.038 C 
ATOM      4  C   LIG d   1      -4.911  90.626 117.715  0.00  0.00     0.028 C 
ATOM      5  C   LIG d   1      -5.852  91.478 118.560  0.00  0.00    -0.047 C 
ATOM      6  C   LIG d   1      -5.280  92.910 118.659  0.00  0.00     0.091 C 
ENDROOT
BRANCH   1   7
ATOM      7  O   LIG d   1      -3.177  94.149 118.882  0.00  0.00    -0.368 OA
BRANCH   7   8
ATOM      8  C   LIG d   1      -2.469  94.798 119.967  0.00  0.00     0.119 C 
BRANCH   8   9
ATOM      9  C   LIG d   1      -3.377  95.922 120.505  0.00  0.00     0.028 C 
ATOM     10  C   LIG d   1      -3.996  95.573 121.869  0.00  0.00     0.006 C 
ENDBRANCH   8   9
BRANCH   8  11
ATOM     11  C   LIG d   1      -1.206  95.504 119.464  0.00  0.00     0.028 C 
ATOM     12  C   LIG d   1      -1.123  95.555 117.930  0.00  0.00     0.006 C 
ENDBRANCH   8  11
ENDBRANCH   7   8
ENDBRANCH   1   7
BRANCH   6  13
ATOM     13  N   LIG d   1      -6.097  93.787 119.538  0.00  0.00    -0.311 N 
ATOM     14  C   LIG d   1      -7.123  94.513 119.099  0.00  0.00     0.210 C 
ATOM     15  C   LIG d   1      -7.817  95.364 120.168  0.00  0.00     0.109 C 
ATOM     16  O   LIG d   1      -7.545  94.510 117.933  0.00  0.00    -0.276 OA
ATOM     17  H   LIG d   1      -5.843  93.826 120.506  0.00  0.00     0.149 HD
ENDBRANCH   6  13
BRANCH   5  18
ATOM     18  N   LIG d   1      -7.184  91.430 117.928  0.00  0.00     0.381 N 
ATOM     19  H   LIG d   1      -7.894  91.526 118.626  0.00  0.00    -0.090 HD
ATOM     20  H   LIG d   1      -7.300  90.537 117.482  0.00  0.00    -0.090 HD
ATOM     21  H   LIG d   1      -7.269  92.159 117.255  0.00  0.00    -0.090 HD
ENDBRANCH   5  18
BRANCH   3  22
ATOM     22  C   LIG d   1      -2.767  89.579 117.931  0.00  0.00     0.382 C 
ATOM     23  O   LIG d   1      -3.205  88.430 118.180  0.00  0.00    -0.241 OA
ATOM     24  O   LIG d   1      -1.591  89.717 117.543  0.00  0.00    -0.241 OA
ENDBRANCH   3  22
TORSDOF 7
ENDMDL
MODEL 5
REMARK VINA RESULT:      -4.1      2.191      5.224
REMARK  7 active torsions:
REMARK  status: ('A' for Active; 'I' for Inactive)
REMARK    1  A    between atoms: C_2  and  C_3 
REMARK    2  A    between atoms: C_3  and  O_6 
REMARK    3  A    between atoms: C_3  and  C_4 
REMARK    4  A    between atoms: C_7  and  O_6 
REMARK    5  A    between atoms: C_9  and  C_10 
REMARK    6  A    between atoms: N_15  and  C_14 
REMARK    7  A    between atoms: N_20  and  C_19 
REMARK       I    between atoms: C_22  and  N_20 
ROOT
ATOM      1  C   LIG d   1      -0.959  91.531 117.874  0.00  0.00     0.161 C 
ATOM      2  C   LIG d   1       0.380  91.889 118.103  0.00  0.00     0.016 C 
ATOM      3  C   LIG d   1       0.790  93.203 118.425  0.00  0.00     0.038 C 
ATOM      4  C   LIG d   1      -0.135  94.225 118.688  0.00  0.00     0.028 C 
ATOM      5  C   LIG d   1      -1.469  94.032 117.975  0.00  0.00    -0.047 C 
ATOM      6  C   LIG d   1      -1.993  92.607 118.266  0.00  0.00     0.091 C 
ENDROOT
BRANCH   1   7
ATOM      7  O   LIG d   1      -1.254  90.287 118.540  0.00  0.00    -0.368 OA
BRANCH   7   8
ATOM      8  C   LIG d   1      -1.585  89.167 117.683  0.00  0.00     0.119 C 
BRANCH   8   9
ATOM      9  C   LIG d   1      -2.783  88.436 118.319  0.00  0.00     0.028 C 
ATOM     10  C   LIG d   1      -3.409  89.232 119.476  0.00  0.00     0.006 C 
ENDBRANCH   8   9
BRANCH   8  11
ATOM     11  C   LIG d   1      -0.453  88.137 117.649  0.00  0.00     0.028 C 
ATOM     12  C   LIG d   1      -0.853  86.791 118.273  0.00  0.00     0.006 C 
ENDBRANCH   8  11
ENDBRANCH   7   8
ENDBRANCH   1   7
BRANCH   6  13
ATOM     13  N   LIG d   1      -3.253  92.307 117.538  0.00  0.00    -0.311 N 
ATOM     14  C   LIG d   1      -4.464  92.487 118.063  0.00  0.00     0.210 C 
ATOM     15  C   LIG d   1      -5.630  92.096 117.149  0.00  0.00     0.109 C 
ATOM     16  O   LIG d   1      -4.683  92.965 119.186  0.00  0.00    -0.276 OA
ATOM     17  H   LIG d   1      -3.168  91.945 116.608  0.00  0.00     0.149 HD
ENDBRANCH   6  13
BRANCH   5  18
ATOM     18  N   LIG d   1      -2.382  95.091 118.446  0.00  0.00     0.381 N 
ATOM     19  H   LIG d   1      -1.860  95.806 118.912  0.00  0.00    -0.090 HD
ATOM     20  H   LIG d   1      -3.029  94.693 119.104  0.00  0.00    -0.090 HD
ATOM     21  H   LIG d   1      -2.879  95.481 117.675  0.00  0.00    -0.090 HD
ENDBRANCH   5  18
BRANCH   3  22
ATOM     22  C   LIG d   1       2.141  93.516 118.446  0.00  0.00     0.382 C 
ATOM     23  O   LIG d   1       2.742  93.768 117.374  0.00  0.00    -0.241 OA
ATOM     24  O   LIG d   1       2.775  93.505 119.518  0.00  0.00    -0.241 OA
ENDBRANCH   3  22
TORSDOF 7
ENDMDL
MODEL 6
REMARK VINA RESULT:      -4.0      2.329      4.345
REMARK  7 active torsions:
REMARK  status: ('A' for Active; 'I' for Inactive)
REMARK    1  A    between atoms: C_2  and  C_3 
REMARK    2  A    between atoms: C_3  and  O_6 
REMARK    3  A    between atoms: C_3  and  C_4 
REMARK    4  A    between atoms: C_7  and  O_6 
REMARK    5  A    between atoms: C_9  and  C_10 
REMARK    6  A    between atoms: N_15  and  C_14 
REMARK    7  A    between atoms: N_20  and  C_19 
REMARK       I    between atoms: C_22  and  N_20 
ROOT
ATOM      1  C   LIG d   1      -2.836  92.722 117.912  0.00  0.00     0.161 C 
ATOM      2  C   LIG d   1      -4.231  92.554 117.934  0.00  0.00     0.016 C 
ATOM      3  C   LIG d   1      -4.865  91.293 117.837  0.00  0.00     0.038 C 
ATOM      4  C   LIG d   1      -4.138  90.094 117.863  0.00  0.00     0.028 C 
ATOM      5  C   LIG d   1      -2.716  90.236 117.330  0.00  0.00    -0.047 C 
ATOM      6  C   LIG d   1      -2.025  91.416 118.052  0.00  0.00     0.091 C 
ENDROOT
BRANCH   1   7
ATOM      7  O   LIG d   1      -2.442  93.668 118.924  0.00  0.00    -0.368 OA
BRANCH   7   8
ATOM      8  C   LIG d   1      -3.384  93.875 120.005  0.00  0.00     0.119 C 
BRANCH   8   9
ATOM      9  C   LIG d   1      -3.820  95.352 119.963  0.00  0.00     0.028 C 
ATOM     10  C   LIG d   1      -5.350  95.513 119.989  0.00  0.00     0.006 C 
ENDBRANCH   8   9
BRANCH   8  11
ATOM     11  C   LIG d   1      -2.715  93.689 121.371  0.00  0.00     0.028 C 
ATOM     12  C   LIG d   1      -1.705  92.531 121.387  0.00  0.00     0.006 C 
ENDBRANCH   8  11
ENDBRANCH   7   8
ENDBRANCH   1   7
BRANCH   6  13
ATOM     13  N   LIG d   1      -0.659  91.678 117.530  0.00  0.00    -0.311 N 
ATOM     14  C   LIG d   1       0.444  91.166 118.075  0.00  0.00     0.210 C 
ATOM     15  C   LIG d   1       1.753  91.579 117.394  0.00  0.00     0.109 C 
ATOM     16  O   LIG d   1       0.460  90.385 119.037  0.00  0.00    -0.276 OA
ATOM     17  H   LIG d   1      -0.582  92.277 116.732  0.00  0.00     0.149 HD
ENDBRANCH   6  13
BRANCH   5  18
ATOM     18  N   LIG d   1      -2.029  88.948 117.542  0.00  0.00     0.381 N 
ATOM     19  H   LIG d   1      -2.702  88.236 117.747  0.00  0.00    -0.090 HD
ATOM     20  H   LIG d   1      -1.412  89.034 118.330  0.00  0.00    -0.090 HD
ATOM     21  H   LIG d   1      -1.509  88.701 116.729  0.00  0.00    -0.090 HD
ENDBRANCH   5  18
BRANCH   3  22
ATOM     22  C   LIG d   1      -6.240  91.227 117.673  0.00  0.00     0.382 C 
ATOM     23  O   LIG d   1      -6.977  92.093 118.202  0.00  0.00    -0.241 OA
ATOM     24  O   LIG d   1      -6.756  90.286 117.040  0.00  0.00    -0.241 OA
ENDBRANCH   3  22
TORSDOF 7
ENDMDL
MODEL 7
REMARK VINA RESULT:      -4.0      3.014      4.348
REMARK  7 active torsions:
REMARK  status: ('A' for Active; 'I' for Inactive)
REMARK    1  A    between atoms: C_2  and  C_3 
REMARK    2  A    between atoms: C_3  and  O_6 
REMARK    3  A    between atoms: C_3  and  C_4 
REMARK    4  A    between atoms: C_7  and  O_6 
REMARK    5  A    between atoms: C_9  and  C_10 
REMARK    6  A    between atoms: N_15  and  C_14 
REMARK    7  A    between atoms: N_20  and  C_19 
REMARK       I    between atoms: C_22  and  N_20 
ROOT
ATOM      1  C   LIG d   1      -4.398  92.647 119.167  0.00  0.00     0.161 C 
ATOM      2  C   LIG d   1      -5.559  92.183 118.527  0.00  0.00     0.016 C 
ATOM      3  C   LIG d   1      -5.546  91.200 117.510  0.00  0.00     0.038 C 
ATOM      4  C   LIG d   1      -4.379  90.501 117.169  0.00  0.00     0.028 C 
ATOM      5  C   LIG d   1      -3.101  91.291 117.432  0.00  0.00    -0.047 C 
ATOM      6  C   LIG d   1      -3.128  91.818 118.886  0.00  0.00     0.091 C 
ENDROOT
BRANCH   1   7
ATOM      7  O   LIG d   1      -4.629  92.745 120.586  0.00  0.00    -0.368 OA
BRANCH   7   8
ATOM      8  C   LIG d   1      -5.272  91.605 121.207  0.00  0.00     0.119 C 
BRANCH   8   9
ATOM      9  C   LIG d   1      -6.375  92.146 122.138  0.00  0.00     0.028 C 
ATOM     10  C   LIG d   1      -7.782  91.978 121.541  0.00  0.00     0.006 C 
ENDBRANCH   8   9
BRANCH   8  11
ATOM     11  C   LIG d   1      -4.304  90.848 122.122  0.00  0.00     0.028 C 
ATOM     12  C   LIG d   1      -4.911  90.527 123.496  0.00  0.00     0.006 C 
ENDBRANCH   8  11
ENDBRANCH   7   8
ENDBRANCH   1   7
BRANCH   6  13
ATOM     13  N   LIG d   1      -1.953  92.672 119.200  0.00  0.00    -0.311 N 
ATOM     14  C   LIG d   1      -1.032  92.347 120.106  0.00  0.00     0.210 C 
ATOM     15  C   LIG d   1       0.085  93.379 120.290  0.00  0.00     0.109 C 
ATOM     16  O   LIG d   1      -1.017  91.288 120.751  0.00  0.00    -0.276 OA
ATOM     17  H   LIG d   1      -1.871  93.536 118.701  0.00  0.00     0.149 HD
ENDBRANCH   6  13
BRANCH   5  18
ATOM     18  N   LIG d   1      -1.960  90.396 117.163  0.00  0.00     0.381 N 
ATOM     19  H   LIG d   1      -2.241  89.668 116.536  0.00  0.00    -0.090 HD
ATOM     20  H   LIG d   1      -1.667  89.974 118.026  0.00  0.00    -0.090 HD
ATOM     21  H   LIG d   1      -1.207  90.914 116.765  0.00  0.00    -0.090 HD
ENDBRANCH   5  18
BRANCH   3  22
ATOM     22  C   LIG d   1      -6.705  90.935 116.796  0.00  0.00     0.382 C 
ATOM     23  O   LIG d   1      -7.516  91.860 116.553  0.00  0.00    -0.241 OA
ATOM     24  O   LIG d   1      -6.970  89.774 116.430  0.00  0.00    -0.241 OA
ENDBRANCH   3  22
TORSDOF 7
ENDMDL
MODEL 8
REMARK VINA RESULT:      -3.9      2.610      5.922
REMARK  7 active torsions:
REMARK  status: ('A' for Active; 'I' for Inactive)
REMARK    1  A    between atoms: C_2  and  C_3 
REMARK    2  A    between atoms: C_3  and  O_6 
REMARK    3  A    between atoms: C_3  and  C_4 
REMARK    4  A    between atoms: C_7  and  O_6 
REMARK    5  A    between atoms: C_9  and  C_10 
REMARK    6  A    between atoms: N_15  and  C_14 
REMARK    7  A    between atoms: N_20  and  C_19 
REMARK       I    between atoms: C_22  and  N_20 
ROOT
ATOM      1  C   LIG d   1      -3.075  93.079 117.927  0.00  0.00     0.161 C 
ATOM      2  C   LIG d   1      -1.773  92.555 117.966  0.00  0.00     0.016 C 
ATOM      3  C   LIG d   1      -0.976  92.537 119.133  0.00  0.00     0.038 C 
ATOM      4  C   LIG d   1      -1.487  92.908 120.386  0.00  0.00     0.028 C 
ATOM      5  C   LIG d   1      -2.629  93.915 120.300  0.00  0.00    -0.047 C 
ATOM      6  C   LIG d   1      -3.690  93.387 119.308  0.00  0.00     0.091 C 
ENDROOT
BRANCH   1   7
ATOM      7  O   LIG d   1      -3.936  92.196 117.181  0.00  0.00    -0.368 OA
BRANCH   7   8
ATOM      8  C   LIG d   1      -4.612  91.168 117.946  0.00  0.00     0.119 C 
BRANCH   8   9
ATOM      9  C   LIG d   1      -3.979  89.816 117.564  0.00  0.00     0.028 C 
ATOM     10  C   LIG d   1      -3.205  89.180 118.731  0.00  0.00     0.006 C 
ENDBRANCH   8   9
BRANCH   8  11
ATOM     11  C   LIG d   1      -6.086  91.054 117.545  0.00  0.00     0.028 C 
ATOM     12  C   LIG d   1      -6.580  92.266 116.741  0.00  0.00     0.006 C 
ENDBRANCH   8  11
ENDBRANCH   7   8
ENDBRANCH   1   7
BRANCH   6  13
ATOM     13  N   LIG d   1      -4.802  94.351 119.101  0.00  0.00    -0.311 N 
ATOM     14  C   LIG d   1      -5.967  94.275 119.742  0.00  0.00     0.210 C 
ATOM     15  C   LIG d   1      -6.984  95.358 119.366  0.00  0.00     0.109 C 
ATOM     16  O   LIG d   1      -6.243  93.433 120.610  0.00  0.00    -0.276 OA
ATOM     17  H   LIG d   1      -4.652  95.085 118.437  0.00  0.00     0.149 HD
ENDBRANCH   6  13
BRANCH   5  18
ATOM     18  N   LIG d   1      -3.157  94.108 121.664  0.00  0.00     0.381 N 
ATOM     19  H   LIG d   1      -2.830  94.978 122.034  0.00  0.00    -0.090 HD
ATOM     20  H   LIG d   1      -2.817  93.367 122.252  0.00  0.00    -0.090 HD
ATOM     21  H   LIG d   1      -4.153  94.099 121.648  0.00  0.00    -0.090 HD
ENDBRANCH   5  18
BRANCH   3  22
ATOM     22  C   LIG d   1       0.362  92.182 119.047  0.00  0.00     0.382 C 
ATOM     23  O   LIG d   1       0.941  92.185 117.934  0.00  0.00    -0.241 OA
ATOM     24  O   LIG d   1       0.985  91.815 120.061  0.00  0.00    -0.241 OA
ENDBRANCH   3  22
TORSDOF 7
ENDMDL
MODEL 9
REMARK VINA RESULT:      -3.9      2.631      4.994
REMARK  7 active torsions:
REMARK  status: ('A' for Active; 'I' for Inactive)
REMARK    1  A    between atoms: C_2  and  C_3 
REMARK    2  A    between atoms: C_3  and  O_6 
REMARK    3  A    between atoms: C_3  and  C_4 
REMARK    4  A    between atoms: C_7  and  O_6 
REMARK    5  A    between atoms: C_9  and  C_10 
REMARK    6  A    between atoms: N_15  and  C_14 
REMARK    7  A    between atoms: N_20  and  C_19 
REMARK       I    between atoms: C_22  and  N_20 
ROOT
ATOM      1  C   LIG d   1      -0.449  92.211 118.620  0.00  0.00     0.161 C 
ATOM      2  C   LIG d   1      -0.415  90.832 118.355  0.00  0.00     0.016 C 
ATOM      3  C   LIG d   1      -1.521  90.108 117.852  0.00  0.00     0.038 C 
ATOM      4  C   LIG d   1      -2.698  90.748 117.435  0.00  0.00     0.028 C 
ATOM      5  C   LIG d   1      -2.958  92.068 118.154  0.00  0.00    -0.047 C 
ATOM      6  C   LIG d   1      -1.688  92.945 118.066  0.00  0.00     0.091 C 
ENDROOT
BRANCH   1   7
ATOM      7  O   LIG d   1       0.759  92.831 118.136  0.00  0.00    -0.368 OA
BRANCH   7   8
ATOM      8  C   LIG d   1       2.002  92.223 118.563  0.00  0.00     0.119 C 
BRANCH   8   9
ATOM      9  C   LIG d   1       2.628  93.145 119.627  0.00  0.00     0.028 C 
ATOM     10  C   LIG d   1       1.756  94.378 119.921  0.00  0.00     0.006 C 
ENDBRANCH   8   9
BRANCH   8  11
ATOM     11  C   LIG d   1       3.020  92.174 117.420  0.00  0.00     0.028 C 
ATOM     12  C   LIG d   1       2.757  91.023 116.436  0.00  0.00     0.006 C 
ENDBRANCH   8  11
ENDBRANCH   7   8
ENDBRANCH   1   7
BRANCH   6  13
ATOM     13  N   LIG d   1      -1.828  94.221 118.817  0.00  0.00    -0.311 N 
ATOM     14  C   LIG d   1      -1.433  95.400 118.339  0.00  0.00     0.210 C 
ATOM     15  C   LIG d   1      -1.650  96.586 119.284  0.00  0.00     0.109 C 
ATOM     16  O   LIG d   1      -0.954  95.580 117.210  0.00  0.00    -0.276 OA
ATOM     17  H   LIG d   1      -2.235  94.170 119.730  0.00  0.00     0.149 HD
ENDBRANCH   6  13
BRANCH   5  18
ATOM     18  N   LIG d   1      -4.137  92.693 117.526  0.00  0.00     0.381 N 
ATOM     19  H   LIG d   1      -4.823  91.994 117.324  0.00  0.00    -0.090 HD
ATOM     20  H   LIG d   1      -3.857  93.120 116.661  0.00  0.00    -0.090 HD
ATOM     21  H   LIG d   1      -4.523  93.381 118.135  0.00  0.00    -0.090 HD
ENDBRANCH   5  18
BRANCH   3  22
ATOM     22  C   LIG d   1      -1.471  88.724 117.800  0.00  0.00     0.382 C 
ATOM     23  O   LIG d   1      -2.528  88.054 117.891  0.00  0.00    -0.241 OA
ATOM     24  O   LIG d   1      -0.377  88.134 117.708  0.00  0.00    -0.241 OA
ENDBRANCH   3  22
TORSDOF 7
ENDMDL
