MODEL 1
REMARK VINA RESULT:      -4.9      0.000      0.000
REMARK  7 active torsions:
REMARK  status: ('A' for Active; 'I' for Inactive)
REMARK    1  A    between atoms: C_2  and  C_3 
REMARK    2  A    between atoms: C_3  and  O_6 
REMARK    3  A    between atoms: C_3  and  C_4 
REMARK    4  A    between atoms: C_7  and  O_6 
REMARK    5  A    between atoms: C_9  and  C_10 
REMARK    6  A    between atoms: N_15  and  C_14 
REMARK    7  A    between atoms: N_20  and  C_19 
REMARK       I    between atoms: C_22  and  N_20 
ROOT
ATOM      1  C   LIG d   1      -5.433  94.064 119.046  0.00  0.00     0.161 C 
ATOM      2  C   LIG d   1      -6.826  94.188 118.911  0.00  0.00     0.016 C 
ATOM      3  C   LIG d   1      -7.609  93.330 118.104  0.00  0.00     0.038 C 
ATOM      4  C   LIG d   1      -7.069  92.189 117.494  0.00  0.00     0.028 C 
ATOM      5  C   LIG d   1      -5.579  92.311 117.193  0.00  0.00    -0.047 C 
ATOM      6  C   LIG d   1      -4.842  92.757 118.477  0.00  0.00     0.091 C 
ENDROOT
BRANCH   1   7
ATOM      7  O   LIG d   1      -5.061  94.220 120.430  0.00  0.00    -0.368 OA
BRANCH   7   8
ATOM      8  C   LIG d   1      -5.185  93.040 121.261  0.00  0.00     0.119 C 
BRANCH   8   9
ATOM      9  C   LIG d   1      -6.233  93.346 122.348  0.00  0.00     0.028 C 
ATOM     10  C   LIG d   1      -7.542  92.566 122.137  0.00  0.00     0.006 C 
ENDBRANCH   8   9
BRANCH   8  11
ATOM     11  C   LIG d   1      -3.885  92.754 122.020  0.00  0.00     0.028 C 
ATOM     12  C   LIG d   1      -2.809  93.826 121.784  0.00  0.00     0.006 C 
ENDBRANCH   8  11
ENDBRANCH   7   8
ENDBRANCH   1   7
BRANCH   6  13
ATOM     13  N   LIG d   1      -3.391  92.982 118.249  0.00  0.00    -0.311 N 
ATOM     14  C   LIG d   1      -2.459  92.064 118.500  0.00  0.00     0.210 C 
ATOM     15  C   LIG d   1      -1.021  92.508 118.213  0.00  0.00     0.109 C 
ATOM     16  O   LIG d   1      -2.689  90.914 118.902  0.00  0.00    -0.276 OA
ATOM     17  H   LIG d   1      -3.118  93.877 117.894  0.00  0.00     0.149 HD
ENDBRANCH   6  13
BRANCH   5  18
ATOM     18  N   LIG d   1      -5.118  91.004 116.687  0.00  0.00     0.381 N 
ATOM     19  H   LIG d   1      -5.170  90.990 115.688  0.00  0.00    -0.090 HD
ATOM     20  H   LIG d   1      -5.722  90.285 117.045  0.00  0.00    -0.090 HD
ATOM     21  H   LIG d   1      -4.180  90.836 116.980  0.00  0.00    -0.090 HD
ENDBRANCH   5  18
BRANCH   3  22
ATOM     22  C   LIG d   1      -8.941  93.634 117.870  0.00  0.00     0.382 C 
ATOM     23  O   LIG d   1      -9.806  93.379 118.742  0.00  0.00    -0.241 OA
ATOM     24  O   LIG d   1      -9.296  94.121 116.779  0.00  0.00    -0.241 OA
ENDBRANCH   3  22
TORSDOF 7
ENDMDL
MODEL 2
REMARK VINA RESULT:      -4.9      2.327      4.170
REMARK  7 active torsions:
REMARK  status: ('A' for Active; 'I' for Inactive)
REMARK    1  A    between atoms: C_2  and  C_3 
REMARK    2  A    between atoms: C_3  and  O_6 
REMARK    3  A    between atoms: C_3  and  C_4 
REMARK    4  A    between atoms: C_7  and  O_6 
REMARK    5  A    between atoms: C_9  and  C_10 
REMARK    6  A    between atoms: N_15  and  C_14 
REMARK    7  A    between atoms: N_20  and  C_19 
REMARK       I    between atoms: C_22  and  N_20 
ROOT
ATOM      1  C   LIG d   1      -5.361  93.474 119.003  0.00  0.00     0.161 C 
ATOM      2  C   LIG d   1      -6.599  93.254 118.376  0.00  0.00     0.016 C 
ATOM      3  C   LIG d   1      -7.683  94.158 118.456  0.00  0.00     0.038 C 
ATOM      4  C   LIG d   1      -7.551  95.423 119.048  0.00  0.00     0.028 C 
ATOM      5  C   LIG d   1      -6.477  95.477 120.130  0.00  0.00    -0.047 C 
ATOM      6  C   LIG d   1      -5.162  94.899 119.560  0.00  0.00     0.091 C 
ENDROOT
BRANCH   1   7
ATOM      7  O   LIG d   1      -4.289  93.135 118.101  0.00  0.00    -0.368 OA
BRANCH   7   8
ATOM      8  C   LIG d   1      -3.463  92.009 118.487  0.00  0.00     0.119 C 
BRANCH   8   9
ATOM      9  C   LIG d   1      -1.992  92.444 118.345  0.00  0.00     0.028 C 
ATOM     10  C   LIG d   1      -1.298  92.620 119.707  0.00  0.00     0.006 C 
ENDBRANCH   8   9
BRANCH   8  11
ATOM     11  C   LIG d   1      -3.634  90.834 117.520  0.00  0.00     0.028 C 
ATOM     12  C   LIG d   1      -2.709  89.651 117.849  0.00  0.00     0.006 C 
ENDBRANCH   8  11
ENDBRANCH   7   8
ENDBRANCH   1   7
BRANCH   6  13
ATOM     13  N   LIG d   1      -4.082  94.837 120.579  0.00  0.00    -0.311 N 
ATOM     14  C   LIG d   1      -3.206  95.820 120.780  0.00  0.00     0.210 C 
ATOM     15  C   LIG d   1      -2.161  95.543 121.866  0.00  0.00     0.109 C 
ATOM     16  O   LIG d   1      -3.214  96.907 120.184  0.00  0.00    -0.276 OA
ATOM     17  H   LIG d   1      -4.021  94.002 121.130  0.00  0.00     0.149 HD
ENDBRANCH   6  13
BRANCH   5  18
ATOM     18  N   LIG d   1      -6.352  96.881 120.564  0.00  0.00     0.381 N 
ATOM     19  H   LIG d   1      -7.169  97.393 120.297  0.00  0.00    -0.090 HD
ATOM     20  H   LIG d   1      -5.558  97.293 120.106  0.00  0.00    -0.090 HD
ATOM     21  H   LIG d   1      -6.233  96.923 121.552  0.00  0.00    -0.090 HD
ENDBRANCH   5  18
BRANCH   3  22
ATOM     22  C   LIG d   1      -8.928  93.783 117.975  0.00  0.00     0.382 C 
ATOM     23  O   LIG d   1      -9.189  93.900 116.754  0.00  0.00    -0.241 OA
ATOM     24  O   LIG d   1      -9.808  93.369 118.754  0.00  0.00    -0.241 OA
ENDBRANCH   3  22
TORSDOF 7
ENDMDL
MODEL 3
REMARK VINA RESULT:      -4.7      0.997      1.729
REMARK  7 active torsions:
REMARK  status: ('A' for Active; 'I' for Inactive)
REMARK    1  A    between atoms: C_2  and  C_3 
REMARK    2  A    between atoms: C_3  and  O_6 
REMARK    3  A    between atoms: C_3  and  C_4 
REMARK    4  A    between atoms: C_7  and  O_6 
REMARK    5  A    between atoms: C_9  and  C_10 
REMARK    6  A    between atoms: N_15  and  C_14 
REMARK    7  A    between atoms: N_20  and  C_19 
REMARK       I    between atoms: C_22  and  N_20 
ROOT
ATOM      1  C   LIG d   1      -5.429  93.992 119.050  0.00  0.00     0.161 C 
ATOM      2  C   LIG d   1      -6.820  94.133 118.920  0.00  0.00     0.016 C 
ATOM      3  C   LIG d   1      -7.613  93.304 118.093  0.00  0.00     0.038 C 
ATOM      4  C   LIG d   1      -7.084  92.174 117.452  0.00  0.00     0.028 C 
ATOM      5  C   LIG d   1      -5.593  92.290 117.152  0.00  0.00    -0.047 C 
ATOM      6  C   LIG d   1      -4.851  92.695 118.445  0.00  0.00     0.091 C 
ENDROOT
BRANCH   1   7
ATOM      7  O   LIG d   1      -5.053  94.109 120.437  0.00  0.00    -0.368 OA
BRANCH   7   8
ATOM      8  C   LIG d   1      -6.142  94.245 121.383  0.00  0.00     0.119 C 
BRANCH   8   9
ATOM      9  C   LIG d   1      -5.745  95.340 122.392  0.00  0.00     0.028 C 
ATOM     10  C   LIG d   1      -5.906  96.756 121.814  0.00  0.00     0.006 C 
ENDBRANCH   8   9
BRANCH   8  11
ATOM     11  C   LIG d   1      -6.320  92.972 122.215  0.00  0.00     0.028 C 
ATOM     12  C   LIG d   1      -7.773  92.471 122.234  0.00  0.00     0.006 C 
ENDBRANCH   8  11
ENDBRANCH   7   8
ENDBRANCH   1   7
BRANCH   6  13
ATOM     13  N   LIG d   1      -3.398  92.913 118.221  0.00  0.00    -0.311 N 
ATOM     14  C   LIG d   1      -2.479  91.965 118.400  0.00  0.00     0.210 C 
ATOM     15  C   LIG d   1      -1.036  92.405 118.132  0.00  0.00     0.109 C 
ATOM     16  O   LIG d   1      -2.725  90.794 118.724  0.00  0.00    -0.276 OA
ATOM     17  H   LIG d   1      -3.113  93.826 117.926  0.00  0.00     0.149 HD
ENDBRANCH   6  13
BRANCH   5  18
ATOM     18  N   LIG d   1      -5.145  90.992 116.611  0.00  0.00     0.381 N 
ATOM     19  H   LIG d   1      -4.447  91.140 115.910  0.00  0.00    -0.090 HD
ATOM     20  H   LIG d   1      -5.929  90.531 116.183  0.00  0.00    -0.090 HD
ATOM     21  H   LIG d   1      -4.777  90.426 117.343  0.00  0.00    -0.090 HD
ENDBRANCH   5  18
BRANCH   3  22
ATOM     22  C   LIG d   1      -8.942  93.627 117.868  0.00  0.00     0.382 C 
ATOM     23  O   LIG d   1      -9.806  93.366 118.740  0.00  0.00    -0.241 OA
ATOM     24  O   LIG d   1      -9.295  94.135 116.787  0.00  0.00    -0.241 OA
ENDBRANCH   3  22
TORSDOF 7
ENDMDL
MODEL 4
REMARK VINA RESULT:      -4.6      1.070      1.915
REMARK  7 active torsions:
REMARK  status: ('A' for Active; 'I' for Inactive)
REMARK    1  A    between atoms: C_2  and  C_3 
REMARK    2  A    between atoms: C_3  and  O_6 
REMARK    3  A    between atoms: C_3  and  C_4 
REMARK    4  A    between atoms: C_7  and  O_6 
REMARK    5  A    between atoms: C_9  and  C_10 
REMARK    6  A    between atoms: N_15  and  C_14 
REMARK    7  A    between atoms: N_20  and  C_19 
REMARK       I    between atoms: C_22  and  N_20 
ROOT
ATOM      1  C   LIG d   1      -5.362  93.915 119.035  0.00  0.00     0.161 C 
ATOM      2  C   LIG d   1      -6.751  94.123 119.017  0.00  0.00     0.016 C 
ATOM      3  C   LIG d   1      -7.640  93.371 118.215  0.00  0.00     0.038 C 
ATOM      4  C   LIG d   1      -7.214  92.252 117.484  0.00  0.00     0.028 C 
ATOM      5  C   LIG d   1      -5.746  92.317 117.078  0.00  0.00    -0.047 C 
ATOM      6  C   LIG d   1      -4.892  92.625 118.329  0.00  0.00     0.091 C 
ENDROOT
BRANCH   1   7
ATOM      7  O   LIG d   1      -4.880  93.946 120.393  0.00  0.00    -0.368 OA
BRANCH   7   8
ATOM      8  C   LIG d   1      -3.975  95.028 120.724  0.00  0.00     0.119 C 
BRANCH   8   9
ATOM      9  C   LIG d   1      -2.736  94.406 121.396  0.00  0.00     0.028 C 
ATOM     10  C   LIG d   1      -3.002  92.982 121.913  0.00  0.00     0.006 C 
ENDBRANCH   8   9
BRANCH   8  11
ATOM     11  C   LIG d   1      -4.582  95.960 121.776  0.00  0.00     0.028 C 
ATOM     12  C   LIG d   1      -5.783  95.336 122.504  0.00  0.00     0.006 C 
ENDBRANCH   8  11
ENDBRANCH   7   8
ENDBRANCH   1   7
BRANCH   6  13
ATOM     13  N   LIG d   1      -3.451  92.789 118.006  0.00  0.00    -0.311 N 
ATOM     14  C   LIG d   1      -2.511  91.925 118.386  0.00  0.00     0.210 C 
ATOM     15  C   LIG d   1      -1.085  92.294 117.965  0.00  0.00     0.109 C 
ATOM     16  O   LIG d   1      -2.727  90.873 119.005  0.00  0.00    -0.276 OA
ATOM     17  H   LIG d   1      -3.191  93.601 117.480  0.00  0.00     0.149 HD
ENDBRANCH   6  13
BRANCH   5  18
ATOM     18  N   LIG d   1      -5.401  91.030 116.446  0.00  0.00     0.381 N 
ATOM     19  H   LIG d   1      -6.095  90.345 116.670  0.00  0.00    -0.090 HD
ATOM     20  H   LIG d   1      -4.518  90.715 116.809  0.00  0.00    -0.090 HD
ATOM     21  H   LIG d   1      -5.341  91.141 115.457  0.00  0.00    -0.090 HD
ENDBRANCH   5  18
BRANCH   3  22
ATOM     22  C   LIG d   1      -8.966  93.763 118.107  0.00  0.00     0.382 C 
ATOM     23  O   LIG d   1      -9.296  94.635 117.267  0.00  0.00    -0.241 OA
ATOM     24  O   LIG d   1      -9.829  93.287 118.868  0.00  0.00    -0.241 OA
ENDBRANCH   3  22
TORSDOF 7
ENDMDL
MODEL 5
REMARK VINA RESULT:      -4.6      3.622      8.032
REMARK  7 active torsions:
REMARK  status: ('A' for Active; 'I' for Inactive)
REMARK    1  A    between atoms: C_2  and  C_3 
REMARK    2  A    between atoms: C_3  and  O_6 
REMARK    3  A    between atoms: C_3  and  C_4 
REMARK    4  A    between atoms: C_7  and  O_6 
REMARK    5  A    between atoms: C_9  and  C_10 
REMARK    6  A    between atoms: N_15  and  C_14 
REMARK    7  A    between atoms: N_20  and  C_19 
REMARK       I    between atoms: C_22  and  N_20 
ROOT
ATOM      1  C   LIG d   1      -0.157  91.165 117.270  0.00  0.00     0.161 C 
ATOM      2  C   LIG d   1       1.241  91.141 117.410  0.00  0.00     0.016 C 
ATOM      3  C   LIG d   1       1.944  91.944 118.338  0.00  0.00     0.038 C 
ATOM      4  C   LIG d   1       1.280  92.719 119.300  0.00  0.00     0.028 C 
ATOM      5  C   LIG d   1      -0.114  93.160 118.865  0.00  0.00    -0.047 C 
ATOM      6  C   LIG d   1      -0.906  91.922 118.387  0.00  0.00     0.091 C 
ENDROOT
BRANCH   1   7
ATOM      7  O   LIG d   1      -0.659  89.819 117.154  0.00  0.00    -0.368 OA
BRANCH   7   8
ATOM      8  C   LIG d   1      -0.841  89.097 118.397  0.00  0.00     0.119 C 
BRANCH   8   9
ATOM      9  C   LIG d   1      -0.025  87.793 118.299  0.00  0.00     0.028 C 
ATOM     10  C   LIG d   1       0.523  87.549 116.883  0.00  0.00     0.006 C 
ENDBRANCH   8   9
BRANCH   8  11
ATOM     11  C   LIG d   1      -2.296  88.652 118.575  0.00  0.00     0.028 C 
ATOM     12  C   LIG d   1      -2.498  87.756 119.807  0.00  0.00     0.006 C 
ENDBRANCH   8  11
ENDBRANCH   7   8
ENDBRANCH   1   7
BRANCH   6  13
ATOM     13  N   LIG d   1      -2.251  92.276 117.865  0.00  0.00    -0.311 N 
ATOM     14  C   LIG d   1      -3.350  92.289 118.619  0.00  0.00     0.210 C 
ATOM     15  C   LIG d   1      -4.637  92.663 117.878  0.00  0.00     0.109 C 
ATOM     16  O   LIG d   1      -3.375  92.056 119.836  0.00  0.00    -0.276 OA
ATOM     17  H   LIG d   1      -2.317  92.509 116.894  0.00  0.00     0.149 HD
ENDBRANCH   6  13
BRANCH   5  18
ATOM     18  N   LIG d   1      -0.744  93.841 120.013  0.00  0.00     0.381 N 
ATOM     19  H   LIG d   1      -0.387  94.773 120.091  0.00  0.00    -0.090 HD
ATOM     20  H   LIG d   1      -0.512  93.343 120.854  0.00  0.00    -0.090 HD
ATOM     21  H   LIG d   1      -1.732  93.865 119.894  0.00  0.00    -0.090 HD
ENDBRANCH   5  18
BRANCH   3  22
ATOM     22  C   LIG d   1       3.328  92.006 118.282  0.00  0.00     0.382 C 
ATOM     23  O   LIG d   1       3.891  92.617 117.342  0.00  0.00    -0.241 OA
ATOM     24  O   LIG d   1       4.021  91.421 119.136  0.00  0.00    -0.241 OA
ENDBRANCH   3  22
TORSDOF 7
ENDMDL
MODEL 6
REMARK VINA RESULT:      -4.2      2.472      4.559
REMARK  7 active torsions:
REMARK  status: ('A' for Active; 'I' for Inactive)
REMARK    1  A    between atoms: C_2  and  C_3 
REMARK    2  A    between atoms: C_3  and  O_6 
REMARK    3  A    between atoms: C_3  and  C_4 
REMARK    4  A    between atoms: C_7  and  O_6 
REMARK    5  A    between atoms: C_9  and  C_10 
REMARK    6  A    between atoms: N_15  and  C_14 
REMARK    7  A    between atoms: N_20  and  C_19 
REMARK       I    between atoms: C_22  and  N_20 
ROOT
ATOM      1  C   LIG d   1      -3.215  92.206 118.673  0.00  0.00     0.161 C 
ATOM      2  C   LIG d   1      -4.190  91.898 117.710  0.00  0.00     0.016 C 
ATOM      3  C   LIG d   1      -5.455  92.528 117.653  0.00  0.00     0.038 C 
ATOM      4  C   LIG d   1      -5.773  93.625 118.469  0.00  0.00     0.028 C 
ATOM      5  C   LIG d   1      -5.012  93.639 119.790  0.00  0.00    -0.047 C 
ATOM      6  C   LIG d   1      -3.502  93.476 119.500  0.00  0.00     0.091 C 
ENDROOT
BRANCH   1   7
ATOM      7  O   LIG d   1      -1.921  92.300 118.044  0.00  0.00    -0.368 OA
BRANCH   7   8
ATOM      8  C   LIG d   1      -1.259  91.043 117.759  0.00  0.00     0.119 C 
BRANCH   8   9
ATOM      9  C   LIG d   1      -1.466  90.123 118.978  0.00  0.00     0.028 C 
ATOM     10  C   LIG d   1      -2.243  88.844 118.623  0.00  0.00     0.006 C 
ENDBRANCH   8   9
BRANCH   8  11
ATOM     11  C   LIG d   1       0.257  91.226 117.641  0.00  0.00     0.028 C 
ATOM     12  C   LIG d   1       0.999  89.903 117.391  0.00  0.00     0.006 C 
ENDBRANCH   8  11
ENDBRANCH   7   8
ENDBRANCH   1   7
BRANCH   6  13
ATOM     13  N   LIG d   1      -2.692  93.395 120.744  0.00  0.00    -0.311 N 
ATOM     14  C   LIG d   1      -1.827  94.337 121.118  0.00  0.00     0.210 C 
ATOM     15  C   LIG d   1      -1.080  94.046 122.423  0.00  0.00     0.109 C 
ATOM     16  O   LIG d   1      -1.631  95.399 120.509  0.00  0.00    -0.276 OA
ATOM     17  H   LIG d   1      -2.811  92.581 121.314  0.00  0.00     0.149 HD
ENDBRANCH   6  13
BRANCH   5  18
ATOM     18  N   LIG d   1      -5.336  94.903 120.478  0.00  0.00     0.381 N 
ATOM     19  H   LIG d   1      -4.565  95.536 120.403  0.00  0.00    -0.090 HD
ATOM     20  H   LIG d   1      -5.493  94.712 121.452  0.00  0.00    -0.090 HD
ATOM     21  H   LIG d   1      -6.151  95.310 120.076  0.00  0.00    -0.090 HD
ENDBRANCH   5  18
BRANCH   3  22
ATOM     22  C   LIG d   1      -6.431  92.036 116.800  0.00  0.00     0.382 C 
ATOM     23  O   LIG d   1      -7.373  92.778 116.431  0.00  0.00    -0.241 OA
ATOM     24  O   LIG d   1      -6.405  90.847 116.430  0.00  0.00    -0.241 OA
ENDBRANCH   3  22
TORSDOF 7
ENDMDL
MODEL 7
REMARK VINA RESULT:      -4.2      3.139      5.354
REMARK  7 active torsions:
REMARK  status: ('A' for Active; 'I' for Inactive)
REMARK    1  A    between atoms: C_2  and  C_3 
REMARK    2  A    between atoms: C_3  and  O_6 
REMARK    3  A    between atoms: C_3  and  C_4 
REMARK    4  A    between atoms: C_7  and  O_6 
REMARK    5  A    between atoms: C_9  and  C_10 
REMARK    6  A    between atoms: N_15  and  C_14 
REMARK    7  A    between atoms: N_20  and  C_19 
REMARK       I    between atoms: C_22  and  N_20 
ROOT
ATOM      1  C   LIG d   1      -2.203  90.710 118.434  0.00  0.00     0.161 C 
ATOM      2  C   LIG d   1      -3.404  90.802 117.711  0.00  0.00     0.016 C 
ATOM      3  C   LIG d   1      -4.268  91.919 117.775  0.00  0.00     0.038 C 
ATOM      4  C   LIG d   1      -3.912  93.093 118.456  0.00  0.00     0.028 C 
ATOM      5  C   LIG d   1      -2.944  92.855 119.610  0.00  0.00    -0.047 C 
ATOM      6  C   LIG d   1      -1.744  92.027 119.095  0.00  0.00     0.091 C 
ENDROOT
BRANCH   1   7
ATOM      7  O   LIG d   1      -1.162  90.185 117.588  0.00  0.00    -0.368 OA
BRANCH   7   8
ATOM      8  C   LIG d   1      -0.891  88.767 117.716  0.00  0.00     0.119 C 
BRANCH   8   9
ATOM      9  C   LIG d   1      -1.244  88.357 119.159  0.00  0.00     0.028 C 
ATOM     10  C   LIG d   1      -1.241  86.831 119.352  0.00  0.00     0.006 C 
ENDBRANCH   8   9
BRANCH   8  11
ATOM     11  C   LIG d   1       0.604  88.469 117.564  0.00  0.00     0.028 C 
ATOM     12  C   LIG d   1       1.473  89.262 118.552  0.00  0.00     0.006 C 
ENDBRANCH   8  11
ENDBRANCH   7   8
ENDBRANCH   1   7
BRANCH   6  13
ATOM     13  N   LIG d   1      -0.791  91.677 120.180  0.00  0.00    -0.311 N 
ATOM     14  C   LIG d   1       0.304  92.385 120.450  0.00  0.00     0.210 C 
ATOM     15  C   LIG d   1       1.161  91.839 121.596  0.00  0.00     0.109 C 
ATOM     16  O   LIG d   1       0.630  93.432 119.871  0.00  0.00    -0.276 OA
ATOM     17  H   LIG d   1      -0.995  90.859 120.721  0.00  0.00     0.149 HD
ENDBRANCH   6  13
BRANCH   5  18
ATOM     18  N   LIG d   1      -2.551  94.173 120.142  0.00  0.00     0.381 N 
ATOM     19  H   LIG d   1      -2.934  94.898 119.567  0.00  0.00    -0.090 HD
ATOM     20  H   LIG d   1      -1.549  94.248 120.118  0.00  0.00    -0.090 HD
ATOM     21  H   LIG d   1      -2.877  94.274 121.077  0.00  0.00    -0.090 HD
ENDBRANCH   5  18
BRANCH   3  22
ATOM     22  C   LIG d   1      -5.521  91.854 117.186  0.00  0.00     0.382 C 
ATOM     23  O   LIG d   1      -5.809  90.895 116.430  0.00  0.00    -0.241 OA
ATOM     24  O   LIG d   1      -6.352  92.764 117.365  0.00  0.00    -0.241 OA
ENDBRANCH   3  22
TORSDOF 7
ENDMDL
MODEL 8
REMARK VINA RESULT:      -4.0      2.421      4.924
REMARK  7 active torsions:
REMARK  status: ('A' for Active; 'I' for Inactive)
REMARK    1  A    between atoms: C_2  and  C_3 
REMARK    2  A    between atoms: C_3  and  O_6 
REMARK    3  A    between atoms: C_3  and  C_4 
REMARK    4  A    between atoms: C_7  and  O_6 
REMARK    5  A    between atoms: C_9  and  C_10 
REMARK    6  A    between atoms: N_15  and  C_14 
REMARK    7  A    between atoms: N_20  and  C_19 
REMARK       I    between atoms: C_22  and  N_20 
ROOT
ATOM      1  C   LIG d   1      -4.532  93.917 118.723  0.00  0.00     0.161 C 
ATOM      2  C   LIG d   1      -4.362  92.702 118.039  0.00  0.00     0.016 C 
ATOM      3  C   LIG d   1      -3.411  91.725 118.413  0.00  0.00     0.038 C 
ATOM      4  C   LIG d   1      -2.663  91.832 119.596  0.00  0.00     0.028 C 
ATOM      5  C   LIG d   1      -2.441  93.273 120.043  0.00  0.00    -0.047 C 
ATOM      6  C   LIG d   1      -3.803  94.003 120.080  0.00  0.00     0.091 C 
ENDROOT
BRANCH   1   7
ATOM      7  O   LIG d   1      -5.937  94.191 118.891  0.00  0.00    -0.368 OA
BRANCH   7   8
ATOM      8  C   LIG d   1      -6.788  93.040 119.117  0.00  0.00     0.119 C 
BRANCH   8   9
ATOM      9  C   LIG d   1      -7.952  93.121 118.110  0.00  0.00     0.028 C 
ATOM     10  C   LIG d   1      -7.696  92.282 116.847  0.00  0.00     0.006 C 
ENDBRANCH   8   9
BRANCH   8  11
ATOM     11  C   LIG d   1      -7.443  93.094 120.500  0.00  0.00     0.028 C 
ATOM     12  C   LIG d   1      -7.268  94.457 121.189  0.00  0.00     0.006 C 
ENDBRANCH   8  11
ENDBRANCH   7   8
ENDBRANCH   1   7
BRANCH   6  13
ATOM     13  N   LIG d   1      -3.666  95.442 120.427  0.00  0.00    -0.311 N 
ATOM     14  C   LIG d   1      -3.790  95.912 121.667  0.00  0.00     0.210 C 
ATOM     15  C   LIG d   1      -3.631  97.430 121.801  0.00  0.00     0.109 C 
ATOM     16  O   LIG d   1      -3.984  95.213 122.672  0.00  0.00    -0.276 OA
ATOM     17  H   LIG d   1      -3.477  96.076 119.676  0.00  0.00     0.149 HD
ENDBRANCH   6  13
BRANCH   5  18
ATOM     18  N   LIG d   1      -1.770  93.234 121.356  0.00  0.00     0.381 N 
ATOM     19  H   LIG d   1      -2.284  92.646 121.982  0.00  0.00    -0.090 HD
ATOM     20  H   LIG d   1      -1.750  94.162 121.739  0.00  0.00    -0.090 HD
ATOM     21  H   LIG d   1      -0.840  92.889 121.253  0.00  0.00    -0.090 HD
ENDBRANCH   5  18
BRANCH   3  22
ATOM     22  C   LIG d   1      -3.171  90.644 117.579  0.00  0.00     0.382 C 
ATOM     23  O   LIG d   1      -4.105  90.162 116.894  0.00  0.00    -0.241 OA
ATOM     24  O   LIG d   1      -2.043  90.117 117.536  0.00  0.00    -0.241 OA
ENDBRANCH   3  22
TORSDOF 7
ENDMDL
MODEL 9
REMARK VINA RESULT:      -3.8      3.010      4.028
REMARK  7 active torsions:
REMARK  status: ('A' for Active; 'I' for Inactive)
REMARK    1  A    between atoms: C_2  and  C_3 
REMARK    2  A    between atoms: C_3  and  O_6 
REMARK    3  A    between atoms: C_3  and  C_4 
REMARK    4  A    between atoms: C_7  and  O_6 
REMARK    5  A    between atoms: C_9  and  C_10 
REMARK    6  A    between atoms: N_15  and  C_14 
REMARK    7  A    between atoms: N_20  and  C_19 
REMARK       I    between atoms: C_22  and  N_20 
ROOT
ATOM      1  C   LIG d   1      -1.891  92.563 118.791  0.00  0.00     0.161 C 
ATOM      2  C   LIG d   1      -3.236  92.581 118.386  0.00  0.00     0.016 C 
ATOM      3  C   LIG d   1      -3.864  91.499 117.727  0.00  0.00     0.038 C 
ATOM      4  C   LIG d   1      -3.227  90.261 117.561  0.00  0.00     0.028 C 
ATOM      5  C   LIG d   1      -1.707  90.365 117.501  0.00  0.00    -0.047 C 
ATOM      6  C   LIG d   1      -1.212  91.179 118.718  0.00  0.00     0.091 C 
ENDROOT
BRANCH   1   7
ATOM      7  O   LIG d   1      -1.773  93.110 120.120  0.00  0.00    -0.368 OA
BRANCH   7   8
ATOM      8  C   LIG d   1      -2.742  92.641 121.090  0.00  0.00     0.119 C 
BRANCH   8   9
ATOM      9  C   LIG d   1      -3.304  93.878 121.816  0.00  0.00     0.028 C 
ATOM     10  C   LIG d   1      -2.345  95.079 121.759  0.00  0.00     0.006 C 
ENDBRANCH   8   9
BRANCH   8  11
ATOM     11  C   LIG d   1      -2.075  91.798 122.181  0.00  0.00     0.028 C 
ATOM     12  C   LIG d   1      -2.456  90.312 122.101  0.00  0.00     0.006 C 
ENDBRANCH   8  11
ENDBRANCH   7   8
ENDBRANCH   1   7
BRANCH   6  13
ATOM     13  N   LIG d   1       0.258  91.400 118.692  0.00  0.00    -0.311 N 
ATOM     14  C   LIG d   1       1.090  90.907 119.607  0.00  0.00     0.210 C 
ATOM     15  C   LIG d   1       2.564  91.271 119.404  0.00  0.00     0.109 C 
ATOM     16  O   LIG d   1       0.751  90.175 120.549  0.00  0.00    -0.276 OA
ATOM     17  H   LIG d   1       0.622  91.957 117.944  0.00  0.00     0.149 HD
ENDBRANCH   6  13
BRANCH   5  18
ATOM     18  N   LIG d   1      -1.167  88.992 117.466  0.00  0.00     0.381 N 
ATOM     19  H   LIG d   1      -0.233  89.005 117.108  0.00  0.00    -0.090 HD
ATOM     20  H   LIG d   1      -1.733  88.436 116.850  0.00  0.00    -0.090 HD
ATOM     21  H   LIG d   1      -1.175  88.599 118.381  0.00  0.00    -0.090 HD
ENDBRANCH   5  18
BRANCH   3  22
ATOM     22  C   LIG d   1      -5.132  91.665 117.190  0.00  0.00     0.382 C 
ATOM     23  O   LIG d   1      -5.611  90.788 116.431  0.00  0.00    -0.241 OA
ATOM     24  O   LIG d   1      -5.784  92.701 117.418  0.00  0.00    -0.241 OA
ENDBRANCH   3  22
TORSDOF 7
ENDMDL
