MODEL 1
REMARK VINA RESULT:      -4.6      0.000      0.000
REMARK  7 active torsions:
REMARK  status: ('A' for Active; 'I' for Inactive)
REMARK    1  A    between atoms: C_2  and  C_3 
REMARK    2  A    between atoms: C_3  and  O_6 
REMARK    3  A    between atoms: C_3  and  C_4 
REMARK    4  A    between atoms: C_7  and  O_6 
REMARK    5  A    between atoms: C_9  and  C_10 
REMARK    6  A    between atoms: N_15  and  C_14 
REMARK    7  A    between atoms: N_20  and  C_19 
REMARK       I    between atoms: C_22  and  N_20 
ROOT
ATOM      1  C   LIG d   1      -6.020  92.966 119.929  0.00  0.00     0.161 C 
ATOM      2  C   LIG d   1      -5.937  91.887 119.033  0.00  0.00     0.016 C 
ATOM      3  C   LIG d   1      -6.551  91.885 117.759  0.00  0.00     0.038 C 
ATOM      4  C   LIG d   1      -7.167  93.029 117.231  0.00  0.00     0.028 C 
ATOM      5  C   LIG d   1      -7.711  93.972 118.298  0.00  0.00    -0.047 C 
ATOM      6  C   LIG d   1      -6.594  94.265 119.326  0.00  0.00     0.091 C 
ENDROOT
BRANCH   1   7
ATOM      7  O   LIG d   1      -4.728  93.215 120.516  0.00  0.00    -0.368 OA
BRANCH   7   8
ATOM      8  C   LIG d   1      -3.794  93.970 119.705  0.00  0.00     0.119 C 
BRANCH   8   9
ATOM      9  C   LIG d   1      -2.559  93.078 119.469  0.00  0.00     0.028 C 
ATOM     10  C   LIG d   1      -2.411  92.658 117.997  0.00  0.00     0.006 C 
ENDBRANCH   8   9
BRANCH   8  11
ATOM     11  C   LIG d   1      -3.270  95.198 120.455  0.00  0.00     0.028 C 
ATOM     12  C   LIG d   1      -2.976  96.384 119.524  0.00  0.00     0.006 C 
ENDBRANCH   8  11
ENDBRANCH   7   8
ENDBRANCH   1   7
BRANCH   6  13
ATOM     13  N   LIG d   1      -7.067  95.113 120.451  0.00  0.00    -0.311 N 
ATOM     14  C   LIG d   1      -6.934  96.438 120.477  0.00  0.00     0.210 C 
ATOM     15  C   LIG d   1      -7.472  97.117 121.740  0.00  0.00     0.109 C 
ATOM     16  O   LIG d   1      -6.451  97.118 119.560  0.00  0.00    -0.276 OA
ATOM     17  H   LIG d   1      -7.500  94.645 121.223  0.00  0.00     0.149 HD
ENDBRANCH   6  13
BRANCH   5  18
ATOM     18  N   LIG d   1      -8.202  95.183 117.615  0.00  0.00     0.381 N 
ATOM     19  H   LIG d   1      -7.429  95.701 117.247  0.00  0.00    -0.090 HD
ATOM     20  H   LIG d   1      -8.680  95.762 118.283  0.00  0.00    -0.090 HD
ATOM     21  H   LIG d   1      -8.823  94.932 116.878  0.00  0.00    -0.090 HD
ENDBRANCH   5  18
BRANCH   3  22
ATOM     22  C   LIG d   1      -6.586  90.715 117.015  0.00  0.00     0.382 C 
ATOM     23  O   LIG d   1      -7.662  90.080 116.896  0.00  0.00    -0.241 OA
ATOM     24  O   LIG d   1      -5.546  90.262 116.500  0.00  0.00    -0.241 OA
ENDBRANCH   3  22
TORSDOF 7
ENDMDL
MODEL 2
REMARK VINA RESULT:      -4.5      2.406      4.173
REMARK  7 active torsions:
REMARK  status: ('A' for Active; 'I' for Inactive)
REMARK    1  A    between atoms: C_2  and  C_3 
REMARK    2  A    between atoms: C_3  and  O_6 
REMARK    3  A    between atoms: C_3  and  C_4 
REMARK    4  A    between atoms: C_7  and  O_6 
REMARK    5  A    between atoms: C_9  and  C_10 
REMARK    6  A    between atoms: N_15  and  C_14 
REMARK    7  A    between atoms: N_20  and  C_19 
REMARK       I    between atoms: C_22  and  N_20 
ROOT
ATOM      1  C   LIG d   1      -6.090  91.860 119.429  0.00  0.00     0.161 C 
ATOM      2  C   LIG d   1      -6.752  92.588 118.427  0.00  0.00     0.016 C 
ATOM      3  C   LIG d   1      -7.193  93.920 118.595  0.00  0.00     0.038 C 
ATOM      4  C   LIG d   1      -6.864  94.672 119.734  0.00  0.00     0.028 C 
ATOM      5  C   LIG d   1      -6.634  93.819 120.977  0.00  0.00    -0.047 C 
ATOM      6  C   LIG d   1      -5.624  92.699 120.637  0.00  0.00     0.091 C 
ENDROOT
BRANCH   1   7
ATOM      7  O   LIG d   1      -4.977  91.143 118.858  0.00  0.00    -0.368 OA
BRANCH   7   8
ATOM      8  C   LIG d   1      -4.382  91.729 117.673  0.00  0.00     0.119 C 
BRANCH   8   9
ATOM      9  C   LIG d   1      -4.429  90.666 116.558  0.00  0.00     0.028 C 
ATOM     10  C   LIG d   1      -3.344  89.589 116.728  0.00  0.00     0.006 C 
ENDBRANCH   8   9
BRANCH   8  11
ATOM     11  C   LIG d   1      -2.896  92.028 117.886  0.00  0.00     0.028 C 
ATOM     12  C   LIG d   1      -2.657  93.310 118.700  0.00  0.00     0.006 C 
ENDBRANCH   8  11
ENDBRANCH   7   8
ENDBRANCH   1   7
BRANCH   6  13
ATOM     13  N   LIG d   1      -5.407  91.768 121.775  0.00  0.00    -0.311 N 
ATOM     14  C   LIG d   1      -4.214  91.552 122.328  0.00  0.00     0.210 C 
ATOM     15  C   LIG d   1      -4.208  90.538 123.476  0.00  0.00     0.109 C 
ATOM     16  O   LIG d   1      -3.167  92.128 121.998  0.00  0.00    -0.276 OA
ATOM     17  H   LIG d   1      -6.208  91.281 122.126  0.00  0.00     0.149 HD
ENDBRANCH   6  13
BRANCH   5  18
ATOM     18  N   LIG d   1      -6.166  94.714 122.051  0.00  0.00     0.381 N 
ATOM     19  H   LIG d   1      -6.395  95.661 121.827  0.00  0.00    -0.090 HD
ATOM     20  H   LIG d   1      -5.166  94.640 122.123  0.00  0.00    -0.090 HD
ATOM     21  H   LIG d   1      -6.588  94.458 122.917  0.00  0.00    -0.090 HD
ENDBRANCH   5  18
BRANCH   3  22
ATOM     22  C   LIG d   1      -8.006  94.502 117.635  0.00  0.00     0.382 C 
ATOM     23  O   LIG d   1      -8.247  95.733 117.679  0.00  0.00    -0.241 OA
ATOM     24  O   LIG d   1      -8.536  93.805 116.749  0.00  0.00    -0.241 OA
ENDBRANCH   3  22
TORSDOF 7
ENDMDL
MODEL 3
REMARK VINA RESULT:      -4.5      2.036      2.648
REMARK  7 active torsions:
REMARK  status: ('A' for Active; 'I' for Inactive)
REMARK    1  A    between atoms: C_2  and  C_3 
REMARK    2  A    between atoms: C_3  and  O_6 
REMARK    3  A    between atoms: C_3  and  C_4 
REMARK    4  A    between atoms: C_7  and  O_6 
REMARK    5  A    between atoms: C_9  and  C_10 
REMARK    6  A    between atoms: N_15  and  C_14 
REMARK    7  A    between atoms: N_20  and  C_19 
REMARK       I    between atoms: C_22  and  N_20 
ROOT
ATOM      1  C   LIG d   1      -5.237  91.906 119.705  0.00  0.00     0.161 C 
ATOM      2  C   LIG d   1      -4.246  91.183 119.020  0.00  0.00     0.016 C 
ATOM      3  C   LIG d   1      -4.320  90.874 117.642  0.00  0.00     0.038 C 
ATOM      4  C   LIG d   1      -5.324  91.403 116.817  0.00  0.00     0.028 C 
ATOM      5  C   LIG d   1      -6.617  91.719 117.562  0.00  0.00    -0.047 C 
ATOM      6  C   LIG d   1      -6.284  92.586 118.798  0.00  0.00     0.091 C 
ENDROOT
BRANCH   1   7
ATOM      7  O   LIG d   1      -4.620  92.878 120.572  0.00  0.00    -0.368 OA
BRANCH   7   8
ATOM      8  C   LIG d   1      -4.193  94.112 119.946  0.00  0.00     0.119 C 
BRANCH   8   9
ATOM      9  C   LIG d   1      -2.665  94.215 120.119  0.00  0.00     0.028 C 
ATOM     10  C   LIG d   1      -1.913  94.083 118.783  0.00  0.00     0.006 C 
ENDBRANCH   8   9
BRANCH   8  11
ATOM     11  C   LIG d   1      -4.766  95.333 120.672  0.00  0.00     0.028 C 
ATOM     12  C   LIG d   1      -5.511  94.962 121.964  0.00  0.00     0.006 C 
ENDBRANCH   8  11
ENDBRANCH   7   8
ENDBRANCH   1   7
BRANCH   6  13
ATOM     13  N   LIG d   1      -7.482  92.870 119.630  0.00  0.00    -0.311 N 
ATOM     14  C   LIG d   1      -8.187  93.997 119.539  0.00  0.00     0.210 C 
ATOM     15  C   LIG d   1      -9.374  94.096 120.503  0.00  0.00     0.109 C 
ATOM     16  O   LIG d   1      -7.961  94.909 118.730  0.00  0.00    -0.276 OA
ATOM     17  H   LIG d   1      -7.755  92.170 120.292  0.00  0.00     0.149 HD
ENDBRANCH   6  13
BRANCH   5  18
ATOM     18  N   LIG d   1      -7.526  92.389 116.613  0.00  0.00     0.381 N 
ATOM     19  H   LIG d   1      -7.943  93.186 117.050  0.00  0.00    -0.090 HD
ATOM     20  H   LIG d   1      -8.258  91.750 116.358  0.00  0.00    -0.090 HD
ATOM     21  H   LIG d   1      -7.023  92.671 115.801  0.00  0.00    -0.090 HD
ENDBRANCH   5  18
BRANCH   3  22
ATOM     22  C   LIG d   1      -3.404  89.995 117.084  0.00  0.00     0.382 C 
ATOM     23  O   LIG d   1      -2.174  90.216 117.198  0.00  0.00    -0.241 OA
ATOM     24  O   LIG d   1      -3.792  89.008 116.431  0.00  0.00    -0.241 OA
ENDBRANCH   3  22
TORSDOF 7
ENDMDL
MODEL 4
REMARK VINA RESULT:      -4.3      2.875      5.044
REMARK  7 active torsions:
REMARK  status: ('A' for Active; 'I' for Inactive)
REMARK    1  A    between atoms: C_2  and  C_3 
REMARK    2  A    between atoms: C_3  and  O_6 
REMARK    3  A    between atoms: C_3  and  C_4 
REMARK    4  A    between atoms: C_7  and  O_6 
REMARK    5  A    between atoms: C_9  and  C_10 
REMARK    6  A    between atoms: N_15  and  C_14 
REMARK    7  A    between atoms: N_20  and  C_19 
REMARK       I    between atoms: C_22  and  N_20 
ROOT
ATOM      1  C   LIG d   1      -4.728  93.190 119.286  0.00  0.00     0.161 C 
ATOM      2  C   LIG d   1      -5.969  93.847 119.320  0.00  0.00     0.016 C 
ATOM      3  C   LIG d   1      -7.049  93.516 118.470  0.00  0.00     0.038 C 
ATOM      4  C   LIG d   1      -7.010  92.397 117.624  0.00  0.00     0.028 C 
ATOM      5  C   LIG d   1      -5.599  92.012 117.193  0.00  0.00    -0.047 C 
ATOM      6  C   LIG d   1      -4.705  91.895 118.448  0.00  0.00     0.091 C 
ENDROOT
BRANCH   1   7
ATOM      7  O   LIG d   1      -4.278  92.926 120.630  0.00  0.00    -0.368 OA
BRANCH   7   8
ATOM      8  C   LIG d   1      -4.914  91.815 121.308  0.00  0.00     0.119 C 
BRANCH   8   9
ATOM      9  C   LIG d   1      -5.519  92.358 122.618  0.00  0.00     0.028 C 
ATOM     10  C   LIG d   1      -4.948  93.733 123.002  0.00  0.00     0.006 C 
ENDBRANCH   8   9
BRANCH   8  11
ATOM     11  C   LIG d   1      -3.888  90.763 121.740  0.00  0.00     0.028 C 
ATOM     12  C   LIG d   1      -2.445  91.291 121.708  0.00  0.00     0.006 C 
ENDBRANCH   8  11
ENDBRANCH   7   8
ENDBRANCH   1   7
BRANCH   6  13
ATOM     13  N   LIG d   1      -3.287  91.603 118.109  0.00  0.00    -0.311 N 
ATOM     14  C   LIG d   1      -2.780  90.372 118.072  0.00  0.00     0.210 C 
ATOM     15  C   LIG d   1      -1.292  90.296 117.720  0.00  0.00     0.109 C 
ATOM     16  O   LIG d   1      -3.430  89.334 118.267  0.00  0.00    -0.276 OA
ATOM     17  H   LIG d   1      -2.697  92.386 117.907  0.00  0.00     0.149 HD
ENDBRANCH   6  13
BRANCH   5  18
ATOM     18  N   LIG d   1      -5.694  90.752 116.431  0.00  0.00     0.381 N 
ATOM     19  H   LIG d   1      -4.871  90.204 116.579  0.00  0.00    -0.090 HD
ATOM     20  H   LIG d   1      -5.757  90.969 115.451  0.00  0.00    -0.090 HD
ATOM     21  H   LIG d   1      -6.499  90.240 116.718  0.00  0.00    -0.090 HD
ENDBRANCH   5  18
BRANCH   3  22
ATOM     22  C   LIG d   1      -8.168  94.333 118.430  0.00  0.00     0.382 C 
ATOM     23  O   LIG d   1      -9.241  93.951 118.957  0.00  0.00    -0.241 OA
ATOM     24  O   LIG d   1      -8.131  95.427 117.837  0.00  0.00    -0.241 OA
ENDBRANCH   3  22
TORSDOF 7
ENDMDL
MODEL 5
REMARK VINA RESULT:      -4.3      2.789      4.774
REMARK  7 active torsions:
REMARK  status: ('A' for Active; 'I' for Inactive)
REMARK    1  A    between atoms: C_2  and  C_3 
REMARK    2  A    between atoms: C_3  and  O_6 
REMARK    3  A    between atoms: C_3  and  C_4 
REMARK    4  A    between atoms: C_7  and  O_6 
REMARK    5  A    between atoms: C_9  and  C_10 
REMARK    6  A    between atoms: N_15  and  C_14 
REMARK    7  A    between atoms: N_20  and  C_19 
REMARK       I    between atoms: C_22  and  N_20 
ROOT
ATOM      1  C   LIG d   1      -5.106  92.996 119.397  0.00  0.00     0.161 C 
ATOM      2  C   LIG d   1      -6.256  93.696 118.999  0.00  0.00     0.016 C 
ATOM      3  C   LIG d   1      -7.001  93.375 117.840  0.00  0.00     0.038 C 
ATOM      4  C   LIG d   1      -6.730  92.228 117.079  0.00  0.00     0.028 C 
ATOM      5  C   LIG d   1      -5.274  91.781 117.156  0.00  0.00    -0.047 C 
ATOM      6  C   LIG d   1      -4.859  91.673 118.641  0.00  0.00     0.091 C 
ENDROOT
BRANCH   1   7
ATOM      7  O   LIG d   1      -5.145  92.760 120.819  0.00  0.00    -0.368 OA
BRANCH   7   8
ATOM      8  C   LIG d   1      -4.167  93.477 121.611  0.00  0.00     0.119 C 
BRANCH   8   9
ATOM      9  C   LIG d   1      -3.318  94.323 120.643  0.00  0.00     0.028 C 
ATOM     10  C   LIG d   1      -2.268  95.176 121.375  0.00  0.00     0.006 C 
ENDBRANCH   8   9
BRANCH   8  11
ATOM     11  C   LIG d   1      -3.180  92.515 122.281  0.00  0.00     0.028 C 
ATOM     12  C   LIG d   1      -3.759  91.104 122.470  0.00  0.00     0.006 C 
ENDBRANCH   8  11
ENDBRANCH   7   8
ENDBRANCH   1   7
BRANCH   6  13
ATOM     13  N   LIG d   1      -3.424  91.322 118.805  0.00  0.00    -0.311 N 
ATOM     14  C   LIG d   1      -2.993  90.080 119.015  0.00  0.00     0.210 C 
ATOM     15  C   LIG d   1      -1.476  89.940 119.177  0.00  0.00     0.109 C 
ATOM     16  O   LIG d   1      -3.720  89.075 119.051  0.00  0.00    -0.276 OA
ATOM     17  H   LIG d   1      -2.763  92.072 118.759  0.00  0.00     0.149 HD
ENDBRANCH   6  13
BRANCH   5  18
ATOM     18  N   LIG d   1      -5.162  90.501 116.431  0.00  0.00     0.381 N 
ATOM     19  H   LIG d   1      -4.490  89.913 116.882  0.00  0.00    -0.090 HD
ATOM     20  H   LIG d   1      -4.844  90.684 115.495  0.00  0.00    -0.090 HD
ATOM     21  H   LIG d   1      -6.048  90.045 116.405  0.00  0.00    -0.090 HD
ENDBRANCH   5  18
BRANCH   3  22
ATOM     22  C   LIG d   1      -8.005  94.229 117.410  0.00  0.00     0.382 C 
ATOM     23  O   LIG d   1      -8.777  93.874 116.487  0.00  0.00    -0.241 OA
ATOM     24  O   LIG d   1      -8.122  95.366 117.904  0.00  0.00    -0.241 OA
ENDBRANCH   3  22
TORSDOF 7
ENDMDL
MODEL 6
REMARK VINA RESULT:      -4.3      2.613      4.284
REMARK  7 active torsions:
REMARK  status: ('A' for Active; 'I' for Inactive)
REMARK    1  A    between atoms: C_2  and  C_3 
REMARK    2  A    between atoms: C_3  and  O_6 
REMARK    3  A    between atoms: C_3  and  C_4 
REMARK    4  A    between atoms: C_7  and  O_6 
REMARK    5  A    between atoms: C_9  and  C_10 
REMARK    6  A    between atoms: N_15  and  C_14 
REMARK    7  A    between atoms: N_20  and  C_19 
REMARK       I    between atoms: C_22  and  N_20 
ROOT
ATOM      1  C   LIG d   1      -4.920  92.808 119.096  0.00  0.00     0.161 C 
ATOM      2  C   LIG d   1      -6.174  92.945 118.478  0.00  0.00     0.016 C 
ATOM      3  C   LIG d   1      -7.008  94.073 118.651  0.00  0.00     0.038 C 
ATOM      4  C   LIG d   1      -6.575  95.217 119.339  0.00  0.00     0.028 C 
ATOM      5  C   LIG d   1      -5.521  94.922 120.400  0.00  0.00    -0.047 C 
ATOM      6  C   LIG d   1      -4.383  94.093 119.761  0.00  0.00     0.091 C 
ENDROOT
BRANCH   1   7
ATOM      7  O   LIG d   1      -3.961  92.296 118.149  0.00  0.00    -0.368 OA
BRANCH   7   8
ATOM      8  C   LIG d   1      -3.351  91.025 118.484  0.00  0.00     0.119 C 
BRANCH   8   9
ATOM      9  C   LIG d   1      -3.589  90.070 117.298  0.00  0.00     0.028 C 
ATOM     10  C   LIG d   1      -2.582  88.908 117.270  0.00  0.00     0.006 C 
ENDBRANCH   8   9
BRANCH   8  11
ATOM     11  C   LIG d   1      -4.049  90.370 119.679  0.00  0.00     0.028 C 
ATOM     12  C   LIG d   1      -3.078  90.022 120.819  0.00  0.00     0.006 C 
ENDBRANCH   8  11
ENDBRANCH   7   8
ENDBRANCH   1   7
BRANCH   6  13
ATOM     13  N   LIG d   1      -3.350  93.690 120.750  0.00  0.00    -0.311 N 
ATOM     14  C   LIG d   1      -2.046  93.891 120.572  0.00  0.00     0.210 C 
ATOM     15  C   LIG d   1      -1.152  93.381 121.707  0.00  0.00     0.109 C 
ATOM     16  O   LIG d   1      -1.547  94.473 119.598  0.00  0.00    -0.276 OA
ATOM     17  H   LIG d   1      -3.670  93.238 121.585  0.00  0.00     0.149 HD
ENDBRANCH   6  13
BRANCH   5  18
ATOM     18  N   LIG d   1      -5.060  96.214 120.942  0.00  0.00     0.381 N 
ATOM     19  H   LIG d   1      -5.849  96.782 121.180  0.00  0.00    -0.090 HD
ATOM     20  H   LIG d   1      -4.529  96.692 120.236  0.00  0.00    -0.090 HD
ATOM     21  H   LIG d   1      -4.494  96.064 121.748  0.00  0.00    -0.090 HD
ENDBRANCH   5  18
BRANCH   3  22
ATOM     22  C   LIG d   1      -8.306  94.049 118.165  0.00  0.00     0.382 C 
ATOM     23  O   LIG d   1      -8.513  93.985 116.929  0.00  0.00    -0.241 OA
ATOM     24  O   LIG d   1      -9.274  94.135 118.945  0.00  0.00    -0.241 OA
ENDBRANCH   3  22
TORSDOF 7
ENDMDL
MODEL 7
REMARK VINA RESULT:      -4.1      3.086      6.324
REMARK  7 active torsions:
REMARK  status: ('A' for Active; 'I' for Inactive)
REMARK    1  A    between atoms: C_2  and  C_3 
REMARK    2  A    between atoms: C_3  and  O_6 
REMARK    3  A    between atoms: C_3  and  C_4 
REMARK    4  A    between atoms: C_7  and  O_6 
REMARK    5  A    between atoms: C_9  and  C_10 
REMARK    6  A    between atoms: N_15  and  C_14 
REMARK    7  A    between atoms: N_20  and  C_19 
REMARK       I    between atoms: C_22  and  N_20 
ROOT
ATOM      1  C   LIG d   1      -3.518  92.832 120.215  0.00  0.00     0.161 C 
ATOM      2  C   LIG d   1      -3.374  94.226 120.122  0.00  0.00     0.016 C 
ATOM      3  C   LIG d   1      -2.432  94.857 119.277  0.00  0.00     0.038 C 
ATOM      4  C   LIG d   1      -1.668  94.134 118.349  0.00  0.00     0.028 C 
ATOM      5  C   LIG d   1      -1.419  92.688 118.765  0.00  0.00    -0.047 C 
ATOM      6  C   LIG d   1      -2.770  92.031 119.129  0.00  0.00     0.091 C 
ENDROOT
BRANCH   1   7
ATOM      7  O   LIG d   1      -4.917  92.485 120.221  0.00  0.00    -0.368 OA
BRANCH   7   8
ATOM      8  C   LIG d   1      -5.683  92.908 119.066  0.00  0.00     0.119 C 
BRANCH   8   9
ATOM      9  C   LIG d   1      -6.856  93.766 119.578  0.00  0.00     0.028 C 
ATOM     10  C   LIG d   1      -6.848  95.185 118.983  0.00  0.00     0.006 C 
ENDBRANCH   8   9
BRANCH   8  11
ATOM     11  C   LIG d   1      -6.332  91.714 118.360  0.00  0.00     0.028 C 
ATOM     12  C   LIG d   1      -6.588  91.972 116.867  0.00  0.00     0.006 C 
ENDBRANCH   8  11
ENDBRANCH   7   8
ENDBRANCH   1   7
BRANCH   6  13
ATOM     13  N   LIG d   1      -2.608  90.640 119.627  0.00  0.00    -0.311 N 
ATOM     14  C   LIG d   1      -3.088  89.573 118.991  0.00  0.00     0.210 C 
ATOM     15  C   LIG d   1      -2.828  88.234 119.688  0.00  0.00     0.109 C 
ATOM     16  O   LIG d   1      -3.677  89.605 117.900  0.00  0.00    -0.276 OA
ATOM     17  H   LIG d   1      -2.116  90.519 120.491  0.00  0.00     0.149 HD
ENDBRANCH   6  13
BRANCH   5  18
ATOM     18  N   LIG d   1      -0.732  92.014 117.647  0.00  0.00     0.381 N 
ATOM     19  H   LIG d   1      -0.468  92.689 116.957  0.00  0.00    -0.090 HD
ATOM     20  H   LIG d   1      -1.365  91.360 117.223  0.00  0.00    -0.090 HD
ATOM     21  H   LIG d   1       0.076  91.537 117.981  0.00  0.00    -0.090 HD
ENDBRANCH   5  18
BRANCH   3  22
ATOM     22  C   LIG d   1      -2.218  96.223 119.384  0.00  0.00     0.382 C 
ATOM     23  O   LIG d   1      -3.158  96.979 119.730  0.00  0.00    -0.241 OA
ATOM     24  O   LIG d   1      -1.110  96.713 119.097  0.00  0.00    -0.241 OA
ENDBRANCH   3  22
TORSDOF 7
ENDMDL
MODEL 8
REMARK VINA RESULT:      -4.1      2.612      4.440
REMARK  7 active torsions:
REMARK  status: ('A' for Active; 'I' for Inactive)
REMARK    1  A    between atoms: C_2  and  C_3 
REMARK    2  A    between atoms: C_3  and  O_6 
REMARK    3  A    between atoms: C_3  and  C_4 
REMARK    4  A    between atoms: C_7  and  O_6 
REMARK    5  A    between atoms: C_9  and  C_10 
REMARK    6  A    between atoms: N_15  and  C_14 
REMARK    7  A    between atoms: N_20  and  C_19 
REMARK       I    between atoms: C_22  and  N_20 
ROOT
ATOM      1  C   LIG d   1      -4.651  93.089 119.234  0.00  0.00     0.161 C 
ATOM      2  C   LIG d   1      -5.826  92.574 118.660  0.00  0.00     0.016 C 
ATOM      3  C   LIG d   1      -5.831  91.563 117.672  0.00  0.00     0.038 C 
ATOM      4  C   LIG d   1      -4.661  90.886 117.298  0.00  0.00     0.028 C 
ATOM      5  C   LIG d   1      -3.395  91.717 117.481  0.00  0.00    -0.047 C 
ATOM      6  C   LIG d   1      -3.372  92.285 118.919  0.00  0.00     0.091 C 
ENDROOT
BRANCH   1   7
ATOM      7  O   LIG d   1      -4.821  93.222 120.659  0.00  0.00    -0.368 OA
BRANCH   7   8
ATOM      8  C   LIG d   1      -4.941  94.575 121.162  0.00  0.00     0.119 C 
BRANCH   8   9
ATOM      9  C   LIG d   1      -6.414  94.793 121.558  0.00  0.00     0.028 C 
ATOM     10  C   LIG d   1      -7.189  95.608 120.508  0.00  0.00     0.006 C 
ENDBRANCH   8   9
BRANCH   8  11
ATOM     11  C   LIG d   1      -4.658  95.605 120.065  0.00  0.00     0.028 C 
ATOM     12  C   LIG d   1      -3.390  96.431 120.334  0.00  0.00     0.006 C 
ENDBRANCH   8  11
ENDBRANCH   7   8
ENDBRANCH   1   7
BRANCH   6  13
ATOM     13  N   LIG d   1      -2.209  93.179 119.156  0.00  0.00    -0.311 N 
ATOM     14  C   LIG d   1      -1.057  92.761 119.676  0.00  0.00     0.210 C 
ATOM     15  C   LIG d   1       0.005  93.851 119.855  0.00  0.00     0.109 C 
ATOM     16  O   LIG d   1      -0.802  91.585 119.977  0.00  0.00    -0.276 OA
ATOM     17  H   LIG d   1      -2.318  94.144 118.911  0.00  0.00     0.149 HD
ENDBRANCH   6  13
BRANCH   5  18
ATOM     18  N   LIG d   1      -2.243  90.845 117.186  0.00  0.00     0.381 N 
ATOM     19  H   LIG d   1      -2.078  90.228 117.956  0.00  0.00    -0.090 HD
ATOM     20  H   LIG d   1      -1.426  91.417 117.059  0.00  0.00    -0.090 HD
ATOM     21  H   LIG d   1      -2.418  90.316 116.360  0.00  0.00    -0.090 HD
ENDBRANCH   5  18
BRANCH   3  22
ATOM     22  C   LIG d   1      -7.012  91.246 117.019  0.00  0.00     0.382 C 
ATOM     23  O   LIG d   1      -7.663  92.143 116.430  0.00  0.00    -0.241 OA
ATOM     24  O   LIG d   1      -7.459  90.084 117.048  0.00  0.00    -0.241 OA
ENDBRANCH   3  22
TORSDOF 7
ENDMDL
MODEL 9
REMARK VINA RESULT:      -4.0      3.986      6.129
REMARK  7 active torsions:
REMARK  status: ('A' for Active; 'I' for Inactive)
REMARK    1  A    between atoms: C_2  and  C_3 
REMARK    2  A    between atoms: C_3  and  O_6 
REMARK    3  A    between atoms: C_3  and  C_4 
REMARK    4  A    between atoms: C_7  and  O_6 
REMARK    5  A    between atoms: C_9  and  C_10 
REMARK    6  A    between atoms: N_15  and  C_14 
REMARK    7  A    between atoms: N_20  and  C_19 
REMARK       I    between atoms: C_22  and  N_20 
ROOT
ATOM      1  C   LIG d   1      -2.061  92.417 117.943  0.00  0.00     0.161 C 
ATOM      2  C   LIG d   1      -3.449  92.302 117.763  0.00  0.00     0.016 C 
ATOM      3  C   LIG d   1      -4.085  91.104 117.363  0.00  0.00     0.038 C 
ATOM      4  C   LIG d   1      -3.386  89.892 117.263  0.00  0.00     0.028 C 
ATOM      5  C   LIG d   1      -1.906  90.071 116.944  0.00  0.00    -0.047 C 
ATOM      6  C   LIG d   1      -1.295  91.078 117.946  0.00  0.00     0.091 C 
ENDROOT
BRANCH   1   7
ATOM      7  O   LIG d   1      -1.785  93.155 119.150  0.00  0.00    -0.368 OA
BRANCH   7   8
ATOM      8  C   LIG d   1      -1.746  92.381 120.375  0.00  0.00     0.119 C 
BRANCH   8   9
ATOM      9  C   LIG d   1      -2.887  92.887 121.278  0.00  0.00     0.028 C 
ATOM     10  C   LIG d   1      -3.286  94.339 120.963  0.00  0.00     0.006 C 
ENDBRANCH   8   9
BRANCH   8  11
ATOM     11  C   LIG d   1      -0.459  92.646 121.161  0.00  0.00     0.028 C 
ATOM     12  C   LIG d   1       0.446  93.690 120.488  0.00  0.00     0.006 C 
ENDBRANCH   8  11
ENDBRANCH   7   8
ENDBRANCH   1   7
BRANCH   6  13
ATOM     13  N   LIG d   1       0.131  91.374 117.653  0.00  0.00    -0.311 N 
ATOM     14  C   LIG d   1       1.147  90.770 118.267  0.00  0.00     0.210 C 
ATOM     15  C   LIG d   1       2.538  91.239 117.830  0.00  0.00     0.109 C 
ATOM     16  O   LIG d   1       1.028  89.868 119.110  0.00  0.00    -0.276 OA
ATOM     17  H   LIG d   1       0.319  92.072 116.960  0.00  0.00     0.149 HD
ENDBRANCH   6  13
BRANCH   5  18
ATOM     18  N   LIG d   1      -1.273  88.740 117.005  0.00  0.00     0.381 N 
ATOM     19  H   LIG d   1      -0.712  88.594 116.189  0.00  0.00    -0.090 HD
ATOM     20  H   LIG d   1      -1.992  88.038 117.022  0.00  0.00    -0.090 HD
ATOM     21  H   LIG d   1      -0.708  88.667 117.822  0.00  0.00    -0.090 HD
ENDBRANCH   5  18
BRANCH   3  22
ATOM     22  C   LIG d   1      -5.429  91.120 117.021  0.00  0.00     0.382 C 
ATOM     23  O   LIG d   1      -6.098  92.172 117.159  0.00  0.00    -0.241 OA
ATOM     24  O   LIG d   1      -5.990  90.084 116.618  0.00  0.00    -0.241 OA
ENDBRANCH   3  22
TORSDOF 7
ENDMDL
