MODEL 1
REMARK VINA RESULT:      -4.7      0.000      0.000
REMARK  7 active torsions:
REMARK  status: ('A' for Active; 'I' for Inactive)
REMARK    1  A    between atoms: C_2  and  C_3 
REMARK    2  A    between atoms: C_3  and  O_6 
REMARK    3  A    between atoms: C_3  and  C_4 
REMARK    4  A    between atoms: C_7  and  O_6 
REMARK    5  A    between atoms: C_9  and  C_10 
REMARK    6  A    between atoms: N_15  and  C_14 
REMARK    7  A    between atoms: N_20  and  C_19 
REMARK       I    between atoms: C_22  and  N_20 
ROOT
ATOM      1  C   LIG d   1      -2.524  90.305 118.531  0.00  0.00     0.161 C 
ATOM      2  C   LIG d   1      -3.926  90.316 118.441  0.00  0.00     0.016 C 
ATOM      3  C   LIG d   1      -4.667  91.425 117.970  0.00  0.00     0.038 C 
ATOM      4  C   LIG d   1      -4.043  92.550 117.411  0.00  0.00     0.028 C 
ATOM      5  C   LIG d   1      -2.635  92.790 117.946  0.00  0.00    -0.047 C 
ATOM      6  C   LIG d   1      -1.822  91.482 117.822  0.00  0.00     0.091 C 
ENDROOT
BRANCH   1   7
ATOM      7  O   LIG d   1      -2.013  89.049 118.043  0.00  0.00    -0.368 OA
BRANCH   7   8
ATOM      8  C   LIG d   1      -1.579  88.103 119.051  0.00  0.00     0.119 C 
BRANCH   8   9
ATOM      9  C   LIG d   1      -1.375  88.885 120.363  0.00  0.00     0.028 C 
ATOM     10  C   LIG d   1       0.098  88.917 120.805  0.00  0.00     0.006 C 
ENDBRANCH   8   9
BRANCH   8  11
ATOM     11  C   LIG d   1      -0.206  87.517 118.711  0.00  0.00     0.028 C 
ATOM     12  C   LIG d   1      -0.205  85.980 118.680  0.00  0.00     0.006 C 
ENDBRANCH   8  11
ENDBRANCH   7   8
ENDBRANCH   1   7
BRANCH   6  13
ATOM     13  N   LIG d   1      -0.458  91.606 118.400  0.00  0.00    -0.311 N 
ATOM     14  C   LIG d   1       0.642  91.180 117.781  0.00  0.00     0.210 C 
ATOM     15  C   LIG d   1       1.944  91.386 118.561  0.00  0.00     0.109 C 
ATOM     16  O   LIG d   1       0.666  90.680 116.646  0.00  0.00    -0.276 OA
ATOM     17  H   LIG d   1      -0.383  92.028 119.304  0.00  0.00     0.149 HD
ENDBRANCH   6  13
BRANCH   5  18
ATOM     18  N   LIG d   1      -2.053  93.908 117.180  0.00  0.00     0.381 N 
ATOM     19  H   LIG d   1      -2.782  94.510 116.852  0.00  0.00    -0.090 HD
ATOM     20  H   LIG d   1      -1.567  93.538 116.382  0.00  0.00    -0.090 HD
ATOM     21  H   LIG d   1      -1.421  94.422 117.754  0.00  0.00    -0.090 HD
ENDBRANCH   5  18
BRANCH   3  22
ATOM     22  C   LIG d   1      -6.048  91.430 118.093  0.00  0.00     0.382 C 
ATOM     23  O   LIG d   1      -6.590  92.036 119.049  0.00  0.00    -0.241 OA
ATOM     24  O   LIG d   1      -6.757  90.800 117.286  0.00  0.00    -0.241 OA
ENDBRANCH   3  22
TORSDOF 7
ENDMDL
MODEL 2
REMARK VINA RESULT:      -4.6      2.216      5.223
REMARK  7 active torsions:
REMARK  status: ('A' for Active; 'I' for Inactive)
REMARK    1  A    between atoms: C_2  and  C_3 
REMARK    2  A    between atoms: C_3  and  O_6 
REMARK    3  A    between atoms: C_3  and  C_4 
REMARK    4  A    between atoms: C_7  and  O_6 
REMARK    5  A    between atoms: C_9  and  C_10 
REMARK    6  A    between atoms: N_15  and  C_14 
REMARK    7  A    between atoms: N_20  and  C_19 
REMARK       I    between atoms: C_22  and  N_20 
ROOT
ATOM      1  C   LIG d   1      -0.549  91.689 118.032  0.00  0.00     0.161 C 
ATOM      2  C   LIG d   1       0.791  92.001 118.315  0.00  0.00     0.016 C 
ATOM      3  C   LIG d   1       1.280  93.325 118.405  0.00  0.00     0.038 C 
ATOM      4  C   LIG d   1       0.423  94.435 118.368  0.00  0.00     0.028 C 
ATOM      5  C   LIG d   1      -0.859  94.185 117.581  0.00  0.00    -0.047 C 
ATOM      6  C   LIG d   1      -1.520  92.887 118.098  0.00  0.00     0.091 C 
ENDROOT
BRANCH   1   7
ATOM      7  O   LIG d   1      -0.999  90.632 118.902  0.00  0.00    -0.368 OA
BRANCH   7   8
ATOM      8  C   LIG d   1      -1.657  89.513 118.258  0.00  0.00     0.119 C 
BRANCH   8   9
ATOM      9  C   LIG d   1      -3.014  89.308 118.958  0.00  0.00     0.028 C 
ATOM     10  C   LIG d   1      -3.162  90.178 120.218  0.00  0.00     0.006 C 
ENDBRANCH   8   9
BRANCH   8  11
ATOM     11  C   LIG d   1      -0.885  88.209 118.480  0.00  0.00     0.028 C 
ATOM     12  C   LIG d   1       0.301  88.047 117.516  0.00  0.00     0.006 C 
ENDBRANCH   8  11
ENDBRANCH   7   8
ENDBRANCH   1   7
BRANCH   6  13
ATOM     13  N   LIG d   1      -2.736  92.524 117.325  0.00  0.00    -0.311 N 
ATOM     14  C   LIG d   1      -3.970  92.854 117.703  0.00  0.00     0.210 C 
ATOM     15  C   LIG d   1      -5.084  92.363 116.772  0.00  0.00     0.109 C 
ATOM     16  O   LIG d   1      -4.246  93.534 118.702  0.00  0.00    -0.276 OA
ATOM     17  H   LIG d   1      -2.602  91.998 116.484  0.00  0.00     0.149 HD
ENDBRANCH   6  13
BRANCH   5  18
ATOM     18  N   LIG d   1      -1.718  95.374 117.739  0.00  0.00     0.381 N 
ATOM     19  H   LIG d   1      -1.526  96.030 117.009  0.00  0.00    -0.090 HD
ATOM     20  H   LIG d   1      -1.508  95.812 118.619  0.00  0.00    -0.090 HD
ATOM     21  H   LIG d   1      -2.677  95.107 117.713  0.00  0.00    -0.090 HD
ENDBRANCH   5  18
BRANCH   3  22
ATOM     22  C   LIG d   1       2.645  93.548 118.495  0.00  0.00     0.382 C 
ATOM     23  O   LIG d   1       3.145  93.951 119.573  0.00  0.00    -0.241 OA
ATOM     24  O   LIG d   1       3.377  93.395 117.499  0.00  0.00    -0.241 OA
ENDBRANCH   3  22
TORSDOF 7
ENDMDL
MODEL 3
REMARK VINA RESULT:      -4.5      2.210      4.171
REMARK  7 active torsions:
REMARK  status: ('A' for Active; 'I' for Inactive)
REMARK    1  A    between atoms: C_2  and  C_3 
REMARK    2  A    between atoms: C_3  and  O_6 
REMARK    3  A    between atoms: C_3  and  C_4 
REMARK    4  A    between atoms: C_7  and  O_6 
REMARK    5  A    between atoms: C_9  and  C_10 
REMARK    6  A    between atoms: N_15  and  C_14 
REMARK    7  A    between atoms: N_20  and  C_19 
REMARK       I    between atoms: C_22  and  N_20 
ROOT
ATOM      1  C   LIG d   1      -2.764  92.565 117.343  0.00  0.00     0.161 C 
ATOM      2  C   LIG d   1      -4.128  92.620 117.675  0.00  0.00     0.016 C 
ATOM      3  C   LIG d   1      -4.821  91.555 118.296  0.00  0.00     0.038 C 
ATOM      4  C   LIG d   1      -4.157  90.413 118.767  0.00  0.00     0.028 C 
ATOM      5  C   LIG d   1      -2.876  90.099 118.003  0.00  0.00    -0.047 C 
ATOM      6  C   LIG d   1      -1.998  91.370 117.950  0.00  0.00     0.091 C 
ENDROOT
BRANCH   1   7
ATOM      7  O   LIG d   1      -2.123  93.805 117.702  0.00  0.00    -0.368 OA
BRANCH   7   8
ATOM      8  C   LIG d   1      -2.059  94.102 119.119  0.00  0.00     0.119 C 
BRANCH   8   9
ATOM      9  C   LIG d   1      -2.693  95.491 119.329  0.00  0.00     0.028 C 
ATOM     10  C   LIG d   1      -4.033  95.418 120.080  0.00  0.00     0.006 C 
ENDBRANCH   8   9
BRANCH   8  11
ATOM     11  C   LIG d   1      -0.610  94.242 119.594  0.00  0.00     0.028 C 
ATOM     12  C   LIG d   1       0.382  94.423 118.435  0.00  0.00     0.006 C 
ENDBRANCH   8  11
ENDBRANCH   7   8
ENDBRANCH   1   7
BRANCH   6  13
ATOM     13  N   LIG d   1      -0.763  91.173 117.148  0.00  0.00    -0.311 N 
ATOM     14  C   LIG d   1       0.406  90.816 117.677  0.00  0.00     0.210 C 
ATOM     15  C   LIG d   1       1.557  90.687 116.675  0.00  0.00     0.109 C 
ATOM     16  O   LIG d   1       0.590  90.561 118.877  0.00  0.00    -0.276 OA
ATOM     17  H   LIG d   1      -0.830  91.328 116.161  0.00  0.00     0.149 HD
ENDBRANCH   6  13
BRANCH   5  18
ATOM     18  N   LIG d   1      -2.216  88.969 118.685  0.00  0.00     0.381 N 
ATOM     19  H   LIG d   1      -1.758  89.294 119.513  0.00  0.00    -0.090 HD
ATOM     20  H   LIG d   1      -1.521  88.580 118.072  0.00  0.00    -0.090 HD
ATOM     21  H   LIG d   1      -2.889  88.273 118.920  0.00  0.00    -0.090 HD
ENDBRANCH   5  18
BRANCH   3  22
ATOM     22  C   LIG d   1      -6.202  91.611 118.415  0.00  0.00     0.382 C 
ATOM     23  O   LIG d   1      -6.724  92.232 119.372  0.00  0.00    -0.241 OA
ATOM     24  O   LIG d   1      -6.930  91.011 117.602  0.00  0.00    -0.241 OA
ENDBRANCH   3  22
TORSDOF 7
ENDMDL
MODEL 4
REMARK VINA RESULT:      -4.5      2.139      5.579
REMARK  7 active torsions:
REMARK  status: ('A' for Active; 'I' for Inactive)
REMARK    1  A    between atoms: C_2  and  C_3 
REMARK    2  A    between atoms: C_3  and  O_6 
REMARK    3  A    between atoms: C_3  and  C_4 
REMARK    4  A    between atoms: C_7  and  O_6 
REMARK    5  A    between atoms: C_9  and  C_10 
REMARK    6  A    between atoms: N_15  and  C_14 
REMARK    7  A    between atoms: N_20  and  C_19 
REMARK       I    between atoms: C_22  and  N_20 
ROOT
ATOM      1  C   LIG d   1       0.232  91.285 116.905  0.00  0.00     0.161 C 
ATOM      2  C   LIG d   1       1.630  91.376 117.014  0.00  0.00     0.016 C 
ATOM      3  C   LIG d   1       2.290  92.422 117.698  0.00  0.00     0.038 C 
ATOM      4  C   LIG d   1       1.589  93.372 118.455  0.00  0.00     0.028 C 
ATOM      5  C   LIG d   1       0.167  93.612 117.958  0.00  0.00    -0.047 C 
ATOM      6  C   LIG d   1      -0.552  92.251 117.818  0.00  0.00     0.091 C 
ENDROOT
BRANCH   1   7
ATOM      7  O   LIG d   1      -0.188  89.926 117.136  0.00  0.00    -0.368 OA
BRANCH   7   8
ATOM      8  C   LIG d   1      -0.561  89.596 118.497  0.00  0.00     0.119 C 
BRANCH   8   9
ATOM      9  C   LIG d   1       0.416  88.514 118.995  0.00  0.00     0.028 C 
ATOM     10  C   LIG d   1       0.288  87.200 118.207  0.00  0.00     0.006 C 
ENDBRANCH   8   9
BRANCH   8  11
ATOM     11  C   LIG d   1      -1.948  88.948 118.553  0.00  0.00     0.028 C 
ATOM     12  C   LIG d   1      -2.611  89.078 119.933  0.00  0.00     0.006 C 
ENDBRANCH   8  11
ENDBRANCH   7   8
ENDBRANCH   1   7
BRANCH   6  13
ATOM     13  N   LIG d   1      -1.921  92.389 117.257  0.00  0.00    -0.311 N 
ATOM     14  C   LIG d   1      -3.017  92.474 118.009  0.00  0.00     0.210 C 
ATOM     15  C   LIG d   1      -4.330  92.590 117.229  0.00  0.00     0.109 C 
ATOM     16  O   LIG d   1      -3.023  92.496 119.249  0.00  0.00    -0.276 OA
ATOM     17  H   LIG d   1      -2.005  92.411 116.259  0.00  0.00     0.149 HD
ENDBRANCH   6  13
BRANCH   5  18
ATOM     18  N   LIG d   1      -0.493  94.519 118.917  0.00  0.00     0.381 N 
ATOM     19  H   LIG d   1       0.067  94.606 119.741  0.00  0.00    -0.090 HD
ATOM     20  H   LIG d   1      -1.380  94.126 119.178  0.00  0.00    -0.090 HD
ATOM     21  H   LIG d   1      -0.627  95.415 118.502  0.00  0.00    -0.090 HD
ENDBRANCH   5  18
BRANCH   3  22
ATOM     22  C   LIG d   1       3.668  92.547 117.597  0.00  0.00     0.382 C 
ATOM     23  O   LIG d   1       4.399  91.533 117.704  0.00  0.00    -0.241 OA
ATOM     24  O   LIG d   1       4.190  93.667 117.444  0.00  0.00    -0.241 OA
ENDBRANCH   3  22
TORSDOF 7
ENDMDL
MODEL 5
REMARK VINA RESULT:      -4.4      1.821      5.229
REMARK  7 active torsions:
REMARK  status: ('A' for Active; 'I' for Inactive)
REMARK    1  A    between atoms: C_2  and  C_3 
REMARK    2  A    between atoms: C_3  and  O_6 
REMARK    3  A    between atoms: C_3  and  C_4 
REMARK    4  A    between atoms: C_7  and  O_6 
REMARK    5  A    between atoms: C_9  and  C_10 
REMARK    6  A    between atoms: N_15  and  C_14 
REMARK    7  A    between atoms: N_20  and  C_19 
REMARK       I    between atoms: C_22  and  N_20 
ROOT
ATOM      1  C   LIG d   1      -1.621  91.541 117.450  0.00  0.00     0.161 C 
ATOM      2  C   LIG d   1      -0.220  91.499 117.553  0.00  0.00     0.016 C 
ATOM      3  C   LIG d   1       0.577  92.641 117.796  0.00  0.00     0.038 C 
ATOM      4  C   LIG d   1       0.012  93.887 118.106  0.00  0.00     0.028 C 
ATOM      5  C   LIG d   1      -1.381  94.084 117.517  0.00  0.00    -0.047 C 
ATOM      6  C   LIG d   1      -2.262  92.872 117.895  0.00  0.00     0.091 C 
ENDROOT
BRANCH   1   7
ATOM      7  O   LIG d   1      -2.197  90.439 118.178  0.00  0.00    -0.368 OA
BRANCH   7   8
ATOM      8  C   LIG d   1      -1.461  89.988 119.341  0.00  0.00     0.119 C 
BRANCH   8   9
ATOM      9  C   LIG d   1      -1.566  88.451 119.389  0.00  0.00     0.028 C 
ATOM     10  C   LIG d   1      -0.434  87.761 118.609  0.00  0.00     0.006 C 
ENDBRANCH   8   9
BRANCH   8  11
ATOM     11  C   LIG d   1      -2.111  90.480 120.637  0.00  0.00     0.028 C 
ATOM     12  C   LIG d   1      -1.316  91.609 121.312  0.00  0.00     0.006 C 
ENDBRANCH   8  11
ENDBRANCH   7   8
ENDBRANCH   1   7
BRANCH   6  13
ATOM     13  N   LIG d   1      -3.616  92.944 117.287  0.00  0.00    -0.311 N 
ATOM     14  C   LIG d   1      -4.742  92.893 117.997  0.00  0.00     0.210 C 
ATOM     15  C   LIG d   1      -6.031  92.964 117.172  0.00  0.00     0.109 C 
ATOM     16  O   LIG d   1      -4.796  92.829 119.235  0.00  0.00    -0.276 OA
ATOM     17  H   LIG d   1      -3.665  93.028 116.291  0.00  0.00     0.149 HD
ENDBRANCH   6  13
BRANCH   5  18
ATOM     18  N   LIG d   1      -1.905  95.363 118.030  0.00  0.00     0.381 N 
ATOM     19  H   LIG d   1      -2.643  95.189 118.683  0.00  0.00    -0.090 HD
ATOM     20  H   LIG d   1      -2.281  95.892 117.263  0.00  0.00    -0.090 HD
ATOM     21  H   LIG d   1      -1.176  95.878 118.473  0.00  0.00    -0.090 HD
ENDBRANCH   5  18
BRANCH   3  22
ATOM     22  C   LIG d   1       1.957  92.551 117.692  0.00  0.00     0.382 C 
ATOM     23  O   LIG d   1       2.494  91.451 117.419  0.00  0.00    -0.241 OA
ATOM     24  O   LIG d   1       2.673  93.546 117.911  0.00  0.00    -0.241 OA
ENDBRANCH   3  22
TORSDOF 7
ENDMDL
MODEL 6
REMARK VINA RESULT:      -4.3      1.546      1.687
REMARK  7 active torsions:
REMARK  status: ('A' for Active; 'I' for Inactive)
REMARK    1  A    between atoms: C_2  and  C_3 
REMARK    2  A    between atoms: C_3  and  O_6 
REMARK    3  A    between atoms: C_3  and  C_4 
REMARK    4  A    between atoms: C_7  and  O_6 
REMARK    5  A    between atoms: C_9  and  C_10 
REMARK    6  A    between atoms: N_15  and  C_14 
REMARK    7  A    between atoms: N_20  and  C_19 
REMARK       I    between atoms: C_22  and  N_20 
ROOT
ATOM      1  C   LIG d   1      -2.316  91.282 119.727  0.00  0.00     0.161 C 
ATOM      2  C   LIG d   1      -3.641  90.980 119.370  0.00  0.00     0.016 C 
ATOM      3  C   LIG d   1      -4.355  91.678 118.369  0.00  0.00     0.038 C 
ATOM      4  C   LIG d   1      -3.738  92.632 117.546  0.00  0.00     0.028 C 
ATOM      5  C   LIG d   1      -2.549  93.322 118.206  0.00  0.00    -0.047 C 
ATOM      6  C   LIG d   1      -1.591  92.245 118.765  0.00  0.00     0.091 C 
ENDROOT
BRANCH   1   7
ATOM      7  O   LIG d   1      -1.562  90.063 119.879  0.00  0.00    -0.368 OA
BRANCH   7   8
ATOM      8  C   LIG d   1      -1.908  88.983 118.978  0.00  0.00     0.119 C 
BRANCH   8   9
ATOM      9  C   LIG d   1      -1.777  87.664 119.765  0.00  0.00     0.028 C 
ATOM     10  C   LIG d   1      -2.253  87.800 121.221  0.00  0.00     0.006 C 
ENDBRANCH   8   9
BRANCH   8  11
ATOM     11  C   LIG d   1      -0.901  88.871 117.830  0.00  0.00     0.028 C 
ATOM     12  C   LIG d   1       0.536  89.204 118.262  0.00  0.00     0.006 C 
ENDBRANCH   8  11
ENDBRANCH   7   8
ENDBRANCH   1   7
BRANCH   6  13
ATOM     13  N   LIG d   1      -0.442  92.836 119.500  0.00  0.00    -0.311 N 
ATOM     14  C   LIG d   1       0.726  93.121 118.928  0.00  0.00     0.210 C 
ATOM     15  C   LIG d   1       1.783  93.705 119.872  0.00  0.00     0.109 C 
ATOM     16  O   LIG d   1       0.978  92.976 117.723  0.00  0.00    -0.276 OA
ATOM     17  H   LIG d   1      -0.570  93.015 120.477  0.00  0.00     0.149 HD
ENDBRANCH   6  13
BRANCH   5  18
ATOM     18  N   LIG d   1      -1.918  94.188 117.193  0.00  0.00     0.381 N 
ATOM     19  H   LIG d   1      -2.611  94.769 116.764  0.00  0.00    -0.090 HD
ATOM     20  H   LIG d   1      -1.508  93.610 116.481  0.00  0.00    -0.090 HD
ATOM     21  H   LIG d   1      -1.216  94.754 117.617  0.00  0.00    -0.090 HD
ENDBRANCH   5  18
BRANCH   3  22
ATOM     22  C   LIG d   1      -5.714  91.451 118.210  0.00  0.00     0.382 C 
ATOM     23  O   LIG d   1      -6.533  91.955 119.015  0.00  0.00    -0.241 OA
ATOM     24  O   LIG d   1      -6.128  90.711 117.297  0.00  0.00    -0.241 OA
ENDBRANCH   3  22
TORSDOF 7
ENDMDL
MODEL 7
REMARK VINA RESULT:      -4.2      1.852      2.338
REMARK  7 active torsions:
REMARK  status: ('A' for Active; 'I' for Inactive)
REMARK    1  A    between atoms: C_2  and  C_3 
REMARK    2  A    between atoms: C_3  and  O_6 
REMARK    3  A    between atoms: C_3  and  C_4 
REMARK    4  A    between atoms: C_7  and  O_6 
REMARK    5  A    between atoms: C_9  and  C_10 
REMARK    6  A    between atoms: N_15  and  C_14 
REMARK    7  A    between atoms: N_20  and  C_19 
REMARK       I    between atoms: C_22  and  N_20 
ROOT
ATOM      1  C   LIG d   1      -2.300  91.496 118.368  0.00  0.00     0.161 C 
ATOM      2  C   LIG d   1      -3.564  91.060 117.939  0.00  0.00     0.016 C 
ATOM      3  C   LIG d   1      -4.706  91.893 117.907  0.00  0.00     0.038 C 
ATOM      4  C   LIG d   1      -4.625  93.271 118.161  0.00  0.00     0.028 C 
ATOM      5  C   LIG d   1      -3.473  93.649 119.086  0.00  0.00    -0.047 C 
ATOM      6  C   LIG d   1      -2.168  93.023 118.544  0.00  0.00     0.091 C 
ENDROOT
BRANCH   1   7
ATOM      7  O   LIG d   1      -1.283  91.005 117.472  0.00  0.00    -0.368 OA
BRANCH   7   8
ATOM      8  C   LIG d   1      -0.267  90.159 118.063  0.00  0.00     0.119 C 
BRANCH   8   9
ATOM      9  C   LIG d   1       1.094  90.600 117.490  0.00  0.00     0.028 C 
ATOM     10  C   LIG d   1       2.154  90.803 118.586  0.00  0.00     0.006 C 
ENDBRANCH   8   9
BRANCH   8  11
ATOM     11  C   LIG d   1      -0.435  88.700 117.630  0.00  0.00     0.028 C 
ATOM     12  C   LIG d   1      -0.710  87.755 118.811  0.00  0.00     0.006 C 
ENDBRANCH   8  11
ENDBRANCH   7   8
ENDBRANCH   1   7
BRANCH   6  13
ATOM     13  N   LIG d   1      -1.006  93.275 119.435  0.00  0.00    -0.311 N 
ATOM     14  C   LIG d   1       0.038  94.025 119.086  0.00  0.00     0.210 C 
ATOM     15  C   LIG d   1       1.137  94.139 120.146  0.00  0.00     0.109 C 
ATOM     16  O   LIG d   1       0.142  94.634 118.010  0.00  0.00    -0.276 OA
ATOM     17  H   LIG d   1      -1.023  92.845 120.339  0.00  0.00     0.149 HD
ENDBRANCH   6  13
BRANCH   5  18
ATOM     18  N   LIG d   1      -3.423  95.122 119.155  0.00  0.00     0.381 N 
ATOM     19  H   LIG d   1      -2.529  95.445 118.843  0.00  0.00    -0.090 HD
ATOM     20  H   LIG d   1      -3.545  95.407 120.111  0.00  0.00    -0.090 HD
ATOM     21  H   LIG d   1      -4.143  95.515 118.589  0.00  0.00    -0.090 HD
ENDBRANCH   5  18
BRANCH   3  22
ATOM     22  C   LIG d   1      -5.953  91.342 117.656  0.00  0.00     0.382 C 
ATOM     23  O   LIG d   1      -6.911  91.580 118.430  0.00  0.00    -0.241 OA
ATOM     24  O   LIG d   1      -6.121  90.573 116.691  0.00  0.00    -0.241 OA
ENDBRANCH   3  22
TORSDOF 7
ENDMDL
MODEL 8
REMARK VINA RESULT:      -4.0      2.048      2.922
REMARK  7 active torsions:
REMARK  status: ('A' for Active; 'I' for Inactive)
REMARK    1  A    between atoms: C_2  and  C_3 
REMARK    2  A    between atoms: C_3  and  O_6 
REMARK    3  A    between atoms: C_3  and  C_4 
REMARK    4  A    between atoms: C_7  and  O_6 
REMARK    5  A    between atoms: C_9  and  C_10 
REMARK    6  A    between atoms: N_15  and  C_14 
REMARK    7  A    between atoms: N_20  and  C_19 
REMARK       I    between atoms: C_22  and  N_20 
ROOT
ATOM      1  C   LIG d   1      -0.319  91.585 118.304  0.00  0.00     0.161 C 
ATOM      2  C   LIG d   1      -1.678  91.570 117.946  0.00  0.00     0.016 C 
ATOM      3  C   LIG d   1      -2.428  92.740 117.690  0.00  0.00     0.038 C 
ATOM      4  C   LIG d   1      -1.828  94.007 117.626  0.00  0.00     0.028 C 
ATOM      5  C   LIG d   1      -0.567  94.123 118.476  0.00  0.00    -0.047 C 
ATOM      6  C   LIG d   1       0.380  92.950 118.131  0.00  0.00     0.091 C 
ENDROOT
BRANCH   1   7
ATOM      7  O   LIG d   1       0.390  90.563 117.575  0.00  0.00    -0.368 OA
BRANCH   7   8
ATOM      8  C   LIG d   1       0.668  89.341 118.300  0.00  0.00     0.119 C 
BRANCH   8   9
ATOM      9  C   LIG d   1       2.200  89.205 118.409  0.00  0.00     0.028 C 
ATOM     10  C   LIG d   1       2.912  89.528 117.084  0.00  0.00     0.006 C 
ENDBRANCH   8   9
BRANCH   8  11
ATOM     11  C   LIG d   1       0.207  88.109 117.515  0.00  0.00     0.028 C 
ATOM     12  C   LIG d   1       0.116  86.847 118.386  0.00  0.00     0.006 C 
ENDBRANCH   8  11
ENDBRANCH   7   8
ENDBRANCH   1   7
BRANCH   6  13
ATOM     13  N   LIG d   1       1.601  92.940 118.977  0.00  0.00    -0.311 N 
ATOM     14  C   LIG d   1       2.836  93.014 118.483  0.00  0.00     0.210 C 
ATOM     15  C   LIG d   1       3.955  92.968 119.529  0.00  0.00     0.109 C 
ATOM     16  O   LIG d   1       3.110  93.146 117.281  0.00  0.00    -0.276 OA
ATOM     17  H   LIG d   1       1.470  92.867 119.967  0.00  0.00     0.149 HD
ENDBRANCH   6  13
BRANCH   5  18
ATOM     18  N   LIG d   1       0.030  95.445 118.209  0.00  0.00     0.381 N 
ATOM     19  H   LIG d   1      -0.160  95.719 117.266  0.00  0.00    -0.090 HD
ATOM     20  H   LIG d   1       1.026  95.381 118.324  0.00  0.00    -0.090 HD
ATOM     21  H   LIG d   1      -0.342  96.120 118.840  0.00  0.00    -0.090 HD
ENDBRANCH   5  18
BRANCH   3  22
ATOM     22  C   LIG d   1      -3.803  92.654 117.533  0.00  0.00     0.382 C 
ATOM     23  O   LIG d   1      -4.289  91.887 116.667  0.00  0.00    -0.241 OA
ATOM     24  O   LIG d   1      -4.563  93.367 118.216  0.00  0.00    -0.241 OA
ENDBRANCH   3  22
TORSDOF 7
ENDMDL
MODEL 9
REMARK VINA RESULT:      -3.6      2.883      4.488
REMARK  7 active torsions:
REMARK  status: ('A' for Active; 'I' for Inactive)
REMARK    1  A    between atoms: C_2  and  C_3 
REMARK    2  A    between atoms: C_3  and  O_6 
REMARK    3  A    between atoms: C_3  and  C_4 
REMARK    4  A    between atoms: C_7  and  O_6 
REMARK    5  A    between atoms: C_9  and  C_10 
REMARK    6  A    between atoms: N_15  and  C_14 
REMARK    7  A    between atoms: N_20  and  C_19 
REMARK       I    between atoms: C_22  and  N_20 
ROOT
ATOM      1  C   LIG d   1      -0.103  93.487 117.633  0.00  0.00     0.161 C 
ATOM      2  C   LIG d   1      -1.492  93.670 117.742  0.00  0.00     0.016 C 
ATOM      3  C   LIG d   1      -2.413  92.601 117.838  0.00  0.00     0.038 C 
ATOM      4  C   LIG d   1      -1.992  91.271 117.985  0.00  0.00     0.028 C 
ATOM      5  C   LIG d   1      -0.622  90.999 117.373  0.00  0.00    -0.047 C 
ATOM      6  C   LIG d   1       0.382  92.048 117.903  0.00  0.00     0.091 C 
ENDROOT
BRANCH   1   7
ATOM      7  O   LIG d   1       0.581  94.417 118.496  0.00  0.00    -0.368 OA
BRANCH   7   8
ATOM      8  C   LIG d   1       0.889  93.941 119.830  0.00  0.00     0.119 C 
BRANCH   8   9
ATOM      9  C   LIG d   1       0.051  94.771 120.822  0.00  0.00     0.028 C 
ATOM     10  C   LIG d   1      -1.111  93.966 121.426  0.00  0.00     0.006 C 
ENDBRANCH   8   9
BRANCH   8  11
ATOM     11  C   LIG d   1       2.349  94.221 120.198  0.00  0.00     0.028 C 
ATOM     12  C   LIG d   1       2.918  93.199 121.196  0.00  0.00     0.006 C 
ENDBRANCH   8  11
ENDBRANCH   7   8
ENDBRANCH   1   7
BRANCH   6  13
ATOM     13  N   LIG d   1       1.728  91.905 117.290  0.00  0.00    -0.311 N 
ATOM     14  C   LIG d   1       2.714  91.199 117.841  0.00  0.00     0.210 C 
ATOM     15  C   LIG d   1       4.028  91.198 117.053  0.00  0.00     0.109 C 
ATOM     16  O   LIG d   1       2.615  90.546 118.891  0.00  0.00    -0.276 OA
ATOM     17  H   LIG d   1       1.886  92.376 116.420  0.00  0.00     0.149 HD
ENDBRANCH   6  13
BRANCH   5  18
ATOM     18  N   LIG d   1      -0.247  89.614 117.718  0.00  0.00     0.381 N 
ATOM     19  H   LIG d   1       0.730  89.476 117.552  0.00  0.00    -0.090 HD
ATOM     20  H   LIG d   1      -0.760  88.982 117.128  0.00  0.00    -0.090 HD
ATOM     21  H   LIG d   1      -0.458  89.432 118.674  0.00  0.00    -0.090 HD
ENDBRANCH   5  18
BRANCH   3  22
ATOM     22  C   LIG d   1      -3.773  92.856 117.748  0.00  0.00     0.382 C 
ATOM     23  O   LIG d   1      -4.429  92.417 116.773  0.00  0.00    -0.241 OA
ATOM     24  O   LIG d   1      -4.343  93.556 118.606  0.00  0.00    -0.241 OA
ENDBRANCH   3  22
TORSDOF 7
ENDMDL
