MODEL 1
REMARK VINA RESULT:      -4.7      0.000      0.000
REMARK  7 active torsions:
REMARK  status: ('A' for Active; 'I' for Inactive)
REMARK    1  A    between atoms: C_2  and  C_3 
REMARK    2  A    between atoms: C_3  and  O_6 
REMARK    3  A    between atoms: C_3  and  C_4 
REMARK    4  A    between atoms: C_7  and  O_6 
REMARK    5  A    between atoms: C_9  and  C_10 
REMARK    6  A    between atoms: N_15  and  C_14 
REMARK    7  A    between atoms: N_20  and  C_19 
REMARK       I    between atoms: C_22  and  N_20 
ROOT
ATOM      1  C   LIG d   1      -1.622  93.246 117.960  0.00  0.00     0.161 C 
ATOM      2  C   LIG d   1      -0.765  92.449 117.184  0.00  0.00     0.016 C 
ATOM      3  C   LIG d   1       0.361  91.775 117.711  0.00  0.00     0.038 C 
ATOM      4  C   LIG d   1       0.620  91.730 119.089  0.00  0.00     0.028 C 
ATOM      5  C   LIG d   1       0.072  92.934 119.847  0.00  0.00    -0.047 C 
ATOM      6  C   LIG d   1      -1.419  93.119 119.484  0.00  0.00     0.091 C 
ENDROOT
BRANCH   1   7
ATOM      7  O   LIG d   1      -2.993  92.971 117.613  0.00  0.00    -0.368 OA
BRANCH   7   8
ATOM      8  C   LIG d   1      -3.504  91.674 118.010  0.00  0.00     0.119 C 
BRANCH   8   9
ATOM      9  C   LIG d   1      -4.214  91.062 116.787  0.00  0.00     0.028 C 
ATOM     10  C   LIG d   1      -5.513  91.804 116.431  0.00  0.00     0.006 C 
ENDBRANCH   8   9
BRANCH   8  11
ATOM     11  C   LIG d   1      -4.587  91.807 119.084  0.00  0.00     0.028 C 
ATOM     12  C   LIG d   1      -4.352  90.879 120.286  0.00  0.00     0.006 C 
ENDBRANCH   8  11
ENDBRANCH   7   8
ENDBRANCH   1   7
BRANCH   6  13
ATOM     13  N   LIG d   1      -2.011  94.326 120.119  0.00  0.00    -0.311 N 
ATOM     14  C   LIG d   1      -2.639  94.303 121.293  0.00  0.00     0.210 C 
ATOM     15  C   LIG d   1      -3.192  95.655 121.757  0.00  0.00     0.109 C 
ATOM     16  O   LIG d   1      -2.761  93.299 122.011  0.00  0.00    -0.276 OA
ATOM     17  H   LIG d   1      -1.930  95.190 119.620  0.00  0.00     0.149 HD
ENDBRANCH   6  13
BRANCH   5  18
ATOM     18  N   LIG d   1       0.291  92.692 121.286  0.00  0.00     0.381 N 
ATOM     19  H   LIG d   1      -0.434  93.130 121.818  0.00  0.00    -0.090 HD
ATOM     20  H   LIG d   1       1.170  93.099 121.554  0.00  0.00    -0.090 HD
ATOM     21  H   LIG d   1       0.301  91.712 121.469  0.00  0.00    -0.090 HD
ENDBRANCH   5  18
BRANCH   3  22
ATOM     22  C   LIG d   1       1.264  91.168 116.851  0.00  0.00     0.382 C 
ATOM     23  O   LIG d   1       2.274  91.800 116.455  0.00  0.00    -0.241 OA
ATOM     24  O   LIG d   1       1.059  90.014 116.430  0.00  0.00    -0.241 OA
ENDBRANCH   3  22
TORSDOF 7
ENDMDL
MODEL 2
REMARK VINA RESULT:      -4.7      3.155      6.688
REMARK  7 active torsions:
REMARK  status: ('A' for Active; 'I' for Inactive)
REMARK    1  A    between atoms: C_2  and  C_3 
REMARK    2  A    between atoms: C_3  and  O_6 
REMARK    3  A    between atoms: C_3  and  C_4 
REMARK    4  A    between atoms: C_7  and  O_6 
REMARK    5  A    between atoms: C_9  and  C_10 
REMARK    6  A    between atoms: N_15  and  C_14 
REMARK    7  A    between atoms: N_20  and  C_19 
REMARK       I    between atoms: C_22  and  N_20 
ROOT
ATOM      1  C   LIG d   1      -4.222  93.974 119.877  0.00  0.00     0.161 C 
ATOM      2  C   LIG d   1      -4.427  94.943 120.873  0.00  0.00     0.016 C 
ATOM      3  C   LIG d   1      -5.705  95.433 121.231  0.00  0.00     0.038 C 
ATOM      4  C   LIG d   1      -6.884  94.872 120.718  0.00  0.00     0.028 C 
ATOM      5  C   LIG d   1      -6.706  94.242 119.341  0.00  0.00    -0.047 C 
ATOM      6  C   LIG d   1      -5.504  93.271 119.385  0.00  0.00     0.091 C 
ENDROOT
BRANCH   1   7
ATOM      7  O   LIG d   1      -3.260  93.002 120.332  0.00  0.00    -0.368 OA
BRANCH   7   8
ATOM      8  C   LIG d   1      -1.877  93.265 119.990  0.00  0.00     0.119 C 
BRANCH   8   9
ATOM      9  C   LIG d   1      -1.578  92.528 118.671  0.00  0.00     0.028 C 
ATOM     10  C   LIG d   1      -1.458  93.490 117.476  0.00  0.00     0.006 C 
ENDBRANCH   8   9
BRANCH   8  11
ATOM     11  C   LIG d   1      -0.922  92.655 121.021  0.00  0.00     0.028 C 
ATOM     12  C   LIG d   1       0.510  92.499 120.487  0.00  0.00     0.006 C 
ENDBRANCH   8  11
ENDBRANCH   7   8
ENDBRANCH   1   7
BRANCH   6  13
ATOM     13  N   LIG d   1      -5.208  92.675 118.056  0.00  0.00    -0.311 N 
ATOM     14  C   LIG d   1      -4.909  91.389 117.879  0.00  0.00     0.210 C 
ATOM     15  C   LIG d   1      -4.619  90.986 116.430  0.00  0.00     0.109 C 
ATOM     16  O   LIG d   1      -4.889  90.537 118.780  0.00  0.00    -0.276 OA
ATOM     17  H   LIG d   1      -5.233  93.289 117.265  0.00  0.00     0.149 HD
ENDBRANCH   6  13
BRANCH   5  18
ATOM     18  N   LIG d   1      -7.974  93.577 118.988  0.00  0.00     0.381 N 
ATOM     19  H   LIG d   1      -8.716  93.943 119.550  0.00  0.00    -0.090 HD
ATOM     20  H   LIG d   1      -7.889  92.594 119.178  0.00  0.00    -0.090 HD
ATOM     21  H   LIG d   1      -8.177  93.720 118.023  0.00  0.00    -0.090 HD
ENDBRANCH   5  18
BRANCH   3  22
ATOM     22  C   LIG d   1      -5.809  96.522 122.083  0.00  0.00     0.382 C 
ATOM     23  O   LIG d   1      -4.795  96.945 122.688  0.00  0.00    -0.241 OA
ATOM     24  O   LIG d   1      -6.914  97.060 122.288  0.00  0.00    -0.241 OA
ENDBRANCH   3  22
TORSDOF 7
ENDMDL
MODEL 3
REMARK VINA RESULT:      -4.7      2.672      5.314
REMARK  7 active torsions:
REMARK  status: ('A' for Active; 'I' for Inactive)
REMARK    1  A    between atoms: C_2  and  C_3 
REMARK    2  A    between atoms: C_3  and  O_6 
REMARK    3  A    between atoms: C_3  and  C_4 
REMARK    4  A    between atoms: C_7  and  O_6 
REMARK    5  A    between atoms: C_9  and  C_10 
REMARK    6  A    between atoms: N_15  and  C_14 
REMARK    7  A    between atoms: N_20  and  C_19 
REMARK       I    between atoms: C_22  and  N_20 
ROOT
ATOM      1  C   LIG d   1      -4.124  91.679 120.160  0.00  0.00     0.161 C 
ATOM      2  C   LIG d   1      -5.212  91.369 119.327  0.00  0.00     0.016 C 
ATOM      3  C   LIG d   1      -5.162  91.458 117.917  0.00  0.00     0.038 C 
ATOM      4  C   LIG d   1      -3.966  91.720 117.232  0.00  0.00     0.028 C 
ATOM      5  C   LIG d   1      -2.967  92.532 118.048  0.00  0.00    -0.047 C 
ATOM      6  C   LIG d   1      -2.779  91.859 119.426  0.00  0.00     0.091 C 
ENDROOT
BRANCH   1   7
ATOM      7  O   LIG d   1      -4.002  90.683 121.194  0.00  0.00    -0.368 OA
BRANCH   7   8
ATOM      8  C   LIG d   1      -4.276  91.129 122.545  0.00  0.00     0.119 C 
BRANCH   8   9
ATOM      9  C   LIG d   1      -3.453  90.244 123.501  0.00  0.00     0.028 C 
ATOM     10  C   LIG d   1      -1.938  90.411 123.297  0.00  0.00     0.006 C 
ENDBRANCH   8   9
BRANCH   8  11
ATOM     11  C   LIG d   1      -5.740  90.885 122.925  0.00  0.00     0.028 C 
ATOM     12  C   LIG d   1      -6.574  92.176 122.944  0.00  0.00     0.006 C 
ENDBRANCH   8  11
ENDBRANCH   7   8
ENDBRANCH   1   7
BRANCH   6  13
ATOM     13  N   LIG d   1      -1.880  92.636 120.319  0.00  0.00    -0.311 N 
ATOM     14  C   LIG d   1      -0.559  92.468 120.356  0.00  0.00     0.210 C 
ATOM     15  C   LIG d   1       0.178  93.357 121.363  0.00  0.00     0.109 C 
ATOM     16  O   LIG d   1       0.076  91.689 119.629  0.00  0.00    -0.276 OA
ATOM     17  H   LIG d   1      -2.308  93.312 120.921  0.00  0.00     0.149 HD
ENDBRANCH   6  13
BRANCH   5  18
ATOM     18  N   LIG d   1      -1.717  92.613 117.269  0.00  0.00     0.381 N 
ATOM     19  H   LIG d   1      -1.459  91.702 116.946  0.00  0.00    -0.090 HD
ATOM     20  H   LIG d   1      -0.984  92.956 117.865  0.00  0.00    -0.090 HD
ATOM     21  H   LIG d   1      -1.838  93.227 116.493  0.00  0.00    -0.090 HD
ENDBRANCH   5  18
BRANCH   3  22
ATOM     22  C   LIG d   1      -6.328  91.324 117.178  0.00  0.00     0.382 C 
ATOM     23  O   LIG d   1      -6.486  90.328 116.431  0.00  0.00    -0.241 OA
ATOM     24  O   LIG d   1      -7.206  92.207 117.216  0.00  0.00    -0.241 OA
ENDBRANCH   3  22
TORSDOF 7
ENDMDL
MODEL 4
REMARK VINA RESULT:      -4.6      2.574      5.372
REMARK  7 active torsions:
REMARK  status: ('A' for Active; 'I' for Inactive)
REMARK    1  A    between atoms: C_2  and  C_3 
REMARK    2  A    between atoms: C_3  and  O_6 
REMARK    3  A    between atoms: C_3  and  C_4 
REMARK    4  A    between atoms: C_7  and  O_6 
REMARK    5  A    between atoms: C_9  and  C_10 
REMARK    6  A    between atoms: N_15  and  C_14 
REMARK    7  A    between atoms: N_20  and  C_19 
REMARK       I    between atoms: C_22  and  N_20 
ROOT
ATOM      1  C   LIG d   1      -3.876  92.915 119.403  0.00  0.00     0.161 C 
ATOM      2  C   LIG d   1      -4.351  92.114 118.351  0.00  0.00     0.016 C 
ATOM      3  C   LIG d   1      -5.676  92.176 117.862  0.00  0.00     0.038 C 
ATOM      4  C   LIG d   1      -6.580  93.158 118.294  0.00  0.00     0.028 C 
ATOM      5  C   LIG d   1      -6.303  93.656 119.708  0.00  0.00    -0.047 C 
ATOM      6  C   LIG d   1      -4.816  94.068 119.812  0.00  0.00     0.091 C 
ENDROOT
BRANCH   1   7
ATOM      7  O   LIG d   1      -2.569  93.426 119.077  0.00  0.00    -0.368 OA
BRANCH   7   8
ATOM      8  C   LIG d   1      -1.558  92.436 118.761  0.00  0.00     0.119 C 
BRANCH   8   9
ATOM      9  C   LIG d   1      -0.447  92.555 119.822  0.00  0.00     0.028 C 
ATOM     10  C   LIG d   1      -0.833  93.499 120.973  0.00  0.00     0.006 C 
ENDBRANCH   8   9
BRANCH   8  11
ATOM     11  C   LIG d   1      -0.878  92.743 117.424  0.00  0.00     0.028 C 
ATOM     12  C   LIG d   1       0.225  91.731 117.071  0.00  0.00     0.006 C 
ENDBRANCH   8  11
ENDBRANCH   7   8
ENDBRANCH   1   7
BRANCH   6  13
ATOM     13  N   LIG d   1      -4.440  94.489 121.187  0.00  0.00    -0.311 N 
ATOM     14  C   LIG d   1      -4.431  95.759 121.588  0.00  0.00     0.210 C 
ATOM     15  C   LIG d   1      -3.992  95.976 123.040  0.00  0.00     0.109 C 
ATOM     16  O   LIG d   1      -4.777  96.724 120.890  0.00  0.00    -0.276 OA
ATOM     17  H   LIG d   1      -4.175  93.768 121.829  0.00  0.00     0.149 HD
ENDBRANCH   6  13
BRANCH   5  18
ATOM     18  N   LIG d   1      -7.231  94.770 119.979  0.00  0.00     0.381 N 
ATOM     19  H   LIG d   1      -6.905  95.300 120.762  0.00  0.00    -0.090 HD
ATOM     20  H   LIG d   1      -8.134  94.392 120.207  0.00  0.00    -0.090 HD
ATOM     21  H   LIG d   1      -7.302  95.357 119.177  0.00  0.00    -0.090 HD
ENDBRANCH   5  18
BRANCH   3  22
ATOM     22  C   LIG d   1      -6.120  91.224 116.958  0.00  0.00     0.382 C 
ATOM     23  O   LIG d   1      -7.330  91.189 116.627  0.00  0.00    -0.241 OA
ATOM     24  O   LIG d   1      -5.335  90.371 116.502  0.00  0.00    -0.241 OA
ENDBRANCH   3  22
TORSDOF 7
ENDMDL
MODEL 5
REMARK VINA RESULT:      -4.5      3.115      5.142
REMARK  7 active torsions:
REMARK  status: ('A' for Active; 'I' for Inactive)
REMARK    1  A    between atoms: C_2  and  C_3 
REMARK    2  A    between atoms: C_3  and  O_6 
REMARK    3  A    between atoms: C_3  and  C_4 
REMARK    4  A    between atoms: C_7  and  O_6 
REMARK    5  A    between atoms: C_9  and  C_10 
REMARK    6  A    between atoms: N_15  and  C_14 
REMARK    7  A    between atoms: N_20  and  C_19 
REMARK       I    between atoms: C_22  and  N_20 
ROOT
ATOM      1  C   LIG d   1      -4.226  91.249 120.168  0.00  0.00     0.161 C 
ATOM      2  C   LIG d   1      -3.185  91.510 121.074  0.00  0.00     0.016 C 
ATOM      3  C   LIG d   1      -1.987  92.169 120.715  0.00  0.00     0.038 C 
ATOM      4  C   LIG d   1      -1.811  92.750 119.450  0.00  0.00     0.028 C 
ATOM      5  C   LIG d   1      -2.626  92.072 118.354  0.00  0.00    -0.047 C 
ATOM      6  C   LIG d   1      -4.099  91.973 118.811  0.00  0.00     0.091 C 
ENDROOT
BRANCH   1   7
ATOM      7  O   LIG d   1      -5.495  91.552 120.781  0.00  0.00    -0.368 OA
BRANCH   7   8
ATOM      8  C   LIG d   1      -5.507  92.669 121.703  0.00  0.00     0.119 C 
BRANCH   8   9
ATOM      9  C   LIG d   1      -6.441  92.297 122.870  0.00  0.00     0.028 C 
ATOM     10  C   LIG d   1      -6.384  90.798 123.212  0.00  0.00     0.006 C 
ENDBRANCH   8   9
BRANCH   8  11
ATOM     11  C   LIG d   1      -6.132  93.913 121.064  0.00  0.00     0.028 C 
ATOM     12  C   LIG d   1      -5.087  94.959 120.647  0.00  0.00     0.006 C 
ENDBRANCH   8  11
ENDBRANCH   7   8
ENDBRANCH   1   7
BRANCH   6  13
ATOM     13  N   LIG d   1      -4.949  91.247 117.833  0.00  0.00    -0.311 N 
ATOM     14  C   LIG d   1      -6.141  91.686 117.429  0.00  0.00     0.210 C 
ATOM     15  C   LIG d   1      -6.861  90.774 116.431  0.00  0.00     0.109 C 
ATOM     16  O   LIG d   1      -6.655  92.758 117.779  0.00  0.00    -0.276 OA
ATOM     17  H   LIG d   1      -4.595  90.383 117.473  0.00  0.00     0.149 HD
ENDBRANCH   6  13
BRANCH   5  18
ATOM     18  N   LIG d   1      -2.455  92.861 117.119  0.00  0.00     0.381 N 
ATOM     19  H   LIG d   1      -1.568  93.324 117.132  0.00  0.00    -0.090 HD
ATOM     20  H   LIG d   1      -3.175  93.561 117.079  0.00  0.00    -0.090 HD
ATOM     21  H   LIG d   1      -2.516  92.266 116.323  0.00  0.00    -0.090 HD
ENDBRANCH   5  18
BRANCH   3  22
ATOM     22  C   LIG d   1      -0.932  92.217 121.614  0.00  0.00     0.382 C 
ATOM     23  O   LIG d   1      -0.760  91.279 122.429  0.00  0.00    -0.241 OA
ATOM     24  O   LIG d   1      -0.177  93.207 121.649  0.00  0.00    -0.241 OA
ENDBRANCH   3  22
TORSDOF 7
ENDMDL
MODEL 6
REMARK VINA RESULT:      -4.5      3.459      6.526
REMARK  7 active torsions:
REMARK  status: ('A' for Active; 'I' for Inactive)
REMARK    1  A    between atoms: C_2  and  C_3 
REMARK    2  A    between atoms: C_3  and  O_6 
REMARK    3  A    between atoms: C_3  and  C_4 
REMARK    4  A    between atoms: C_7  and  O_6 
REMARK    5  A    between atoms: C_9  and  C_10 
REMARK    6  A    between atoms: N_15  and  C_14 
REMARK    7  A    between atoms: N_20  and  C_19 
REMARK       I    between atoms: C_22  and  N_20 
ROOT
ATOM      1  C   LIG d   1      -5.467  93.665 120.048  0.00  0.00     0.161 C 
ATOM      2  C   LIG d   1      -6.846  93.759 119.794  0.00  0.00     0.016 C 
ATOM      3  C   LIG d   1      -7.673  94.764 120.345  0.00  0.00     0.038 C 
ATOM      4  C   LIG d   1      -7.145  95.841 121.073  0.00  0.00     0.028 C 
ATOM      5  C   LIG d   1      -5.833  95.512 121.776  0.00  0.00    -0.047 C 
ATOM      6  C   LIG d   1      -4.855  94.895 120.750  0.00  0.00     0.091 C 
ENDROOT
BRANCH   1   7
ATOM      7  O   LIG d   1      -4.762  93.384 118.823  0.00  0.00    -0.368 OA
BRANCH   7   8
ATOM      8  C   LIG d   1      -4.458  91.991 118.568  0.00  0.00     0.119 C 
BRANCH   8   9
ATOM      9  C   LIG d   1      -2.970  91.773 118.908  0.00  0.00     0.028 C 
ATOM     10  C   LIG d   1      -2.033  92.536 117.957  0.00  0.00     0.006 C 
ENDBRANCH   8   9
BRANCH   8  11
ATOM     11  C   LIG d   1      -4.587  91.656 117.079  0.00  0.00     0.028 C 
ATOM     12  C   LIG d   1      -6.034  91.750 116.571  0.00  0.00     0.006 C 
ENDBRANCH   8  11
ENDBRANCH   7   8
ENDBRANCH   1   7
BRANCH   6  13
ATOM     13  N   LIG d   1      -3.575  94.467 121.373  0.00  0.00    -0.311 N 
ATOM     14  C   LIG d   1      -2.379  94.839 120.921  0.00  0.00     0.210 C 
ATOM     15  C   LIG d   1      -1.188  94.268 121.697  0.00  0.00     0.109 C 
ATOM     16  O   LIG d   1      -2.191  95.613 119.971  0.00  0.00    -0.276 OA
ATOM     17  H   LIG d   1      -3.635  93.862 122.169  0.00  0.00     0.149 HD
ENDBRANCH   6  13
BRANCH   5  18
ATOM     18  N   LIG d   1      -5.326  96.758 122.381  0.00  0.00     0.381 N 
ATOM     19  H   LIG d   1      -5.943  97.056 123.111  0.00  0.00    -0.090 HD
ATOM     20  H   LIG d   1      -5.302  97.475 121.677  0.00  0.00    -0.090 HD
ATOM     21  H   LIG d   1      -4.411  96.612 122.748  0.00  0.00    -0.090 HD
ENDBRANCH   5  18
BRANCH   3  22
ATOM     22  C   LIG d   1      -9.049  94.676 120.204  0.00  0.00     0.382 C 
ATOM     23  O   LIG d   1      -9.801  95.316 120.978  0.00  0.00    -0.241 OA
ATOM     24  O   LIG d   1      -9.549  93.931 119.340  0.00  0.00    -0.241 OA
ENDBRANCH   3  22
TORSDOF 7
ENDMDL
MODEL 7
REMARK VINA RESULT:      -4.4      3.309      4.942
REMARK  7 active torsions:
REMARK  status: ('A' for Active; 'I' for Inactive)
REMARK    1  A    between atoms: C_2  and  C_3 
REMARK    2  A    between atoms: C_3  and  O_6 
REMARK    3  A    between atoms: C_3  and  C_4 
REMARK    4  A    between atoms: C_7  and  O_6 
REMARK    5  A    between atoms: C_9  and  C_10 
REMARK    6  A    between atoms: N_15  and  C_14 
REMARK    7  A    between atoms: N_20  and  C_19 
REMARK       I    between atoms: C_22  and  N_20 
ROOT
ATOM      1  C   LIG d   1      -5.137  94.140 119.825  0.00  0.00     0.161 C 
ATOM      2  C   LIG d   1      -5.897  93.301 118.994  0.00  0.00     0.016 C 
ATOM      3  C   LIG d   1      -5.360  92.179 118.321  0.00  0.00     0.038 C 
ATOM      4  C   LIG d   1      -4.052  91.729 118.556  0.00  0.00     0.028 C 
ATOM      5  C   LIG d   1      -3.101  92.837 118.996  0.00  0.00    -0.047 C 
ATOM      6  C   LIG d   1      -3.735  93.601 120.181  0.00  0.00     0.091 C 
ENDROOT
BRANCH   1   7
ATOM      7  O   LIG d   1      -5.877  94.440 121.024  0.00  0.00    -0.368 OA
BRANCH   7   8
ATOM      8  C   LIG d   1      -6.853  93.451 121.436  0.00  0.00     0.119 C 
BRANCH   8   9
ATOM      9  C   LIG d   1      -8.116  94.207 121.889  0.00  0.00     0.028 C 
ATOM     10  C   LIG d   1      -9.058  94.532 120.718  0.00  0.00     0.006 C 
ENDBRANCH   8   9
BRANCH   8  11
ATOM     11  C   LIG d   1      -6.377  92.679 122.670  0.00  0.00     0.028 C 
ATOM     12  C   LIG d   1      -5.799  91.298 122.323  0.00  0.00     0.006 C 
ENDBRANCH   8  11
ENDBRANCH   7   8
ENDBRANCH   1   7
BRANCH   6  13
ATOM     13  N   LIG d   1      -2.908  94.755 120.619  0.00  0.00    -0.311 N 
ATOM     14  C   LIG d   1      -2.021  94.686 121.611  0.00  0.00     0.210 C 
ATOM     15  C   LIG d   1      -1.289  95.997 121.915  0.00  0.00     0.109 C 
ATOM     16  O   LIG d   1      -1.749  93.657 122.247  0.00  0.00    -0.276 OA
ATOM     17  H   LIG d   1      -3.042  95.622 120.137  0.00  0.00     0.149 HD
ENDBRANCH   6  13
BRANCH   5  18
ATOM     18  N   LIG d   1      -1.812  92.207 119.339  0.00  0.00     0.381 N 
ATOM     19  H   LIG d   1      -1.833  91.237 119.094  0.00  0.00    -0.090 HD
ATOM     20  H   LIG d   1      -1.668  92.279 120.330  0.00  0.00    -0.090 HD
ATOM     21  H   LIG d   1      -1.070  92.663 118.854  0.00  0.00    -0.090 HD
ENDBRANCH   5  18
BRANCH   3  22
ATOM     22  C   LIG d   1      -6.123  91.517 117.371  0.00  0.00     0.382 C 
ATOM     23  O   LIG d   1      -5.672  90.490 116.809  0.00  0.00    -0.241 OA
ATOM     24  O   LIG d   1      -7.239  91.959 117.037  0.00  0.00    -0.241 OA
ENDBRANCH   3  22
TORSDOF 7
ENDMDL
MODEL 8
REMARK VINA RESULT:      -4.4      3.669      6.487
REMARK  7 active torsions:
REMARK  status: ('A' for Active; 'I' for Inactive)
REMARK    1  A    between atoms: C_2  and  C_3 
REMARK    2  A    between atoms: C_3  and  O_6 
REMARK    3  A    between atoms: C_3  and  C_4 
REMARK    4  A    between atoms: C_7  and  O_6 
REMARK    5  A    between atoms: C_9  and  C_10 
REMARK    6  A    between atoms: N_15  and  C_14 
REMARK    7  A    between atoms: N_20  and  C_19 
REMARK       I    between atoms: C_22  and  N_20 
ROOT
ATOM      1  C   LIG d   1      -5.201  93.005 120.208  0.00  0.00     0.161 C 
ATOM      2  C   LIG d   1      -6.288  93.782 119.772  0.00  0.00     0.016 C 
ATOM      3  C   LIG d   1      -7.371  94.143 120.606  0.00  0.00     0.038 C 
ATOM      4  C   LIG d   1      -7.367  93.876 121.983  0.00  0.00     0.028 C 
ATOM      5  C   LIG d   1      -6.531  92.658 122.362  0.00  0.00    -0.047 C 
ATOM      6  C   LIG d   1      -5.125  92.800 121.736  0.00  0.00     0.091 C 
ENDROOT
BRANCH   1   7
ATOM      7  O   LIG d   1      -3.969  93.569 119.717  0.00  0.00    -0.368 OA
BRANCH   7   8
ATOM      8  C   LIG d   1      -3.230  92.759 118.770  0.00  0.00     0.119 C 
BRANCH   8   9
ATOM      9  C   LIG d   1      -4.090  91.521 118.450  0.00  0.00     0.028 C 
ATOM     10  C   LIG d   1      -4.206  91.261 116.939  0.00  0.00     0.006 C 
ENDBRANCH   8   9
BRANCH   8  11
ATOM     11  C   LIG d   1      -1.943  92.209 119.392  0.00  0.00     0.028 C 
ATOM     12  C   LIG d   1      -0.714  92.406 118.491  0.00  0.00     0.006 C 
ENDBRANCH   8  11
ENDBRANCH   7   8
ENDBRANCH   1   7
BRANCH   6  13
ATOM     13  N   LIG d   1      -4.270  91.610 121.987  0.00  0.00    -0.311 N 
ATOM     14  C   LIG d   1      -3.405  91.530 122.996  0.00  0.00     0.210 C 
ATOM     15  C   LIG d   1      -2.608  90.223 123.062  0.00  0.00     0.109 C 
ATOM     16  O   LIG d   1      -3.245  92.403 123.862  0.00  0.00    -0.276 OA
ATOM     17  H   LIG d   1      -4.358  90.842 121.351  0.00  0.00     0.149 HD
ENDBRANCH   6  13
BRANCH   5  18
ATOM     18  N   LIG d   1      -6.503  92.578 123.835  0.00  0.00     0.381 N 
ATOM     19  H   LIG d   1      -6.709  91.643 124.127  0.00  0.00    -0.090 HD
ATOM     20  H   LIG d   1      -7.208  93.188 124.207  0.00  0.00    -0.090 HD
ATOM     21  H   LIG d   1      -5.606  92.849 124.174  0.00  0.00    -0.090 HD
ENDBRANCH   5  18
BRANCH   3  22
ATOM     22  C   LIG d   1      -8.493  94.743 120.055  0.00  0.00     0.382 C 
ATOM     23  O   LIG d   1      -9.409  94.035 119.572  0.00  0.00    -0.241 OA
ATOM     24  O   LIG d   1      -8.580  95.984 119.994  0.00  0.00    -0.241 OA
ENDBRANCH   3  22
TORSDOF 7
ENDMDL
MODEL 9
REMARK VINA RESULT:      -4.4      3.694      7.275
REMARK  7 active torsions:
REMARK  status: ('A' for Active; 'I' for Inactive)
REMARK    1  A    between atoms: C_2  and  C_3 
REMARK    2  A    between atoms: C_3  and  O_6 
REMARK    3  A    between atoms: C_3  and  C_4 
REMARK    4  A    between atoms: C_7  and  O_6 
REMARK    5  A    between atoms: C_9  and  C_10 
REMARK    6  A    between atoms: N_15  and  C_14 
REMARK    7  A    between atoms: N_20  and  C_19 
REMARK       I    between atoms: C_22  and  N_20 
ROOT
ATOM      1  C   LIG d   1      -5.011  94.263 120.559  0.00  0.00     0.161 C 
ATOM      2  C   LIG d   1      -5.987  95.021 121.227  0.00  0.00     0.016 C 
ATOM      3  C   LIG d   1      -7.341  95.075 120.823  0.00  0.00     0.038 C 
ATOM      4  C   LIG d   1      -7.845  94.251 119.805  0.00  0.00     0.028 C 
ATOM      5  C   LIG d   1      -6.793  93.848 118.776  0.00  0.00    -0.047 C 
ATOM      6  C   LIG d   1      -5.564  93.271 119.515  0.00  0.00     0.091 C 
ENDROOT
BRANCH   1   7
ATOM      7  O   LIG d   1      -4.187  93.573 121.519  0.00  0.00    -0.368 OA
BRANCH   7   8
ATOM      8  C   LIG d   1      -4.483  92.168 121.720  0.00  0.00     0.119 C 
BRANCH   8   9
ATOM      9  C   LIG d   1      -5.138  92.027 123.107  0.00  0.00     0.028 C 
ATOM     10  C   LIG d   1      -6.645  91.735 123.018  0.00  0.00     0.006 C 
ENDBRANCH   8   9
BRANCH   8  11
ATOM     11  C   LIG d   1      -3.201  91.333 121.789  0.00  0.00     0.028 C 
ATOM     12  C   LIG d   1      -1.998  92.034 121.139  0.00  0.00     0.006 C 
ENDBRANCH   8  11
ENDBRANCH   7   8
ENDBRANCH   1   7
BRANCH   6  13
ATOM     13  N   LIG d   1      -4.454  92.930 118.587  0.00  0.00    -0.311 N 
ATOM     14  C   LIG d   1      -4.268  91.711 118.085  0.00  0.00     0.210 C 
ATOM     15  C   LIG d   1      -3.052  91.570 117.164  0.00  0.00     0.109 C 
ATOM     16  O   LIG d   1      -5.013  90.740 118.289  0.00  0.00    -0.276 OA
ATOM     17  H   LIG d   1      -3.821  93.666 118.343  0.00  0.00     0.149 HD
ENDBRANCH   6  13
BRANCH   5  18
ATOM     18  N   LIG d   1      -7.420  92.882 117.854  0.00  0.00     0.381 N 
ATOM     19  H   LIG d   1      -6.750  92.579 117.175  0.00  0.00    -0.090 HD
ATOM     20  H   LIG d   1      -8.175  93.336 117.372  0.00  0.00    -0.090 HD
ATOM     21  H   LIG d   1      -7.765  92.099 118.364  0.00  0.00    -0.090 HD
ENDBRANCH   5  18
BRANCH   3  22
ATOM     22  C   LIG d   1      -8.198  95.992 121.413  0.00  0.00     0.382 C 
ATOM     23  O   LIG d   1      -9.064  96.577 120.719  0.00  0.00    -0.241 OA
ATOM     24  O   LIG d   1      -8.087  96.273 122.621  0.00  0.00    -0.241 OA
ENDBRANCH   3  22
TORSDOF 7
ENDMDL
