MODEL 1
REMARK VINA RESULT:      -4.7      0.000      0.000
REMARK  7 active torsions:
REMARK  status: ('A' for Active; 'I' for Inactive)
REMARK    1  A    between atoms: C_2  and  C_3 
REMARK    2  A    between atoms: C_3  and  O_6 
REMARK    3  A    between atoms: C_3  and  C_4 
REMARK    4  A    between atoms: C_7  and  O_6 
REMARK    5  A    between atoms: C_9  and  C_10 
REMARK    6  A    between atoms: N_15  and  C_14 
REMARK    7  A    between atoms: N_20  and  C_19 
REMARK       I    between atoms: C_22  and  N_20 
ROOT
ATOM      1  C   LIG d   1      -4.260  92.538 119.059  0.00  0.00     0.161 C 
ATOM      2  C   LIG d   1      -5.425  93.321 119.122  0.00  0.00     0.016 C 
ATOM      3  C   LIG d   1      -6.596  93.035 118.382  0.00  0.00     0.038 C 
ATOM      4  C   LIG d   1      -6.733  91.852 117.639  0.00  0.00     0.028 C 
ATOM      5  C   LIG d   1      -5.405  91.290 117.145  0.00  0.00    -0.047 C 
ATOM      6  C   LIG d   1      -4.430  91.183 118.340  0.00  0.00     0.091 C 
ENDROOT
BRANCH   1   7
ATOM      7  O   LIG d   1      -3.733  92.339 120.385  0.00  0.00    -0.368 OA
BRANCH   7   8
ATOM      8  C   LIG d   1      -4.295  91.234 121.135  0.00  0.00     0.119 C 
BRANCH   8   9
ATOM      9  C   LIG d   1      -4.952  91.820 122.400  0.00  0.00     0.028 C 
ATOM     10  C   LIG d   1      -6.487  91.729 122.360  0.00  0.00     0.006 C 
ENDBRANCH   8   9
BRANCH   8  11
ATOM     11  C   LIG d   1      -3.200  90.293 121.646  0.00  0.00     0.028 C 
ATOM     12  C   LIG d   1      -1.784  90.842 121.408  0.00  0.00     0.006 C 
ENDBRANCH   8  11
ENDBRANCH   7   8
ENDBRANCH   1   7
BRANCH   6  13
ATOM     13  N   LIG d   1      -3.078  90.720 117.929  0.00  0.00    -0.311 N 
ATOM     14  C   LIG d   1      -2.667  89.459 118.051  0.00  0.00     0.210 C 
ATOM     15  C   LIG d   1      -1.231  89.200 117.586  0.00  0.00     0.109 C 
ATOM     16  O   LIG d   1      -3.365  88.525 118.472  0.00  0.00    -0.276 OA
ATOM     17  H   LIG d   1      -2.457  91.407 117.548  0.00  0.00     0.149 HD
ENDBRANCH   6  13
BRANCH   5  18
ATOM     18  N   LIG d   1      -5.682  89.989 116.507  0.00  0.00     0.381 N 
ATOM     19  H   LIG d   1      -4.932  89.353 116.694  0.00  0.00    -0.090 HD
ATOM     20  H   LIG d   1      -5.742  90.121 115.513  0.00  0.00    -0.090 HD
ATOM     21  H   LIG d   1      -6.538  89.615 116.853  0.00  0.00    -0.090 HD
ENDBRANCH   5  18
BRANCH   3  22
ATOM     22  C   LIG d   1      -7.631  93.957 118.349  0.00  0.00     0.382 C 
ATOM     23  O   LIG d   1      -8.815  93.577 118.513  0.00  0.00    -0.241 OA
ATOM     24  O   LIG d   1      -7.399  95.158 118.114  0.00  0.00    -0.241 OA
ENDBRANCH   3  22
TORSDOF 7
ENDMDL
MODEL 2
REMARK VINA RESULT:      -4.7      2.642      4.873
REMARK  7 active torsions:
REMARK  status: ('A' for Active; 'I' for Inactive)
REMARK    1  A    between atoms: C_2  and  C_3 
REMARK    2  A    between atoms: C_3  and  O_6 
REMARK    3  A    between atoms: C_3  and  C_4 
REMARK    4  A    between atoms: C_7  and  O_6 
REMARK    5  A    between atoms: C_9  and  C_10 
REMARK    6  A    between atoms: N_15  and  C_14 
REMARK    7  A    between atoms: N_20  and  C_19 
REMARK       I    between atoms: C_22  and  N_20 
ROOT
ATOM      1  C   LIG d   1      -5.118  92.051 119.545  0.00  0.00     0.161 C 
ATOM      2  C   LIG d   1      -5.350  90.990 118.654  0.00  0.00     0.016 C 
ATOM      3  C   LIG d   1      -6.269  91.060 117.582  0.00  0.00     0.038 C 
ATOM      4  C   LIG d   1      -6.913  92.258 117.235  0.00  0.00     0.028 C 
ATOM      5  C   LIG d   1      -7.092  93.212 118.411  0.00  0.00    -0.047 C 
ATOM      6  C   LIG d   1      -5.729  93.401 119.115  0.00  0.00     0.091 C 
ENDROOT
BRANCH   1   7
ATOM      7  O   LIG d   1      -3.703  92.193 119.779  0.00  0.00    -0.368 OA
BRANCH   7   8
ATOM      8  C   LIG d   1      -2.847  92.041 118.620  0.00  0.00     0.119 C 
BRANCH   8   9
ATOM      9  C   LIG d   1      -1.783  90.982 118.966  0.00  0.00     0.028 C 
ATOM     10  C   LIG d   1      -1.836  89.767 118.023  0.00  0.00     0.006 C 
ENDBRANCH   8   9
BRANCH   8  11
ATOM     11  C   LIG d   1      -2.063  93.326 118.334  0.00  0.00     0.028 C 
ATOM     12  C   LIG d   1      -2.056  94.297 119.525  0.00  0.00     0.006 C 
ENDBRANCH   8  11
ENDBRANCH   7   8
ENDBRANCH   1   7
BRANCH   6  13
ATOM     13  N   LIG d   1      -5.832  94.255 120.328  0.00  0.00    -0.311 N 
ATOM     14  C   LIG d   1      -5.579  95.562 120.328  0.00  0.00     0.210 C 
ATOM     15  C   LIG d   1      -5.725  96.250 121.689  0.00  0.00     0.109 C 
ATOM     16  O   LIG d   1      -5.278  96.224 119.323  0.00  0.00    -0.276 OA
ATOM     17  H   LIG d   1      -6.100  93.805 121.181  0.00  0.00     0.149 HD
ENDBRANCH   6  13
BRANCH   5  18
ATOM     18  N   LIG d   1      -7.649  94.471 117.882  0.00  0.00     0.381 N 
ATOM     19  H   LIG d   1      -7.276  95.247 118.391  0.00  0.00    -0.090 HD
ATOM     20  H   LIG d   1      -8.646  94.463 118.005  0.00  0.00    -0.090 HD
ATOM     21  H   LIG d   1      -7.428  94.562 116.915  0.00  0.00    -0.090 HD
ENDBRANCH   5  18
BRANCH   3  22
ATOM     22  C   LIG d   1      -6.582  89.913 116.869  0.00  0.00     0.382 C 
ATOM     23  O   LIG d   1      -7.782  89.588 116.699  0.00  0.00    -0.241 OA
ATOM     24  O   LIG d   1      -5.679  89.176 116.430  0.00  0.00    -0.241 OA
ENDBRANCH   3  22
TORSDOF 7
ENDMDL
MODEL 3
REMARK VINA RESULT:      -4.7      1.918      5.361
REMARK  7 active torsions:
REMARK  status: ('A' for Active; 'I' for Inactive)
REMARK    1  A    between atoms: C_2  and  C_3 
REMARK    2  A    between atoms: C_3  and  O_6 
REMARK    3  A    between atoms: C_3  and  C_4 
REMARK    4  A    between atoms: C_7  and  O_6 
REMARK    5  A    between atoms: C_9  and  C_10 
REMARK    6  A    between atoms: N_15  and  C_14 
REMARK    7  A    between atoms: N_20  and  C_19 
REMARK       I    between atoms: C_22  and  N_20 
ROOT
ATOM      1  C   LIG d   1      -5.204  91.791 120.051  0.00  0.00     0.161 C 
ATOM      2  C   LIG d   1      -4.164  90.916 119.695  0.00  0.00     0.016 C 
ATOM      3  C   LIG d   1      -4.120  90.219 118.466  0.00  0.00     0.038 C 
ATOM      4  C   LIG d   1      -5.043  90.466 117.440  0.00  0.00     0.028 C 
ATOM      5  C   LIG d   1      -6.393  90.963 117.946  0.00  0.00    -0.047 C 
ATOM      6  C   LIG d   1      -6.163  92.158 118.898  0.00  0.00     0.091 C 
ENDROOT
BRANCH   1   7
ATOM      7  O   LIG d   1      -4.657  92.984 120.647  0.00  0.00    -0.368 OA
BRANCH   7   8
ATOM      8  C   LIG d   1      -4.270  94.035 119.729  0.00  0.00     0.119 C 
BRANCH   8   9
ATOM      9  C   LIG d   1      -2.745  94.218 119.851  0.00  0.00     0.028 C 
ATOM     10  C   LIG d   1      -2.002  93.834 118.560  0.00  0.00     0.006 C 
ENDBRANCH   8   9
BRANCH   8  11
ATOM     11  C   LIG d   1      -4.874  95.382 120.138  0.00  0.00     0.028 C 
ATOM     12  C   LIG d   1      -5.034  96.348 118.953  0.00  0.00     0.006 C 
ENDBRANCH   8  11
ENDBRANCH   7   8
ENDBRANCH   1   7
BRANCH   6  13
ATOM     13  N   LIG d   1      -7.427  92.652 119.505  0.00  0.00    -0.311 N 
ATOM     14  C   LIG d   1      -8.097  93.707 119.045  0.00  0.00     0.210 C 
ATOM     15  C   LIG d   1      -9.366  94.058 119.828  0.00  0.00     0.109 C 
ATOM     16  O   LIG d   1      -7.780  94.365 118.042  0.00  0.00    -0.276 OA
ATOM     17  H   LIG d   1      -7.773  92.158 120.303  0.00  0.00     0.149 HD
ENDBRANCH   6  13
BRANCH   5  18
ATOM     18  N   LIG d   1      -7.210  91.311 116.768  0.00  0.00     0.381 N 
ATOM     19  H   LIG d   1      -7.883  92.009 117.017  0.00  0.00    -0.090 HD
ATOM     20  H   LIG d   1      -7.705  90.492 116.462  0.00  0.00    -0.090 HD
ATOM     21  H   LIG d   1      -6.626  91.649 116.035  0.00  0.00    -0.090 HD
ENDBRANCH   5  18
BRANCH   3  22
ATOM     22  C   LIG d   1      -3.166  89.231 118.270  0.00  0.00     0.382 C 
ATOM     23  O   LIG d   1      -2.283  89.032 119.139  0.00  0.00    -0.241 OA
ATOM     24  O   LIG d   1      -3.151  88.568 117.216  0.00  0.00    -0.241 OA
ENDBRANCH   3  22
TORSDOF 7
ENDMDL
MODEL 4
REMARK VINA RESULT:      -4.6      1.231      1.986
REMARK  7 active torsions:
REMARK  status: ('A' for Active; 'I' for Inactive)
REMARK    1  A    between atoms: C_2  and  C_3 
REMARK    2  A    between atoms: C_3  and  O_6 
REMARK    3  A    between atoms: C_3  and  C_4 
REMARK    4  A    between atoms: C_7  and  O_6 
REMARK    5  A    between atoms: C_9  and  C_10 
REMARK    6  A    between atoms: N_15  and  C_14 
REMARK    7  A    between atoms: N_20  and  C_19 
REMARK       I    between atoms: C_22  and  N_20 
ROOT
ATOM      1  C   LIG d   1      -4.381  92.604 119.117  0.00  0.00     0.161 C 
ATOM      2  C   LIG d   1      -5.553  93.378 119.161  0.00  0.00     0.016 C 
ATOM      3  C   LIG d   1      -6.701  93.098 118.384  0.00  0.00     0.038 C 
ATOM      4  C   LIG d   1      -6.809  91.928 117.617  0.00  0.00     0.028 C 
ATOM      5  C   LIG d   1      -5.464  91.383 117.150  0.00  0.00    -0.047 C 
ATOM      6  C   LIG d   1      -4.521  91.261 118.370  0.00  0.00     0.091 C 
ENDROOT
BRANCH   1   7
ATOM      7  O   LIG d   1      -3.890  92.385 120.454  0.00  0.00    -0.368 OA
BRANCH   7   8
ATOM      8  C   LIG d   1      -2.692  93.113 120.820  0.00  0.00     0.119 C 
BRANCH   8   9
ATOM      9  C   LIG d   1      -2.174  93.819 119.552  0.00  0.00     0.028 C 
ATOM     10  C   LIG d   1      -0.702  93.486 119.255  0.00  0.00     0.006 C 
ENDBRANCH   8   9
BRANCH   8  11
ATOM     11  C   LIG d   1      -1.569  92.161 121.242  0.00  0.00     0.028 C 
ATOM     12  C   LIG d   1      -2.071  90.738 121.534  0.00  0.00     0.006 C 
ENDBRANCH   8  11
ENDBRANCH   7   8
ENDBRANCH   1   7
BRANCH   6  13
ATOM     13  N   LIG d   1      -3.156  90.814 117.988  0.00  0.00    -0.311 N 
ATOM     14  C   LIG d   1      -2.736  89.556 118.110  0.00  0.00     0.210 C 
ATOM     15  C   LIG d   1      -1.287  89.314 117.677  0.00  0.00     0.109 C 
ATOM     16  O   LIG d   1      -3.437  88.612 118.504  0.00  0.00    -0.276 OA
ATOM     17  H   LIG d   1      -2.532  91.510 117.630  0.00  0.00     0.149 HD
ENDBRANCH   6  13
BRANCH   5  18
ATOM     18  N   LIG d   1      -5.714  90.092 116.482  0.00  0.00     0.381 N 
ATOM     19  H   LIG d   1      -6.691  89.994 116.289  0.00  0.00    -0.090 HD
ATOM     20  H   LIG d   1      -5.438  89.348 117.098  0.00  0.00    -0.090 HD
ATOM     21  H   LIG d   1      -5.194  90.041 115.634  0.00  0.00    -0.090 HD
ENDBRANCH   5  18
BRANCH   3  22
ATOM     22  C   LIG d   1      -7.740  94.014 118.339  0.00  0.00     0.382 C 
ATOM     23  O   LIG d   1      -8.924  93.628 118.494  0.00  0.00    -0.241 OA
ATOM     24  O   LIG d   1      -7.514  95.216 118.101  0.00  0.00    -0.241 OA
ENDBRANCH   3  22
TORSDOF 7
ENDMDL
MODEL 5
REMARK VINA RESULT:      -4.5      2.463      4.923
REMARK  7 active torsions:
REMARK  status: ('A' for Active; 'I' for Inactive)
REMARK    1  A    between atoms: C_2  and  C_3 
REMARK    2  A    between atoms: C_3  and  O_6 
REMARK    3  A    between atoms: C_3  and  C_4 
REMARK    4  A    between atoms: C_7  and  O_6 
REMARK    5  A    between atoms: C_9  and  C_10 
REMARK    6  A    between atoms: N_15  and  C_14 
REMARK    7  A    between atoms: N_20  and  C_19 
REMARK       I    between atoms: C_22  and  N_20 
ROOT
ATOM      1  C   LIG d   1      -6.146  93.087 118.545  0.00  0.00     0.161 C 
ATOM      2  C   LIG d   1      -6.752  91.998 117.897  0.00  0.00     0.016 C 
ATOM      3  C   LIG d   1      -6.088  90.776 117.644  0.00  0.00     0.038 C 
ATOM      4  C   LIG d   1      -4.813  90.503 118.162  0.00  0.00     0.028 C 
ATOM      5  C   LIG d   1      -3.971  91.754 118.387  0.00  0.00    -0.047 C 
ATOM      6  C   LIG d   1      -4.792  92.769 119.215  0.00  0.00     0.091 C 
ENDROOT
BRANCH   1   7
ATOM      7  O   LIG d   1      -7.059  93.654 119.505  0.00  0.00    -0.368 OA
BRANCH   7   8
ATOM      8  C   LIG d   1      -8.310  94.157 118.975  0.00  0.00     0.119 C 
BRANCH   8   9
ATOM      9  C   LIG d   1      -8.096  95.640 118.612  0.00  0.00     0.028 C 
ATOM     10  C   LIG d   1      -7.231  96.378 119.648  0.00  0.00     0.006 C 
ENDBRANCH   8   9
BRANCH   8  11
ATOM     11  C   LIG d   1      -9.408  94.156 120.042  0.00  0.00     0.028 C 
ATOM     12  C   LIG d   1      -9.013  93.371 121.303  0.00  0.00     0.006 C 
ENDBRANCH   8  11
ENDBRANCH   7   8
ENDBRANCH   1   7
BRANCH   6  13
ATOM     13  N   LIG d   1      -4.074  94.056 119.410  0.00  0.00    -0.311 N 
ATOM     14  C   LIG d   1      -3.320  94.320 120.475  0.00  0.00     0.210 C 
ATOM     15  C   LIG d   1      -2.684  95.714 120.488  0.00  0.00     0.109 C 
ATOM     16  O   LIG d   1      -3.091  93.521 121.396  0.00  0.00    -0.276 OA
ATOM     17  H   LIG d   1      -4.179  94.749 118.696  0.00  0.00     0.149 HD
ENDBRANCH   6  13
BRANCH   5  18
ATOM     18  N   LIG d   1      -2.724  91.338 119.056  0.00  0.00     0.381 N 
ATOM     19  H   LIG d   1      -2.292  90.599 118.537  0.00  0.00    -0.090 HD
ATOM     20  H   LIG d   1      -2.946  90.992 119.973  0.00  0.00    -0.090 HD
ATOM     21  H   LIG d   1      -2.100  92.111 119.127  0.00  0.00    -0.090 HD
ENDBRANCH   5  18
BRANCH   3  22
ATOM     22  C   LIG d   1      -6.687  89.824 116.832  0.00  0.00     0.382 C 
ATOM     23  O   LIG d   1      -7.901  89.928 116.534  0.00  0.00    -0.241 OA
ATOM     24  O   LIG d   1      -6.039  88.839 116.430  0.00  0.00    -0.241 OA
ENDBRANCH   3  22
TORSDOF 7
ENDMDL
MODEL 6
REMARK VINA RESULT:      -4.4      1.888      4.853
REMARK  7 active torsions:
REMARK  status: ('A' for Active; 'I' for Inactive)
REMARK    1  A    between atoms: C_2  and  C_3 
REMARK    2  A    between atoms: C_3  and  O_6 
REMARK    3  A    between atoms: C_3  and  C_4 
REMARK    4  A    between atoms: C_7  and  O_6 
REMARK    5  A    between atoms: C_9  and  C_10 
REMARK    6  A    between atoms: N_15  and  C_14 
REMARK    7  A    between atoms: N_20  and  C_19 
REMARK       I    between atoms: C_22  and  N_20 
ROOT
ATOM      1  C   LIG d   1      -5.124  91.827 119.589  0.00  0.00     0.161 C 
ATOM      2  C   LIG d   1      -4.086  90.911 119.353  0.00  0.00     0.016 C 
ATOM      3  C   LIG d   1      -4.095  89.983 118.287  0.00  0.00     0.038 C 
ATOM      4  C   LIG d   1      -5.079  90.011 117.287  0.00  0.00     0.028 C 
ATOM      5  C   LIG d   1      -6.409  90.585 117.764  0.00  0.00    -0.047 C 
ATOM      6  C   LIG d   1      -6.152  91.948 118.446  0.00  0.00     0.091 C 
ENDROOT
BRANCH   1   7
ATOM      7  O   LIG d   1      -4.571  93.121 119.905  0.00  0.00    -0.368 OA
BRANCH   7   8
ATOM      8  C   LIG d   1      -4.423  93.424 121.314  0.00  0.00     0.119 C 
BRANCH   8   9
ATOM      9  C   LIG d   1      -5.555  94.396 121.699  0.00  0.00     0.028 C 
ATOM     10  C   LIG d   1      -6.692  93.698 122.464  0.00  0.00     0.006 C 
ENDBRANCH   8   9
BRANCH   8  11
ATOM     11  C   LIG d   1      -3.123  94.187 121.586  0.00  0.00     0.028 C 
ATOM     12  C   LIG d   1      -2.003  93.828 120.597  0.00  0.00     0.006 C 
ENDBRANCH   8  11
ENDBRANCH   7   8
ENDBRANCH   1   7
BRANCH   6  13
ATOM     13  N   LIG d   1      -7.391  92.539 119.016  0.00  0.00    -0.311 N 
ATOM     14  C   LIG d   1      -7.756  93.805 118.821  0.00  0.00     0.210 C 
ATOM     15  C   LIG d   1      -9.059  94.216 119.515  0.00  0.00     0.109 C 
ATOM     16  O   LIG d   1      -7.142  94.617 118.113  0.00  0.00    -0.276 OA
ATOM     17  H   LIG d   1      -7.965  91.941 119.578  0.00  0.00     0.149 HD
ENDBRANCH   6  13
BRANCH   5  18
ATOM     18  N   LIG d   1      -7.298  90.683 116.591  0.00  0.00     0.381 N 
ATOM     19  H   LIG d   1      -7.826  89.839 116.494  0.00  0.00    -0.090 HD
ATOM     20  H   LIG d   1      -6.735  90.800 115.766  0.00  0.00    -0.090 HD
ATOM     21  H   LIG d   1      -7.914  91.460 116.694  0.00  0.00    -0.090 HD
ENDBRANCH   5  18
BRANCH   3  22
ATOM     22  C   LIG d   1      -3.131  88.987 118.234  0.00  0.00     0.382 C 
ATOM     23  O   LIG d   1      -2.467  88.812 117.185  0.00  0.00    -0.241 OA
ATOM     24  O   LIG d   1      -2.950  88.232 119.208  0.00  0.00    -0.241 OA
ENDBRANCH   3  22
TORSDOF 7
ENDMDL
MODEL 7
REMARK VINA RESULT:      -4.3      2.675      4.666
REMARK  7 active torsions:
REMARK  status: ('A' for Active; 'I' for Inactive)
REMARK    1  A    between atoms: C_2  and  C_3 
REMARK    2  A    between atoms: C_3  and  O_6 
REMARK    3  A    between atoms: C_3  and  C_4 
REMARK    4  A    between atoms: C_7  and  O_6 
REMARK    5  A    between atoms: C_9  and  C_10 
REMARK    6  A    between atoms: N_15  and  C_14 
REMARK    7  A    between atoms: N_20  and  C_19 
REMARK       I    between atoms: C_22  and  N_20 
ROOT
ATOM      1  C   LIG d   1      -5.009  92.266 119.276  0.00  0.00     0.161 C 
ATOM      2  C   LIG d   1      -5.227  91.162 118.436  0.00  0.00     0.016 C 
ATOM      3  C   LIG d   1      -6.279  91.097 117.493  0.00  0.00     0.038 C 
ATOM      4  C   LIG d   1      -7.097  92.203 117.218  0.00  0.00     0.028 C 
ATOM      5  C   LIG d   1      -7.234  93.162 118.396  0.00  0.00    -0.047 C 
ATOM      6  C   LIG d   1      -5.823  93.525 118.914  0.00  0.00     0.091 C 
ENDROOT
BRANCH   1   7
ATOM      7  O   LIG d   1      -3.602  92.575 119.321  0.00  0.00    -0.368 OA
BRANCH   7   8
ATOM      8  C   LIG d   1      -2.922  92.272 120.563  0.00  0.00     0.119 C 
BRANCH   8   9
ATOM      9  C   LIG d   1      -1.867  93.371 120.794  0.00  0.00     0.028 C 
ATOM     10  C   LIG d   1      -2.143  94.634 119.961  0.00  0.00     0.006 C 
ENDBRANCH   8   9
BRANCH   8  11
ATOM     11  C   LIG d   1      -2.130  90.965 120.461  0.00  0.00     0.028 C 
ATOM     12  C   LIG d   1      -1.443  90.790 119.097  0.00  0.00     0.006 C 
ENDBRANCH   8  11
ENDBRANCH   7   8
ENDBRANCH   1   7
BRANCH   6  13
ATOM     13  N   LIG d   1      -5.868  94.394 120.119  0.00  0.00    -0.311 N 
ATOM     14  C   LIG d   1      -5.749  95.720 120.072  0.00  0.00     0.210 C 
ATOM     15  C   LIG d   1      -5.803  96.423 121.432  0.00  0.00     0.109 C 
ATOM     16  O   LIG d   1      -5.637  96.383 119.030  0.00  0.00    -0.276 OA
ATOM     17  H   LIG d   1      -5.988  93.941 121.004  0.00  0.00     0.149 HD
ENDBRANCH   6  13
BRANCH   5  18
ATOM     18  N   LIG d   1      -7.998  94.335 117.929  0.00  0.00     0.381 N 
ATOM     19  H   LIG d   1      -7.368  95.055 117.637  0.00  0.00    -0.090 HD
ATOM     20  H   LIG d   1      -8.549  94.688 118.692  0.00  0.00    -0.090 HD
ATOM     21  H   LIG d   1      -8.592  94.075 117.173  0.00  0.00    -0.090 HD
ENDBRANCH   5  18
BRANCH   3  22
ATOM     22  C   LIG d   1      -6.545  89.903 116.840  0.00  0.00     0.382 C 
ATOM     23  O   LIG d   1      -5.599  89.188 116.430  0.00  0.00    -0.241 OA
ATOM     24  O   LIG d   1      -7.719  89.553 116.617  0.00  0.00    -0.241 OA
ENDBRANCH   3  22
TORSDOF 7
ENDMDL
MODEL 8
REMARK VINA RESULT:      -4.2      2.682      4.701
REMARK  7 active torsions:
REMARK  status: ('A' for Active; 'I' for Inactive)
REMARK    1  A    between atoms: C_2  and  C_3 
REMARK    2  A    between atoms: C_3  and  O_6 
REMARK    3  A    between atoms: C_3  and  C_4 
REMARK    4  A    between atoms: C_7  and  O_6 
REMARK    5  A    between atoms: C_9  and  C_10 
REMARK    6  A    between atoms: N_15  and  C_14 
REMARK    7  A    between atoms: N_20  and  C_19 
REMARK       I    between atoms: C_22  and  N_20 
ROOT
ATOM      1  C   LIG d   1      -5.325  92.013 119.623  0.00  0.00     0.161 C 
ATOM      2  C   LIG d   1      -5.476  90.976 118.687  0.00  0.00     0.016 C 
ATOM      3  C   LIG d   1      -6.330  91.061 117.563  0.00  0.00     0.038 C 
ATOM      4  C   LIG d   1      -6.980  92.255 117.214  0.00  0.00     0.028 C 
ATOM      5  C   LIG d   1      -7.253  93.166 118.406  0.00  0.00    -0.047 C 
ATOM      6  C   LIG d   1      -5.941  93.363 119.199  0.00  0.00     0.091 C 
ENDROOT
BRANCH   1   7
ATOM      7  O   LIG d   1      -3.931  92.178 119.948  0.00  0.00    -0.368 OA
BRANCH   7   8
ATOM      8  C   LIG d   1      -3.015  92.217 118.826  0.00  0.00     0.119 C 
BRANCH   8   9
ATOM      9  C   LIG d   1      -1.878  91.220 119.122  0.00  0.00     0.028 C 
ATOM     10  C   LIG d   1      -2.077  90.482 120.457  0.00  0.00     0.006 C 
ENDBRANCH   8   9
BRANCH   8  11
ATOM     11  C   LIG d   1      -2.335  93.584 118.708  0.00  0.00     0.028 C 
ATOM     12  C   LIG d   1      -0.857  93.552 119.127  0.00  0.00     0.006 C 
ENDBRANCH   8  11
ENDBRANCH   7   8
ENDBRANCH   1   7
BRANCH   6  13
ATOM     13  N   LIG d   1      -6.137  94.174 120.428  0.00  0.00    -0.311 N 
ATOM     14  C   LIG d   1      -7.009  93.858 121.384  0.00  0.00     0.210 C 
ATOM     15  C   LIG d   1      -7.068  94.840 122.557  0.00  0.00     0.109 C 
ATOM     16  O   LIG d   1      -7.717  92.839 121.386  0.00  0.00    -0.276 OA
ATOM     17  H   LIG d   1      -5.581  95.001 120.523  0.00  0.00     0.149 HD
ENDBRANCH   6  13
BRANCH   5  18
ATOM     18  N   LIG d   1      -7.807  94.430 117.882  0.00  0.00     0.381 N 
ATOM     19  H   LIG d   1      -8.582  94.718 118.445  0.00  0.00    -0.090 HD
ATOM     20  H   LIG d   1      -8.136  94.277 116.946  0.00  0.00    -0.090 HD
ATOM     21  H   LIG d   1      -7.105  95.136 117.884  0.00  0.00    -0.090 HD
ENDBRANCH   5  18
BRANCH   3  22
ATOM     22  C   LIG d   1      -6.571  89.931 116.797  0.00  0.00     0.382 C 
ATOM     23  O   LIG d   1      -5.615  89.207 116.430  0.00  0.00    -0.241 OA
ATOM     24  O   LIG d   1      -7.729  89.652 116.430  0.00  0.00    -0.241 OA
ENDBRANCH   3  22
TORSDOF 7
ENDMDL
MODEL 9
REMARK VINA RESULT:      -4.1      3.019      4.923
REMARK  7 active torsions:
REMARK  status: ('A' for Active; 'I' for Inactive)
REMARK    1  A    between atoms: C_2  and  C_3 
REMARK    2  A    between atoms: C_3  and  O_6 
REMARK    3  A    between atoms: C_3  and  C_4 
REMARK    4  A    between atoms: C_7  and  O_6 
REMARK    5  A    between atoms: C_9  and  C_10 
REMARK    6  A    between atoms: N_15  and  C_14 
REMARK    7  A    between atoms: N_20  and  C_19 
REMARK       I    between atoms: C_22  and  N_20 
ROOT
ATOM      1  C   LIG d   1      -5.823  93.010 120.027  0.00  0.00     0.161 C 
ATOM      2  C   LIG d   1      -7.204  92.753 120.012  0.00  0.00     0.016 C 
ATOM      3  C   LIG d   1      -8.167  93.639 120.546  0.00  0.00     0.038 C 
ATOM      4  C   LIG d   1      -7.823  94.922 121.000  0.00  0.00     0.028 C 
ATOM      5  C   LIG d   1      -6.385  95.023 121.498  0.00  0.00    -0.047 C 
ATOM      6  C   LIG d   1      -5.438  94.453 120.417  0.00  0.00     0.091 C 
ENDROOT
BRANCH   1   7
ATOM      7  O   LIG d   1      -5.248  92.666 118.751  0.00  0.00    -0.368 OA
BRANCH   7   8
ATOM      8  C   LIG d   1      -5.153  91.250 118.456  0.00  0.00     0.119 C 
BRANCH   8   9
ATOM      9  C   LIG d   1      -3.669  90.853 118.566  0.00  0.00     0.028 C 
ATOM     10  C   LIG d   1      -2.730  91.917 117.972  0.00  0.00     0.006 C 
ENDBRANCH   8   9
BRANCH   8  11
ATOM     11  C   LIG d   1      -5.545  90.957 117.005  0.00  0.00     0.028 C 
ATOM     12  C   LIG d   1      -6.765  91.768 116.541  0.00  0.00     0.006 C 
ENDBRANCH   8  11
ENDBRANCH   7   8
ENDBRANCH   1   7
BRANCH   6  13
ATOM     13  N   LIG d   1      -4.019  94.437 120.858  0.00  0.00    -0.311 N 
ATOM     14  C   LIG d   1      -3.021  94.939 120.133  0.00  0.00     0.210 C 
ATOM     15  C   LIG d   1      -1.631  94.801 120.764  0.00  0.00     0.109 C 
ATOM     16  O   LIG d   1      -3.158  95.515 119.043  0.00  0.00    -0.276 OA
ATOM     17  H   LIG d   1      -3.822  94.016 121.745  0.00  0.00     0.149 HD
ENDBRANCH   6  13
BRANCH   5  18
ATOM     18  N   LIG d   1      -6.120  96.440 121.809  0.00  0.00     0.381 N 
ATOM     19  H   LIG d   1      -6.888  96.823 122.323  0.00  0.00    -0.090 HD
ATOM     20  H   LIG d   1      -6.031  96.951 120.949  0.00  0.00    -0.090 HD
ATOM     21  H   LIG d   1      -5.281  96.521 122.341  0.00  0.00    -0.090 HD
ENDBRANCH   5  18
BRANCH   3  22
ATOM     22  C   LIG d   1      -9.486  93.230 120.668  0.00  0.00     0.382 C 
ATOM     23  O   LIG d   1     -10.324  93.544 119.789  0.00  0.00    -0.241 OA
ATOM     24  O   LIG d   1      -9.858  92.587 121.668  0.00  0.00    -0.241 OA
ENDBRANCH   3  22
TORSDOF 7
ENDMDL
