MODEL 1
REMARK VINA RESULT:      -4.4      0.000      0.000
REMARK  7 active torsions:
REMARK  status: ('A' for Active; 'I' for Inactive)
REMARK    1  A    between atoms: C_2  and  C_3 
REMARK    2  A    between atoms: C_3  and  O_6 
REMARK    3  A    between atoms: C_3  and  C_4 
REMARK    4  A    between atoms: C_7  and  O_6 
REMARK    5  A    between atoms: C_9  and  C_10 
REMARK    6  A    between atoms: N_15  and  C_14 
REMARK    7  A    between atoms: N_20  and  C_19 
REMARK       I    between atoms: C_22  and  N_20 
ROOT
ATOM      1  C   LIG d   1      -0.303  91.275 117.117  0.00  0.00     0.161 C 
ATOM      2  C   LIG d   1       1.100  91.249 117.171  0.00  0.00     0.016 C 
ATOM      3  C   LIG d   1       1.856  91.968 118.125  0.00  0.00     0.038 C 
ATOM      4  C   LIG d   1       1.249  92.648 119.192  0.00  0.00     0.028 C 
ATOM      5  C   LIG d   1      -0.169  93.117 118.883  0.00  0.00    -0.047 C 
ATOM      6  C   LIG d   1      -0.986  91.922 118.341  0.00  0.00     0.091 C 
ENDROOT
BRANCH   1   7
ATOM      7  O   LIG d   1      -0.809  89.942 116.908  0.00  0.00    -0.368 OA
BRANCH   7   8
ATOM      8  C   LIG d   1      -1.073  89.165 118.103  0.00  0.00     0.119 C 
BRANCH   8   9
ATOM      9  C   LIG d   1      -0.206  87.894 118.030  0.00  0.00     0.028 C 
ATOM     10  C   LIG d   1       0.992  87.945 118.992  0.00  0.00     0.006 C 
ENDBRANCH   8   9
BRANCH   8  11
ATOM     11  C   LIG d   1      -2.521  88.667 118.135  0.00  0.00     0.028 C 
ATOM     12  C   LIG d   1      -2.989  88.285 119.548  0.00  0.00     0.006 C 
ENDBRANCH   8  11
ENDBRANCH   7   8
ENDBRANCH   1   7
BRANCH   6  13
ATOM     13  N   LIG d   1      -2.361  92.313 117.934  0.00  0.00    -0.311 N 
ATOM     14  C   LIG d   1      -3.415  92.233 118.744  0.00  0.00     0.210 C 
ATOM     15  C   LIG d   1      -4.745  92.667 118.119  0.00  0.00     0.109 C 
ATOM     16  O   LIG d   1      -3.370  91.874 119.930  0.00  0.00    -0.276 OA
ATOM     17  H   LIG d   1      -2.483  92.645 116.998  0.00  0.00     0.149 HD
ENDBRANCH   6  13
BRANCH   5  18
ATOM     18  N   LIG d   1      -0.730  93.686 120.123  0.00  0.00     0.381 N 
ATOM     19  H   LIG d   1      -1.370  94.421 119.899  0.00  0.00    -0.090 HD
ATOM     20  H   LIG d   1       0.018  94.074 120.670  0.00  0.00    -0.090 HD
ATOM     21  H   LIG d   1      -1.198  92.976 120.643  0.00  0.00    -0.090 HD
ENDBRANCH   5  18
BRANCH   3  22
ATOM     22  C   LIG d   1       3.234  92.045 117.994  0.00  0.00     0.382 C 
ATOM     23  O   LIG d   1       3.745  92.279 116.872  0.00  0.00    -0.241 OA
ATOM     24  O   LIG d   1       3.974  91.840 118.974  0.00  0.00    -0.241 OA
ENDBRANCH   3  22
TORSDOF 7
ENDMDL
MODEL 2
REMARK VINA RESULT:      -4.2      3.687      7.662
REMARK  7 active torsions:
REMARK  status: ('A' for Active; 'I' for Inactive)
REMARK    1  A    between atoms: C_2  and  C_3 
REMARK    2  A    between atoms: C_3  and  O_6 
REMARK    3  A    between atoms: C_3  and  C_4 
REMARK    4  A    between atoms: C_7  and  O_6 
REMARK    5  A    between atoms: C_9  and  C_10 
REMARK    6  A    between atoms: N_15  and  C_14 
REMARK    7  A    between atoms: N_20  and  C_19 
REMARK       I    between atoms: C_22  and  N_20 
ROOT
ATOM      1  C   LIG d   1      -4.915  93.823 119.175  0.00  0.00     0.161 C 
ATOM      2  C   LIG d   1      -6.133  94.512 119.047  0.00  0.00     0.016 C 
ATOM      3  C   LIG d   1      -7.174  94.099 118.184  0.00  0.00     0.038 C 
ATOM      4  C   LIG d   1      -7.127  92.876 117.498  0.00  0.00     0.028 C 
ATOM      5  C   LIG d   1      -5.708  92.399 117.207  0.00  0.00    -0.047 C 
ATOM      6  C   LIG d   1      -4.890  92.427 118.518  0.00  0.00     0.091 C 
ENDROOT
BRANCH   1   7
ATOM      7  O   LIG d   1      -4.551  93.728 120.566  0.00  0.00    -0.368 OA
BRANCH   7   8
ATOM      8  C   LIG d   1      -5.056  92.573 121.280  0.00  0.00     0.119 C 
BRANCH   8   9
ATOM      9  C   LIG d   1      -6.034  93.085 122.355  0.00  0.00     0.028 C 
ATOM     10  C   LIG d   1      -7.495  92.725 122.039  0.00  0.00     0.006 C 
ENDBRANCH   8   9
BRANCH   8  11
ATOM     11  C   LIG d   1      -3.940  91.864 122.053  0.00  0.00     0.028 C 
ATOM     12  C   LIG d   1      -2.559  92.497 121.820  0.00  0.00     0.006 C 
ENDBRANCH   8  11
ENDBRANCH   7   8
ENDBRANCH   1   7
BRANCH   6  13
ATOM     13  N   LIG d   1      -3.467  92.055 118.306  0.00  0.00    -0.311 N 
ATOM     14  C   LIG d   1      -3.001  90.818 118.470  0.00  0.00     0.210 C 
ATOM     15  C   LIG d   1      -1.498  90.655 118.219  0.00  0.00     0.109 C 
ATOM     16  O   LIG d   1      -3.695  89.834 118.767  0.00  0.00    -0.276 OA
ATOM     17  H   LIG d   1      -2.840  92.786 118.033  0.00  0.00     0.149 HD
ENDBRANCH   6  13
BRANCH   5  18
ATOM     18  N   LIG d   1      -5.804  91.052 116.613  0.00  0.00     0.381 N 
ATOM     19  H   LIG d   1      -6.687  90.642 116.845  0.00  0.00    -0.090 HD
ATOM     20  H   LIG d   1      -5.077  90.475 116.998  0.00  0.00    -0.090 HD
ATOM     21  H   LIG d   1      -5.705  91.108 115.623  0.00  0.00    -0.090 HD
ENDBRANCH   5  18
BRANCH   3  22
ATOM     22  C   LIG d   1      -8.261  94.933 117.970  0.00  0.00     0.382 C 
ATOM     23  O   LIG d   1      -8.103  96.178 117.959  0.00  0.00    -0.241 OA
ATOM     24  O   LIG d   1      -9.404  94.458 117.832  0.00  0.00    -0.241 OA
ENDBRANCH   3  22
TORSDOF 7
ENDMDL
MODEL 3
REMARK VINA RESULT:      -4.1      3.766      7.375
REMARK  7 active torsions:
REMARK  status: ('A' for Active; 'I' for Inactive)
REMARK    1  A    between atoms: C_2  and  C_3 
REMARK    2  A    between atoms: C_3  and  O_6 
REMARK    3  A    between atoms: C_3  and  C_4 
REMARK    4  A    between atoms: C_7  and  O_6 
REMARK    5  A    between atoms: C_9  and  C_10 
REMARK    6  A    between atoms: N_15  and  C_14 
REMARK    7  A    between atoms: N_20  and  C_19 
REMARK       I    between atoms: C_22  and  N_20 
ROOT
ATOM      1  C   LIG d   1      -4.725  93.441 119.111  0.00  0.00     0.161 C 
ATOM      2  C   LIG d   1      -5.888  94.225 119.024  0.00  0.00     0.016 C 
ATOM      3  C   LIG d   1      -6.961  93.932 118.151  0.00  0.00     0.038 C 
ATOM      4  C   LIG d   1      -7.009  92.742 117.409  0.00  0.00     0.028 C 
ATOM      5  C   LIG d   1      -5.631  92.174 117.085  0.00  0.00    -0.047 C 
ATOM      6  C   LIG d   1      -4.808  92.079 118.390  0.00  0.00     0.091 C 
ENDROOT
BRANCH   1   7
ATOM      7  O   LIG d   1      -4.363  93.255 120.494  0.00  0.00    -0.368 OA
BRANCH   7   8
ATOM      8  C   LIG d   1      -3.073  93.781 120.891  0.00  0.00     0.119 C 
BRANCH   8   9
ATOM      9  C   LIG d   1      -2.332  92.663 121.650  0.00  0.00     0.028 C 
ATOM     10  C   LIG d   1      -3.203  91.412 121.850  0.00  0.00     0.006 C 
ENDBRANCH   8   9
BRANCH   8  11
ATOM     11  C   LIG d   1      -3.224  94.925 121.899  0.00  0.00     0.028 C 
ATOM     12  C   LIG d   1      -4.576  94.901 122.629  0.00  0.00     0.006 C 
ENDBRANCH   8  11
ENDBRANCH   7   8
ENDBRANCH   1   7
BRANCH   6  13
ATOM     13  N   LIG d   1      -3.418  91.612 118.151  0.00  0.00    -0.311 N 
ATOM     14  C   LIG d   1      -3.033  90.346 118.305  0.00  0.00     0.210 C 
ATOM     15  C   LIG d   1      -1.550  90.082 118.026  0.00  0.00     0.109 C 
ATOM     16  O   LIG d   1      -3.786  89.411 118.616  0.00  0.00    -0.276 OA
ATOM     17  H   LIG d   1      -2.748  92.300 117.866  0.00  0.00     0.149 HD
ENDBRANCH   6  13
BRANCH   5  18
ATOM     18  N   LIG d   1      -5.830  90.867 116.431  0.00  0.00     0.381 N 
ATOM     19  H   LIG d   1      -5.695  90.132 117.095  0.00  0.00    -0.090 HD
ATOM     20  H   LIG d   1      -5.148  90.762 115.701  0.00  0.00    -0.090 HD
ATOM     21  H   LIG d   1      -6.748  90.814 116.048  0.00  0.00    -0.090 HD
ENDBRANCH   5  18
BRANCH   3  22
ATOM     22  C   LIG d   1      -7.982  94.854 117.984  0.00  0.00     0.382 C 
ATOM     23  O   LIG d   1      -7.718  96.080 117.931  0.00  0.00    -0.241 OA
ATOM     24  O   LIG d   1      -9.169  94.480 117.930  0.00  0.00    -0.241 OA
ENDBRANCH   3  22
TORSDOF 7
ENDMDL
MODEL 4
REMARK VINA RESULT:      -4.0      3.372      6.592
REMARK  7 active torsions:
REMARK  status: ('A' for Active; 'I' for Inactive)
REMARK    1  A    between atoms: C_2  and  C_3 
REMARK    2  A    between atoms: C_3  and  O_6 
REMARK    3  A    between atoms: C_3  and  C_4 
REMARK    4  A    between atoms: C_7  and  O_6 
REMARK    5  A    between atoms: C_9  and  C_10 
REMARK    6  A    between atoms: N_15  and  C_14 
REMARK    7  A    between atoms: N_20  and  C_19 
REMARK       I    between atoms: C_22  and  N_20 
ROOT
ATOM      1  C   LIG d   1      -4.040  92.727 119.371  0.00  0.00     0.161 C 
ATOM      2  C   LIG d   1      -5.011  93.724 119.564  0.00  0.00     0.016 C 
ATOM      3  C   LIG d   1      -6.189  93.823 118.787  0.00  0.00     0.038 C 
ATOM      4  C   LIG d   1      -6.550  92.836 117.859  0.00  0.00     0.028 C 
ATOM      5  C   LIG d   1      -5.357  92.085 117.277  0.00  0.00    -0.047 C 
ATOM      6  C   LIG d   1      -4.471  91.577 118.437  0.00  0.00     0.091 C 
ENDROOT
BRANCH   1   7
ATOM      7  O   LIG d   1      -3.616  92.205 120.646  0.00  0.00    -0.368 OA
BRANCH   7   8
ATOM      8  C   LIG d   1      -2.267  92.540 121.055  0.00  0.00     0.119 C 
BRANCH   8   9
ATOM      9  C   LIG d   1      -1.600  93.286 119.883  0.00  0.00     0.028 C 
ATOM     10  C   LIG d   1      -0.311  92.596 119.405  0.00  0.00     0.006 C 
ENDBRANCH   8   9
BRANCH   8  11
ATOM     11  C   LIG d   1      -1.421  91.281 121.268  0.00  0.00     0.028 C 
ATOM     12  C   LIG d   1      -2.219  90.126 121.893  0.00  0.00     0.006 C 
ENDBRANCH   8  11
ENDBRANCH   7   8
ENDBRANCH   1   7
BRANCH   6  13
ATOM     13  N   LIG d   1      -3.237  90.904 117.955  0.00  0.00    -0.311 N 
ATOM     14  C   LIG d   1      -2.927  89.642 118.248  0.00  0.00     0.210 C 
ATOM     15  C   LIG d   1      -1.599  89.149 117.665  0.00  0.00     0.109 C 
ATOM     16  O   LIG d   1      -3.643  88.873 118.908  0.00  0.00    -0.276 OA
ATOM     17  H   LIG d   1      -2.614  91.444 117.386  0.00  0.00     0.149 HD
ENDBRANCH   6  13
BRANCH   5  18
ATOM     18  N   LIG d   1      -5.884  90.997 116.432  0.00  0.00     0.381 N 
ATOM     19  H   LIG d   1      -6.866  91.124 116.290  0.00  0.00    -0.090 HD
ATOM     20  H   LIG d   1      -5.744  90.122 116.905  0.00  0.00    -0.090 HD
ATOM     21  H   LIG d   1      -5.412  90.988 115.555  0.00  0.00    -0.090 HD
ENDBRANCH   5  18
BRANCH   3  22
ATOM     22  C   LIG d   1      -6.999  94.942 118.909  0.00  0.00     0.382 C 
ATOM     23  O   LIG d   1      -7.098  95.527 120.014  0.00  0.00    -0.241 OA
ATOM     24  O   LIG d   1      -7.667  95.346 117.938  0.00  0.00    -0.241 OA
ENDBRANCH   3  22
TORSDOF 7
ENDMDL
MODEL 5
REMARK VINA RESULT:      -4.0      3.433      6.691
REMARK  7 active torsions:
REMARK  status: ('A' for Active; 'I' for Inactive)
REMARK    1  A    between atoms: C_2  and  C_3 
REMARK    2  A    between atoms: C_3  and  O_6 
REMARK    3  A    between atoms: C_3  and  C_4 
REMARK    4  A    between atoms: C_7  and  O_6 
REMARK    5  A    between atoms: C_9  and  C_10 
REMARK    6  A    between atoms: N_15  and  C_14 
REMARK    7  A    between atoms: N_20  and  C_19 
REMARK       I    between atoms: C_22  and  N_20 
ROOT
ATOM      1  C   LIG d   1      -4.441  92.960 118.950  0.00  0.00     0.161 C 
ATOM      2  C   LIG d   1      -5.155  92.180 118.026  0.00  0.00     0.016 C 
ATOM      3  C   LIG d   1      -6.418  92.549 117.508  0.00  0.00     0.038 C 
ATOM      4  C   LIG d   1      -6.987  93.805 117.766  0.00  0.00     0.028 C 
ATOM      5  C   LIG d   1      -6.539  94.412 119.091  0.00  0.00    -0.047 C 
ATOM      6  C   LIG d   1      -4.995  94.385 119.158  0.00  0.00     0.091 C 
ENDROOT
BRANCH   1   7
ATOM      7  O   LIG d   1      -3.051  93.013 118.574  0.00  0.00    -0.368 OA
BRANCH   7   8
ATOM      8  C   LIG d   1      -2.263  91.836 118.879  0.00  0.00     0.119 C 
BRANCH   8   9
ATOM      9  C   LIG d   1      -2.053  91.802 120.405  0.00  0.00     0.028 C 
ATOM     10  C   LIG d   1      -0.780  92.547 120.840  0.00  0.00     0.006 C 
ENDBRANCH   8   9
BRANCH   8  11
ATOM     11  C   LIG d   1      -0.857  91.935 118.279  0.00  0.00     0.028 C 
ATOM     12  C   LIG d   1      -0.454  90.676 117.495  0.00  0.00     0.006 C 
ENDBRANCH   8  11
ENDBRANCH   7   8
ENDBRANCH   1   7
BRANCH   6  13
ATOM     13  N   LIG d   1      -4.475  94.885 120.458  0.00  0.00    -0.311 N 
ATOM     14  C   LIG d   1      -4.075  96.140 120.654  0.00  0.00     0.210 C 
ATOM     15  C   LIG d   1      -3.555  96.440 122.063  0.00  0.00     0.109 C 
ATOM     16  O   LIG d   1      -4.130  97.041 119.803  0.00  0.00    -0.276 OA
ATOM     17  H   LIG d   1      -4.425  94.228 121.212  0.00  0.00     0.149 HD
ENDBRANCH   6  13
BRANCH   5  18
ATOM     18  N   LIG d   1      -7.097  95.775 119.168  0.00  0.00     0.381 N 
ATOM     19  H   LIG d   1      -8.005  95.746 119.587  0.00  0.00    -0.090 HD
ATOM     20  H   LIG d   1      -7.192  96.141 118.236  0.00  0.00    -0.090 HD
ATOM     21  H   LIG d   1      -6.495  96.361 119.702  0.00  0.00    -0.090 HD
ENDBRANCH   5  18
BRANCH   3  22
ATOM     22  C   LIG d   1      -7.144  91.639 116.754  0.00  0.00     0.382 C 
ATOM     23  O   LIG d   1      -8.328  91.897 116.430  0.00  0.00    -0.241 OA
ATOM     24  O   LIG d   1      -6.644  90.545 116.430  0.00  0.00    -0.241 OA
ENDBRANCH   3  22
TORSDOF 7
ENDMDL
MODEL 6
REMARK VINA RESULT:      -3.9      2.176      4.121
REMARK  7 active torsions:
REMARK  status: ('A' for Active; 'I' for Inactive)
REMARK    1  A    between atoms: C_2  and  C_3 
REMARK    2  A    between atoms: C_3  and  O_6 
REMARK    3  A    between atoms: C_3  and  C_4 
REMARK    4  A    between atoms: C_7  and  O_6 
REMARK    5  A    between atoms: C_9  and  C_10 
REMARK    6  A    between atoms: N_15  and  C_14 
REMARK    7  A    between atoms: N_20  and  C_19 
REMARK       I    between atoms: C_22  and  N_20 
ROOT
ATOM      1  C   LIG d   1      -0.049  92.699 119.197  0.00  0.00     0.161 C 
ATOM      2  C   LIG d   1       1.189  92.519 118.557  0.00  0.00     0.016 C 
ATOM      3  C   LIG d   1       1.407  91.565 117.537  0.00  0.00     0.038 C 
ATOM      4  C   LIG d   1       0.354  90.824 116.978  0.00  0.00     0.028 C 
ATOM      5  C   LIG d   1      -0.813  90.612 117.936  0.00  0.00    -0.047 C 
ATOM      6  C   LIG d   1      -1.235  91.978 118.524  0.00  0.00     0.091 C 
ENDROOT
BRANCH   1   7
ATOM      7  O   LIG d   1      -0.329  94.106 119.332  0.00  0.00    -0.368 OA
BRANCH   7   8
ATOM      8  C   LIG d   1      -0.420  94.611 120.687  0.00  0.00     0.119 C 
BRANCH   8   9
ATOM      9  C   LIG d   1       0.746  95.598 120.892  0.00  0.00     0.028 C 
ATOM     10  C   LIG d   1       1.967  94.936 121.550  0.00  0.00     0.006 C 
ENDBRANCH   8   9
BRANCH   8  11
ATOM     11  C   LIG d   1      -0.192  93.497 121.713  0.00  0.00     0.028 C 
ATOM     12  C   LIG d   1      -1.352  93.362 122.713  0.00  0.00     0.006 C 
ENDBRANCH   8  11
ENDBRANCH   7   8
ENDBRANCH   1   7
BRANCH   6  13
ATOM     13  N   LIG d   1      -2.316  91.850 119.535  0.00  0.00    -0.311 N 
ATOM     14  C   LIG d   1      -3.511  92.424 119.408  0.00  0.00     0.210 C 
ATOM     15  C   LIG d   1      -4.473  92.182 120.576  0.00  0.00     0.109 C 
ATOM     16  O   LIG d   1      -3.877  93.085 118.425  0.00  0.00    -0.276 OA
ATOM     17  H   LIG d   1      -2.115  91.305 120.351  0.00  0.00     0.149 HD
ENDBRANCH   6  13
BRANCH   5  18
ATOM     18  N   LIG d   1      -1.893  89.947 117.183  0.00  0.00     0.381 N 
ATOM     19  H   LIG d   1      -1.820  88.955 117.290  0.00  0.00    -0.090 HD
ATOM     20  H   LIG d   1      -1.791  90.167 116.207  0.00  0.00    -0.090 HD
ATOM     21  H   LIG d   1      -2.780  90.261 117.510  0.00  0.00    -0.090 HD
ENDBRANCH   5  18
BRANCH   3  22
ATOM     22  C   LIG d   1       2.696  91.315 117.093  0.00  0.00     0.382 C 
ATOM     23  O   LIG d   1       3.466  92.272 116.833  0.00  0.00    -0.241 OA
ATOM     24  O   LIG d   1       3.085  90.147 116.906  0.00  0.00    -0.241 OA
ENDBRANCH   3  22
TORSDOF 7
ENDMDL
MODEL 7
REMARK VINA RESULT:      -3.8      4.463      7.148
REMARK  7 active torsions:
REMARK  status: ('A' for Active; 'I' for Inactive)
REMARK    1  A    between atoms: C_2  and  C_3 
REMARK    2  A    between atoms: C_3  and  O_6 
REMARK    3  A    between atoms: C_3  and  C_4 
REMARK    4  A    between atoms: C_7  and  O_6 
REMARK    5  A    between atoms: C_9  and  C_10 
REMARK    6  A    between atoms: N_15  and  C_14 
REMARK    7  A    between atoms: N_20  and  C_19 
REMARK       I    between atoms: C_22  and  N_20 
ROOT
ATOM      1  C   LIG d   1      -5.766  93.017 120.206  0.00  0.00     0.161 C 
ATOM      2  C   LIG d   1      -4.675  92.164 119.969  0.00  0.00     0.016 C 
ATOM      3  C   LIG d   1      -4.410  91.569 118.714  0.00  0.00     0.038 C 
ATOM      4  C   LIG d   1      -5.138  91.908 117.564  0.00  0.00     0.028 C 
ATOM      5  C   LIG d   1      -6.559  92.375 117.863  0.00  0.00    -0.047 C 
ATOM      6  C   LIG d   1      -6.507  93.486 118.936  0.00  0.00     0.091 C 
ENDROOT
BRANCH   1   7
ATOM      7  O   LIG d   1      -5.340  94.151 120.985  0.00  0.00    -0.368 OA
BRANCH   7   8
ATOM      8  C   LIG d   1      -4.585  95.165 120.276  0.00  0.00     0.119 C 
BRANCH   8   9
ATOM      9  C   LIG d   1      -3.198  95.260 120.942  0.00  0.00     0.028 C 
ATOM     10  C   LIG d   1      -3.288  95.347 122.474  0.00  0.00     0.006 C 
ENDBRANCH   8   9
BRANCH   8  11
ATOM     11  C   LIG d   1      -5.214  96.551 120.449  0.00  0.00     0.028 C 
ATOM     12  C   LIG d   1      -5.073  97.430 119.196  0.00  0.00     0.006 C 
ENDBRANCH   8  11
ENDBRANCH   7   8
ENDBRANCH   1   7
BRANCH   6  13
ATOM     13  N   LIG d   1      -7.861  93.941 119.347  0.00  0.00    -0.311 N 
ATOM     14  C   LIG d   1      -8.454  95.023 118.847  0.00  0.00     0.210 C 
ATOM     15  C   LIG d   1      -9.841  95.325 119.423  0.00  0.00     0.109 C 
ATOM     16  O   LIG d   1      -7.976  95.745 117.958  0.00  0.00    -0.276 OA
ATOM     17  H   LIG d   1      -8.333  93.396 120.042  0.00  0.00     0.149 HD
ENDBRANCH   6  13
BRANCH   5  18
ATOM     18  N   LIG d   1      -7.156  92.826 116.591  0.00  0.00     0.381 N 
ATOM     19  H   LIG d   1      -8.153  92.768 116.646  0.00  0.00    -0.090 HD
ATOM     20  H   LIG d   1      -6.844  92.221 115.853  0.00  0.00    -0.090 HD
ATOM     21  H   LIG d   1      -6.880  93.765 116.400  0.00  0.00    -0.090 HD
ENDBRANCH   5  18
BRANCH   3  22
ATOM     22  C   LIG d   1      -3.431  90.592 118.610  0.00  0.00     0.382 C 
ATOM     23  O   LIG d   1      -3.747  89.419 118.295  0.00  0.00    -0.241 OA
ATOM     24  O   LIG d   1      -2.243  90.858 118.870  0.00  0.00    -0.241 OA
ENDBRANCH   3  22
TORSDOF 7
ENDMDL
MODEL 8
REMARK VINA RESULT:      -3.8      3.796      8.104
REMARK  7 active torsions:
REMARK  status: ('A' for Active; 'I' for Inactive)
REMARK    1  A    between atoms: C_2  and  C_3 
REMARK    2  A    between atoms: C_3  and  O_6 
REMARK    3  A    between atoms: C_3  and  C_4 
REMARK    4  A    between atoms: C_7  and  O_6 
REMARK    5  A    between atoms: C_9  and  C_10 
REMARK    6  A    between atoms: N_15  and  C_14 
REMARK    7  A    between atoms: N_20  and  C_19 
REMARK       I    between atoms: C_22  and  N_20 
ROOT
ATOM      1  C   LIG d   1      -5.010  93.892 119.004  0.00  0.00     0.161 C 
ATOM      2  C   LIG d   1      -6.297  94.448 118.925  0.00  0.00     0.016 C 
ATOM      3  C   LIG d   1      -7.326  93.916 118.115  0.00  0.00     0.038 C 
ATOM      4  C   LIG d   1      -7.181  92.695 117.439  0.00  0.00     0.028 C 
ATOM      5  C   LIG d   1      -5.735  92.364 117.089  0.00  0.00    -0.047 C 
ATOM      6  C   LIG d   1      -4.867  92.497 118.361  0.00  0.00     0.091 C 
ENDROOT
BRANCH   1   7
ATOM      7  O   LIG d   1      -4.576  93.857 120.379  0.00  0.00    -0.368 OA
BRANCH   7   8
ATOM      8  C   LIG d   1      -5.127  94.877 121.247  0.00  0.00     0.119 C 
BRANCH   8   9
ATOM      9  C   LIG d   1      -4.003  95.889 121.545  0.00  0.00     0.028 C 
ATOM     10  C   LIG d   1      -4.068  97.124 120.631  0.00  0.00     0.006 C 
ENDBRANCH   8   9
BRANCH   8  11
ATOM     11  C   LIG d   1      -5.522  94.297 122.608  0.00  0.00     0.028 C 
ATOM     12  C   LIG d   1      -5.860  95.382 123.643  0.00  0.00     0.006 C 
ENDBRANCH   8  11
ENDBRANCH   7   8
ENDBRANCH   1   7
BRANCH   6  13
ATOM     13  N   LIG d   1      -3.423  92.272 118.089  0.00  0.00    -0.311 N 
ATOM     14  C   LIG d   1      -2.681  91.388 118.753  0.00  0.00     0.210 C 
ATOM     15  C   LIG d   1      -1.210  91.330 118.328  0.00  0.00     0.109 C 
ATOM     16  O   LIG d   1      -3.108  90.624 119.632  0.00  0.00    -0.276 OA
ATOM     17  H   LIG d   1      -3.003  92.828 117.370  0.00  0.00     0.149 HD
ENDBRANCH   6  13
BRANCH   5  18
ATOM     18  N   LIG d   1      -5.714  91.006 116.514  0.00  0.00     0.381 N 
ATOM     19  H   LIG d   1      -6.511  90.492 116.833  0.00  0.00    -0.090 HD
ATOM     20  H   LIG d   1      -4.886  90.532 116.829  0.00  0.00    -0.090 HD
ATOM     21  H   LIG d   1      -5.719  91.057 115.519  0.00  0.00    -0.090 HD
ENDBRANCH   5  18
BRANCH   3  22
ATOM     22  C   LIG d   1      -8.503  94.629 117.942  0.00  0.00     0.382 C 
ATOM     23  O   LIG d   1      -9.508  94.068 117.443  0.00  0.00    -0.241 OA
ATOM     24  O   LIG d   1      -8.558  95.838 118.237  0.00  0.00    -0.241 OA
ENDBRANCH   3  22
TORSDOF 7
ENDMDL
MODEL 9
REMARK VINA RESULT:      -3.8      2.370      4.455
REMARK  7 active torsions:
REMARK  status: ('A' for Active; 'I' for Inactive)
REMARK    1  A    between atoms: C_2  and  C_3 
REMARK    2  A    between atoms: C_3  and  O_6 
REMARK    3  A    between atoms: C_3  and  C_4 
REMARK    4  A    between atoms: C_7  and  O_6 
REMARK    5  A    between atoms: C_9  and  C_10 
REMARK    6  A    between atoms: N_15  and  C_14 
REMARK    7  A    between atoms: N_20  and  C_19 
REMARK       I    between atoms: C_22  and  N_20 
ROOT
ATOM      1  C   LIG d   1      -0.607  91.181 120.092  0.00  0.00     0.161 C 
ATOM      2  C   LIG d   1      -0.778  92.517 120.489  0.00  0.00     0.016 C 
ATOM      3  C   LIG d   1      -0.075  93.598 119.907  0.00  0.00     0.038 C 
ATOM      4  C   LIG d   1       0.741  93.430 118.778  0.00  0.00     0.028 C 
ATOM      5  C   LIG d   1       1.333  92.029 118.662  0.00  0.00    -0.047 C 
ATOM      6  C   LIG d   1       0.195  90.991 118.787  0.00  0.00     0.091 C 
ENDROOT
BRANCH   1   7
ATOM      7  O   LIG d   1      -1.891  90.534 119.989  0.00  0.00    -0.368 OA
BRANCH   7   8
ATOM      8  C   LIG d   1      -2.573  90.669 118.718  0.00  0.00     0.119 C 
BRANCH   8   9
ATOM      9  C   LIG d   1      -3.917  91.374 118.986  0.00  0.00     0.028 C 
ATOM     10  C   LIG d   1      -3.944  92.812 118.441  0.00  0.00     0.006 C 
ENDBRANCH   8   9
BRANCH   8  11
ATOM     11  C   LIG d   1      -2.941  89.301 118.135  0.00  0.00     0.028 C 
ATOM     12  C   LIG d   1      -2.686  88.147 119.117  0.00  0.00     0.006 C 
ENDBRANCH   8  11
ENDBRANCH   7   8
ENDBRANCH   1   7
BRANCH   6  13
ATOM     13  N   LIG d   1       0.699  89.593 118.769  0.00  0.00    -0.311 N 
ATOM     14  C   LIG d   1       0.737  88.842 117.669  0.00  0.00     0.210 C 
ATOM     15  C   LIG d   1       1.274  87.422 117.874  0.00  0.00     0.109 C 
ATOM     16  O   LIG d   1       0.406  89.227 116.538  0.00  0.00    -0.276 OA
ATOM     17  H   LIG d   1       1.016  89.211 119.638  0.00  0.00     0.149 HD
ENDBRANCH   6  13
BRANCH   5  18
ATOM     18  N   LIG d   1       2.046  91.953 117.373  0.00  0.00     0.381 N 
ATOM     19  H   LIG d   1       2.899  91.443 117.487  0.00  0.00    -0.090 HD
ATOM     20  H   LIG d   1       2.273  92.884 117.071  0.00  0.00    -0.090 HD
ATOM     21  H   LIG d   1       1.473  91.506 116.692  0.00  0.00    -0.090 HD
ENDBRANCH   5  18
BRANCH   3  22
ATOM     22  C   LIG d   1      -0.154  94.857 120.481  0.00  0.00     0.382 C 
ATOM     23  O   LIG d   1      -1.274  95.366 120.725  0.00  0.00    -0.241 OA
ATOM     24  O   LIG d   1       0.881  95.510 120.716  0.00  0.00    -0.241 OA
ENDBRANCH   3  22
TORSDOF 7
ENDMDL
