MODEL 1
REMARK VINA RESULT:      -4.8      0.000      0.000
REMARK  7 active torsions:
REMARK  status: ('A' for Active; 'I' for Inactive)
REMARK    1  A    between atoms: C_2  and  C_3 
REMARK    2  A    between atoms: C_3  and  O_6 
REMARK    3  A    between atoms: C_3  and  C_4 
REMARK    4  A    between atoms: C_7  and  O_6 
REMARK    5  A    between atoms: C_9  and  C_10 
REMARK    6  A    between atoms: N_15  and  C_14 
REMARK    7  A    between atoms: N_20  and  C_19 
REMARK       I    between atoms: C_22  and  N_20 
ROOT
ATOM      1  C   LIG d   1      -4.979  93.308 119.574  0.00  0.00     0.161 C 
ATOM      2  C   LIG d   1      -5.223  92.225 118.713  0.00  0.00     0.016 C 
ATOM      3  C   LIG d   1      -6.310  92.179 117.810  0.00  0.00     0.038 C 
ATOM      4  C   LIG d   1      -7.146  93.285 117.598  0.00  0.00     0.028 C 
ATOM      5  C   LIG d   1      -7.243  94.211 118.806  0.00  0.00    -0.047 C 
ATOM      6  C   LIG d   1      -5.815  94.570 119.279  0.00  0.00     0.091 C 
ENDROOT
BRANCH   1   7
ATOM      7  O   LIG d   1      -3.573  93.626 119.572  0.00  0.00    -0.368 OA
BRANCH   7   8
ATOM      8  C   LIG d   1      -2.693  92.624 119.008  0.00  0.00     0.119 C 
BRANCH   8   9
ATOM      9  C   LIG d   1      -1.842  92.053 120.159  0.00  0.00     0.028 C 
ATOM     10  C   LIG d   1      -2.127  90.563 120.416  0.00  0.00     0.006 C 
ENDBRANCH   8   9
BRANCH   8  11
ATOM     11  C   LIG d   1      -1.690  93.248 118.033  0.00  0.00     0.028 C 
ATOM     12  C   LIG d   1      -1.256  94.662 118.450  0.00  0.00     0.006 C 
ENDBRANCH   8  11
ENDBRANCH   7   8
ENDBRANCH   1   7
BRANCH   6  13
ATOM     13  N   LIG d   1      -5.819  95.405 120.508  0.00  0.00    -0.311 N 
ATOM     14  C   LIG d   1      -5.766  96.736 120.491  0.00  0.00     0.210 C 
ATOM     15  C   LIG d   1      -5.760  97.401 121.871  0.00  0.00     0.109 C 
ATOM     16  O   LIG d   1      -5.757  97.430 119.463  0.00  0.00    -0.276 OA
ATOM     17  H   LIG d   1      -5.856  94.925 121.386  0.00  0.00     0.149 HD
ENDBRANCH   6  13
BRANCH   5  18
ATOM     18  N   LIG d   1      -8.032  95.389 118.403  0.00  0.00     0.381 N 
ATOM     19  H   LIG d   1      -8.064  96.049 119.154  0.00  0.00    -0.090 HD
ATOM     20  H   LIG d   1      -8.972  95.097 118.199  0.00  0.00    -0.090 HD
ATOM     21  H   LIG d   1      -7.626  95.812 117.597  0.00  0.00    -0.090 HD
ENDBRANCH   5  18
BRANCH   3  22
ATOM     22  C   LIG d   1      -6.593  91.001 117.135  0.00  0.00     0.382 C 
ATOM     23  O   LIG d   1      -7.784  90.634 116.987  0.00  0.00    -0.241 OA
ATOM     24  O   LIG d   1      -5.671  90.277 116.712  0.00  0.00    -0.241 OA
ENDBRANCH   3  22
TORSDOF 7
ENDMDL
MODEL 2
REMARK VINA RESULT:      -4.7      3.706      6.689
REMARK  7 active torsions:
REMARK  status: ('A' for Active; 'I' for Inactive)
REMARK    1  A    between atoms: C_2  and  C_3 
REMARK    2  A    between atoms: C_3  and  O_6 
REMARK    3  A    between atoms: C_3  and  C_4 
REMARK    4  A    between atoms: C_7  and  O_6 
REMARK    5  A    between atoms: C_9  and  C_10 
REMARK    6  A    between atoms: N_15  and  C_14 
REMARK    7  A    between atoms: N_20  and  C_19 
REMARK       I    between atoms: C_22  and  N_20 
ROOT
ATOM      1  C   LIG d   1      -0.513  91.698 118.016  0.00  0.00     0.161 C 
ATOM      2  C   LIG d   1       0.829  92.033 118.263  0.00  0.00     0.016 C 
ATOM      3  C   LIG d   1       1.274  93.358 118.475  0.00  0.00     0.038 C 
ATOM      4  C   LIG d   1       0.377  94.429 118.604  0.00  0.00     0.028 C 
ATOM      5  C   LIG d   1      -0.936  94.213 117.860  0.00  0.00    -0.047 C 
ATOM      6  C   LIG d   1      -1.521  92.840 118.263  0.00  0.00     0.091 C 
ENDROOT
BRANCH   1   7
ATOM      7  O   LIG d   1      -0.876  90.534 118.785  0.00  0.00    -0.368 OA
BRANCH   7   8
ATOM      8  C   LIG d   1      -1.000  89.294 118.045  0.00  0.00     0.119 C 
BRANCH   8   9
ATOM      9  C   LIG d   1      -2.379  88.693 118.378  0.00  0.00     0.028 C 
ATOM     10  C   LIG d   1      -2.355  87.844 119.659  0.00  0.00     0.006 C 
ENDBRANCH   8   9
BRANCH   8  11
ATOM     11  C   LIG d   1       0.021  88.257 118.521  0.00  0.00     0.028 C 
ATOM     12  C   LIG d   1       0.500  87.331 117.392  0.00  0.00     0.006 C 
ENDBRANCH   8  11
ENDBRANCH   7   8
ENDBRANCH   1   7
BRANCH   6  13
ATOM     13  N   LIG d   1      -2.764  92.512 117.518  0.00  0.00    -0.311 N 
ATOM     14  C   LIG d   1      -3.872  92.061 118.103  0.00  0.00     0.210 C 
ATOM     15  C   LIG d   1      -5.033  91.766 117.148  0.00  0.00     0.109 C 
ATOM     16  O   LIG d   1      -4.015  91.908 119.325  0.00  0.00    -0.276 OA
ATOM     17  H   LIG d   1      -2.746  92.637 116.524  0.00  0.00     0.149 HD
ENDBRANCH   6  13
BRANCH   5  18
ATOM     18  N   LIG d   1      -1.827  95.341 118.193  0.00  0.00     0.381 N 
ATOM     19  H   LIG d   1      -1.287  96.111 118.532  0.00  0.00    -0.090 HD
ATOM     20  H   LIG d   1      -2.458  95.053 118.920  0.00  0.00    -0.090 HD
ATOM     21  H   LIG d   1      -2.343  95.617 117.386  0.00  0.00    -0.090 HD
ENDBRANCH   5  18
BRANCH   3  22
ATOM     22  C   LIG d   1       2.633  93.627 118.520  0.00  0.00     0.382 C 
ATOM     23  O   LIG d   1       3.332  93.498 117.486  0.00  0.00    -0.241 OA
ATOM     24  O   LIG d   1       3.177  93.956 119.591  0.00  0.00    -0.241 OA
ENDBRANCH   3  22
TORSDOF 7
ENDMDL
MODEL 3
REMARK VINA RESULT:      -4.6      1.171      1.485
REMARK  7 active torsions:
REMARK  status: ('A' for Active; 'I' for Inactive)
REMARK    1  A    between atoms: C_2  and  C_3 
REMARK    2  A    between atoms: C_3  and  O_6 
REMARK    3  A    between atoms: C_3  and  C_4 
REMARK    4  A    between atoms: C_7  and  O_6 
REMARK    5  A    between atoms: C_9  and  C_10 
REMARK    6  A    between atoms: N_15  and  C_14 
REMARK    7  A    between atoms: N_20  and  C_19 
REMARK       I    between atoms: C_22  and  N_20 
ROOT
ATOM      1  C   LIG d   1      -5.458  93.188 120.025  0.00  0.00     0.161 C 
ATOM      2  C   LIG d   1      -5.535  92.160 119.071  0.00  0.00     0.016 C 
ATOM      3  C   LIG d   1      -6.384  92.209 117.941  0.00  0.00     0.038 C 
ATOM      4  C   LIG d   1      -7.107  93.363 117.607  0.00  0.00     0.028 C 
ATOM      5  C   LIG d   1      -7.448  94.234 118.811  0.00  0.00    -0.047 C 
ATOM      6  C   LIG d   1      -6.157  94.502 119.618  0.00  0.00     0.091 C 
ENDROOT
BRANCH   1   7
ATOM      7  O   LIG d   1      -4.080  93.438 120.365  0.00  0.00    -0.368 OA
BRANCH   7   8
ATOM      8  C   LIG d   1      -3.328  94.244 119.424  0.00  0.00     0.119 C 
BRANCH   8   9
ATOM      9  C   LIG d   1      -2.043  93.470 119.074  0.00  0.00     0.028 C 
ATOM     10  C   LIG d   1      -2.257  92.463 117.931  0.00  0.00     0.006 C 
ENDBRANCH   8   9
BRANCH   8  11
ATOM     11  C   LIG d   1      -2.852  95.551 120.066  0.00  0.00     0.028 C 
ATOM     12  C   LIG d   1      -2.758  95.462 121.598  0.00  0.00     0.006 C 
ENDBRANCH   8  11
ENDBRANCH   7   8
ENDBRANCH   1   7
BRANCH   6  13
ATOM     13  N   LIG d   1      -6.415  95.277 120.860  0.00  0.00    -0.311 N 
ATOM     14  C   LIG d   1      -6.312  96.603 120.930  0.00  0.00     0.210 C 
ATOM     15  C   LIG d   1      -6.602  97.202 122.310  0.00  0.00     0.109 C 
ATOM     16  O   LIG d   1      -6.040  97.344 119.973  0.00  0.00    -0.276 OA
ATOM     17  H   LIG d   1      -6.672  94.759 121.676  0.00  0.00     0.149 HD
ENDBRANCH   6  13
BRANCH   5  18
ATOM     18  N   LIG d   1      -8.079  95.467 118.305  0.00  0.00     0.381 N 
ATOM     19  H   LIG d   1      -8.029  96.184 119.001  0.00  0.00    -0.090 HD
ATOM     20  H   LIG d   1      -9.048  95.282 118.113  0.00  0.00    -0.090 HD
ATOM     21  H   LIG d   1      -7.621  95.769 117.473  0.00  0.00    -0.090 HD
ENDBRANCH   5  18
BRANCH   3  22
ATOM     22  C   LIG d   1      -6.545  91.079 117.154  0.00  0.00     0.382 C 
ATOM     23  O   LIG d   1      -7.697  90.702 116.827  0.00  0.00    -0.241 OA
ATOM     24  O   LIG d   1      -5.557  90.406 116.804  0.00  0.00    -0.241 OA
ENDBRANCH   3  22
TORSDOF 7
ENDMDL
MODEL 4
REMARK VINA RESULT:      -4.4      2.150      3.356
REMARK  7 active torsions:
REMARK  status: ('A' for Active; 'I' for Inactive)
REMARK    1  A    between atoms: C_2  and  C_3 
REMARK    2  A    between atoms: C_3  and  O_6 
REMARK    3  A    between atoms: C_3  and  C_4 
REMARK    4  A    between atoms: C_7  and  O_6 
REMARK    5  A    between atoms: C_9  and  C_10 
REMARK    6  A    between atoms: N_15  and  C_14 
REMARK    7  A    between atoms: N_20  and  C_19 
REMARK       I    between atoms: C_22  and  N_20 
ROOT
ATOM      1  C   LIG d   1      -4.978  92.843 120.319  0.00  0.00     0.161 C 
ATOM      2  C   LIG d   1      -3.951  92.082 119.736  0.00  0.00     0.016 C 
ATOM      3  C   LIG d   1      -4.042  91.509 118.447  0.00  0.00     0.038 C 
ATOM      4  C   LIG d   1      -5.115  91.786 117.586  0.00  0.00     0.028 C 
ATOM      5  C   LIG d   1      -6.405  92.136 118.320  0.00  0.00    -0.047 C 
ATOM      6  C   LIG d   1      -6.110  93.249 119.352  0.00  0.00     0.091 C 
ENDROOT
BRANCH   1   7
ATOM      7  O   LIG d   1      -4.421  94.009 120.956  0.00  0.00    -0.368 OA
BRANCH   7   8
ATOM      8  C   LIG d   1      -3.995  95.076 120.073  0.00  0.00     0.119 C 
BRANCH   8   9
ATOM      9  C   LIG d   1      -2.490  95.302 120.314  0.00  0.00     0.028 C 
ATOM     10  C   LIG d   1      -1.640  94.963 119.077  0.00  0.00     0.006 C 
ENDBRANCH   8   9
BRANCH   8  11
ATOM     11  C   LIG d   1      -4.668  96.403 120.436  0.00  0.00     0.028 C 
ATOM     12  C   LIG d   1      -5.334  97.083 119.230  0.00  0.00     0.006 C 
ENDBRANCH   8  11
ENDBRANCH   7   8
ENDBRANCH   1   7
BRANCH   6  13
ATOM     13  N   LIG d   1      -7.301  93.591 120.172  0.00  0.00    -0.311 N 
ATOM     14  C   LIG d   1      -8.195  94.513 119.818  0.00  0.00     0.210 C 
ATOM     15  C   LIG d   1      -9.336  94.725 120.817  0.00  0.00     0.109 C 
ATOM     16  O   LIG d   1      -8.168  95.153 118.756  0.00  0.00    -0.276 OA
ATOM     17  H   LIG d   1      -7.418  93.097 121.035  0.00  0.00     0.149 HD
ENDBRANCH   6  13
BRANCH   5  18
ATOM     18  N   LIG d   1      -7.400  92.535 117.307  0.00  0.00     0.381 N 
ATOM     19  H   LIG d   1      -6.936  92.943 116.520  0.00  0.00    -0.090 HD
ATOM     20  H   LIG d   1      -8.011  93.227 117.706  0.00  0.00    -0.090 HD
ATOM     21  H   LIG d   1      -7.929  91.742 117.017  0.00  0.00    -0.090 HD
ENDBRANCH   5  18
BRANCH   3  22
ATOM     22  C   LIG d   1      -3.071  90.616 118.022  0.00  0.00     0.382 C 
ATOM     23  O   LIG d   1      -3.305  89.383 118.031  0.00  0.00    -0.241 OA
ATOM     24  O   LIG d   1      -1.947  91.024 117.671  0.00  0.00    -0.241 OA
ENDBRANCH   3  22
TORSDOF 7
ENDMDL
MODEL 5
REMARK VINA RESULT:      -4.4      3.965      6.907
REMARK  7 active torsions:
REMARK  status: ('A' for Active; 'I' for Inactive)
REMARK    1  A    between atoms: C_2  and  C_3 
REMARK    2  A    between atoms: C_3  and  O_6 
REMARK    3  A    between atoms: C_3  and  C_4 
REMARK    4  A    between atoms: C_7  and  O_6 
REMARK    5  A    between atoms: C_9  and  C_10 
REMARK    6  A    between atoms: N_15  and  C_14 
REMARK    7  A    between atoms: N_20  and  C_19 
REMARK       I    between atoms: C_22  and  N_20 
ROOT
ATOM      1  C   LIG d   1      -0.321  90.809 117.211  0.00  0.00     0.161 C 
ATOM      2  C   LIG d   1       0.972  91.301 117.451  0.00  0.00     0.016 C 
ATOM      3  C   LIG d   1       1.229  92.563 118.034  0.00  0.00     0.038 C 
ATOM      4  C   LIG d   1       0.201  93.360 118.560  0.00  0.00     0.028 C 
ATOM      5  C   LIG d   1      -1.147  93.131 117.886  0.00  0.00    -0.047 C 
ATOM      6  C   LIG d   1      -1.454  91.616 117.879  0.00  0.00     0.091 C 
ENDROOT
BRANCH   1   7
ATOM      7  O   LIG d   1      -0.397  89.423 117.600  0.00  0.00    -0.368 OA
BRANCH   7   8
ATOM      8  C   LIG d   1      -0.023  89.123 118.968  0.00  0.00     0.119 C 
BRANCH   8   9
ATOM      9  C   LIG d   1       0.821  87.834 118.945  0.00  0.00     0.028 C 
ATOM     10  C   LIG d   1       1.002  87.276 117.523  0.00  0.00     0.006 C 
ENDBRANCH   8   9
BRANCH   8  11
ATOM     11  C   LIG d   1      -1.250  88.790 119.821  0.00  0.00     0.028 C 
ATOM     12  C   LIG d   1      -2.369  88.110 119.016  0.00  0.00     0.006 C 
ENDBRANCH   8  11
ENDBRANCH   7   8
ENDBRANCH   1   7
BRANCH   6  13
ATOM     13  N   LIG d   1      -2.717  91.296 117.163  0.00  0.00    -0.311 N 
ATOM     14  C   LIG d   1      -3.907  91.256 117.759  0.00  0.00     0.210 C 
ATOM     15  C   LIG d   1      -5.077  90.887 116.841  0.00  0.00     0.109 C 
ATOM     16  O   LIG d   1      -4.110  91.522 118.953  0.00  0.00    -0.276 OA
ATOM     17  H   LIG d   1      -2.648  91.098 116.184  0.00  0.00     0.149 HD
ENDBRANCH   6  13
BRANCH   5  18
ATOM     18  N   LIG d   1      -2.153  93.921 118.621  0.00  0.00     0.381 N 
ATOM     19  H   LIG d   1      -2.494  93.395 119.400  0.00  0.00    -0.090 HD
ATOM     20  H   LIG d   1      -2.925  94.115 118.008  0.00  0.00    -0.090 HD
ATOM     21  H   LIG d   1      -1.749  94.775 118.939  0.00  0.00    -0.090 HD
ENDBRANCH   5  18
BRANCH   3  22
ATOM     22  C   LIG d   1       2.525  93.057 118.060  0.00  0.00     0.382 C 
ATOM     23  O   LIG d   1       2.844  93.934 118.898  0.00  0.00    -0.241 OA
ATOM     24  O   LIG d   1       3.366  92.669 117.228  0.00  0.00    -0.241 OA
ENDBRANCH   3  22
TORSDOF 7
ENDMDL
MODEL 6
REMARK VINA RESULT:      -4.4      2.630      4.463
REMARK  7 active torsions:
REMARK  status: ('A' for Active; 'I' for Inactive)
REMARK    1  A    between atoms: C_2  and  C_3 
REMARK    2  A    between atoms: C_3  and  O_6 
REMARK    3  A    between atoms: C_3  and  C_4 
REMARK    4  A    between atoms: C_7  and  O_6 
REMARK    5  A    between atoms: C_9  and  C_10 
REMARK    6  A    between atoms: N_15  and  C_14 
REMARK    7  A    between atoms: N_20  and  C_19 
REMARK       I    between atoms: C_22  and  N_20 
ROOT
ATOM      1  C   LIG d   1      -4.627  93.384 119.219  0.00  0.00     0.161 C 
ATOM      2  C   LIG d   1      -5.825  92.892 118.675  0.00  0.00     0.016 C 
ATOM      3  C   LIG d   1      -5.881  91.801 117.777  0.00  0.00     0.038 C 
ATOM      4  C   LIG d   1      -4.750  91.028 117.478  0.00  0.00     0.028 C 
ATOM      5  C   LIG d   1      -3.439  91.796 117.608  0.00  0.00    -0.047 C 
ATOM      6  C   LIG d   1      -3.395  92.483 118.992  0.00  0.00     0.091 C 
ENDROOT
BRANCH   1   7
ATOM      7  O   LIG d   1      -4.801  93.649 120.625  0.00  0.00    -0.368 OA
BRANCH   7   8
ATOM      8  C   LIG d   1      -4.675  92.508 121.509  0.00  0.00     0.119 C 
BRANCH   8   9
ATOM      9  C   LIG d   1      -5.972  92.418 122.337  0.00  0.00     0.028 C 
ATOM     10  C   LIG d   1      -6.500  93.801 122.753  0.00  0.00     0.006 C 
ENDBRANCH   8   9
BRANCH   8  11
ATOM     11  C   LIG d   1      -3.555  92.716 122.532  0.00  0.00     0.028 C 
ATOM     12  C   LIG d   1      -2.956  91.394 123.037  0.00  0.00     0.006 C 
ENDBRANCH   8  11
ENDBRANCH   7   8
ENDBRANCH   1   7
BRANCH   6  13
ATOM     13  N   LIG d   1      -2.183  93.325 119.168  0.00  0.00    -0.311 N 
ATOM     14  C   LIG d   1      -1.062  92.886 119.738  0.00  0.00     0.210 C 
ATOM     15  C   LIG d   1       0.061  93.923 119.839  0.00  0.00     0.109 C 
ATOM     16  O   LIG d   1      -0.880  91.727 120.141  0.00  0.00    -0.276 OA
ATOM     17  H   LIG d   1      -2.233  94.270 118.842  0.00  0.00     0.149 HD
ENDBRANCH   6  13
BRANCH   5  18
ATOM     18  N   LIG d   1      -2.338  90.836 117.404  0.00  0.00     0.381 N 
ATOM     19  H   LIG d   1      -1.660  91.226 116.780  0.00  0.00    -0.090 HD
ATOM     20  H   LIG d   1      -2.708  90.001 116.985  0.00  0.00    -0.090 HD
ATOM     21  H   LIG d   1      -1.910  90.617 118.276  0.00  0.00    -0.090 HD
ENDBRANCH   5  18
BRANCH   3  22
ATOM     22  C   LIG d   1      -7.073  91.500 117.136  0.00  0.00     0.382 C 
ATOM     23  O   LIG d   1      -7.669  92.383 116.473  0.00  0.00    -0.241 OA
ATOM     24  O   LIG d   1      -7.583  90.369 117.250  0.00  0.00    -0.241 OA
ENDBRANCH   3  22
TORSDOF 7
ENDMDL
MODEL 7
REMARK VINA RESULT:      -4.3      3.257      5.923
REMARK  7 active torsions:
REMARK  status: ('A' for Active; 'I' for Inactive)
REMARK    1  A    between atoms: C_2  and  C_3 
REMARK    2  A    between atoms: C_3  and  O_6 
REMARK    3  A    between atoms: C_3  and  C_4 
REMARK    4  A    between atoms: C_7  and  O_6 
REMARK    5  A    between atoms: C_9  and  C_10 
REMARK    6  A    between atoms: N_15  and  C_14 
REMARK    7  A    between atoms: N_20  and  C_19 
REMARK       I    between atoms: C_22  and  N_20 
ROOT
ATOM      1  C   LIG d   1      -1.466  92.829 118.163  0.00  0.00     0.161 C 
ATOM      2  C   LIG d   1      -0.165  92.442 117.800  0.00  0.00     0.016 C 
ATOM      3  C   LIG d   1       0.987  93.199 118.113  0.00  0.00     0.038 C 
ATOM      4  C   LIG d   1       0.931  94.325 118.947  0.00  0.00     0.028 C 
ATOM      5  C   LIG d   1      -0.418  95.035 118.916  0.00  0.00    -0.047 C 
ATOM      6  C   LIG d   1      -1.536  93.998 119.169  0.00  0.00     0.091 C 
ENDROOT
BRANCH   1   7
ATOM      7  O   LIG d   1      -2.192  91.691 118.666  0.00  0.00    -0.368 OA
BRANCH   7   8
ATOM      8  C   LIG d   1      -2.623  90.722 117.679  0.00  0.00     0.119 C 
BRANCH   8   9
ATOM      9  C   LIG d   1      -4.015  91.158 117.180  0.00  0.00     0.028 C 
ATOM     10  C   LIG d   1      -4.885  91.741 118.306  0.00  0.00     0.006 C 
ENDBRANCH   8   9
BRANCH   8  11
ATOM     11  C   LIG d   1      -2.831  89.341 118.306  0.00  0.00     0.028 C 
ATOM     12  C   LIG d   1      -1.518  88.696 118.776  0.00  0.00     0.006 C 
ENDBRANCH   8  11
ENDBRANCH   7   8
ENDBRANCH   1   7
BRANCH   6  13
ATOM     13  N   LIG d   1      -2.895  94.593 119.072  0.00  0.00    -0.311 N 
ATOM     14  C   LIG d   1      -3.586  95.017 120.129  0.00  0.00     0.210 C 
ATOM     15  C   LIG d   1      -4.975  95.579 119.809  0.00  0.00     0.109 C 
ATOM     16  O   LIG d   1      -3.169  95.010 121.296  0.00  0.00    -0.276 OA
ATOM     17  H   LIG d   1      -3.297  94.666 118.158  0.00  0.00     0.149 HD
ENDBRANCH   6  13
BRANCH   5  18
ATOM     18  N   LIG d   1      -0.382  96.105 119.931  0.00  0.00     0.381 N 
ATOM     19  H   LIG d   1       0.227  95.841 120.680  0.00  0.00    -0.090 HD
ATOM     20  H   LIG d   1      -1.307  96.229 120.306  0.00  0.00    -0.090 HD
ATOM     21  H   LIG d   1      -0.066  96.955 119.519  0.00  0.00    -0.090 HD
ENDBRANCH   5  18
BRANCH   3  22
ATOM     22  C   LIG d   1       2.209  92.852 117.556  0.00  0.00     0.382 C 
ATOM     23  O   LIG d   1       2.378  91.703 117.081  0.00  0.00    -0.241 OA
ATOM     24  O   LIG d   1       3.158  93.659 117.562  0.00  0.00    -0.241 OA
ENDBRANCH   3  22
TORSDOF 7
ENDMDL
MODEL 8
REMARK VINA RESULT:      -4.2      1.860      2.519
REMARK  7 active torsions:
REMARK  status: ('A' for Active; 'I' for Inactive)
REMARK    1  A    between atoms: C_2  and  C_3 
REMARK    2  A    between atoms: C_3  and  O_6 
REMARK    3  A    between atoms: C_3  and  C_4 
REMARK    4  A    between atoms: C_7  and  O_6 
REMARK    5  A    between atoms: C_9  and  C_10 
REMARK    6  A    between atoms: N_15  and  C_14 
REMARK    7  A    between atoms: N_20  and  C_19 
REMARK       I    between atoms: C_22  and  N_20 
ROOT
ATOM      1  C   LIG d   1      -3.568  92.482 118.935  0.00  0.00     0.161 C 
ATOM      2  C   LIG d   1      -4.294  91.789 117.952  0.00  0.00     0.016 C 
ATOM      3  C   LIG d   1      -5.694  91.904 117.793  0.00  0.00     0.038 C 
ATOM      4  C   LIG d   1      -6.448  92.841 118.515  0.00  0.00     0.028 C 
ATOM      5  C   LIG d   1      -5.837  93.198 119.866  0.00  0.00    -0.047 C 
ATOM      6  C   LIG d   1      -4.357  93.593 119.659  0.00  0.00     0.091 C 
ENDROOT
BRANCH   1   7
ATOM      7  O   LIG d   1      -2.359  93.017 118.363  0.00  0.00    -0.368 OA
BRANCH   7   8
ATOM      8  C   LIG d   1      -1.116  92.508 118.907  0.00  0.00     0.119 C 
BRANCH   8   9
ATOM      9  C   LIG d   1      -0.301  93.715 119.410  0.00  0.00     0.028 C 
ATOM     10  C   LIG d   1      -0.408  94.928 118.470  0.00  0.00     0.006 C 
ENDBRANCH   8   9
BRANCH   8  11
ATOM     11  C   LIG d   1      -0.254  91.863 117.817  0.00  0.00     0.028 C 
ATOM     12  C   LIG d   1      -0.570  90.373 117.613  0.00  0.00     0.006 C 
ENDBRANCH   8  11
ENDBRANCH   7   8
ENDBRANCH   1   7
BRANCH   6  13
ATOM     13  N   LIG d   1      -3.661  93.876 120.942  0.00  0.00    -0.311 N 
ATOM     14  C   LIG d   1      -3.122  95.057 121.238  0.00  0.00     0.210 C 
ATOM     15  C   LIG d   1      -2.435  95.130 122.605  0.00  0.00     0.109 C 
ATOM     16  O   LIG d   1      -3.176  96.061 120.512  0.00  0.00    -0.276 OA
ATOM     17  H   LIG d   1      -3.599  93.126 121.602  0.00  0.00     0.149 HD
ENDBRANCH   6  13
BRANCH   5  18
ATOM     18  N   LIG d   1      -6.649  94.284 120.449  0.00  0.00     0.381 N 
ATOM     19  H   LIG d   1      -7.587  93.966 120.591  0.00  0.00    -0.090 HD
ATOM     20  H   LIG d   1      -6.671  95.055 119.805  0.00  0.00    -0.090 HD
ATOM     21  H   LIG d   1      -6.254  94.576 121.316  0.00  0.00    -0.090 HD
ENDBRANCH   5  18
BRANCH   3  22
ATOM     22  C   LIG d   1      -6.361  91.046 116.932  0.00  0.00     0.382 C 
ATOM     23  O   LIG d   1      -7.578  91.224 116.687  0.00  0.00    -0.241 OA
ATOM     24  O   LIG d   1      -5.771  90.070 116.430  0.00  0.00    -0.241 OA
ENDBRANCH   3  22
TORSDOF 7
ENDMDL
MODEL 9
REMARK VINA RESULT:      -4.0      4.230      7.162
REMARK  7 active torsions:
REMARK  status: ('A' for Active; 'I' for Inactive)
REMARK    1  A    between atoms: C_2  and  C_3 
REMARK    2  A    between atoms: C_3  and  O_6 
REMARK    3  A    between atoms: C_3  and  C_4 
REMARK    4  A    between atoms: C_7  and  O_6 
REMARK    5  A    between atoms: C_9  and  C_10 
REMARK    6  A    between atoms: N_15  and  C_14 
REMARK    7  A    between atoms: N_20  and  C_19 
REMARK       I    between atoms: C_22  and  N_20 
ROOT
ATOM      1  C   LIG d   1       0.093  91.166 117.113  0.00  0.00     0.161 C 
ATOM      2  C   LIG d   1       1.464  91.453 117.223  0.00  0.00     0.016 C 
ATOM      3  C   LIG d   1       1.969  92.588 117.898  0.00  0.00     0.038 C 
ATOM      4  C   LIG d   1       1.139  93.438 118.644  0.00  0.00     0.028 C 
ATOM      5  C   LIG d   1      -0.301  93.471 118.142  0.00  0.00    -0.047 C 
ATOM      6  C   LIG d   1      -0.821  92.021 118.015  0.00  0.00     0.091 C 
ENDROOT
BRANCH   1   7
ATOM      7  O   LIG d   1      -0.133  89.763 117.357  0.00  0.00    -0.368 OA
BRANCH   7   8
ATOM      8  C   LIG d   1       0.161  89.293 118.695  0.00  0.00     0.119 C 
BRANCH   8   9
ATOM      9  C   LIG d   1       1.064  88.052 118.562  0.00  0.00     0.028 C 
ATOM     10  C   LIG d   1       0.952  87.112 119.774  0.00  0.00     0.006 C 
ENDBRANCH   8   9
BRANCH   8  11
ATOM     11  C   LIG d   1      -1.105  88.800 119.403  0.00  0.00     0.028 C 
ATOM     12  C   LIG d   1      -2.222  88.409 118.423  0.00  0.00     0.006 C 
ENDBRANCH   8  11
ENDBRANCH   7   8
ENDBRANCH   1   7
BRANCH   6  13
ATOM     13  N   LIG d   1      -2.194  91.960 117.450  0.00  0.00    -0.311 N 
ATOM     14  C   LIG d   1      -3.292  91.870 118.199  0.00  0.00     0.210 C 
ATOM     15  C   LIG d   1      -4.606  91.799 117.415  0.00  0.00     0.109 C 
ATOM     16  O   LIG d   1      -3.304  91.875 119.439  0.00  0.00    -0.276 OA
ATOM     17  H   LIG d   1      -2.279  91.982 116.452  0.00  0.00     0.149 HD
ENDBRANCH   6  13
BRANCH   5  18
ATOM     18  N   LIG d   1      -1.084  94.285 119.091  0.00  0.00     0.381 N 
ATOM     19  H   LIG d   1      -1.984  94.485 118.702  0.00  0.00    -0.090 HD
ATOM     20  H   LIG d   1      -0.606  95.156 119.244  0.00  0.00    -0.090 HD
ATOM     21  H   LIG d   1      -1.188  93.799 119.954  0.00  0.00    -0.090 HD
ENDBRANCH   5  18
BRANCH   3  22
ATOM     22  C   LIG d   1       3.316  92.904 117.798  0.00  0.00     0.382 C 
ATOM     23  O   LIG d   1       4.067  92.221 117.061  0.00  0.00    -0.241 OA
ATOM     24  O   LIG d   1       3.798  93.836 118.470  0.00  0.00    -0.241 OA
ENDBRANCH   3  22
TORSDOF 7
ENDMDL
