MODEL 1
REMARK VINA RESULT:      -4.5      0.000      0.000
REMARK  7 active torsions:
REMARK  status: ('A' for Active; 'I' for Inactive)
REMARK    1  A    between atoms: C_2  and  C_3 
REMARK    2  A    between atoms: C_3  and  O_6 
REMARK    3  A    between atoms: C_3  and  C_4 
REMARK    4  A    between atoms: C_7  and  O_6 
REMARK    5  A    between atoms: C_9  and  C_10 
REMARK    6  A    between atoms: N_15  and  C_14 
REMARK    7  A    between atoms: N_20  and  C_19 
REMARK       I    between atoms: C_22  and  N_20 
ROOT
ATOM      1  C   LIG d   1      -5.536  93.599 119.860  0.00  0.00     0.161 C 
ATOM      2  C   LIG d   1      -6.927  93.485 119.707  0.00  0.00     0.016 C 
ATOM      3  C   LIG d   1      -7.749  94.540 119.249  0.00  0.00     0.038 C 
ATOM      4  C   LIG d   1      -7.212  95.742 118.765  0.00  0.00     0.028 C 
ATOM      5  C   LIG d   1      -5.856  96.087 119.373  0.00  0.00    -0.047 C 
ATOM      6  C   LIG d   1      -4.918  94.867 119.232  0.00  0.00     0.091 C 
ENDROOT
BRANCH   1   7
ATOM      7  O   LIG d   1      -4.889  92.419 119.344  0.00  0.00    -0.368 OA
BRANCH   7   8
ATOM      8  C   LIG d   1      -4.574  92.431 117.930  0.00  0.00     0.119 C 
BRANCH   8   9
ATOM      9  C   LIG d   1      -5.556  91.473 117.229  0.00  0.00     0.028 C 
ATOM     10  C   LIG d   1      -6.637  92.222 116.431  0.00  0.00     0.006 C 
ENDBRANCH   8   9
BRANCH   8  11
ATOM     11  C   LIG d   1      -3.182  91.850 117.665  0.00  0.00     0.028 C 
ATOM     12  C   LIG d   1      -2.434  91.480 118.955  0.00  0.00     0.006 C 
ENDBRANCH   8  11
ENDBRANCH   7   8
ENDBRANCH   1   7
BRANCH   6  13
ATOM     13  N   LIG d   1      -3.597  95.090 119.876  0.00  0.00    -0.311 N 
ATOM     14  C   LIG d   1      -2.461  95.218 119.193  0.00  0.00     0.210 C 
ATOM     15  C   LIG d   1      -1.210  95.421 120.053  0.00  0.00     0.109 C 
ATOM     16  O   LIG d   1      -2.375  95.214 117.956  0.00  0.00    -0.276 OA
ATOM     17  H   LIG d   1      -3.580  95.137 120.876  0.00  0.00     0.149 HD
ENDBRANCH   6  13
BRANCH   5  18
ATOM     18  N   LIG d   1      -5.351  97.288 118.681  0.00  0.00     0.381 N 
ATOM     19  H   LIG d   1      -5.868  98.092 118.976  0.00  0.00    -0.090 HD
ATOM     20  H   LIG d   1      -5.483  97.173 117.692  0.00  0.00    -0.090 HD
ATOM     21  H   LIG d   1      -4.383  97.415 118.881  0.00  0.00    -0.090 HD
ENDBRANCH   5  18
BRANCH   3  22
ATOM     22  C   LIG d   1      -9.129  94.412 119.309  0.00  0.00     0.382 C 
ATOM     23  O   LIG d   1      -9.863  95.289 118.792  0.00  0.00    -0.241 OA
ATOM     24  O   LIG d   1      -9.649  93.454 119.911  0.00  0.00    -0.241 OA
ENDBRANCH   3  22
TORSDOF 7
ENDMDL
MODEL 2
REMARK VINA RESULT:      -4.5      2.203      3.340
REMARK  7 active torsions:
REMARK  status: ('A' for Active; 'I' for Inactive)
REMARK    1  A    between atoms: C_2  and  C_3 
REMARK    2  A    between atoms: C_3  and  O_6 
REMARK    3  A    between atoms: C_3  and  C_4 
REMARK    4  A    between atoms: C_7  and  O_6 
REMARK    5  A    between atoms: C_9  and  C_10 
REMARK    6  A    between atoms: N_15  and  C_14 
REMARK    7  A    between atoms: N_20  and  C_19 
REMARK       I    between atoms: C_22  and  N_20 
ROOT
ATOM      1  C   LIG d   1      -5.823  94.665 119.860  0.00  0.00     0.161 C 
ATOM      2  C   LIG d   1      -7.199  94.752 120.125  0.00  0.00     0.016 C 
ATOM      3  C   LIG d   1      -8.185  94.111 119.339  0.00  0.00     0.038 C 
ATOM      4  C   LIG d   1      -7.849  93.210 118.318  0.00  0.00     0.028 C 
ATOM      5  C   LIG d   1      -6.485  93.485 117.693  0.00  0.00    -0.047 C 
ATOM      6  C   LIG d   1      -5.431  93.597 118.818  0.00  0.00     0.091 C 
ENDROOT
BRANCH   1   7
ATOM      7  O   LIG d   1      -5.101  94.454 121.089  0.00  0.00    -0.368 OA
BRANCH   7   8
ATOM      8  C   LIG d   1      -5.047  93.088 121.570  0.00  0.00     0.119 C 
BRANCH   8   9
ATOM      9  C   LIG d   1      -5.735  93.056 122.949  0.00  0.00     0.028 C 
ATOM     10  C   LIG d   1      -7.118  92.385 122.900  0.00  0.00     0.006 C 
ENDBRANCH   8   9
BRANCH   8  11
ATOM     11  C   LIG d   1      -3.604  92.644 121.826  0.00  0.00     0.028 C 
ATOM     12  C   LIG d   1      -2.589  93.783 121.643  0.00  0.00     0.006 C 
ENDBRANCH   8  11
ENDBRANCH   7   8
ENDBRANCH   1   7
BRANCH   6  13
ATOM     13  N   LIG d   1      -4.083  93.949 118.298  0.00  0.00    -0.311 N 
ATOM     14  C   LIG d   1      -3.149  93.044 118.013  0.00  0.00     0.210 C 
ATOM     15  C   LIG d   1      -1.822  93.621 117.508  0.00  0.00     0.109 C 
ATOM     16  O   LIG d   1      -3.303  91.816 118.099  0.00  0.00    -0.276 OA
ATOM     17  H   LIG d   1      -3.884  94.921 118.168  0.00  0.00     0.149 HD
ENDBRANCH   6  13
BRANCH   5  18
ATOM     18  N   LIG d   1      -6.203  92.392 116.743  0.00  0.00     0.381 N 
ATOM     19  H   LIG d   1      -5.489  91.797 117.113  0.00  0.00    -0.090 HD
ATOM     20  H   LIG d   1      -5.868  92.788 115.882  0.00  0.00    -0.090 HD
ATOM     21  H   LIG d   1      -7.030  91.864 116.574  0.00  0.00    -0.090 HD
ENDBRANCH   5  18
BRANCH   3  22
ATOM     22  C   LIG d   1      -9.525  94.401 119.547  0.00  0.00     0.382 C 
ATOM     23  O   LIG d   1     -10.280  93.541 120.063  0.00  0.00    -0.241 OA
ATOM     24  O   LIG d   1      -9.998  95.495 119.185  0.00  0.00    -0.241 OA
ENDBRANCH   3  22
TORSDOF 7
ENDMDL
MODEL 3
REMARK VINA RESULT:      -4.4      2.404      3.910
REMARK  7 active torsions:
REMARK  status: ('A' for Active; 'I' for Inactive)
REMARK    1  A    between atoms: C_2  and  C_3 
REMARK    2  A    between atoms: C_3  and  O_6 
REMARK    3  A    between atoms: C_3  and  C_4 
REMARK    4  A    between atoms: C_7  and  O_6 
REMARK    5  A    between atoms: C_9  and  C_10 
REMARK    6  A    between atoms: N_15  and  C_14 
REMARK    7  A    between atoms: N_20  and  C_19 
REMARK       I    between atoms: C_22  and  N_20 
ROOT
ATOM      1  C   LIG d   1      -4.398  93.727 118.681  0.00  0.00     0.161 C 
ATOM      2  C   LIG d   1      -5.627  94.402 118.761  0.00  0.00     0.016 C 
ATOM      3  C   LIG d   1      -6.806  93.950 118.125  0.00  0.00     0.038 C 
ATOM      4  C   LIG d   1      -6.871  92.703 117.485  0.00  0.00     0.028 C 
ATOM      5  C   LIG d   1      -5.526  92.226 116.948  0.00  0.00    -0.047 C 
ATOM      6  C   LIG d   1      -4.477  92.308 118.080  0.00  0.00     0.091 C 
ENDROOT
BRANCH   1   7
ATOM      7  O   LIG d   1      -3.777  93.686 119.982  0.00  0.00    -0.368 OA
BRANCH   7   8
ATOM      8  C   LIG d   1      -4.232  92.639 120.873  0.00  0.00     0.119 C 
BRANCH   8   9
ATOM      9  C   LIG d   1      -4.920  93.319 122.073  0.00  0.00     0.028 C 
ATOM     10  C   LIG d   1      -6.427  93.015 122.135  0.00  0.00     0.006 C 
ENDBRANCH   8   9
BRANCH   8  11
ATOM     11  C   LIG d   1      -3.054  91.862 121.468  0.00  0.00     0.028 C 
ATOM     12  C   LIG d   1      -1.693  92.483 121.117  0.00  0.00     0.006 C 
ENDBRANCH   8  11
ENDBRANCH   7   8
ENDBRANCH   1   7
BRANCH   6  13
ATOM     13  N   LIG d   1      -3.113  91.939 117.617  0.00  0.00    -0.311 N 
ATOM     14  C   LIG d   1      -2.582  90.730 117.792  0.00  0.00     0.210 C 
ATOM     15  C   LIG d   1      -1.156  90.567 117.256  0.00  0.00     0.109 C 
ATOM     16  O   LIG d   1      -3.169  89.768 118.310  0.00  0.00    -0.276 OA
ATOM     17  H   LIG d   1      -2.579  92.651 117.159  0.00  0.00     0.149 HD
ENDBRANCH   6  13
BRANCH   5  18
ATOM     18  N   LIG d   1      -5.712  90.858 116.430  0.00  0.00     0.381 N 
ATOM     19  H   LIG d   1      -5.156  90.217 116.960  0.00  0.00    -0.090 HD
ATOM     20  H   LIG d   1      -5.405  90.827 115.474  0.00  0.00    -0.090 HD
ATOM     21  H   LIG d   1      -6.673  90.600 116.486  0.00  0.00    -0.090 HD
ENDBRANCH   5  18
BRANCH   3  22
ATOM     22  C   LIG d   1      -7.925  94.767 118.090  0.00  0.00     0.382 C 
ATOM     23  O   LIG d   1      -9.055  94.274 117.860  0.00  0.00    -0.241 OA
ATOM     24  O   LIG d   1      -7.813  95.999 118.243  0.00  0.00    -0.241 OA
ENDBRANCH   3  22
TORSDOF 7
ENDMDL
MODEL 4
REMARK VINA RESULT:      -4.4      2.391      5.836
REMARK  7 active torsions:
REMARK  status: ('A' for Active; 'I' for Inactive)
REMARK    1  A    between atoms: C_2  and  C_3 
REMARK    2  A    between atoms: C_3  and  O_6 
REMARK    3  A    between atoms: C_3  and  C_4 
REMARK    4  A    between atoms: C_7  and  O_6 
REMARK    5  A    between atoms: C_9  and  C_10 
REMARK    6  A    between atoms: N_15  and  C_14 
REMARK    7  A    between atoms: N_20  and  C_19 
REMARK       I    between atoms: C_22  and  N_20 
ROOT
ATOM      1  C   LIG d   1      -5.361  94.148 119.449  0.00  0.00     0.161 C 
ATOM      2  C   LIG d   1      -4.129  93.725 118.922  0.00  0.00     0.016 C 
ATOM      3  C   LIG d   1      -4.010  92.740 117.915  0.00  0.00     0.038 C 
ATOM      4  C   LIG d   1      -5.131  92.216 117.255  0.00  0.00     0.028 C 
ATOM      5  C   LIG d   1      -6.400  92.241 118.101  0.00  0.00    -0.047 C 
ATOM      6  C   LIG d   1      -6.599  93.667 118.663  0.00  0.00     0.091 C 
ENDROOT
BRANCH   1   7
ATOM      7  O   LIG d   1      -5.373  95.584 119.573  0.00  0.00    -0.368 OA
BRANCH   7   8
ATOM      8  C   LIG d   1      -5.077  96.112 120.889  0.00  0.00     0.119 C 
BRANCH   8   9
ATOM      9  C   LIG d   1      -6.346  96.821 121.401  0.00  0.00     0.028 C 
ATOM     10  C   LIG d   1      -7.242  97.319 120.254  0.00  0.00     0.006 C 
ENDBRANCH   8   9
BRANCH   8  11
ATOM     11  C   LIG d   1      -4.002  97.201 120.824  0.00  0.00     0.028 C 
ATOM     12  C   LIG d   1      -3.467  97.425 119.400  0.00  0.00     0.006 C 
ENDBRANCH   8  11
ENDBRANCH   7   8
ENDBRANCH   1   7
BRANCH   6  13
ATOM     13  N   LIG d   1      -7.772  93.760 119.571  0.00  0.00    -0.311 N 
ATOM     14  C   LIG d   1      -8.973  94.181 119.177  0.00  0.00     0.210 C 
ATOM     15  C   LIG d   1     -10.038  94.218 120.278  0.00  0.00     0.109 C 
ATOM     16  O   LIG d   1      -9.266  94.496 118.014  0.00  0.00    -0.276 OA
ATOM     17  H   LIG d   1      -7.632  93.494 120.526  0.00  0.00     0.149 HD
ENDBRANCH   6  13
BRANCH   5  18
ATOM     18  N   LIG d   1      -7.516  91.796 117.245  0.00  0.00     0.381 N 
ATOM     19  H   LIG d   1      -7.880  92.573 116.732  0.00  0.00    -0.090 HD
ATOM     20  H   LIG d   1      -8.248  91.432 117.829  0.00  0.00    -0.090 HD
ATOM     21  H   LIG d   1      -7.202  91.090 116.616  0.00  0.00    -0.090 HD
ENDBRANCH   5  18
BRANCH   3  22
ATOM     22  C   LIG d   1      -2.759  92.241 117.587  0.00  0.00     0.382 C 
ATOM     23  O   LIG d   1      -2.594  91.005 117.450  0.00  0.00    -0.241 OA
ATOM     24  O   LIG d   1      -1.784  93.007 117.470  0.00  0.00    -0.241 OA
ENDBRANCH   3  22
TORSDOF 7
ENDMDL
MODEL 5
REMARK VINA RESULT:      -4.4      2.877      5.632
REMARK  7 active torsions:
REMARK  status: ('A' for Active; 'I' for Inactive)
REMARK    1  A    between atoms: C_2  and  C_3 
REMARK    2  A    between atoms: C_3  and  O_6 
REMARK    3  A    between atoms: C_3  and  C_4 
REMARK    4  A    between atoms: C_7  and  O_6 
REMARK    5  A    between atoms: C_9  and  C_10 
REMARK    6  A    between atoms: N_15  and  C_14 
REMARK    7  A    between atoms: N_20  and  C_19 
REMARK       I    between atoms: C_22  and  N_20 
ROOT
ATOM      1  C   LIG d   1      -7.249  93.554 120.477  0.00  0.00     0.161 C 
ATOM      2  C   LIG d   1      -6.544  92.772 119.547  0.00  0.00     0.016 C 
ATOM      3  C   LIG d   1      -6.629  92.960 118.148  0.00  0.00     0.038 C 
ATOM      4  C   LIG d   1      -7.314  94.048 117.587  0.00  0.00     0.028 C 
ATOM      5  C   LIG d   1      -8.452  94.564 118.461  0.00  0.00    -0.047 C 
ATOM      6  C   LIG d   1      -7.913  94.816 119.888  0.00  0.00     0.091 C 
ENDROOT
BRANCH   1   7
ATOM      7  O   LIG d   1      -6.383  93.909 121.573  0.00  0.00    -0.368 OA
BRANCH   7   8
ATOM      8  C   LIG d   1      -6.712  93.327 122.859  0.00  0.00     0.119 C 
BRANCH   8   9
ATOM      9  C   LIG d   1      -5.505  92.480 123.306  0.00  0.00     0.028 C 
ATOM     10  C   LIG d   1      -4.223  92.831 122.532  0.00  0.00     0.006 C 
ENDBRANCH   8   9
BRANCH   8  11
ATOM     11  C   LIG d   1      -7.878  92.341 122.742  0.00  0.00     0.028 C 
ATOM     12  C   LIG d   1      -9.044  92.683 123.684  0.00  0.00     0.006 C 
ENDBRANCH   8  11
ENDBRANCH   7   8
ENDBRANCH   1   7
BRANCH   6  13
ATOM     13  N   LIG d   1      -8.981  95.243 120.830  0.00  0.00    -0.311 N 
ATOM     14  C   LIG d   1     -10.204  94.716 120.839  0.00  0.00     0.210 C 
ATOM     15  C   LIG d   1     -11.159  95.314 121.877  0.00  0.00     0.109 C 
ATOM     16  O   LIG d   1     -10.580  93.788 120.107  0.00  0.00    -0.276 OA
ATOM     17  H   LIG d   1      -8.753  95.970 121.479  0.00  0.00     0.149 HD
ENDBRANCH   6  13
BRANCH   5  18
ATOM     18  N   LIG d   1      -8.988  95.781 117.822  0.00  0.00     0.381 N 
ATOM     19  H   LIG d   1      -9.231  95.585 116.872  0.00  0.00    -0.090 HD
ATOM     20  H   LIG d   1      -8.277  96.491 117.826  0.00  0.00    -0.090 HD
ATOM     21  H   LIG d   1      -9.790  96.101 118.319  0.00  0.00    -0.090 HD
ENDBRANCH   5  18
BRANCH   3  22
ATOM     22  C   LIG d   1      -6.058  92.030 117.294  0.00  0.00     0.382 C 
ATOM     23  O   LIG d   1      -4.901  92.218 116.845  0.00  0.00    -0.241 OA
ATOM     24  O   LIG d   1      -6.701  91.027 116.931  0.00  0.00    -0.241 OA
ENDBRANCH   3  22
TORSDOF 7
ENDMDL
MODEL 6
REMARK VINA RESULT:      -4.4      2.165      5.531
REMARK  7 active torsions:
REMARK  status: ('A' for Active; 'I' for Inactive)
REMARK    1  A    between atoms: C_2  and  C_3 
REMARK    2  A    between atoms: C_3  and  O_6 
REMARK    3  A    between atoms: C_3  and  C_4 
REMARK    4  A    between atoms: C_7  and  O_6 
REMARK    5  A    between atoms: C_9  and  C_10 
REMARK    6  A    between atoms: N_15  and  C_14 
REMARK    7  A    between atoms: N_20  and  C_19 
REMARK       I    between atoms: C_22  and  N_20 
ROOT
ATOM      1  C   LIG d   1      -5.790  93.440 119.925  0.00  0.00     0.161 C 
ATOM      2  C   LIG d   1      -4.688  92.690 119.483  0.00  0.00     0.016 C 
ATOM      3  C   LIG d   1      -4.604  92.114 118.194  0.00  0.00     0.038 C 
ATOM      4  C   LIG d   1      -5.558  92.379 117.201  0.00  0.00     0.028 C 
ATOM      5  C   LIG d   1      -6.937  92.716 117.759  0.00  0.00    -0.047 C 
ATOM      6  C   LIG d   1      -6.791  93.833 118.818  0.00  0.00     0.091 C 
ENDROOT
BRANCH   1   7
ATOM      7  O   LIG d   1      -5.333  94.613 120.627  0.00  0.00    -0.368 OA
BRANCH   7   8
ATOM      8  C   LIG d   1      -4.966  95.746 119.802  0.00  0.00     0.119 C 
BRANCH   8   9
ATOM      9  C   LIG d   1      -3.484  96.062 120.083  0.00  0.00     0.028 C 
ATOM     10  C   LIG d   1      -2.567  95.662 118.915  0.00  0.00     0.006 C 
ENDBRANCH   8   9
BRANCH   8  11
ATOM     11  C   LIG d   1      -5.734  97.006 120.212  0.00  0.00     0.028 C 
ATOM     12  C   LIG d   1      -6.547  96.815 121.502  0.00  0.00     0.006 C 
ENDBRANCH   8  11
ENDBRANCH   7   8
ENDBRANCH   1   7
BRANCH   6  13
ATOM     13  N   LIG d   1      -8.082  94.164 119.475  0.00  0.00    -0.311 N 
ATOM     14  C   LIG d   1      -8.859  95.176 119.096  0.00  0.00     0.210 C 
ATOM     15  C   LIG d   1     -10.138  95.354 119.921  0.00  0.00     0.109 C 
ATOM     16  O   LIG d   1      -8.628  95.924 118.134  0.00  0.00    -0.276 OA
ATOM     17  H   LIG d   1      -8.362  93.588 120.245  0.00  0.00     0.149 HD
ENDBRANCH   6  13
BRANCH   5  18
ATOM     18  N   LIG d   1      -7.795  93.104 116.624  0.00  0.00     0.381 N 
ATOM     19  H   LIG d   1      -7.328  92.905 115.762  0.00  0.00    -0.090 HD
ATOM     20  H   LIG d   1      -7.966  94.093 116.669  0.00  0.00    -0.090 HD
ATOM     21  H   LIG d   1      -8.659  92.608 116.664  0.00  0.00    -0.090 HD
ENDBRANCH   5  18
BRANCH   3  22
ATOM     22  C   LIG d   1      -3.577  91.231 117.901  0.00  0.00     0.382 C 
ATOM     23  O   LIG d   1      -2.455  91.668 117.547  0.00  0.00    -0.241 OA
ATOM     24  O   LIG d   1      -3.769  90.001 117.944  0.00  0.00    -0.241 OA
ENDBRANCH   3  22
TORSDOF 7
ENDMDL
MODEL 7
REMARK VINA RESULT:      -4.4      2.488      4.428
REMARK  7 active torsions:
REMARK  status: ('A' for Active; 'I' for Inactive)
REMARK    1  A    between atoms: C_2  and  C_3 
REMARK    2  A    between atoms: C_3  and  O_6 
REMARK    3  A    between atoms: C_3  and  C_4 
REMARK    4  A    between atoms: C_7  and  O_6 
REMARK    5  A    between atoms: C_9  and  C_10 
REMARK    6  A    between atoms: N_15  and  C_14 
REMARK    7  A    between atoms: N_20  and  C_19 
REMARK       I    between atoms: C_22  and  N_20 
ROOT
ATOM      1  C   LIG d   1      -4.293  93.618 118.820  0.00  0.00     0.161 C 
ATOM      2  C   LIG d   1      -5.506  93.174 118.267  0.00  0.00     0.016 C 
ATOM      3  C   LIG d   1      -5.615  92.027 117.447  0.00  0.00     0.038 C 
ATOM      4  C   LIG d   1      -4.535  91.155 117.246  0.00  0.00     0.028 C 
ATOM      5  C   LIG d   1      -3.175  91.834 117.370  0.00  0.00    -0.047 C 
ATOM      6  C   LIG d   1      -3.125  92.616 118.703  0.00  0.00     0.091 C 
ENDROOT
BRANCH   1   7
ATOM      7  O   LIG d   1      -4.493  93.996 120.196  0.00  0.00    -0.368 OA
BRANCH   7   8
ATOM      8  C   LIG d   1      -5.823  94.451 120.546  0.00  0.00     0.119 C 
BRANCH   8   9
ATOM      9  C   LIG d   1      -5.734  95.961 120.840  0.00  0.00     0.028 C 
ATOM     10  C   LIG d   1      -6.138  96.819 119.629  0.00  0.00     0.006 C 
ENDBRANCH   8   9
BRANCH   8  11
ATOM     11  C   LIG d   1      -6.305  93.811 121.851  0.00  0.00     0.028 C 
ATOM     12  C   LIG d   1      -7.539  92.915 121.655  0.00  0.00     0.006 C 
ENDBRANCH   8  11
ENDBRANCH   7   8
ENDBRANCH   1   7
BRANCH   6  13
ATOM     13  N   LIG d   1      -1.860  93.380 118.865  0.00  0.00    -0.311 N 
ATOM     14  C   LIG d   1      -0.797  92.908 119.514  0.00  0.00     0.210 C 
ATOM     15  C   LIG d   1       0.397  93.866 119.581  0.00  0.00     0.109 C 
ATOM     16  O   LIG d   1      -0.718  91.776 120.013  0.00  0.00    -0.276 OA
ATOM     17  H   LIG d   1      -1.826  94.296 118.463  0.00  0.00     0.149 HD
ENDBRANCH   6  13
BRANCH   5  18
ATOM     18  N   LIG d   1      -2.142  90.786 117.276  0.00  0.00     0.381 N 
ATOM     19  H   LIG d   1      -1.491  91.016 116.552  0.00  0.00    -0.090 HD
ATOM     20  H   LIG d   1      -2.584  89.915 117.037  0.00  0.00    -0.090 HD
ATOM     21  H   LIG d   1      -1.665  90.697 118.146  0.00  0.00    -0.090 HD
ENDBRANCH   5  18
BRANCH   3  22
ATOM     22  C   LIG d   1      -6.805  91.766 116.785  0.00  0.00     0.382 C 
ATOM     23  O   LIG d   1      -7.570  92.710 116.476  0.00  0.00    -0.241 OA
ATOM     24  O   LIG d   1      -7.143  90.594 116.533  0.00  0.00    -0.241 OA
ENDBRANCH   3  22
TORSDOF 7
ENDMDL
MODEL 8
REMARK VINA RESULT:      -4.3      3.786      7.369
REMARK  7 active torsions:
REMARK  status: ('A' for Active; 'I' for Inactive)
REMARK    1  A    between atoms: C_2  and  C_3 
REMARK    2  A    between atoms: C_3  and  O_6 
REMARK    3  A    between atoms: C_3  and  C_4 
REMARK    4  A    between atoms: C_7  and  O_6 
REMARK    5  A    between atoms: C_9  and  C_10 
REMARK    6  A    between atoms: N_15  and  C_14 
REMARK    7  A    between atoms: N_20  and  C_19 
REMARK       I    between atoms: C_22  and  N_20 
ROOT
ATOM      1  C   LIG d   1      -0.312  91.510 117.807  0.00  0.00     0.161 C 
ATOM      2  C   LIG d   1       1.069  91.713 117.967  0.00  0.00     0.016 C 
ATOM      3  C   LIG d   1       1.655  92.990 118.121  0.00  0.00     0.038 C 
ATOM      4  C   LIG d   1       0.879  94.148 118.277  0.00  0.00     0.028 C 
ATOM      5  C   LIG d   1      -0.493  94.052 117.618  0.00  0.00    -0.047 C 
ATOM      6  C   LIG d   1      -1.185  92.751 118.087  0.00  0.00     0.091 C 
ENDROOT
BRANCH   1   7
ATOM      7  O   LIG d   1      -0.741  90.402 118.623  0.00  0.00    -0.368 OA
BRANCH   7   8
ATOM      8  C   LIG d   1      -1.236  89.241 117.912  0.00  0.00     0.119 C 
BRANCH   8   9
ATOM      9  C   LIG d   1      -2.612  88.886 118.508  0.00  0.00     0.028 C 
ATOM     10  C   LIG d   1      -2.501  87.961 119.732  0.00  0.00     0.006 C 
ENDBRANCH   8   9
BRANCH   8  11
ATOM     11  C   LIG d   1      -0.356  88.014 118.167  0.00  0.00     0.028 C 
ATOM     12  C   LIG d   1       0.890  87.977 117.267  0.00  0.00     0.006 C 
ENDBRANCH   8  11
ENDBRANCH   7   8
ENDBRANCH   1   7
BRANCH   6  13
ATOM     13  N   LIG d   1      -2.497  92.537 117.424  0.00  0.00    -0.311 N 
ATOM     14  C   LIG d   1      -3.646  92.427 118.089  0.00  0.00     0.210 C 
ATOM     15  C   LIG d   1      -4.880  92.189 117.214  0.00  0.00     0.109 C 
ATOM     16  O   LIG d   1      -3.763  92.537 119.319  0.00  0.00    -0.276 OA
ATOM     17  H   LIG d   1      -2.498  92.468 116.425  0.00  0.00     0.149 HD
ENDBRANCH   6  13
BRANCH   5  18
ATOM     18  N   LIG d   1      -1.246  95.269 117.975  0.00  0.00     0.381 N 
ATOM     19  H   LIG d   1      -2.135  95.263 117.518  0.00  0.00    -0.090 HD
ATOM     20  H   LIG d   1      -0.733  96.073 117.659  0.00  0.00    -0.090 HD
ATOM     21  H   LIG d   1      -1.372  95.314 118.963  0.00  0.00    -0.090 HD
ENDBRANCH   5  18
BRANCH   3  22
ATOM     22  C   LIG d   1       3.035  93.123 118.079  0.00  0.00     0.382 C 
ATOM     23  O   LIG d   1       3.639  93.045 116.982  0.00  0.00    -0.241 OA
ATOM     24  O   LIG d   1       3.687  93.276 119.129  0.00  0.00    -0.241 OA
ENDBRANCH   3  22
TORSDOF 7
ENDMDL
MODEL 9
REMARK VINA RESULT:      -4.3      2.629      5.147
REMARK  7 active torsions:
REMARK  status: ('A' for Active; 'I' for Inactive)
REMARK    1  A    between atoms: C_2  and  C_3 
REMARK    2  A    between atoms: C_3  and  O_6 
REMARK    3  A    between atoms: C_3  and  C_4 
REMARK    4  A    between atoms: C_7  and  O_6 
REMARK    5  A    between atoms: C_9  and  C_10 
REMARK    6  A    between atoms: N_15  and  C_14 
REMARK    7  A    between atoms: N_20  and  C_19 
REMARK       I    between atoms: C_22  and  N_20 
ROOT
ATOM      1  C   LIG d   1      -7.515  93.506 120.441  0.00  0.00     0.161 C 
ATOM      2  C   LIG d   1      -6.957  92.612 119.512  0.00  0.00     0.016 C 
ATOM      3  C   LIG d   1      -7.082  92.766 118.112  0.00  0.00     0.038 C 
ATOM      4  C   LIG d   1      -7.649  93.915 117.541  0.00  0.00     0.028 C 
ATOM      5  C   LIG d   1      -8.671  94.599 118.442  0.00  0.00    -0.047 C 
ATOM      6  C   LIG d   1      -8.041  94.824 119.836  0.00  0.00     0.091 C 
ENDROOT
BRANCH   1   7
ATOM      7  O   LIG d   1      -6.562  93.780 121.488  0.00  0.00    -0.368 OA
BRANCH   7   8
ATOM      8  C   LIG d   1      -5.173  93.521 121.168  0.00  0.00     0.119 C 
BRANCH   8   9
ATOM      9  C   LIG d   1      -4.531  92.857 122.402  0.00  0.00     0.028 C 
ATOM     10  C   LIG d   1      -3.302  92.007 122.038  0.00  0.00     0.006 C 
ENDBRANCH   8   9
BRANCH   8  11
ATOM     11  C   LIG d   1      -4.397  94.825 120.959  0.00  0.00     0.028 C 
ATOM     12  C   LIG d   1      -4.102  95.112 119.478  0.00  0.00     0.006 C 
ENDBRANCH   8  11
ENDBRANCH   7   8
ENDBRANCH   1   7
BRANCH   6  13
ATOM     13  N   LIG d   1      -9.002  95.412 120.804  0.00  0.00    -0.311 N 
ATOM     14  C   LIG d   1     -10.281  95.048 120.882  0.00  0.00     0.210 C 
ATOM     15  C   LIG d   1     -11.103  95.794 121.937  0.00  0.00     0.109 C 
ATOM     16  O   LIG d   1     -10.804  94.154 120.199  0.00  0.00    -0.276 OA
ATOM     17  H   LIG d   1      -8.654  96.122 121.418  0.00  0.00     0.149 HD
ENDBRANCH   6  13
BRANCH   5  18
ATOM     18  N   LIG d   1      -9.078  95.854 117.783  0.00  0.00     0.381 N 
ATOM     19  H   LIG d   1      -9.738  95.656 117.057  0.00  0.00    -0.090 HD
ATOM     20  H   LIG d   1      -8.269  96.280 117.366  0.00  0.00    -0.090 HD
ATOM     21  H   LIG d   1      -9.483  96.474 118.449  0.00  0.00    -0.090 HD
ENDBRANCH   5  18
BRANCH   3  22
ATOM     22  C   LIG d   1      -6.673  91.744 117.269  0.00  0.00     0.382 C 
ATOM     23  O   LIG d   1      -7.474  91.264 116.432  0.00  0.00    -0.241 OA
ATOM     24  O   LIG d   1      -5.526  91.267 117.365  0.00  0.00    -0.241 OA
ENDBRANCH   3  22
TORSDOF 7
ENDMDL
