MODEL 1
REMARK VINA RESULT:      -4.7      0.000      0.000
REMARK  7 active torsions:
REMARK  status: ('A' for Active; 'I' for Inactive)
REMARK    1  A    between atoms: C_2  and  C_3 
REMARK    2  A    between atoms: C_3  and  O_6 
REMARK    3  A    between atoms: C_3  and  C_4 
REMARK    4  A    between atoms: C_7  and  O_6 
REMARK    5  A    between atoms: C_9  and  C_10 
REMARK    6  A    between atoms: N_15  and  C_14 
REMARK    7  A    between atoms: N_20  and  C_19 
REMARK       I    between atoms: C_22  and  N_20 
ROOT
ATOM      1  C   LIG d   1      -1.081  91.834 118.096  0.00  0.00     0.161 C 
ATOM      2  C   LIG d   1       0.309  91.983 118.230  0.00  0.00     0.016 C 
ATOM      3  C   LIG d   1       0.967  93.233 118.176  0.00  0.00     0.038 C 
ATOM      4  C   LIG d   1       0.258  94.443 118.135  0.00  0.00     0.028 C 
ATOM      5  C   LIG d   1      -1.119  94.317 117.491  0.00  0.00    -0.047 C 
ATOM      6  C   LIG d   1      -1.882  93.152 118.162  0.00  0.00     0.091 C 
ENDROOT
BRANCH   1   7
ATOM      7  O   LIG d   1      -1.570  90.901 119.080  0.00  0.00    -0.368 OA
BRANCH   7   8
ATOM      8  C   LIG d   1      -2.037  89.627 118.573  0.00  0.00     0.119 C 
BRANCH   8   9
ATOM      9  C   LIG d   1      -3.234  89.193 119.441  0.00  0.00     0.028 C 
ATOM     10  C   LIG d   1      -2.869  88.069 120.425  0.00  0.00     0.006 C 
ENDBRANCH   8   9
BRANCH   8  11
ATOM     11  C   LIG d   1      -0.982  88.532 118.761  0.00  0.00     0.028 C 
ATOM     12  C   LIG d   1      -0.218  88.211 117.467  0.00  0.00     0.006 C 
ENDBRANCH   8  11
ENDBRANCH   7   8
ENDBRANCH   1   7
BRANCH   6  13
ATOM     13  N   LIG d   1      -3.206  92.905 117.534  0.00  0.00    -0.311 N 
ATOM     14  C   LIG d   1      -4.321  92.697 118.233  0.00  0.00     0.210 C 
ATOM     15  C   LIG d   1      -5.574  92.443 117.389  0.00  0.00     0.109 C 
ATOM     16  O   LIG d   1      -4.397  92.729 119.470  0.00  0.00    -0.276 OA
ATOM     17  H   LIG d   1      -3.241  92.893 116.534  0.00  0.00     0.149 HD
ENDBRANCH   6  13
BRANCH   5  18
ATOM     18  N   LIG d   1      -1.801  95.616 117.639  0.00  0.00     0.381 N 
ATOM     19  H   LIG d   1      -1.292  96.324 117.148  0.00  0.00    -0.090 HD
ATOM     20  H   LIG d   1      -1.823  95.862 118.613  0.00  0.00    -0.090 HD
ATOM     21  H   LIG d   1      -2.729  95.556 117.283  0.00  0.00    -0.090 HD
ENDBRANCH   5  18
BRANCH   3  22
ATOM     22  C   LIG d   1       2.352  93.279 118.122  0.00  0.00     0.382 C 
ATOM     23  O   LIG d   1       2.941  93.155 117.022  0.00  0.00    -0.241 OA
ATOM     24  O   LIG d   1       3.021  93.400 119.166  0.00  0.00    -0.241 OA
ENDBRANCH   3  22
TORSDOF 7
ENDMDL
MODEL 2
REMARK VINA RESULT:      -4.5      3.490      6.198
REMARK  7 active torsions:
REMARK  status: ('A' for Active; 'I' for Inactive)
REMARK    1  A    between atoms: C_2  and  C_3 
REMARK    2  A    between atoms: C_3  and  O_6 
REMARK    3  A    between atoms: C_3  and  C_4 
REMARK    4  A    between atoms: C_7  and  O_6 
REMARK    5  A    between atoms: C_9  and  C_10 
REMARK    6  A    between atoms: N_15  and  C_14 
REMARK    7  A    between atoms: N_20  and  C_19 
REMARK       I    between atoms: C_22  and  N_20 
ROOT
ATOM      1  C   LIG d   1      -5.454  92.734 119.972  0.00  0.00     0.161 C 
ATOM      2  C   LIG d   1      -4.346  91.972 119.568  0.00  0.00     0.016 C 
ATOM      3  C   LIG d   1      -4.157  91.513 118.245  0.00  0.00     0.038 C 
ATOM      4  C   LIG d   1      -4.994  91.917 117.193  0.00  0.00     0.028 C 
ATOM      5  C   LIG d   1      -6.406  92.271 117.646  0.00  0.00    -0.047 C 
ATOM      6  C   LIG d   1      -6.320  93.278 118.816  0.00  0.00     0.091 C 
ENDROOT
BRANCH   1   7
ATOM      7  O   LIG d   1      -5.021  93.813 120.824  0.00  0.00    -0.368 OA
BRANCH   7   8
ATOM      8  C   LIG d   1      -4.628  95.036 120.153  0.00  0.00     0.119 C 
BRANCH   8   9
ATOM      9  C   LIG d   1      -3.119  95.231 120.395  0.00  0.00     0.028 C 
ATOM     10  C   LIG d   1      -2.287  95.016 119.119  0.00  0.00     0.006 C 
ENDBRANCH   8   9
BRANCH   8  11
ATOM     11  C   LIG d   1      -5.301  96.259 120.784  0.00  0.00     0.028 C 
ATOM     12  C   LIG d   1      -6.233  95.891 121.949  0.00  0.00     0.006 C 
ENDBRANCH   8  11
ENDBRANCH   7   8
ENDBRANCH   1   7
BRANCH   6  13
ATOM     13  N   LIG d   1      -7.656  93.614 119.374  0.00  0.00    -0.311 N 
ATOM     14  C   LIG d   1      -8.320  94.727 119.067  0.00  0.00     0.210 C 
ATOM     15  C   LIG d   1      -9.672  94.888 119.769  0.00  0.00     0.109 C 
ATOM     16  O   LIG d   1      -7.932  95.581 118.256  0.00  0.00    -0.276 OA
ATOM     17  H   LIG d   1      -8.059  92.961 120.017  0.00  0.00     0.149 HD
ENDBRANCH   6  13
BRANCH   5  18
ATOM     18  N   LIG d   1      -7.128  92.805 116.475  0.00  0.00     0.381 N 
ATOM     19  H   LIG d   1      -6.633  92.573 115.637  0.00  0.00    -0.090 HD
ATOM     20  H   LIG d   1      -7.171  93.807 116.549  0.00  0.00    -0.090 HD
ATOM     21  H   LIG d   1      -8.049  92.427 116.441  0.00  0.00    -0.090 HD
ENDBRANCH   5  18
BRANCH   3  22
ATOM     22  C   LIG d   1      -3.143  90.608 117.969  0.00  0.00     0.382 C 
ATOM     23  O   LIG d   1      -3.392  89.378 117.938  0.00  0.00    -0.241 OA
ATOM     24  O   LIG d   1      -1.975  91.002 117.795  0.00  0.00    -0.241 OA
ENDBRANCH   3  22
TORSDOF 7
ENDMDL
MODEL 3
REMARK VINA RESULT:      -4.5      3.577      6.421
REMARK  7 active torsions:
REMARK  status: ('A' for Active; 'I' for Inactive)
REMARK    1  A    between atoms: C_2  and  C_3 
REMARK    2  A    between atoms: C_3  and  O_6 
REMARK    3  A    between atoms: C_3  and  C_4 
REMARK    4  A    between atoms: C_7  and  O_6 
REMARK    5  A    between atoms: C_9  and  C_10 
REMARK    6  A    between atoms: N_15  and  C_14 
REMARK    7  A    between atoms: N_20  and  C_19 
REMARK       I    between atoms: C_22  and  N_20 
ROOT
ATOM      1  C   LIG d   1      -5.000  93.041 119.743  0.00  0.00     0.161 C 
ATOM      2  C   LIG d   1      -5.272  91.994 118.846  0.00  0.00     0.016 C 
ATOM      3  C   LIG d   1      -6.240  92.081 117.820  0.00  0.00     0.038 C 
ATOM      4  C   LIG d   1      -6.902  93.282 117.524  0.00  0.00     0.028 C 
ATOM      5  C   LIG d   1      -7.026  94.216 118.722  0.00  0.00    -0.047 C 
ATOM      6  C   LIG d   1      -5.632  94.397 119.365  0.00  0.00     0.091 C 
ENDROOT
BRANCH   1   7
ATOM      7  O   LIG d   1      -3.575  93.182 119.912  0.00  0.00    -0.368 OA
BRANCH   7   8
ATOM      8  C   LIG d   1      -2.898  94.018 118.941  0.00  0.00     0.119 C 
BRANCH   8   9
ATOM      9  C   LIG d   1      -1.898  93.126 118.180  0.00  0.00     0.028 C 
ATOM     10  C   LIG d   1      -1.504  91.872 118.979  0.00  0.00     0.006 C 
ENDBRANCH   8   9
BRANCH   8  11
ATOM     11  C   LIG d   1      -2.046  95.090 119.627  0.00  0.00     0.028 C 
ATOM     12  C   LIG d   1      -2.018  94.941 121.156  0.00  0.00     0.006 C 
ENDBRANCH   8  11
ENDBRANCH   7   8
ENDBRANCH   1   7
BRANCH   6  13
ATOM     13  N   LIG d   1      -5.678  95.230 120.595  0.00  0.00    -0.311 N 
ATOM     14  C   LIG d   1      -5.413  96.535 120.606  0.00  0.00     0.210 C 
ATOM     15  C   LIG d   1      -5.499  97.200 121.984  0.00  0.00     0.109 C 
ATOM     16  O   LIG d   1      -5.147  97.212 119.602  0.00  0.00    -0.276 OA
ATOM     17  H   LIG d   1      -5.916  94.768 121.450  0.00  0.00     0.149 HD
ENDBRANCH   6  13
BRANCH   5  18
ATOM     18  N   LIG d   1      -7.610  95.483 118.241  0.00  0.00     0.381 N 
ATOM     19  H   LIG d   1      -7.527  95.537 117.246  0.00  0.00    -0.090 HD
ATOM     20  H   LIG d   1      -7.098  96.249 118.642  0.00  0.00    -0.090 HD
ATOM     21  H   LIG d   1      -8.568  95.539 118.506  0.00  0.00    -0.090 HD
ENDBRANCH   5  18
BRANCH   3  22
ATOM     22  C   LIG d   1      -6.585  90.945 117.103  0.00  0.00     0.382 C 
ATOM     23  O   LIG d   1      -5.716  90.340 116.430  0.00  0.00    -0.241 OA
ATOM     24  O   LIG d   1      -7.764  90.543 117.085  0.00  0.00    -0.241 OA
ENDBRANCH   3  22
TORSDOF 7
ENDMDL
MODEL 4
REMARK VINA RESULT:      -4.4      3.451      6.373
REMARK  7 active torsions:
REMARK  status: ('A' for Active; 'I' for Inactive)
REMARK    1  A    between atoms: C_2  and  C_3 
REMARK    2  A    between atoms: C_3  and  O_6 
REMARK    3  A    between atoms: C_3  and  C_4 
REMARK    4  A    between atoms: C_7  and  O_6 
REMARK    5  A    between atoms: C_9  and  C_10 
REMARK    6  A    between atoms: N_15  and  C_14 
REMARK    7  A    between atoms: N_20  and  C_19 
REMARK       I    between atoms: C_22  and  N_20 
ROOT
ATOM      1  C   LIG d   1      -4.459  93.484 119.231  0.00  0.00     0.161 C 
ATOM      2  C   LIG d   1      -5.676  94.183 119.283  0.00  0.00     0.016 C 
ATOM      3  C   LIG d   1      -6.788  93.872 118.467  0.00  0.00     0.038 C 
ATOM      4  C   LIG d   1      -6.809  92.736 117.644  0.00  0.00     0.028 C 
ATOM      5  C   LIG d   1      -5.423  92.296 117.185  0.00  0.00    -0.047 C 
ATOM      6  C   LIG d   1      -4.501  92.172 118.419  0.00  0.00     0.091 C 
ENDROOT
BRANCH   1   7
ATOM      7  O   LIG d   1      -3.983  93.230 120.568  0.00  0.00    -0.368 OA
BRANCH   7   8
ATOM      8  C   LIG d   1      -4.585  92.107 121.256  0.00  0.00     0.119 C 
BRANCH   8   9
ATOM      9  C   LIG d   1      -5.154  92.631 122.589  0.00  0.00     0.028 C 
ATOM     10  C   LIG d   1      -6.690  92.705 122.584  0.00  0.00     0.006 C 
ENDBRANCH   8   9
BRANCH   8  11
ATOM     11  C   LIG d   1      -3.534  91.064 121.646  0.00  0.00     0.028 C 
ATOM     12  C   LIG d   1      -2.100  91.613 121.590  0.00  0.00     0.006 C 
ENDBRANCH   8  11
ENDBRANCH   7   8
ENDBRANCH   1   7
BRANCH   6  13
ATOM     13  N   LIG d   1      -3.103  91.827 118.051  0.00  0.00    -0.311 N 
ATOM     14  C   LIG d   1      -2.641  90.578 118.018  0.00  0.00     0.210 C 
ATOM     15  C   LIG d   1      -1.165  90.445 117.632  0.00  0.00     0.109 C 
ATOM     16  O   LIG d   1      -3.322  89.566 118.241  0.00  0.00    -0.276 OA
ATOM     17  H   LIG d   1      -2.490  92.585 117.824  0.00  0.00     0.149 HD
ENDBRANCH   6  13
BRANCH   5  18
ATOM     18  N   LIG d   1      -5.580  91.026 116.451  0.00  0.00     0.381 N 
ATOM     19  H   LIG d   1      -5.348  90.258 117.049  0.00  0.00    -0.090 HD
ATOM     20  H   LIG d   1      -4.946  91.020 115.672  0.00  0.00    -0.090 HD
ATOM     21  H   LIG d   1      -6.517  90.933 116.127  0.00  0.00    -0.090 HD
ENDBRANCH   5  18
BRANCH   3  22
ATOM     22  C   LIG d   1      -7.880  94.726 118.439  0.00  0.00     0.382 C 
ATOM     23  O   LIG d   1      -9.043  94.256 118.467  0.00  0.00    -0.241 OA
ATOM     24  O   LIG d   1      -7.718  95.957 118.343  0.00  0.00    -0.241 OA
ENDBRANCH   3  22
TORSDOF 7
ENDMDL
MODEL 5
REMARK VINA RESULT:      -4.2      3.661      6.397
REMARK  7 active torsions:
REMARK  status: ('A' for Active; 'I' for Inactive)
REMARK    1  A    between atoms: C_2  and  C_3 
REMARK    2  A    between atoms: C_3  and  O_6 
REMARK    3  A    between atoms: C_3  and  C_4 
REMARK    4  A    between atoms: C_7  and  O_6 
REMARK    5  A    between atoms: C_9  and  C_10 
REMARK    6  A    between atoms: N_15  and  C_14 
REMARK    7  A    between atoms: N_20  and  C_19 
REMARK       I    between atoms: C_22  and  N_20 
ROOT
ATOM      1  C   LIG d   1      -4.891  93.288 119.444  0.00  0.00     0.161 C 
ATOM      2  C   LIG d   1      -5.126  92.203 118.583  0.00  0.00     0.016 C 
ATOM      3  C   LIG d   1      -6.203  92.156 117.668  0.00  0.00     0.038 C 
ATOM      4  C   LIG d   1      -7.036  93.262 117.444  0.00  0.00     0.028 C 
ATOM      5  C   LIG d   1      -7.145  94.191 118.648  0.00  0.00    -0.047 C 
ATOM      6  C   LIG d   1      -5.723  94.551 119.136  0.00  0.00     0.091 C 
ENDROOT
BRANCH   1   7
ATOM      7  O   LIG d   1      -3.485  93.605 119.457  0.00  0.00    -0.368 OA
BRANCH   7   8
ATOM      8  C   LIG d   1      -2.817  93.488 120.738  0.00  0.00     0.119 C 
BRANCH   8   9
ATOM      9  C   LIG d   1      -2.066  94.810 120.990  0.00  0.00     0.028 C 
ATOM     10  C   LIG d   1      -2.094  95.744 119.769  0.00  0.00     0.006 C 
ENDBRANCH   8   9
BRANCH   8  11
ATOM     11  C   LIG d   1      -1.735  92.406 120.705  0.00  0.00     0.028 C 
ATOM     12  C   LIG d   1      -1.257  92.084 119.280  0.00  0.00     0.006 C 
ENDBRANCH   8  11
ENDBRANCH   7   8
ENDBRANCH   1   7
BRANCH   6  13
ATOM     13  N   LIG d   1      -5.739  95.389 120.363  0.00  0.00    -0.311 N 
ATOM     14  C   LIG d   1      -5.653  96.718 120.344  0.00  0.00     0.210 C 
ATOM     15  C   LIG d   1      -5.668  97.386 121.722  0.00  0.00     0.109 C 
ATOM     16  O   LIG d   1      -5.597  97.409 119.316  0.00  0.00    -0.276 OA
ATOM     17  H   LIG d   1      -5.813  94.912 121.240  0.00  0.00     0.149 HD
ENDBRANCH   6  13
BRANCH   5  18
ATOM     18  N   LIG d   1      -7.929  95.370 118.233  0.00  0.00     0.381 N 
ATOM     19  H   LIG d   1      -7.448  96.207 118.496  0.00  0.00    -0.090 HD
ATOM     20  H   LIG d   1      -8.815  95.354 118.705  0.00  0.00    -0.090 HD
ATOM     21  H   LIG d   1      -8.069  95.355 117.246  0.00  0.00    -0.090 HD
ENDBRANCH   5  18
BRANCH   3  22
ATOM     22  C   LIG d   1      -6.480  90.976 116.993  0.00  0.00     0.382 C 
ATOM     23  O   LIG d   1      -7.648  90.518 116.986  0.00  0.00    -0.241 OA
ATOM     24  O   LIG d   1      -5.568  90.341 116.430  0.00  0.00    -0.241 OA
ENDBRANCH   3  22
TORSDOF 7
ENDMDL
MODEL 6
REMARK VINA RESULT:      -4.1      2.231      5.220
REMARK  7 active torsions:
REMARK  status: ('A' for Active; 'I' for Inactive)
REMARK    1  A    between atoms: C_2  and  C_3 
REMARK    2  A    between atoms: C_3  and  O_6 
REMARK    3  A    between atoms: C_3  and  C_4 
REMARK    4  A    between atoms: C_7  and  O_6 
REMARK    5  A    between atoms: C_9  and  C_10 
REMARK    6  A    between atoms: N_15  and  C_14 
REMARK    7  A    between atoms: N_20  and  C_19 
REMARK       I    between atoms: C_22  and  N_20 
ROOT
ATOM      1  C   LIG d   1      -0.467  92.265 118.080  0.00  0.00     0.161 C 
ATOM      2  C   LIG d   1      -1.391  91.220 117.916  0.00  0.00     0.016 C 
ATOM      3  C   LIG d   1      -2.791  91.398 118.001  0.00  0.00     0.038 C 
ATOM      4  C   LIG d   1      -3.371  92.671 118.106  0.00  0.00     0.028 C 
ATOM      5  C   LIG d   1      -2.465  93.696 118.780  0.00  0.00    -0.047 C 
ATOM      6  C   LIG d   1      -1.084  93.679 118.085  0.00  0.00     0.091 C 
ENDROOT
BRANCH   1   7
ATOM      7  O   LIG d   1       0.561  92.171 117.074  0.00  0.00    -0.368 OA
BRANCH   7   8
ATOM      8  C   LIG d   1       1.837  91.643 117.515  0.00  0.00     0.119 C 
BRANCH   8   9
ATOM      9  C   LIG d   1       2.792  92.838 117.703  0.00  0.00     0.028 C 
ATOM     10  C   LIG d   1       3.216  93.026 119.169  0.00  0.00     0.006 C 
ENDBRANCH   8   9
BRANCH   8  11
ATOM     11  C   LIG d   1       2.484  90.774 116.432  0.00  0.00     0.028 C 
ATOM     12  C   LIG d   1       3.550  89.819 116.993  0.00  0.00     0.006 C 
ENDBRANCH   8  11
ENDBRANCH   7   8
ENDBRANCH   1   7
BRANCH   6  13
ATOM     13  N   LIG d   1      -0.110  94.593 118.737  0.00  0.00    -0.311 N 
ATOM     14  C   LIG d   1       0.116  95.839 118.324  0.00  0.00     0.210 C 
ATOM     15  C   LIG d   1       1.175  96.603 119.125  0.00  0.00     0.109 C 
ATOM     16  O   LIG d   1      -0.484  96.395 117.391  0.00  0.00    -0.276 OA
ATOM     17  H   LIG d   1       0.398  94.234 119.521  0.00  0.00     0.149 HD
ENDBRANCH   6  13
BRANCH   5  18
ATOM     18  N   LIG d   1      -3.137  95.007 118.699  0.00  0.00     0.381 N 
ATOM     19  H   LIG d   1      -4.104  94.907 118.937  0.00  0.00    -0.090 HD
ATOM     20  H   LIG d   1      -3.077  95.345 117.755  0.00  0.00    -0.090 HD
ATOM     21  H   LIG d   1      -2.700  95.652 119.319  0.00  0.00    -0.090 HD
ENDBRANCH   5  18
BRANCH   3  22
ATOM     22  C   LIG d   1      -3.625  90.291 118.020  0.00  0.00     0.382 C 
ATOM     23  O   LIG d   1      -4.867  90.440 117.930  0.00  0.00    -0.241 OA
ATOM     24  O   LIG d   1      -3.154  89.148 118.172  0.00  0.00    -0.241 OA
ENDBRANCH   3  22
TORSDOF 7
ENDMDL
MODEL 7
REMARK VINA RESULT:      -4.1      2.727      6.200
REMARK  7 active torsions:
REMARK  status: ('A' for Active; 'I' for Inactive)
REMARK    1  A    between atoms: C_2  and  C_3 
REMARK    2  A    between atoms: C_3  and  O_6 
REMARK    3  A    between atoms: C_3  and  C_4 
REMARK    4  A    between atoms: C_7  and  O_6 
REMARK    5  A    between atoms: C_9  and  C_10 
REMARK    6  A    between atoms: N_15  and  C_14 
REMARK    7  A    between atoms: N_20  and  C_19 
REMARK       I    between atoms: C_22  and  N_20 
ROOT
ATOM      1  C   LIG d   1      -3.328  93.063 118.903  0.00  0.00     0.161 C 
ATOM      2  C   LIG d   1      -4.612  93.568 119.170  0.00  0.00     0.016 C 
ATOM      3  C   LIG d   1      -5.790  93.045 118.588  0.00  0.00     0.038 C 
ATOM      4  C   LIG d   1      -5.778  91.877 117.812  0.00  0.00     0.028 C 
ATOM      5  C   LIG d   1      -4.448  91.632 117.107  0.00  0.00    -0.047 C 
ATOM      6  C   LIG d   1      -3.306  91.719 118.146  0.00  0.00     0.091 C 
ENDROOT
BRANCH   1   7
ATOM      7  O   LIG d   1      -2.580  92.959 120.131  0.00  0.00    -0.368 OA
BRANCH   7   8
ATOM      8  C   LIG d   1      -1.490  93.899 120.294  0.00  0.00     0.119 C 
BRANCH   8   9
ATOM      9  C   LIG d   1      -1.491  94.828 119.065  0.00  0.00     0.028 C 
ATOM     10  C   LIG d   1      -1.800  96.289 119.434  0.00  0.00     0.006 C 
ENDBRANCH   8   9
BRANCH   8  11
ATOM     11  C   LIG d   1      -0.133  93.190 120.265  0.00  0.00     0.028 C 
ATOM     12  C   LIG d   1       0.760  93.660 119.106  0.00  0.00     0.006 C 
ENDBRANCH   8  11
ENDBRANCH   7   8
ENDBRANCH   1   7
BRANCH   6  13
ATOM     13  N   LIG d   1      -1.963  91.574 117.526  0.00  0.00    -0.311 N 
ATOM     14  C   LIG d   1      -1.141  90.560 117.787  0.00  0.00     0.210 C 
ATOM     15  C   LIG d   1       0.204  90.614 117.056  0.00  0.00     0.109 C 
ATOM     16  O   LIG d   1      -1.410  89.604 118.530  0.00  0.00    -0.276 OA
ATOM     17  H   LIG d   1      -1.677  92.290 116.886  0.00  0.00     0.149 HD
ENDBRANCH   6  13
BRANCH   5  18
ATOM     18  N   LIG d   1      -4.529  90.315 116.447  0.00  0.00     0.381 N 
ATOM     19  H   LIG d   1      -4.990  90.407 115.564  0.00  0.00    -0.090 HD
ATOM     20  H   LIG d   1      -5.072  89.696 117.023  0.00  0.00    -0.090 HD
ATOM     21  H   LIG d   1      -3.615  89.942 116.316  0.00  0.00    -0.090 HD
ENDBRANCH   5  18
BRANCH   3  22
ATOM     22  C   LIG d   1      -6.992  93.716 118.749  0.00  0.00     0.382 C 
ATOM     23  O   LIG d   1      -7.158  94.479 119.731  0.00  0.00    -0.241 OA
ATOM     24  O   LIG d   1      -7.930  93.535 117.949  0.00  0.00    -0.241 OA
ENDBRANCH   3  22
TORSDOF 7
ENDMDL
MODEL 8
REMARK VINA RESULT:      -4.1      2.231      4.267
REMARK  7 active torsions:
REMARK  status: ('A' for Active; 'I' for Inactive)
REMARK    1  A    between atoms: C_2  and  C_3 
REMARK    2  A    between atoms: C_3  and  O_6 
REMARK    3  A    between atoms: C_3  and  C_4 
REMARK    4  A    between atoms: C_7  and  O_6 
REMARK    5  A    between atoms: C_9  and  C_10 
REMARK    6  A    between atoms: N_15  and  C_14 
REMARK    7  A    between atoms: N_20  and  C_19 
REMARK       I    between atoms: C_22  and  N_20 
ROOT
ATOM      1  C   LIG d   1      -2.664  92.560 118.323  0.00  0.00     0.161 C 
ATOM      2  C   LIG d   1      -2.121  93.806 117.965  0.00  0.00     0.016 C 
ATOM      3  C   LIG d   1      -0.733  94.047 117.855  0.00  0.00     0.038 C 
ATOM      4  C   LIG d   1       0.209  93.011 117.948  0.00  0.00     0.028 C 
ATOM      5  C   LIG d   1      -0.260  91.841 118.805  0.00  0.00    -0.047 C 
ATOM      6  C   LIG d   1      -1.657  91.391 118.319  0.00  0.00     0.091 C 
ENDROOT
BRANCH   1   7
ATOM      7  O   LIG d   1      -3.788  92.255 117.474  0.00  0.00    -0.368 OA
BRANCH   7   8
ATOM      8  C   LIG d   1      -5.084  92.695 117.950  0.00  0.00     0.119 C 
BRANCH   8   9
ATOM      9  C   LIG d   1      -5.504  91.748 119.091  0.00  0.00     0.028 C 
ATOM     10  C   LIG d   1      -5.668  92.482 120.433  0.00  0.00     0.006 C 
ENDBRANCH   8   9
BRANCH   8  11
ATOM     11  C   LIG d   1      -6.159  92.533 116.871  0.00  0.00     0.028 C 
ATOM     12  C   LIG d   1      -6.358  91.070 116.445  0.00  0.00     0.006 C 
ENDBRANCH   8  11
ENDBRANCH   7   8
ENDBRANCH   1   7
BRANCH   6  13
ATOM     13  N   LIG d   1      -2.226  90.304 119.158  0.00  0.00    -0.311 N 
ATOM     14  C   LIG d   1      -2.073  89.010 118.884  0.00  0.00     0.210 C 
ATOM     15  C   LIG d   1      -2.758  88.056 119.868  0.00  0.00     0.109 C 
ATOM     16  O   LIG d   1      -1.408  88.561 117.939  0.00  0.00    -0.276 OA
ATOM     17  H   LIG d   1      -2.754  90.579 119.963  0.00  0.00     0.149 HD
ENDBRANCH   6  13
BRANCH   5  18
ATOM     18  N   LIG d   1       0.758  90.778 118.703  0.00  0.00     0.381 N 
ATOM     19  H   LIG d   1       1.650  91.181 118.501  0.00  0.00    -0.090 HD
ATOM     20  H   LIG d   1       0.511  90.163 117.948  0.00  0.00    -0.090 HD
ATOM     21  H   LIG d   1       0.803  90.266 119.557  0.00  0.00    -0.090 HD
ENDBRANCH   5  18
BRANCH   3  22
ATOM     22  C   LIG d   1      -0.271  95.344 117.688  0.00  0.00     0.382 C 
ATOM     23  O   LIG d   1       0.886  95.651 118.063  0.00  0.00    -0.241 OA
ATOM     24  O   LIG d   1      -1.013  96.221 117.208  0.00  0.00    -0.241 OA
ENDBRANCH   3  22
TORSDOF 7
ENDMDL
MODEL 9
REMARK VINA RESULT:      -4.0      2.316      6.378
REMARK  7 active torsions:
REMARK  status: ('A' for Active; 'I' for Inactive)
REMARK    1  A    between atoms: C_2  and  C_3 
REMARK    2  A    between atoms: C_3  and  O_6 
REMARK    3  A    between atoms: C_3  and  C_4 
REMARK    4  A    between atoms: C_7  and  O_6 
REMARK    5  A    between atoms: C_9  and  C_10 
REMARK    6  A    between atoms: N_15  and  C_14 
REMARK    7  A    between atoms: N_20  and  C_19 
REMARK       I    between atoms: C_22  and  N_20 
ROOT
ATOM      1  C   LIG d   1      -2.262  93.023 117.913  0.00  0.00     0.161 C 
ATOM      2  C   LIG d   1      -3.615  92.970 118.288  0.00  0.00     0.016 C 
ATOM      3  C   LIG d   1      -4.306  91.762 118.538  0.00  0.00     0.038 C 
ATOM      4  C   LIG d   1      -3.646  90.524 118.577  0.00  0.00     0.028 C 
ATOM      5  C   LIG d   1      -2.392  90.479 117.710  0.00  0.00    -0.047 C 
ATOM      6  C   LIG d   1      -1.498  91.691 118.059  0.00  0.00     0.091 C 
ENDROOT
BRANCH   1   7
ATOM      7  O   LIG d   1      -1.593  94.068 118.647  0.00  0.00    -0.368 OA
BRANCH   7   8
ATOM      8  C   LIG d   1      -1.138  95.202 117.869  0.00  0.00     0.119 C 
BRANCH   8   9
ATOM      9  C   LIG d   1       0.392  95.290 118.029  0.00  0.00     0.028 C 
ATOM     10  C   LIG d   1       0.889  94.593 119.306  0.00  0.00     0.006 C 
ENDBRANCH   8   9
BRANCH   8  11
ATOM     11  C   LIG d   1      -1.682  96.518 118.433  0.00  0.00     0.028 C 
ATOM     12  C   LIG d   1      -2.543  96.317 119.690  0.00  0.00     0.006 C 
ENDBRANCH   8  11
ENDBRANCH   7   8
ENDBRANCH   1   7
BRANCH   6  13
ATOM     13  N   LIG d   1      -0.289  91.769 117.197  0.00  0.00    -0.311 N 
ATOM     14  C   LIG d   1       0.896  91.274 117.550  0.00  0.00     0.210 C 
ATOM     15  C   LIG d   1       2.014  91.480 116.523  0.00  0.00     0.109 C 
ATOM     16  O   LIG d   1       1.120  90.656 118.601  0.00  0.00    -0.276 OA
ATOM     17  H   LIG d   1      -0.389  92.227 116.312  0.00  0.00     0.149 HD
ENDBRANCH   6  13
BRANCH   5  18
ATOM     18  N   LIG d   1      -1.731  89.183 117.951  0.00  0.00     0.381 N 
ATOM     19  H   LIG d   1      -1.354  88.831 117.094  0.00  0.00    -0.090 HD
ATOM     20  H   LIG d   1      -2.413  88.528 118.289  0.00  0.00    -0.090 HD
ATOM     21  H   LIG d   1      -1.003  89.292 118.623  0.00  0.00    -0.090 HD
ENDBRANCH   5  18
BRANCH   3  22
ATOM     22  C   LIG d   1      -5.681  91.781 118.714  0.00  0.00     0.382 C 
ATOM     23  O   LIG d   1      -6.421  91.122 117.944  0.00  0.00    -0.241 OA
ATOM     24  O   LIG d   1      -6.195  92.484 119.605  0.00  0.00    -0.241 OA
ENDBRANCH   3  22
TORSDOF 7
ENDMDL
