MODEL 1
REMARK VINA RESULT:      -4.5      0.000      0.000
REMARK  7 active torsions:
REMARK  status: ('A' for Active; 'I' for Inactive)
REMARK    1  A    between atoms: C_2  and  C_3 
REMARK    2  A    between atoms: C_3  and  O_6 
REMARK    3  A    between atoms: C_3  and  C_4 
REMARK    4  A    between atoms: C_7  and  O_6 
REMARK    5  A    between atoms: C_9  and  C_10 
REMARK    6  A    between atoms: N_15  and  C_14 
REMARK    7  A    between atoms: N_20  and  C_19 
REMARK       I    between atoms: C_22  and  N_20 
ROOT
ATOM      1  C   LIG d   1      -4.997  93.041 119.502  0.00  0.00     0.161 C 
ATOM      2  C   LIG d   1      -3.985  92.211 118.993  0.00  0.00     0.016 C 
ATOM      3  C   LIG d   1      -4.060  91.576 117.731  0.00  0.00     0.038 C 
ATOM      4  C   LIG d   1      -5.093  91.853 116.823  0.00  0.00     0.028 C 
ATOM      5  C   LIG d   1      -6.390  92.291 117.495  0.00  0.00    -0.047 C 
ATOM      6  C   LIG d   1      -6.080  93.443 118.479  0.00  0.00     0.091 C 
ENDROOT
BRANCH   1   7
ATOM      7  O   LIG d   1      -4.412  94.215 120.099  0.00  0.00    -0.368 OA
BRANCH   7   8
ATOM      8  C   LIG d   1      -4.001  95.259 119.181  0.00  0.00     0.119 C 
BRANCH   8   9
ATOM      9  C   LIG d   1      -2.474  95.415 119.311  0.00  0.00     0.028 C 
ATOM     10  C   LIG d   1      -1.733  95.037 118.017  0.00  0.00     0.006 C 
ENDBRANCH   8   9
BRANCH   8  11
ATOM     11  C   LIG d   1      -4.583  96.617 119.586  0.00  0.00     0.028 C 
ATOM     12  C   LIG d   1      -5.347  96.565 120.918  0.00  0.00     0.006 C 
ENDBRANCH   8  11
ENDBRANCH   7   8
ENDBRANCH   1   7
BRANCH   6  13
ATOM     13  N   LIG d   1      -7.281  93.875 119.241  0.00  0.00    -0.311 N 
ATOM     14  C   LIG d   1      -8.006  94.945 118.921  0.00  0.00     0.210 C 
ATOM     15  C   LIG d   1      -9.191  95.224 119.851  0.00  0.00     0.109 C 
ATOM     16  O   LIG d   1      -7.800  95.671 117.937  0.00  0.00    -0.276 OA
ATOM     17  H   LIG d   1      -7.538  93.325 120.037  0.00  0.00     0.149 HD
ENDBRANCH   6  13
BRANCH   5  18
ATOM     18  N   LIG d   1      -7.335  92.679 116.431  0.00  0.00     0.381 N 
ATOM     19  H   LIG d   1      -8.154  93.085 116.836  0.00  0.00    -0.090 HD
ATOM     20  H   LIG d   1      -7.609  91.855 115.924  0.00  0.00    -0.090 HD
ATOM     21  H   LIG d   1      -6.904  93.330 115.812  0.00  0.00    -0.090 HD
ENDBRANCH   5  18
BRANCH   3  22
ATOM     22  C   LIG d   1      -3.115  90.624 117.384  0.00  0.00     0.382 C 
ATOM     23  O   LIG d   1      -1.897  90.843 117.593  0.00  0.00    -0.241 OA
ATOM     24  O   LIG d   1      -3.460  89.566 116.823  0.00  0.00    -0.241 OA
ENDBRANCH   3  22
TORSDOF 7
ENDMDL
MODEL 2
REMARK VINA RESULT:      -4.1      1.234      2.041
REMARK  7 active torsions:
REMARK  status: ('A' for Active; 'I' for Inactive)
REMARK    1  A    between atoms: C_2  and  C_3 
REMARK    2  A    between atoms: C_3  and  O_6 
REMARK    3  A    between atoms: C_3  and  C_4 
REMARK    4  A    between atoms: C_7  and  O_6 
REMARK    5  A    between atoms: C_9  and  C_10 
REMARK    6  A    between atoms: N_15  and  C_14 
REMARK    7  A    between atoms: N_20  and  C_19 
REMARK       I    between atoms: C_22  and  N_20 
ROOT
ATOM      1  C   LIG d   1      -5.116  93.109 119.262  0.00  0.00     0.161 C 
ATOM      2  C   LIG d   1      -4.155  92.231 118.733  0.00  0.00     0.016 C 
ATOM      3  C   LIG d   1      -4.340  91.508 117.532  0.00  0.00     0.038 C 
ATOM      4  C   LIG d   1      -5.444  91.731 116.695  0.00  0.00     0.028 C 
ATOM      5  C   LIG d   1      -6.676  92.233 117.439  0.00  0.00    -0.047 C 
ATOM      6  C   LIG d   1      -6.278  93.449 118.306  0.00  0.00     0.091 C 
ENDROOT
BRANCH   1   7
ATOM      7  O   LIG d   1      -4.474  94.316 119.720  0.00  0.00    -0.368 OA
BRANCH   7   8
ATOM      8  C   LIG d   1      -4.468  94.530 121.153  0.00  0.00     0.119 C 
BRANCH   8   9
ATOM      9  C   LIG d   1      -5.152  93.313 121.806  0.00  0.00     0.028 C 
ATOM     10  C   LIG d   1      -6.416  93.702 122.592  0.00  0.00     0.006 C 
ENDBRANCH   8   9
BRANCH   8  11
ATOM     11  C   LIG d   1      -5.329  95.735 121.541  0.00  0.00     0.028 C 
ATOM     12  C   LIG d   1      -5.350  96.826 120.458  0.00  0.00     0.006 C 
ENDBRANCH   8  11
ENDBRANCH   7   8
ENDBRANCH   1   7
BRANCH   6  13
ATOM     13  N   LIG d   1      -7.407  93.950 119.132  0.00  0.00    -0.311 N 
ATOM     14  C   LIG d   1      -8.152  95.002 118.795  0.00  0.00     0.210 C 
ATOM     15  C   LIG d   1      -9.253  95.363 119.797  0.00  0.00     0.109 C 
ATOM     16  O   LIG d   1      -8.026  95.651 117.745  0.00  0.00    -0.276 OA
ATOM     17  H   LIG d   1      -7.600  93.464 119.986  0.00  0.00     0.149 HD
ENDBRANCH   6  13
BRANCH   5  18
ATOM     18  N   LIG d   1      -7.705  92.554 116.431  0.00  0.00     0.381 N 
ATOM     19  H   LIG d   1      -8.348  93.223 116.805  0.00  0.00    -0.090 HD
ATOM     20  H   LIG d   1      -8.214  91.717 116.208  0.00  0.00    -0.090 HD
ATOM     21  H   LIG d   1      -7.275  92.919 115.610  0.00  0.00    -0.090 HD
ENDBRANCH   5  18
BRANCH   3  22
ATOM     22  C   LIG d   1      -3.433  90.521 117.178  0.00  0.00     0.382 C 
ATOM     23  O   LIG d   1      -3.792  89.579 116.430  0.00  0.00    -0.241 OA
ATOM     24  O   LIG d   1      -2.274  90.536 117.632  0.00  0.00    -0.241 OA
ENDBRANCH   3  22
TORSDOF 7
ENDMDL
MODEL 3
REMARK VINA RESULT:      -4.0      4.097      6.830
REMARK  7 active torsions:
REMARK  status: ('A' for Active; 'I' for Inactive)
REMARK    1  A    between atoms: C_2  and  C_3 
REMARK    2  A    between atoms: C_3  and  O_6 
REMARK    3  A    between atoms: C_3  and  C_4 
REMARK    4  A    between atoms: C_7  and  O_6 
REMARK    5  A    between atoms: C_9  and  C_10 
REMARK    6  A    between atoms: N_15  and  C_14 
REMARK    7  A    between atoms: N_20  and  C_19 
REMARK       I    between atoms: C_22  and  N_20 
ROOT
ATOM      1  C   LIG d   1       0.000  91.252 117.146  0.00  0.00     0.161 C 
ATOM      2  C   LIG d   1       1.365  91.485 117.382  0.00  0.00     0.016 C 
ATOM      3  C   LIG d   1       1.846  92.530 118.204  0.00  0.00     0.038 C 
ATOM      4  C   LIG d   1       0.983  93.325 118.973  0.00  0.00     0.028 C 
ATOM      5  C   LIG d   1      -0.415  93.452 118.377  0.00  0.00    -0.047 C 
ATOM      6  C   LIG d   1      -0.958  92.039 118.065  0.00  0.00     0.091 C 
ENDROOT
BRANCH   1   7
ATOM      7  O   LIG d   1      -0.275  89.839 117.228  0.00  0.00    -0.368 OA
BRANCH   7   8
ATOM      8  C   LIG d   1       0.210  89.163 118.414  0.00  0.00     0.119 C 
BRANCH   8   9
ATOM      9  C   LIG d   1       0.844  87.833 117.961  0.00  0.00     0.028 C 
ATOM     10  C   LIG d   1       0.843  87.673 116.432  0.00  0.00     0.006 C 
ENDBRANCH   8   9
BRANCH   8  11
ATOM     11  C   LIG d   1      -0.943  88.768 119.341  0.00  0.00     0.028 C 
ATOM     12  C   LIG d   1      -2.262  88.539 118.587  0.00  0.00     0.006 C 
ENDBRANCH   8  11
ENDBRANCH   7   8
ENDBRANCH   1   7
BRANCH   6  13
ATOM     13  N   LIG d   1      -2.287  92.076 117.401  0.00  0.00    -0.311 N 
ATOM     14  C   LIG d   1      -3.440  92.017 118.065  0.00  0.00     0.210 C 
ATOM     15  C   LIG d   1      -4.695  92.050 117.187  0.00  0.00     0.109 C 
ATOM     16  O   LIG d   1      -3.543  91.973 119.301  0.00  0.00    -0.276 OA
ATOM     17  H   LIG d   1      -2.297  92.143 116.402  0.00  0.00     0.149 HD
ENDBRANCH   6  13
BRANCH   5  18
ATOM     18  N   LIG d   1      -1.248  94.189 119.347  0.00  0.00     0.381 N 
ATOM     19  H   LIG d   1      -1.488  93.591 120.112  0.00  0.00    -0.090 HD
ATOM     20  H   LIG d   1      -2.097  94.478 118.893  0.00  0.00    -0.090 HD
ATOM     21  H   LIG d   1      -0.754  94.987 119.682  0.00  0.00    -0.090 HD
ENDBRANCH   5  18
BRANCH   3  22
ATOM     22  C   LIG d   1       3.203  92.814 118.232  0.00  0.00     0.382 C 
ATOM     23  O   LIG d   1       3.843  92.919 117.159  0.00  0.00    -0.241 OA
ATOM     24  O   LIG d   1       3.803  92.923 119.318  0.00  0.00    -0.241 OA
ENDBRANCH   3  22
TORSDOF 7
ENDMDL
MODEL 4
REMARK VINA RESULT:      -3.9      2.740      5.573
REMARK  7 active torsions:
REMARK  status: ('A' for Active; 'I' for Inactive)
REMARK    1  A    between atoms: C_2  and  C_3 
REMARK    2  A    between atoms: C_3  and  O_6 
REMARK    3  A    between atoms: C_3  and  C_4 
REMARK    4  A    between atoms: C_7  and  O_6 
REMARK    5  A    between atoms: C_9  and  C_10 
REMARK    6  A    between atoms: N_15  and  C_14 
REMARK    7  A    between atoms: N_20  and  C_19 
REMARK       I    between atoms: C_22  and  N_20 
ROOT
ATOM      1  C   LIG d   1      -3.381  93.077 119.582  0.00  0.00     0.161 C 
ATOM      2  C   LIG d   1      -3.246  94.464 119.402  0.00  0.00     0.016 C 
ATOM      3  C   LIG d   1      -2.340  95.045 118.486  0.00  0.00     0.038 C 
ATOM      4  C   LIG d   1      -1.610  94.271 117.572  0.00  0.00     0.028 C 
ATOM      5  C   LIG d   1      -1.340  92.852 118.061  0.00  0.00    -0.047 C 
ATOM      6  C   LIG d   1      -2.674  92.215 118.515  0.00  0.00     0.091 C 
ENDROOT
BRANCH   1   7
ATOM      7  O   LIG d   1      -4.777  92.729 119.662  0.00  0.00    -0.368 OA
BRANCH   7   8
ATOM      8  C   LIG d   1      -5.716  93.768 119.291  0.00  0.00     0.119 C 
BRANCH   8   9
ATOM      9  C   LIG d   1      -6.641  94.009 120.500  0.00  0.00     0.028 C 
ATOM     10  C   LIG d   1      -6.449  92.957 121.605  0.00  0.00     0.006 C 
ENDBRANCH   8   9
BRANCH   8  11
ATOM     11  C   LIG d   1      -6.639  93.308 118.159  0.00  0.00     0.028 C 
ATOM     12  C   LIG d   1      -6.038  92.163 117.329  0.00  0.00     0.006 C 
ENDBRANCH   8  11
ENDBRANCH   7   8
ENDBRANCH   1   7
BRANCH   6  13
ATOM     13  N   LIG d   1      -2.487  90.856 119.087  0.00  0.00    -0.311 N 
ATOM     14  C   LIG d   1      -2.749  89.736 118.416  0.00  0.00     0.210 C 
ATOM     15  C   LIG d   1      -2.506  88.441 119.198  0.00  0.00     0.109 C 
ATOM     16  O   LIG d   1      -3.127  89.691 117.235  0.00  0.00    -0.276 OA
ATOM     17  H   LIG d   1      -2.153  90.799 120.029  0.00  0.00     0.149 HD
ENDBRANCH   6  13
BRANCH   5  18
ATOM     18  N   LIG d   1      -0.694  92.115 116.958  0.00  0.00     0.381 N 
ATOM     19  H   LIG d   1      -1.302  92.095 116.163  0.00  0.00    -0.090 HD
ATOM     20  H   LIG d   1      -0.528  91.169 117.252  0.00  0.00    -0.090 HD
ATOM     21  H   LIG d   1       0.168  92.552 116.715  0.00  0.00    -0.090 HD
ENDBRANCH   5  18
BRANCH   3  22
ATOM     22  C   LIG d   1      -2.128  96.416 118.505  0.00  0.00     0.382 C 
ATOM     23  O   LIG d   1      -3.084  97.195 118.733  0.00  0.00    -0.241 OA
ATOM     24  O   LIG d   1      -1.001  96.884 118.252  0.00  0.00    -0.241 OA
ENDBRANCH   3  22
TORSDOF 7
ENDMDL
MODEL 5
REMARK VINA RESULT:      -3.8      3.660      6.175
REMARK  7 active torsions:
REMARK  status: ('A' for Active; 'I' for Inactive)
REMARK    1  A    between atoms: C_2  and  C_3 
REMARK    2  A    between atoms: C_3  and  O_6 
REMARK    3  A    between atoms: C_3  and  C_4 
REMARK    4  A    between atoms: C_7  and  O_6 
REMARK    5  A    between atoms: C_9  and  C_10 
REMARK    6  A    between atoms: N_15  and  C_14 
REMARK    7  A    between atoms: N_20  and  C_19 
REMARK       I    between atoms: C_22  and  N_20 
ROOT
ATOM      1  C   LIG d   1      -0.733  92.507 118.168  0.00  0.00     0.161 C 
ATOM      2  C   LIG d   1       0.547  91.988 117.911  0.00  0.00     0.016 C 
ATOM      3  C   LIG d   1       1.742  92.624 118.319  0.00  0.00     0.038 C 
ATOM      4  C   LIG d   1       1.733  93.755 119.149  0.00  0.00     0.028 C 
ATOM      5  C   LIG d   1       0.470  94.598 119.011  0.00  0.00    -0.047 C 
ATOM      6  C   LIG d   1      -0.765  93.682 119.168  0.00  0.00     0.091 C 
ENDROOT
BRANCH   1   7
ATOM      7  O   LIG d   1      -1.610  91.451 118.607  0.00  0.00    -0.368 OA
BRANCH   7   8
ATOM      8  C   LIG d   1      -2.477  90.881 117.596  0.00  0.00     0.119 C 
BRANCH   8   9
ATOM      9  C   LIG d   1      -3.892  91.443 117.828  0.00  0.00     0.028 C 
ATOM     10  C   LIG d   1      -4.845  91.137 116.661  0.00  0.00     0.006 C 
ENDBRANCH   8   9
BRANCH   8  11
ATOM     11  C   LIG d   1      -2.610  89.365 117.767  0.00  0.00     0.028 C 
ATOM     12  C   LIG d   1      -1.934  88.848 119.048  0.00  0.00     0.006 C 
ENDBRANCH   8  11
ENDBRANCH   7   8
ENDBRANCH   1   7
BRANCH   6  13
ATOM     13  N   LIG d   1      -2.043  94.413 118.963  0.00  0.00    -0.311 N 
ATOM     14  C   LIG d   1      -2.998  94.492 119.887  0.00  0.00     0.210 C 
ATOM     15  C   LIG d   1      -4.244  95.277 119.463  0.00  0.00     0.109 C 
ATOM     16  O   LIG d   1      -2.919  94.015 121.029  0.00  0.00    -0.276 OA
ATOM     17  H   LIG d   1      -2.177  94.856 118.075  0.00  0.00     0.149 HD
ENDBRANCH   6  13
BRANCH   5  18
ATOM     18  N   LIG d   1       0.532  95.665 120.028  0.00  0.00     0.381 N 
ATOM     19  H   LIG d   1       0.377  95.275 120.937  0.00  0.00    -0.090 HD
ATOM     20  H   LIG d   1      -0.195  96.333 119.843  0.00  0.00    -0.090 HD
ATOM     21  H   LIG d   1       1.421  96.113 119.998  0.00  0.00    -0.090 HD
ENDBRANCH   5  18
BRANCH   3  22
ATOM     22  C   LIG d   1       2.963  92.152 117.863  0.00  0.00     0.382 C 
ATOM     23  O   LIG d   1       3.686  92.879 117.141  0.00  0.00    -0.241 OA
ATOM     24  O   LIG d   1       3.330  90.991 118.127  0.00  0.00    -0.241 OA
ENDBRANCH   3  22
TORSDOF 7
ENDMDL
MODEL 6
REMARK VINA RESULT:      -3.7      2.849      5.420
REMARK  7 active torsions:
REMARK  status: ('A' for Active; 'I' for Inactive)
REMARK    1  A    between atoms: C_2  and  C_3 
REMARK    2  A    between atoms: C_3  and  O_6 
REMARK    3  A    between atoms: C_3  and  C_4 
REMARK    4  A    between atoms: C_7  and  O_6 
REMARK    5  A    between atoms: C_9  and  C_10 
REMARK    6  A    between atoms: N_15  and  C_14 
REMARK    7  A    between atoms: N_20  and  C_19 
REMARK       I    between atoms: C_22  and  N_20 
ROOT
ATOM      1  C   LIG d   1      -3.589  93.208 118.912  0.00  0.00     0.161 C 
ATOM      2  C   LIG d   1      -4.941  93.411 118.591  0.00  0.00     0.016 C 
ATOM      3  C   LIG d   1      -5.672  92.561 117.729  0.00  0.00     0.038 C 
ATOM      4  C   LIG d   1      -5.138  91.357 117.248  0.00  0.00     0.028 C 
ATOM      5  C   LIG d   1      -3.617  91.369 117.138  0.00  0.00    -0.047 C 
ATOM      6  C   LIG d   1      -3.021  91.838 118.485  0.00  0.00     0.091 C 
ENDROOT
BRANCH   1   7
ATOM      7  O   LIG d   1      -3.386  93.416 120.324  0.00  0.00    -0.368 OA
BRANCH   7   8
ATOM      8  C   LIG d   1      -3.974  92.428 121.205  0.00  0.00     0.119 C 
BRANCH   8   9
ATOM      9  C   LIG d   1      -4.886  93.176 122.197  0.00  0.00     0.028 C 
ATOM     10  C   LIG d   1      -6.373  92.833 122.000  0.00  0.00     0.006 C 
ENDBRANCH   8   9
BRANCH   8  11
ATOM     11  C   LIG d   1      -2.908  91.747 122.069  0.00  0.00     0.028 C 
ATOM     12  C   LIG d   1      -1.595  92.543 122.133  0.00  0.00     0.006 C 
ENDBRANCH   8  11
ENDBRANCH   7   8
ENDBRANCH   1   7
BRANCH   6  13
ATOM     13  N   LIG d   1      -1.541  91.960 118.438  0.00  0.00    -0.311 N 
ATOM     14  C   LIG d   1      -0.713  90.994 118.831  0.00  0.00     0.210 C 
ATOM     15  C   LIG d   1       0.777  91.333 118.718  0.00  0.00     0.109 C 
ATOM     16  O   LIG d   1      -1.070  89.876 119.232  0.00  0.00    -0.276 OA
ATOM     17  H   LIG d   1      -1.165  92.823 118.096  0.00  0.00     0.149 HD
ENDBRANCH   6  13
BRANCH   5  18
ATOM     18  N   LIG d   1      -3.186  90.011 116.757  0.00  0.00     0.381 N 
ATOM     19  H   LIG d   1      -2.252  89.850 117.075  0.00  0.00    -0.090 HD
ATOM     20  H   LIG d   1      -3.195  89.937 115.755  0.00  0.00    -0.090 HD
ATOM     21  H   LIG d   1      -3.801  89.335 117.153  0.00  0.00    -0.090 HD
ENDBRANCH   5  18
BRANCH   3  22
ATOM     22  C   LIG d   1      -6.940  92.934 117.310  0.00  0.00     0.382 C 
ATOM     23  O   LIG d   1      -7.532  92.263 116.430  0.00  0.00    -0.241 OA
ATOM     24  O   LIG d   1      -7.481  93.958 117.767  0.00  0.00    -0.241 OA
ENDBRANCH   3  22
TORSDOF 7
ENDMDL
MODEL 7
REMARK VINA RESULT:      -3.7      3.661      5.940
REMARK  7 active torsions:
REMARK  status: ('A' for Active; 'I' for Inactive)
REMARK    1  A    between atoms: C_2  and  C_3 
REMARK    2  A    between atoms: C_3  and  O_6 
REMARK    3  A    between atoms: C_3  and  C_4 
REMARK    4  A    between atoms: C_7  and  O_6 
REMARK    5  A    between atoms: C_9  and  C_10 
REMARK    6  A    between atoms: N_15  and  C_14 
REMARK    7  A    between atoms: N_20  and  C_19 
REMARK       I    between atoms: C_22  and  N_20 
ROOT
ATOM      1  C   LIG d   1      -1.796  93.109 117.637  0.00  0.00     0.161 C 
ATOM      2  C   LIG d   1      -3.179  92.879 117.556  0.00  0.00     0.016 C 
ATOM      3  C   LIG d   1      -3.750  91.588 117.483  0.00  0.00     0.038 C 
ATOM      4  C   LIG d   1      -2.979  90.426 117.638  0.00  0.00     0.028 C 
ATOM      5  C   LIG d   1      -1.525  90.603 117.216  0.00  0.00    -0.047 C 
ATOM      6  C   LIG d   1      -0.946  91.852 117.920  0.00  0.00     0.091 C 
ENDROOT
BRANCH   1   7
ATOM      7  O   LIG d   1      -1.526  94.127 118.621  0.00  0.00    -0.368 OA
BRANCH   7   8
ATOM      8  C   LIG d   1      -1.555  93.700 120.005  0.00  0.00     0.119 C 
BRANCH   8   9
ATOM      9  C   LIG d   1      -2.746  94.405 120.682  0.00  0.00     0.028 C 
ATOM     10  C   LIG d   1      -3.890  93.433 121.017  0.00  0.00     0.006 C 
ENDBRANCH   8   9
BRANCH   8  11
ATOM     11  C   LIG d   1      -0.314  94.182 120.763  0.00  0.00     0.028 C 
ATOM     12  C   LIG d   1       0.758  94.775 119.834  0.00  0.00     0.006 C 
ENDBRANCH   8  11
ENDBRANCH   7   8
ENDBRANCH   1   7
BRANCH   6  13
ATOM     13  N   LIG d   1       0.448  92.146 117.497  0.00  0.00    -0.311 N 
ATOM     14  C   LIG d   1       1.520  91.739 118.173  0.00  0.00     0.210 C 
ATOM     15  C   LIG d   1       2.863  92.168 117.574  0.00  0.00     0.109 C 
ATOM     16  O   LIG d   1       1.488  91.035 119.194  0.00  0.00    -0.276 OA
ATOM     17  H   LIG d   1       0.567  92.686 116.662  0.00  0.00     0.149 HD
ENDBRANCH   6  13
BRANCH   5  18
ATOM     18  N   LIG d   1      -0.807  89.361 117.559  0.00  0.00     0.381 N 
ATOM     19  H   LIG d   1      -0.028  89.239 116.943  0.00  0.00    -0.090 HD
ATOM     20  H   LIG d   1      -1.429  88.582 117.439  0.00  0.00    -0.090 HD
ATOM     21  H   LIG d   1      -0.490  89.400 118.503  0.00  0.00    -0.090 HD
ENDBRANCH   5  18
BRANCH   3  22
ATOM     22  C   LIG d   1      -5.103  91.449 117.211  0.00  0.00     0.382 C 
ATOM     23  O   LIG d   1      -5.937  92.188 117.788  0.00  0.00    -0.241 OA
ATOM     24  O   LIG d   1      -5.503  90.565 116.430  0.00  0.00    -0.241 OA
ENDBRANCH   3  22
TORSDOF 7
ENDMDL
MODEL 8
REMARK VINA RESULT:      -3.7      2.798      5.167
REMARK  7 active torsions:
REMARK  status: ('A' for Active; 'I' for Inactive)
REMARK    1  A    between atoms: C_2  and  C_3 
REMARK    2  A    between atoms: C_3  and  O_6 
REMARK    3  A    between atoms: C_3  and  C_4 
REMARK    4  A    between atoms: C_7  and  O_6 
REMARK    5  A    between atoms: C_9  and  C_10 
REMARK    6  A    between atoms: N_15  and  C_14 
REMARK    7  A    between atoms: N_20  and  C_19 
REMARK       I    between atoms: C_22  and  N_20 
ROOT
ATOM      1  C   LIG d   1      -2.336  91.828 117.931  0.00  0.00     0.161 C 
ATOM      2  C   LIG d   1      -0.994  92.075 118.264  0.00  0.00     0.016 C 
ATOM      3  C   LIG d   1      -0.534  93.311 118.776  0.00  0.00     0.038 C 
ATOM      4  C   LIG d   1      -1.418  94.340 119.134  0.00  0.00     0.028 C 
ATOM      5  C   LIG d   1      -2.723  94.319 118.345  0.00  0.00    -0.047 C 
ATOM      6  C   LIG d   1      -3.332  92.900 118.420  0.00  0.00     0.091 C 
ENDROOT
BRANCH   1   7
ATOM      7  O   LIG d   1      -2.726  90.526 118.412  0.00  0.00    -0.368 OA
BRANCH   7   8
ATOM      8  C   LIG d   1      -1.657  89.682 118.906  0.00  0.00     0.119 C 
BRANCH   8   9
ATOM      9  C   LIG d   1      -1.583  88.445 117.990  0.00  0.00     0.028 C 
ATOM     10  C   LIG d   1      -0.171  88.216 117.427  0.00  0.00     0.006 C 
ENDBRANCH   8   9
BRANCH   8  11
ATOM     11  C   LIG d   1      -1.978  89.136 120.301  0.00  0.00     0.028 C 
ATOM     12  C   LIG d   1      -2.246  90.247 121.328  0.00  0.00     0.006 C 
ENDBRANCH   8  11
ENDBRANCH   7   8
ENDBRANCH   1   7
BRANCH   6  13
ATOM     13  N   LIG d   1      -4.568  92.771 117.605  0.00  0.00    -0.311 N 
ATOM     14  C   LIG d   1      -5.795  92.856 118.116  0.00  0.00     0.210 C 
ATOM     15  C   LIG d   1      -6.931  92.674 117.104  0.00  0.00     0.109 C 
ATOM     16  O   LIG d   1      -6.051  93.097 119.305  0.00  0.00    -0.276 OA
ATOM     17  H   LIG d   1      -4.452  92.605 116.624  0.00  0.00     0.149 HD
ENDBRANCH   6  13
BRANCH   5  18
ATOM     18  N   LIG d   1      -3.603  95.357 118.914  0.00  0.00     0.381 N 
ATOM     19  H   LIG d   1      -4.041  95.871 118.176  0.00  0.00    -0.090 HD
ATOM     20  H   LIG d   1      -3.047  95.995 119.456  0.00  0.00    -0.090 HD
ATOM     21  H   LIG d   1      -4.297  94.936 119.493  0.00  0.00    -0.090 HD
ENDBRANCH   5  18
BRANCH   3  22
ATOM     22  C   LIG d   1       0.828  93.540 118.896  0.00  0.00     0.382 C 
ATOM     23  O   LIG d   1       1.647  92.680 118.492  0.00  0.00    -0.241 OA
ATOM     24  O   LIG d   1       1.248  94.577 119.444  0.00  0.00    -0.241 OA
ENDBRANCH   3  22
TORSDOF 7
ENDMDL
MODEL 9
REMARK VINA RESULT:      -3.7      2.720      4.904
REMARK  7 active torsions:
REMARK  status: ('A' for Active; 'I' for Inactive)
REMARK    1  A    between atoms: C_2  and  C_3 
REMARK    2  A    between atoms: C_3  and  O_6 
REMARK    3  A    between atoms: C_3  and  C_4 
REMARK    4  A    between atoms: C_7  and  O_6 
REMARK    5  A    between atoms: C_9  and  C_10 
REMARK    6  A    between atoms: N_15  and  C_14 
REMARK    7  A    between atoms: N_20  and  C_19 
REMARK       I    between atoms: C_22  and  N_20 
ROOT
ATOM      1  C   LIG d   1      -3.752  92.974 119.101  0.00  0.00     0.161 C 
ATOM      2  C   LIG d   1      -5.070  93.237 118.693  0.00  0.00     0.016 C 
ATOM      3  C   LIG d   1      -5.737  92.497 117.689  0.00  0.00     0.038 C 
ATOM      4  C   LIG d   1      -5.178  91.339 117.128  0.00  0.00     0.028 C 
ATOM      5  C   LIG d   1      -3.654  91.332 117.146  0.00  0.00    -0.047 C 
ATOM      6  C   LIG d   1      -3.167  91.645 118.579  0.00  0.00     0.091 C 
ENDROOT
BRANCH   1   7
ATOM      7  O   LIG d   1      -3.666  93.029 120.539  0.00  0.00    -0.368 OA
BRANCH   7   8
ATOM      8  C   LIG d   1      -3.100  94.240 121.097  0.00  0.00     0.119 C 
BRANCH   8   9
ATOM      9  C   LIG d   1      -1.676  93.904 121.584  0.00  0.00     0.028 C 
ATOM     10  C   LIG d   1      -0.589  94.522 120.688  0.00  0.00     0.006 C 
ENDBRANCH   8   9
BRANCH   8  11
ATOM     11  C   LIG d   1      -3.861  94.685 122.349  0.00  0.00     0.028 C 
ATOM     12  C   LIG d   1      -5.337  94.255 122.333  0.00  0.00     0.006 C 
ENDBRANCH   8  11
ENDBRANCH   7   8
ENDBRANCH   1   7
BRANCH   6  13
ATOM     13  N   LIG d   1      -1.686  91.740 118.667  0.00  0.00    -0.311 N 
ATOM     14  C   LIG d   1      -0.906  90.722 119.026  0.00  0.00     0.210 C 
ATOM     15  C   LIG d   1       0.592  91.040 119.071  0.00  0.00     0.109 C 
ATOM     16  O   LIG d   1      -1.310  89.577 119.280  0.00  0.00    -0.276 OA
ATOM     17  H   LIG d   1      -1.272  92.625 118.447  0.00  0.00     0.149 HD
ENDBRANCH   6  13
BRANCH   5  18
ATOM     18  N   LIG d   1      -3.209  90.012 116.659  0.00  0.00     0.381 N 
ATOM     19  H   LIG d   1      -2.584  89.599 117.323  0.00  0.00    -0.090 HD
ATOM     20  H   LIG d   1      -2.713  90.135 115.794  0.00  0.00    -0.090 HD
ATOM     21  H   LIG d   1      -3.996  89.418 116.518  0.00  0.00    -0.090 HD
ENDBRANCH   5  18
BRANCH   3  22
ATOM     22  C   LIG d   1      -6.960  92.938 117.208  0.00  0.00     0.382 C 
ATOM     23  O   LIG d   1      -7.424  94.039 117.592  0.00  0.00    -0.241 OA
ATOM     24  O   LIG d   1      -7.626  92.229 116.431  0.00  0.00    -0.241 OA
ENDBRANCH   3  22
TORSDOF 7
ENDMDL
