MODEL 1
REMARK VINA RESULT:      -4.7      0.000      0.000
REMARK  7 active torsions:
REMARK  status: ('A' for Active; 'I' for Inactive)
REMARK    1  A    between atoms: C_2  and  C_3 
REMARK    2  A    between atoms: C_3  and  O_6 
REMARK    3  A    between atoms: C_3  and  C_4 
REMARK    4  A    between atoms: C_7  and  O_6 
REMARK    5  A    between atoms: C_9  and  C_10 
REMARK    6  A    between atoms: N_15  and  C_14 
REMARK    7  A    between atoms: N_20  and  C_19 
REMARK       I    between atoms: C_22  and  N_20 
ROOT
ATOM      1  C   LIG d   1      -4.539  92.843 118.343  0.00  0.00     0.161 C 
ATOM      2  C   LIG d   1      -3.519  91.920 118.058  0.00  0.00     0.016 C 
ATOM      3  C   LIG d   1      -3.721  90.747 117.295  0.00  0.00     0.038 C 
ATOM      4  C   LIG d   1      -4.932  90.493 116.634  0.00  0.00     0.028 C 
ATOM      5  C   LIG d   1      -6.138  91.140 117.307  0.00  0.00    -0.047 C 
ATOM      6  C   LIG d   1      -5.839  92.639 117.537  0.00  0.00     0.091 C 
ENDROOT
BRANCH   1   7
ATOM      7  O   LIG d   1      -4.046  94.186 118.167  0.00  0.00    -0.368 OA
BRANCH   7   8
ATOM      8  C   LIG d   1      -3.845  94.955 119.378  0.00  0.00     0.119 C 
BRANCH   8   9
ATOM      9  C   LIG d   1      -4.154  96.428 119.048  0.00  0.00     0.028 C 
ATOM     10  C   LIG d   1      -5.664  96.712 118.987  0.00  0.00     0.006 C 
ENDBRANCH   8   9
BRANCH   8  11
ATOM     11  C   LIG d   1      -2.377  94.936 119.814  0.00  0.00     0.028 C 
ATOM     12  C   LIG d   1      -1.950  96.230 120.524  0.00  0.00     0.006 C 
ENDBRANCH   8  11
ENDBRANCH   7   8
ENDBRANCH   1   7
BRANCH   6  13
ATOM     13  N   LIG d   1      -6.933  93.330 118.267  0.00  0.00    -0.311 N 
ATOM     14  C   LIG d   1      -7.924  93.981 117.659  0.00  0.00     0.210 C 
ATOM     15  C   LIG d   1      -8.938  94.640 118.599  0.00  0.00     0.109 C 
ATOM     16  O   LIG d   1      -8.076  94.048 116.430  0.00  0.00    -0.276 OA
ATOM     17  H   LIG d   1      -6.905  93.299 119.267  0.00  0.00     0.149 HD
ENDBRANCH   6  13
BRANCH   5  18
ATOM     18  N   LIG d   1      -7.309  90.911 116.440  0.00  0.00     0.381 N 
ATOM     19  H   LIG d   1      -7.011  90.547 115.557  0.00  0.00    -0.090 HD
ATOM     20  H   LIG d   1      -7.771  91.788 116.279  0.00  0.00    -0.090 HD
ATOM     21  H   LIG d   1      -7.936  90.271 116.876  0.00  0.00    -0.090 HD
ENDBRANCH   5  18
BRANCH   3  22
ATOM     22  C   LIG d   1      -2.718  89.793 117.221  0.00  0.00     0.382 C 
ATOM     23  O   LIG d   1      -1.575  90.116 116.815  0.00  0.00    -0.241 OA
ATOM     24  O   LIG d   1      -2.952  88.606 117.513  0.00  0.00    -0.241 OA
ENDBRANCH   3  22
TORSDOF 7
ENDMDL
MODEL 2
REMARK VINA RESULT:      -4.5      1.957      5.018
REMARK  7 active torsions:
REMARK  status: ('A' for Active; 'I' for Inactive)
REMARK    1  A    between atoms: C_2  and  C_3 
REMARK    2  A    between atoms: C_3  and  O_6 
REMARK    3  A    between atoms: C_3  and  C_4 
REMARK    4  A    between atoms: C_7  and  O_6 
REMARK    5  A    between atoms: C_9  and  C_10 
REMARK    6  A    between atoms: N_15  and  C_14 
REMARK    7  A    between atoms: N_20  and  C_19 
REMARK       I    between atoms: C_22  and  N_20 
ROOT
ATOM      1  C   LIG d   1      -4.416  93.753 118.267  0.00  0.00     0.161 C 
ATOM      2  C   LIG d   1      -5.604  94.503 118.229  0.00  0.00     0.016 C 
ATOM      3  C   LIG d   1      -6.802  94.033 117.645  0.00  0.00     0.038 C 
ATOM      4  C   LIG d   1      -6.938  92.713 117.189  0.00  0.00     0.028 C 
ATOM      5  C   LIG d   1      -5.619  92.086 116.749  0.00  0.00    -0.047 C 
ATOM      6  C   LIG d   1      -4.576  92.269 117.875  0.00  0.00     0.091 C 
ENDROOT
BRANCH   1   7
ATOM      7  O   LIG d   1      -3.810  93.864 119.570  0.00  0.00    -0.368 OA
BRANCH   7   8
ATOM      8  C   LIG d   1      -4.708  94.155 120.669  0.00  0.00     0.119 C 
BRANCH   8   9
ATOM      9  C   LIG d   1      -3.973  95.113 121.627  0.00  0.00     0.028 C 
ATOM     10  C   LIG d   1      -2.787  95.823 120.951  0.00  0.00     0.006 C 
ENDBRANCH   8   9
BRANCH   8  11
ATOM     11  C   LIG d   1      -5.001  92.900 121.496  0.00  0.00     0.028 C 
ATOM     12  C   LIG d   1      -6.506  92.656 121.694  0.00  0.00     0.006 C 
ENDBRANCH   8  11
ENDBRANCH   7   8
ENDBRANCH   1   7
BRANCH   6  13
ATOM     13  N   LIG d   1      -3.234  91.759 117.492  0.00  0.00    -0.311 N 
ATOM     14  C   LIG d   1      -2.868  90.485 117.628  0.00  0.00     0.210 C 
ATOM     15  C   LIG d   1      -1.433  90.175 117.192  0.00  0.00     0.109 C 
ATOM     16  O   LIG d   1      -3.606  89.577 118.039  0.00  0.00    -0.276 OA
ATOM     17  H   LIG d   1      -2.582  92.422 117.121  0.00  0.00     0.149 HD
ENDBRANCH   6  13
BRANCH   5  18
ATOM     18  N   LIG d   1      -5.883  90.671 116.430  0.00  0.00     0.381 N 
ATOM     19  H   LIG d   1      -6.864  90.534 116.284  0.00  0.00    -0.090 HD
ATOM     20  H   LIG d   1      -5.598  90.103 117.209  0.00  0.00    -0.090 HD
ATOM     21  H   LIG d   1      -5.378  90.405 115.614  0.00  0.00    -0.090 HD
ENDBRANCH   5  18
BRANCH   3  22
ATOM     22  C   LIG d   1      -7.870  94.901 117.475  0.00  0.00     0.382 C 
ATOM     23  O   LIG d   1      -9.005  94.451 117.186  0.00  0.00    -0.241 OA
ATOM     24  O   LIG d   1      -7.704  96.133 117.563  0.00  0.00    -0.241 OA
ENDBRANCH   3  22
TORSDOF 7
ENDMDL
MODEL 3
REMARK VINA RESULT:      -4.1      2.505      4.946
REMARK  7 active torsions:
REMARK  status: ('A' for Active; 'I' for Inactive)
REMARK    1  A    between atoms: C_2  and  C_3 
REMARK    2  A    between atoms: C_3  and  O_6 
REMARK    3  A    between atoms: C_3  and  C_4 
REMARK    4  A    between atoms: C_7  and  O_6 
REMARK    5  A    between atoms: C_9  and  C_10 
REMARK    6  A    between atoms: N_15  and  C_14 
REMARK    7  A    between atoms: N_20  and  C_19 
REMARK       I    between atoms: C_22  and  N_20 
ROOT
ATOM      1  C   LIG d   1      -3.051  93.047 117.819  0.00  0.00     0.161 C 
ATOM      2  C   LIG d   1      -4.416  93.243 117.552  0.00  0.00     0.016 C 
ATOM      3  C   LIG d   1      -5.297  92.197 117.193  0.00  0.00     0.038 C 
ATOM      4  C   LIG d   1      -4.902  90.851 117.225  0.00  0.00     0.028 C 
ATOM      5  C   LIG d   1      -3.408  90.653 116.998  0.00  0.00    -0.047 C 
ATOM      6  C   LIG d   1      -2.627  91.570 117.967  0.00  0.00     0.091 C 
ENDROOT
BRANCH   1   7
ATOM      7  O   LIG d   1      -2.669  93.797 118.989  0.00  0.00    -0.368 OA
BRANCH   7   8
ATOM      8  C   LIG d   1      -3.624  93.809 120.078  0.00  0.00     0.119 C 
BRANCH   8   9
ATOM      9  C   LIG d   1      -3.649  95.237 120.657  0.00  0.00     0.028 C 
ATOM     10  C   LIG d   1      -2.992  96.262 119.718  0.00  0.00     0.006 C 
ENDBRANCH   8   9
BRANCH   8  11
ATOM     11  C   LIG d   1      -3.164  92.912 121.232  0.00  0.00     0.028 C 
ATOM     12  C   LIG d   1      -1.634  92.835 121.353  0.00  0.00     0.006 C 
ENDBRANCH   8  11
ENDBRANCH   7   8
ENDBRANCH   1   7
BRANCH   6  13
ATOM     13  N   LIG d   1      -1.158  91.501 117.754  0.00  0.00    -0.311 N 
ATOM     14  C   LIG d   1      -0.352  90.704 118.453  0.00  0.00     0.210 C 
ATOM     15  C   LIG d   1       1.132  90.802 118.087  0.00  0.00     0.109 C 
ATOM     16  O   LIG d   1      -0.730  89.901 119.320  0.00  0.00    -0.276 OA
ATOM     17  H   LIG d   1      -0.771  92.096 117.048  0.00  0.00     0.149 HD
ENDBRANCH   6  13
BRANCH   5  18
ATOM     18  N   LIG d   1      -3.113  89.221 117.194  0.00  0.00     0.381 N 
ATOM     19  H   LIG d   1      -2.806  88.818 116.331  0.00  0.00    -0.090 HD
ATOM     20  H   LIG d   1      -3.954  88.752 117.479  0.00  0.00    -0.090 HD
ATOM     21  H   LIG d   1      -2.409  89.110 117.890  0.00  0.00    -0.090 HD
ENDBRANCH   5  18
BRANCH   3  22
ATOM     22  C   LIG d   1      -6.580  92.497 116.759  0.00  0.00     0.382 C 
ATOM     23  O   LIG d   1      -7.412  91.576 116.578  0.00  0.00    -0.241 OA
ATOM     24  O   LIG d   1      -6.901  93.673 116.503  0.00  0.00    -0.241 OA
ENDBRANCH   3  22
TORSDOF 7
ENDMDL
MODEL 4
REMARK VINA RESULT:      -4.0      2.498      4.530
REMARK  7 active torsions:
REMARK  status: ('A' for Active; 'I' for Inactive)
REMARK    1  A    between atoms: C_2  and  C_3 
REMARK    2  A    between atoms: C_3  and  O_6 
REMARK    3  A    between atoms: C_3  and  C_4 
REMARK    4  A    between atoms: C_7  and  O_6 
REMARK    5  A    between atoms: C_9  and  C_10 
REMARK    6  A    between atoms: N_15  and  C_14 
REMARK    7  A    between atoms: N_20  and  C_19 
REMARK       I    between atoms: C_22  and  N_20 
ROOT
ATOM      1  C   LIG d   1      -3.626  93.565 118.074  0.00  0.00     0.161 C 
ATOM      2  C   LIG d   1      -3.492  92.258 117.578  0.00  0.00     0.016 C 
ATOM      3  C   LIG d   1      -2.617  91.299 118.138  0.00  0.00     0.038 C 
ATOM      4  C   LIG d   1      -1.923  91.538 119.334  0.00  0.00     0.028 C 
ATOM      5  C   LIG d   1      -1.641  93.015 119.586  0.00  0.00    -0.047 C 
ATOM      6  C   LIG d   1      -2.961  93.808 119.445  0.00  0.00     0.091 C 
ENDROOT
BRANCH   1   7
ATOM      7  O   LIG d   1      -5.020  93.929 118.123  0.00  0.00    -0.368 OA
BRANCH   7   8
ATOM      8  C   LIG d   1      -5.962  92.895 117.744  0.00  0.00     0.119 C 
BRANCH   8   9
ATOM      9  C   LIG d   1      -6.861  93.472 116.633  0.00  0.00     0.028 C 
ATOM     10  C   LIG d   1      -7.914  94.451 117.180  0.00  0.00     0.006 C 
ENDBRANCH   8   9
BRANCH   8  11
ATOM     11  C   LIG d   1      -6.910  92.555 118.898  0.00  0.00     0.028 C 
ATOM     12  C   LIG d   1      -6.392  93.044 120.259  0.00  0.00     0.006 C 
ENDBRANCH   8  11
ENDBRANCH   7   8
ENDBRANCH   1   7
BRANCH   6  13
ATOM     13  N   LIG d   1      -2.760  95.273 119.594  0.00  0.00    -0.311 N 
ATOM     14  C   LIG d   1      -2.891  95.917 120.752  0.00  0.00     0.210 C 
ATOM     15  C   LIG d   1      -2.660  97.430 120.681  0.00  0.00     0.109 C 
ATOM     16  O   LIG d   1      -3.146  95.375 121.838  0.00  0.00    -0.276 OA
ATOM     17  H   LIG d   1      -2.520  95.787 118.769  0.00  0.00     0.149 HD
ENDBRANCH   6  13
BRANCH   5  18
ATOM     18  N   LIG d   1      -1.038  93.131 120.928  0.00  0.00     0.381 N 
ATOM     19  H   LIG d   1      -0.643  94.042 121.044  0.00  0.00    -0.090 HD
ATOM     20  H   LIG d   1      -0.300  92.454 121.011  0.00  0.00    -0.090 HD
ATOM     21  H   LIG d   1      -1.729  92.968 121.627  0.00  0.00    -0.090 HD
ENDBRANCH   5  18
BRANCH   3  22
ATOM     22  C   LIG d   1      -2.398  90.100 117.477  0.00  0.00     0.382 C 
ATOM     23  O   LIG d   1      -3.250  89.182 117.546  0.00  0.00    -0.241 OA
ATOM     24  O   LIG d   1      -1.339  89.908 116.850  0.00  0.00    -0.241 OA
ENDBRANCH   3  22
TORSDOF 7
ENDMDL
MODEL 5
REMARK VINA RESULT:      -3.9      3.751      6.577
REMARK  7 active torsions:
REMARK  status: ('A' for Active; 'I' for Inactive)
REMARK    1  A    between atoms: C_2  and  C_3 
REMARK    2  A    between atoms: C_3  and  O_6 
REMARK    3  A    between atoms: C_3  and  C_4 
REMARK    4  A    between atoms: C_7  and  O_6 
REMARK    5  A    between atoms: C_9  and  C_10 
REMARK    6  A    between atoms: N_15  and  C_14 
REMARK    7  A    between atoms: N_20  and  C_19 
REMARK       I    between atoms: C_22  and  N_20 
ROOT
ATOM      1  C   LIG d   1      -1.059  91.566 118.165  0.00  0.00     0.161 C 
ATOM      2  C   LIG d   1      -2.202  91.092 117.499  0.00  0.00     0.016 C 
ATOM      3  C   LIG d   1      -3.437  91.780 117.489  0.00  0.00     0.038 C 
ATOM      4  C   LIG d   1      -3.572  93.071 118.021  0.00  0.00     0.028 C 
ATOM      5  C   LIG d   1      -2.582  93.370 119.142  0.00  0.00    -0.047 C 
ATOM      6  C   LIG d   1      -1.155  93.025 118.657  0.00  0.00     0.091 C 
ENDROOT
BRANCH   1   7
ATOM      7  O   LIG d   1       0.101  91.396 117.326  0.00  0.00    -0.368 OA
BRANCH   7   8
ATOM      8  C   LIG d   1       1.108  90.474 117.810  0.00  0.00     0.119 C 
BRANCH   8   9
ATOM      9  C   LIG d   1       2.480  91.003 117.350  0.00  0.00     0.028 C 
ATOM     10  C   LIG d   1       3.056  92.055 118.312  0.00  0.00     0.006 C 
ENDBRANCH   8   9
BRANCH   8  11
ATOM     11  C   LIG d   1       0.964  89.097 117.155  0.00  0.00     0.028 C 
ATOM     12  C   LIG d   1       2.144  88.162 117.467  0.00  0.00     0.006 C 
ENDBRANCH   8  11
ENDBRANCH   7   8
ENDBRANCH   1   7
BRANCH   6  13
ATOM     13  N   LIG d   1      -0.134  93.209 119.721  0.00  0.00    -0.311 N 
ATOM     14  C   LIG d   1       0.565  94.332 119.880  0.00  0.00     0.210 C 
ATOM     15  C   LIG d   1       1.580  94.304 121.027  0.00  0.00     0.109 C 
ATOM     16  O   LIG d   1       0.417  95.359 119.201  0.00  0.00    -0.276 OA
ATOM     17  H   LIG d   1       0.027  92.437 120.337  0.00  0.00     0.149 HD
ENDBRANCH   6  13
BRANCH   5  18
ATOM     18  N   LIG d   1      -2.740  94.790 119.509  0.00  0.00     0.381 N 
ATOM     19  H   LIG d   1      -1.844  95.233 119.544  0.00  0.00    -0.090 HD
ATOM     20  H   LIG d   1      -3.154  94.845 120.423  0.00  0.00    -0.090 HD
ATOM     21  H   LIG d   1      -3.321  95.251 118.844  0.00  0.00    -0.090 HD
ENDBRANCH   5  18
BRANCH   3  22
ATOM     22  C   LIG d   1      -4.565  91.158 116.977  0.00  0.00     0.382 C 
ATOM     23  O   LIG d   1      -4.667  89.908 117.022  0.00  0.00    -0.241 OA
ATOM     24  O   LIG d   1      -5.463  91.827 116.430  0.00  0.00    -0.241 OA
ENDBRANCH   3  22
TORSDOF 7
ENDMDL
MODEL 6
REMARK VINA RESULT:      -3.9      2.627      5.466
REMARK  7 active torsions:
REMARK  status: ('A' for Active; 'I' for Inactive)
REMARK    1  A    between atoms: C_2  and  C_3 
REMARK    2  A    between atoms: C_3  and  O_6 
REMARK    3  A    between atoms: C_3  and  C_4 
REMARK    4  A    between atoms: C_7  and  O_6 
REMARK    5  A    between atoms: C_9  and  C_10 
REMARK    6  A    between atoms: N_15  and  C_14 
REMARK    7  A    between atoms: N_20  and  C_19 
REMARK       I    between atoms: C_22  and  N_20 
ROOT
ATOM      1  C   LIG d   1      -4.015  93.383 118.678  0.00  0.00     0.161 C 
ATOM      2  C   LIG d   1      -5.034  93.064 117.765  0.00  0.00     0.016 C 
ATOM      3  C   LIG d   1      -6.202  93.843 117.598  0.00  0.00     0.038 C 
ATOM      4  C   LIG d   1      -6.361  95.086 118.230  0.00  0.00     0.028 C 
ATOM      5  C   LIG d   1      -5.590  95.201 119.540  0.00  0.00    -0.047 C 
ATOM      6  C   LIG d   1      -4.119  94.793 119.295  0.00  0.00     0.091 C 
ENDROOT
BRANCH   1   7
ATOM      7  O   LIG d   1      -2.728  93.202 118.056  0.00  0.00    -0.368 OA
BRANCH   7   8
ATOM      8  C   LIG d   1      -1.915  92.122 118.577  0.00  0.00     0.119 C 
BRANCH   8   9
ATOM      9  C   LIG d   1      -1.885  91.010 117.510  0.00  0.00     0.028 C 
ATOM     10  C   LIG d   1      -0.500  90.353 117.386  0.00  0.00     0.006 C 
ENDBRANCH   8   9
BRANCH   8  11
ATOM     11  C   LIG d   1      -2.560  91.483 119.810  0.00  0.00     0.028 C 
ATOM     12  C   LIG d   1      -1.642  91.507 121.043  0.00  0.00     0.006 C 
ENDBRANCH   8  11
ENDBRANCH   7   8
ENDBRANCH   1   7
BRANCH   6  13
ATOM     13  N   LIG d   1      -3.314  94.798 120.545  0.00  0.00    -0.311 N 
ATOM     14  C   LIG d   1      -2.177  95.478 120.682  0.00  0.00     0.210 C 
ATOM     15  C   LIG d   1      -1.495  95.329 122.045  0.00  0.00     0.109 C 
ATOM     16  O   LIG d   1      -1.686  96.216 119.815  0.00  0.00    -0.276 OA
ATOM     17  H   LIG d   1      -3.657  94.250 121.310  0.00  0.00     0.149 HD
ENDBRANCH   6  13
BRANCH   5  18
ATOM     18  N   LIG d   1      -5.733  96.589 120.020  0.00  0.00     0.381 N 
ATOM     19  H   LIG d   1      -4.971  97.143 119.685  0.00  0.00    -0.090 HD
ATOM     20  H   LIG d   1      -5.706  96.590 121.025  0.00  0.00    -0.090 HD
ATOM     21  H   LIG d   1      -6.596  96.972 119.704  0.00  0.00    -0.090 HD
ENDBRANCH   5  18
BRANCH   3  22
ATOM     22  C   LIG d   1      -7.245  93.361 116.821  0.00  0.00     0.382 C 
ATOM     23  O   LIG d   1      -8.184  94.124 116.489  0.00  0.00    -0.241 OA
ATOM     24  O   LIG d   1      -7.281  92.162 116.486  0.00  0.00    -0.241 OA
ENDBRANCH   3  22
TORSDOF 7
ENDMDL
MODEL 7
REMARK VINA RESULT:      -3.9      3.911      6.165
REMARK  7 active torsions:
REMARK  status: ('A' for Active; 'I' for Inactive)
REMARK    1  A    between atoms: C_2  and  C_3 
REMARK    2  A    between atoms: C_3  and  O_6 
REMARK    3  A    between atoms: C_3  and  C_4 
REMARK    4  A    between atoms: C_7  and  O_6 
REMARK    5  A    between atoms: C_9  and  C_10 
REMARK    6  A    between atoms: N_15  and  C_14 
REMARK    7  A    between atoms: N_20  and  C_19 
REMARK       I    between atoms: C_22  and  N_20 
ROOT
ATOM      1  C   LIG d   1      -1.152  92.497 118.464  0.00  0.00     0.161 C 
ATOM      2  C   LIG d   1      -2.506  92.153 118.321  0.00  0.00     0.016 C 
ATOM      3  C   LIG d   1      -2.943  90.911 117.806  0.00  0.00     0.038 C 
ATOM      4  C   LIG d   1      -2.049  89.864 117.537  0.00  0.00     0.028 C 
ATOM      5  C   LIG d   1      -0.643  90.342 117.190  0.00  0.00    -0.047 C 
ATOM      6  C   LIG d   1      -0.164  91.326 118.281  0.00  0.00     0.091 C 
ENDROOT
BRANCH   1   7
ATOM      7  O   LIG d   1      -0.941  93.135 119.739  0.00  0.00    -0.368 OA
BRANCH   7   8
ATOM      8  C   LIG d   1      -0.929  94.584 119.733  0.00  0.00     0.119 C 
BRANCH   8   9
ATOM      9  C   LIG d   1       0.544  95.034 119.774  0.00  0.00     0.028 C 
ATOM     10  C   LIG d   1       1.384  94.206 120.762  0.00  0.00     0.006 C 
ENDBRANCH   8   9
BRANCH   8  11
ATOM     11  C   LIG d   1      -1.562  95.152 121.006  0.00  0.00     0.028 C 
ATOM     12  C   LIG d   1      -2.475  94.142 121.720  0.00  0.00     0.006 C 
ENDBRANCH   8  11
ENDBRANCH   7   8
ENDBRANCH   1   7
BRANCH   6  13
ATOM     13  N   LIG d   1       1.170  91.906 117.974  0.00  0.00    -0.311 N 
ATOM     14  C   LIG d   1       2.313  91.397 118.429  0.00  0.00     0.210 C 
ATOM     15  C   LIG d   1       3.573  92.161 118.011  0.00  0.00     0.109 C 
ATOM     16  O   LIG d   1       2.406  90.367 119.113  0.00  0.00    -0.276 OA
ATOM     17  H   LIG d   1       1.189  92.726 117.399  0.00  0.00     0.149 HD
ENDBRANCH   6  13
BRANCH   5  18
ATOM     18  N   LIG d   1       0.216  89.149 117.069  0.00  0.00     0.381 N 
ATOM     19  H   LIG d   1       0.199  88.631 117.926  0.00  0.00    -0.090 HD
ATOM     20  H   LIG d   1       1.161  89.444 116.898  0.00  0.00    -0.090 HD
ATOM     21  H   LIG d   1      -0.101  88.574 116.320  0.00  0.00    -0.090 HD
ENDBRANCH   5  18
BRANCH   3  22
ATOM     22  C   LIG d   1      -4.285  90.721 117.516  0.00  0.00     0.382 C 
ATOM     23  O   LIG d   1      -5.147  91.494 118.001  0.00  0.00    -0.241 OA
ATOM     24  O   LIG d   1      -4.650  89.761 116.812  0.00  0.00    -0.241 OA
ENDBRANCH   3  22
TORSDOF 7
ENDMDL
MODEL 8
REMARK VINA RESULT:      -3.8      2.742      5.660
REMARK  7 active torsions:
REMARK  status: ('A' for Active; 'I' for Inactive)
REMARK    1  A    between atoms: C_2  and  C_3 
REMARK    2  A    between atoms: C_3  and  O_6 
REMARK    3  A    between atoms: C_3  and  C_4 
REMARK    4  A    between atoms: C_7  and  O_6 
REMARK    5  A    between atoms: C_9  and  C_10 
REMARK    6  A    between atoms: N_15  and  C_14 
REMARK    7  A    between atoms: N_20  and  C_19 
REMARK       I    between atoms: C_22  and  N_20 
ROOT
ATOM      1  C   LIG d   1      -2.150  91.943 118.349  0.00  0.00     0.161 C 
ATOM      2  C   LIG d   1      -2.933  93.091 118.554  0.00  0.00     0.016 C 
ATOM      3  C   LIG d   1      -4.266  93.216 118.099  0.00  0.00     0.038 C 
ATOM      4  C   LIG d   1      -4.961  92.137 117.535  0.00  0.00     0.028 C 
ATOM      5  C   LIG d   1      -4.051  91.121 116.852  0.00  0.00    -0.047 C 
ATOM      6  C   LIG d   1      -2.928  90.714 117.833  0.00  0.00     0.091 C 
ENDROOT
BRANCH   1   7
ATOM      7  O   LIG d   1      -1.438  91.614 119.558  0.00  0.00    -0.368 OA
BRANCH   7   8
ATOM      8  C   LIG d   1      -2.157  90.805 120.521  0.00  0.00     0.119 C 
BRANCH   8   9
ATOM      9  C   LIG d   1      -2.407  91.680 121.765  0.00  0.00     0.028 C 
ATOM     10  C   LIG d   1      -3.857  92.186 121.843  0.00  0.00     0.006 C 
ENDBRANCH   8   9
BRANCH   8  11
ATOM     11  C   LIG d   1      -1.301  89.634 121.014  0.00  0.00     0.028 C 
ATOM     12  C   LIG d   1      -2.119  88.577 121.772  0.00  0.00     0.006 C 
ENDBRANCH   8  11
ENDBRANCH   7   8
ENDBRANCH   1   7
BRANCH   6  13
ATOM     13  N   LIG d   1      -1.945  89.786 117.216  0.00  0.00    -0.311 N 
ATOM     14  C   LIG d   1      -1.879  88.488 117.507  0.00  0.00     0.210 C 
ATOM     15  C   LIG d   1      -0.779  87.716 116.772  0.00  0.00     0.109 C 
ATOM     16  O   LIG d   1      -2.649  87.896 118.279  0.00  0.00    -0.276 OA
ATOM     17  H   LIG d   1      -1.302  90.176 116.555  0.00  0.00     0.149 HD
ENDBRANCH   6  13
BRANCH   5  18
ATOM     18  N   LIG d   1      -4.890  89.983 116.430  0.00  0.00     0.381 N 
ATOM     19  H   LIG d   1      -4.410  89.447 115.736  0.00  0.00    -0.090 HD
ATOM     20  H   LIG d   1      -5.738  90.338 116.024  0.00  0.00    -0.090 HD
ATOM     21  H   LIG d   1      -5.105  89.408 117.215  0.00  0.00    -0.090 HD
ENDBRANCH   5  18
BRANCH   3  22
ATOM     22  C   LIG d   1      -4.904  94.446 118.170  0.00  0.00     0.382 C 
ATOM     23  O   LIG d   1      -4.303  95.437 118.650  0.00  0.00    -0.241 OA
ATOM     24  O   LIG d   1      -6.087  94.565 117.801  0.00  0.00    -0.241 OA
ENDBRANCH   3  22
TORSDOF 7
ENDMDL
MODEL 9
REMARK VINA RESULT:      -3.7      2.347      3.057
REMARK  7 active torsions:
REMARK  status: ('A' for Active; 'I' for Inactive)
REMARK    1  A    between atoms: C_2  and  C_3 
REMARK    2  A    between atoms: C_3  and  O_6 
REMARK    3  A    between atoms: C_3  and  C_4 
REMARK    4  A    between atoms: C_7  and  O_6 
REMARK    5  A    between atoms: C_9  and  C_10 
REMARK    6  A    between atoms: N_15  and  C_14 
REMARK    7  A    between atoms: N_20  and  C_19 
REMARK       I    between atoms: C_22  and  N_20 
ROOT
ATOM      1  C   LIG d   1      -2.114  92.665 119.256  0.00  0.00     0.161 C 
ATOM      2  C   LIG d   1      -0.780  92.252 119.100  0.00  0.00     0.016 C 
ATOM      3  C   LIG d   1      -0.377  91.256 118.181  0.00  0.00     0.038 C 
ATOM      4  C   LIG d   1      -1.265  90.709 117.243  0.00  0.00     0.028 C 
ATOM      5  C   LIG d   1      -2.719  90.728 117.702  0.00  0.00    -0.047 C 
ATOM      6  C   LIG d   1      -3.080  92.159 118.164  0.00  0.00     0.091 C 
ENDROOT
BRANCH   1   7
ATOM      7  O   LIG d   1      -2.172  94.102 119.350  0.00  0.00    -0.368 OA
BRANCH   7   8
ATOM      8  C   LIG d   1      -2.527  94.642 120.647  0.00  0.00     0.119 C 
BRANCH   8   9
ATOM      9  C   LIG d   1      -3.443  95.858 120.407  0.00  0.00     0.028 C 
ATOM     10  C   LIG d   1      -3.990  95.906 118.971  0.00  0.00     0.006 C 
ENDBRANCH   8   9
BRANCH   8  11
ATOM     11  C   LIG d   1      -1.298  95.196 121.374  0.00  0.00     0.028 C 
ATOM     12  C   LIG d   1      -0.289  95.856 120.421  0.00  0.00     0.006 C 
ENDBRANCH   8  11
ENDBRANCH   7   8
ENDBRANCH   1   7
BRANCH   6  13
ATOM     13  N   LIG d   1      -4.460  92.247 118.709  0.00  0.00    -0.311 N 
ATOM     14  C   LIG d   1      -5.507  92.648 117.990  0.00  0.00     0.210 C 
ATOM     15  C   LIG d   1      -6.837  92.685 118.750  0.00  0.00     0.109 C 
ATOM     16  O   LIG d   1      -5.467  92.945 116.786  0.00  0.00    -0.276 OA
ATOM     17  H   LIG d   1      -4.588  91.995 119.669  0.00  0.00     0.149 HD
ENDBRANCH   6  13
BRANCH   5  18
ATOM     18  N   LIG d   1      -3.548  90.258 116.577  0.00  0.00     0.381 N 
ATOM     19  H   LIG d   1      -3.706  91.008 115.935  0.00  0.00    -0.090 HD
ATOM     20  H   LIG d   1      -4.438  89.955 116.933  0.00  0.00    -0.090 HD
ATOM     21  H   LIG d   1      -3.095  89.502 116.112  0.00  0.00    -0.090 HD
ENDBRANCH   5  18
BRANCH   3  22
ATOM     22  C   LIG d   1       0.921  90.768 118.221  0.00  0.00     0.382 C 
ATOM     23  O   LIG d   1       1.191  89.762 118.920  0.00  0.00    -0.241 OA
ATOM     24  O   LIG d   1       1.833  91.349 117.603  0.00  0.00    -0.241 OA
ENDBRANCH   3  22
TORSDOF 7
ENDMDL
