MODEL 1
REMARK VINA RESULT:      -4.8      0.000      0.000
REMARK  7 active torsions:
REMARK  status: ('A' for Active; 'I' for Inactive)
REMARK    1  A    between atoms: C_2  and  C_3 
REMARK    2  A    between atoms: C_3  and  O_6 
REMARK    3  A    between atoms: C_3  and  C_4 
REMARK    4  A    between atoms: C_7  and  O_6 
REMARK    5  A    between atoms: C_9  and  C_10 
REMARK    6  A    between atoms: N_15  and  C_14 
REMARK    7  A    between atoms: N_20  and  C_19 
REMARK       I    between atoms: C_22  and  N_20 
ROOT
ATOM      1  C   LIG d   1      -5.508  92.556 120.027  0.00  0.00     0.161 C 
ATOM      2  C   LIG d   1      -4.480  91.722 119.557  0.00  0.00     0.016 C 
ATOM      3  C   LIG d   1      -4.498  91.104 118.286  0.00  0.00     0.038 C 
ATOM      4  C   LIG d   1      -5.481  91.401 117.331  0.00  0.00     0.028 C 
ATOM      5  C   LIG d   1      -6.806  91.844 117.944  0.00  0.00    -0.047 C 
ATOM      6  C   LIG d   1      -6.536  92.980 118.956  0.00  0.00     0.091 C 
ENDROOT
BRANCH   1   7
ATOM      7  O   LIG d   1      -4.943  93.717 120.666  0.00  0.00    -0.368 OA
BRANCH   7   8
ATOM      8  C   LIG d   1      -4.493  94.775 119.784  0.00  0.00     0.119 C 
BRANCH   8   9
ATOM      9  C   LIG d   1      -2.977  94.946 120.003  0.00  0.00     0.028 C 
ATOM     10  C   LIG d   1      -2.156  94.531 118.770  0.00  0.00     0.006 C 
ENDBRANCH   8   9
BRANCH   8  11
ATOM     11  C   LIG d   1      -5.112  96.122 120.168  0.00  0.00     0.028 C 
ATOM     12  C   LIG d   1      -5.965  96.043 121.444  0.00  0.00     0.006 C 
ENDBRANCH   8  11
ENDBRANCH   7   8
ENDBRANCH   1   7
BRANCH   6  13
ATOM     13  N   LIG d   1      -7.769  93.414 119.663  0.00  0.00    -0.311 N 
ATOM     14  C   LIG d   1      -8.551  94.402 119.233  0.00  0.00     0.210 C 
ATOM     15  C   LIG d   1      -9.762  94.702 120.122  0.00  0.00     0.109 C 
ATOM     16  O   LIG d   1      -8.375  95.038 118.182  0.00  0.00    -0.276 OA
ATOM     17  H   LIG d   1      -8.004  92.932 120.508  0.00  0.00     0.149 HD
ENDBRANCH   6  13
BRANCH   5  18
ATOM     18  N   LIG d   1      -7.693  92.253 116.839  0.00  0.00     0.381 N 
ATOM     19  H   LIG d   1      -8.352  91.525 116.645  0.00  0.00    -0.090 HD
ATOM     20  H   LIG d   1      -7.138  92.403 116.015  0.00  0.00    -0.090 HD
ATOM     21  H   LIG d   1      -8.175  93.090 117.081  0.00  0.00    -0.090 HD
ENDBRANCH   5  18
BRANCH   3  22
ATOM     22  C   LIG d   1      -3.544  90.147 117.974  0.00  0.00     0.382 C 
ATOM     23  O   LIG d   1      -2.338  90.347 118.255  0.00  0.00    -0.241 OA
ATOM     24  O   LIG d   1      -3.869  89.104 117.374  0.00  0.00    -0.241 OA
ENDBRANCH   3  22
TORSDOF 7
ENDMDL
MODEL 2
REMARK VINA RESULT:      -4.7      2.123      5.274
REMARK  7 active torsions:
REMARK  status: ('A' for Active; 'I' for Inactive)
REMARK    1  A    between atoms: C_2  and  C_3 
REMARK    2  A    between atoms: C_3  and  O_6 
REMARK    3  A    between atoms: C_3  and  C_4 
REMARK    4  A    between atoms: C_7  and  O_6 
REMARK    5  A    between atoms: C_9  and  C_10 
REMARK    6  A    between atoms: N_15  and  C_14 
REMARK    7  A    between atoms: N_20  and  C_19 
REMARK       I    between atoms: C_22  and  N_20 
ROOT
ATOM      1  C   LIG d   1      -4.622  92.904 119.122  0.00  0.00     0.161 C 
ATOM      2  C   LIG d   1      -5.828  93.623 119.118  0.00  0.00     0.016 C 
ATOM      3  C   LIG d   1      -6.928  93.292 118.293  0.00  0.00     0.038 C 
ATOM      4  C   LIG d   1      -6.951  92.121 117.521  0.00  0.00     0.028 C 
ATOM      5  C   LIG d   1      -5.563  91.640 117.110  0.00  0.00    -0.047 C 
ATOM      6  C   LIG d   1      -4.668  91.558 118.368  0.00  0.00     0.091 C 
ENDROOT
BRANCH   1   7
ATOM      7  O   LIG d   1      -4.177  92.703 120.478  0.00  0.00    -0.368 OA
BRANCH   7   8
ATOM      8  C   LIG d   1      -4.600  91.471 121.112  0.00  0.00     0.119 C 
BRANCH   8   9
ATOM      9  C   LIG d   1      -5.518  91.848 122.290  0.00  0.00     0.028 C 
ATOM     10  C   LIG d   1      -5.224  93.255 122.837  0.00  0.00     0.006 C 
ENDBRANCH   8   9
BRANCH   8  11
ATOM     11  C   LIG d   1      -3.415  90.733 121.741  0.00  0.00     0.028 C 
ATOM     12  C   LIG d   1      -2.073  91.440 121.495  0.00  0.00     0.006 C 
ENDBRANCH   8  11
ENDBRANCH   7   8
ENDBRANCH   1   7
BRANCH   6  13
ATOM     13  N   LIG d   1      -3.269  91.176 118.044  0.00  0.00    -0.311 N 
ATOM     14  C   LIG d   1      -2.820  89.923 118.098  0.00  0.00     0.210 C 
ATOM     15  C   LIG d   1      -1.339  89.751 117.744  0.00  0.00     0.109 C 
ATOM     16  O   LIG d   1      -3.515  88.934 118.375  0.00  0.00    -0.276 OA
ATOM     17  H   LIG d   1      -2.644  91.912 117.779  0.00  0.00     0.149 HD
ENDBRANCH   6  13
BRANCH   5  18
ATOM     18  N   LIG d   1      -5.725  90.341 116.430  0.00  0.00     0.381 N 
ATOM     19  H   LIG d   1      -4.829  89.981 116.170  0.00  0.00    -0.090 HD
ATOM     20  H   LIG d   1      -6.266  90.477 115.595  0.00  0.00    -0.090 HD
ATOM     21  H   LIG d   1      -6.187  89.696 117.033  0.00  0.00    -0.090 HD
ENDBRANCH   5  18
BRANCH   3  22
ATOM     22  C   LIG d   1      -8.007  94.160 118.205  0.00  0.00     0.382 C 
ATOM     23  O   LIG d   1      -7.815  95.399 118.197  0.00  0.00    -0.241 OA
ATOM     24  O   LIG d   1      -9.171  93.719 118.180  0.00  0.00    -0.241 OA
ENDBRANCH   3  22
TORSDOF 7
ENDMDL
MODEL 3
REMARK VINA RESULT:      -4.7      1.944      4.986
REMARK  7 active torsions:
REMARK  status: ('A' for Active; 'I' for Inactive)
REMARK    1  A    between atoms: C_2  and  C_3 
REMARK    2  A    between atoms: C_3  and  O_6 
REMARK    3  A    between atoms: C_3  and  C_4 
REMARK    4  A    between atoms: C_7  and  O_6 
REMARK    5  A    between atoms: C_9  and  C_10 
REMARK    6  A    between atoms: N_15  and  C_14 
REMARK    7  A    between atoms: N_20  and  C_19 
REMARK       I    between atoms: C_22  and  N_20 
ROOT
ATOM      1  C   LIG d   1      -4.688  92.829 119.294  0.00  0.00     0.161 C 
ATOM      2  C   LIG d   1      -5.889  93.558 119.279  0.00  0.00     0.016 C 
ATOM      3  C   LIG d   1      -6.957  93.281 118.395  0.00  0.00     0.038 C 
ATOM      4  C   LIG d   1      -6.955  92.152 117.562  0.00  0.00     0.028 C 
ATOM      5  C   LIG d   1      -5.555  91.681 117.183  0.00  0.00    -0.047 C 
ATOM      6  C   LIG d   1      -4.713  91.525 118.470  0.00  0.00     0.091 C 
ENDROOT
BRANCH   1   7
ATOM      7  O   LIG d   1      -4.301  92.555 120.655  0.00  0.00    -0.368 OA
BRANCH   7   8
ATOM      8  C   LIG d   1      -3.111  93.232 121.128  0.00  0.00     0.119 C 
BRANCH   8   9
ATOM      9  C   LIG d   1      -2.522  94.018 119.940  0.00  0.00     0.028 C 
ATOM     10  C   LIG d   1      -1.065  93.627 119.643  0.00  0.00     0.006 C 
ENDBRANCH   8   9
BRANCH   8  11
ATOM     11  C   LIG d   1      -2.023  92.232 121.532  0.00  0.00     0.028 C 
ATOM     12  C   LIG d   1      -2.567  90.808 121.727  0.00  0.00     0.006 C 
ENDBRANCH   8  11
ENDBRANCH   7   8
ENDBRANCH   1   7
BRANCH   6  13
ATOM     13  N   LIG d   1      -3.304  91.148 118.183  0.00  0.00    -0.311 N 
ATOM     14  C   LIG d   1      -2.877  89.888 118.143  0.00  0.00     0.210 C 
ATOM     15  C   LIG d   1      -1.382  89.721 117.850  0.00  0.00     0.109 C 
ATOM     16  O   LIG d   1      -3.599  88.891 118.290  0.00  0.00    -0.276 OA
ATOM     17  H   LIG d   1      -2.656  91.894 118.021  0.00  0.00     0.149 HD
ENDBRANCH   6  13
BRANCH   5  18
ATOM     18  N   LIG d   1      -5.698  90.420 116.430  0.00  0.00     0.381 N 
ATOM     19  H   LIG d   1      -5.071  89.733 116.798  0.00  0.00    -0.090 HD
ATOM     20  H   LIG d   1      -5.455  90.586 115.469  0.00  0.00    -0.090 HD
ATOM     21  H   LIG d   1      -6.636  90.091 116.491  0.00  0.00    -0.090 HD
ENDBRANCH   5  18
BRANCH   3  22
ATOM     22  C   LIG d   1      -8.025  94.161 118.309  0.00  0.00     0.382 C 
ATOM     23  O   LIG d   1      -7.817  95.398 118.290  0.00  0.00    -0.241 OA
ATOM     24  O   LIG d   1      -9.195  93.735 118.295  0.00  0.00    -0.241 OA
ENDBRANCH   3  22
TORSDOF 7
ENDMDL
MODEL 4
REMARK VINA RESULT:      -4.5      1.867      2.535
REMARK  7 active torsions:
REMARK  status: ('A' for Active; 'I' for Inactive)
REMARK    1  A    between atoms: C_2  and  C_3 
REMARK    2  A    between atoms: C_3  and  O_6 
REMARK    3  A    between atoms: C_3  and  C_4 
REMARK    4  A    between atoms: C_7  and  O_6 
REMARK    5  A    between atoms: C_9  and  C_10 
REMARK    6  A    between atoms: N_15  and  C_14 
REMARK    7  A    between atoms: N_20  and  C_19 
REMARK       I    between atoms: C_22  and  N_20 
ROOT
ATOM      1  C   LIG d   1      -5.597  92.824 119.690  0.00  0.00     0.161 C 
ATOM      2  C   LIG d   1      -5.547  91.808 118.721  0.00  0.00     0.016 C 
ATOM      3  C   LIG d   1      -6.384  91.777 117.581  0.00  0.00     0.038 C 
ATOM      4  C   LIG d   1      -7.229  92.848 117.254  0.00  0.00     0.028 C 
ATOM      5  C   LIG d   1      -7.680  93.657 118.465  0.00  0.00    -0.047 C 
ATOM      6  C   LIG d   1      -6.436  94.056 119.292  0.00  0.00     0.091 C 
ENDROOT
BRANCH   1   7
ATOM      7  O   LIG d   1      -4.260  93.223 120.050  0.00  0.00    -0.368 OA
BRANCH   7   8
ATOM      8  C   LIG d   1      -3.607  94.151 119.149  0.00  0.00     0.119 C 
BRANCH   8   9
ATOM      9  C   LIG d   1      -2.266  93.521 118.726  0.00  0.00     0.028 C 
ATOM     10  C   LIG d   1      -2.061  92.120 119.327  0.00  0.00     0.006 C 
ENDBRANCH   8   9
BRANCH   8  11
ATOM     11  C   LIG d   1      -3.236  95.454 119.863  0.00  0.00     0.028 C 
ATOM     12  C   LIG d   1      -3.262  95.321 121.394  0.00  0.00     0.006 C 
ENDBRANCH   8  11
ENDBRANCH   7   8
ENDBRANCH   1   7
BRANCH   6  13
ATOM     13  N   LIG d   1      -6.793  94.779 120.541  0.00  0.00    -0.311 N 
ATOM     14  C   LIG d   1      -6.841  96.107 120.631  0.00  0.00     0.210 C 
ATOM     15  C   LIG d   1      -7.211  96.648 122.015  0.00  0.00     0.109 C 
ATOM     16  O   LIG d   1      -6.642  96.888 119.688  0.00  0.00    -0.276 OA
ATOM     17  H   LIG d   1      -7.000  94.222 121.347  0.00  0.00     0.149 HD
ENDBRANCH   6  13
BRANCH   5  18
ATOM     18  N   LIG d   1      -8.441  94.818 117.968  0.00  0.00     0.381 N 
ATOM     19  H   LIG d   1      -7.973  95.665 118.225  0.00  0.00    -0.090 HD
ATOM     20  H   LIG d   1      -9.350  94.818 118.395  0.00  0.00    -0.090 HD
ATOM     21  H   LIG d   1      -8.531  94.768 116.977  0.00  0.00    -0.090 HD
ENDBRANCH   5  18
BRANCH   3  22
ATOM     22  C   LIG d   1      -6.408  90.648 116.777  0.00  0.00     0.382 C 
ATOM     23  O   LIG d   1      -7.506  90.149 116.430  0.00  0.00    -0.241 OA
ATOM     24  O   LIG d   1      -5.346  90.097 116.430  0.00  0.00    -0.241 OA
ENDBRANCH   3  22
TORSDOF 7
ENDMDL
MODEL 5
REMARK VINA RESULT:      -4.3      2.306      5.716
REMARK  7 active torsions:
REMARK  status: ('A' for Active; 'I' for Inactive)
REMARK    1  A    between atoms: C_2  and  C_3 
REMARK    2  A    between atoms: C_3  and  O_6 
REMARK    3  A    between atoms: C_3  and  C_4 
REMARK    4  A    between atoms: C_7  and  O_6 
REMARK    5  A    between atoms: C_9  and  C_10 
REMARK    6  A    between atoms: N_15  and  C_14 
REMARK    7  A    between atoms: N_20  and  C_19 
REMARK       I    between atoms: C_22  and  N_20 
ROOT
ATOM      1  C   LIG d   1      -5.585  93.275 120.374  0.00  0.00     0.161 C 
ATOM      2  C   LIG d   1      -6.974  93.396 120.199  0.00  0.00     0.016 C 
ATOM      3  C   LIG d   1      -7.599  94.574 119.732  0.00  0.00     0.038 C 
ATOM      4  C   LIG d   1      -6.860  95.670 119.262  0.00  0.00     0.028 C 
ATOM      5  C   LIG d   1      -5.476  95.782 119.892  0.00  0.00    -0.047 C 
ATOM      6  C   LIG d   1      -4.754  94.421 119.761  0.00  0.00     0.091 C 
ENDROOT
BRANCH   1   7
ATOM      7  O   LIG d   1      -5.137  92.003 119.864  0.00  0.00    -0.368 OA
BRANCH   7   8
ATOM      8  C   LIG d   1      -4.596  92.010 118.520  0.00  0.00     0.119 C 
BRANCH   8   9
ATOM      9  C   LIG d   1      -5.572  91.224 117.624  0.00  0.00     0.028 C 
ATOM     10  C   LIG d   1      -6.419  92.144 116.729  0.00  0.00     0.006 C 
ENDBRANCH   8   9
BRANCH   8  11
ATOM     11  C   LIG d   1      -3.272  91.243 118.448  0.00  0.00     0.028 C 
ATOM     12  C   LIG d   1      -3.465  89.751 118.137  0.00  0.00     0.006 C 
ENDBRANCH   8  11
ENDBRANCH   7   8
ENDBRANCH   1   7
BRANCH   6  13
ATOM     13  N   LIG d   1      -3.425  94.419 120.427  0.00  0.00    -0.311 N 
ATOM     14  C   LIG d   1      -2.283  94.658 119.785  0.00  0.00     0.210 C 
ATOM     15  C   LIG d   1      -1.024  94.587 120.656  0.00  0.00     0.109 C 
ATOM     16  O   LIG d   1      -2.195  94.955 118.584  0.00  0.00    -0.276 OA
ATOM     17  H   LIG d   1      -3.407  94.218 121.408  0.00  0.00     0.149 HD
ENDBRANCH   6  13
BRANCH   5  18
ATOM     18  N   LIG d   1      -4.765  96.881 119.213  0.00  0.00     0.381 N 
ATOM     19  H   LIG d   1      -4.498  97.576 119.882  0.00  0.00    -0.090 HD
ATOM     20  H   LIG d   1      -5.384  97.307 118.547  0.00  0.00    -0.090 HD
ATOM     21  H   LIG d   1      -3.957  96.530 118.749  0.00  0.00    -0.090 HD
ENDBRANCH   5  18
BRANCH   3  22
ATOM     22  C   LIG d   1      -8.981  94.680 119.769  0.00  0.00     0.382 C 
ATOM     23  O   LIG d   1      -9.693  93.796 119.233  0.00  0.00    -0.241 OA
ATOM     24  O   LIG d   1      -9.525  95.670 120.294  0.00  0.00    -0.241 OA
ENDBRANCH   3  22
TORSDOF 7
ENDMDL
MODEL 6
REMARK VINA RESULT:      -4.3      2.681      5.771
REMARK  7 active torsions:
REMARK  status: ('A' for Active; 'I' for Inactive)
REMARK    1  A    between atoms: C_2  and  C_3 
REMARK    2  A    between atoms: C_3  and  O_6 
REMARK    3  A    between atoms: C_3  and  C_4 
REMARK    4  A    between atoms: C_7  and  O_6 
REMARK    5  A    between atoms: C_9  and  C_10 
REMARK    6  A    between atoms: N_15  and  C_14 
REMARK    7  A    between atoms: N_20  and  C_19 
REMARK       I    between atoms: C_22  and  N_20 
ROOT
ATOM      1  C   LIG d   1      -3.752  91.050 118.768  0.00  0.00     0.161 C 
ATOM      2  C   LIG d   1      -4.855  90.775 117.944  0.00  0.00     0.016 C 
ATOM      3  C   LIG d   1      -5.877  91.714 117.672  0.00  0.00     0.038 C 
ATOM      4  C   LIG d   1      -5.785  93.051 118.087  0.00  0.00     0.028 C 
ATOM      5  C   LIG d   1      -4.940  93.238 119.343  0.00  0.00    -0.047 C 
ATOM      6  C   LIG d   1      -3.577  92.538 119.140  0.00  0.00     0.091 C 
ENDROOT
BRANCH   1   7
ATOM      7  O   LIG d   1      -2.548  90.542 118.159  0.00  0.00    -0.368 OA
BRANCH   7   8
ATOM      8  C   LIG d   1      -2.303  89.123 118.320  0.00  0.00     0.119 C 
BRANCH   8   9
ATOM      9  C   LIG d   1      -2.203  88.839 119.832  0.00  0.00     0.028 C 
ATOM     10  C   LIG d   1      -2.347  87.343 120.159  0.00  0.00     0.006 C 
ENDBRANCH   8   9
BRANCH   8  11
ATOM     11  C   LIG d   1      -0.942  88.724 117.742  0.00  0.00     0.028 C 
ATOM     12  C   LIG d   1      -0.049  89.935 117.429  0.00  0.00     0.006 C 
ENDBRANCH   8  11
ENDBRANCH   7   8
ENDBRANCH   1   7
BRANCH   6  13
ATOM     13  N   LIG d   1      -2.721  92.601 120.353  0.00  0.00    -0.311 N 
ATOM     14  C   LIG d   1      -1.439  92.959 120.328  0.00  0.00     0.210 C 
ATOM     15  C   LIG d   1      -0.734  92.938 121.688  0.00  0.00     0.109 C 
ATOM     16  O   LIG d   1      -0.826  93.324 119.313  0.00  0.00    -0.276 OA
ATOM     17  H   LIG d   1      -3.146  92.351 121.225  0.00  0.00     0.149 HD
ENDBRANCH   6  13
BRANCH   5  18
ATOM     18  N   LIG d   1      -4.815  94.688 119.584  0.00  0.00     0.381 N 
ATOM     19  H   LIG d   1      -5.096  95.193 118.767  0.00  0.00    -0.090 HD
ATOM     20  H   LIG d   1      -3.852  94.904 119.773  0.00  0.00    -0.090 HD
ATOM     21  H   LIG d   1      -5.381  94.955 120.359  0.00  0.00    -0.090 HD
ENDBRANCH   5  18
BRANCH   3  22
ATOM     22  C   LIG d   1      -7.025  91.308 117.010  0.00  0.00     0.382 C 
ATOM     23  O   LIG d   1      -8.048  92.034 117.025  0.00  0.00    -0.241 OA
ATOM     24  O   LIG d   1      -7.066  90.203 116.436  0.00  0.00    -0.241 OA
ENDBRANCH   3  22
TORSDOF 7
ENDMDL
MODEL 7
REMARK VINA RESULT:      -4.1      3.416      6.102
REMARK  7 active torsions:
REMARK  status: ('A' for Active; 'I' for Inactive)
REMARK    1  A    between atoms: C_2  and  C_3 
REMARK    2  A    between atoms: C_3  and  O_6 
REMARK    3  A    between atoms: C_3  and  C_4 
REMARK    4  A    between atoms: C_7  and  O_6 
REMARK    5  A    between atoms: C_9  and  C_10 
REMARK    6  A    between atoms: N_15  and  C_14 
REMARK    7  A    between atoms: N_20  and  C_19 
REMARK       I    between atoms: C_22  and  N_20 
ROOT
ATOM      1  C   LIG d   1      -1.546  91.400 118.579  0.00  0.00     0.161 C 
ATOM      2  C   LIG d   1      -0.256  91.659 119.073  0.00  0.00     0.016 C 
ATOM      3  C   LIG d   1       0.190  92.947 119.448  0.00  0.00     0.038 C 
ATOM      4  C   LIG d   1      -0.679  94.047 119.497  0.00  0.00     0.028 C 
ATOM      5  C   LIG d   1      -1.852  93.937 118.529  0.00  0.00    -0.047 C 
ATOM      6  C   LIG d   1      -2.543  92.569 118.731  0.00  0.00     0.091 C 
ENDROOT
BRANCH   1   7
ATOM      7  O   LIG d   1      -2.074  90.208 119.193  0.00  0.00    -0.368 OA
BRANCH   7   8
ATOM      8  C   LIG d   1      -1.138  89.118 119.378  0.00  0.00     0.119 C 
BRANCH   8   9
ATOM      9  C   LIG d   1      -1.209  88.228 118.122  0.00  0.00     0.028 C 
ATOM     10  C   LIG d   1       0.117  88.204 117.344  0.00  0.00     0.006 C 
ENDBRANCH   8   9
BRANCH   8  11
ATOM     11  C   LIG d   1      -1.558  88.213 120.540  0.00  0.00     0.028 C 
ATOM     12  C   LIG d   1      -2.392  87.005 120.083  0.00  0.00     0.006 C 
ENDBRANCH   8  11
ENDBRANCH   7   8
ENDBRANCH   1   7
BRANCH   6  13
ATOM     13  N   LIG d   1      -3.649  92.344 117.765  0.00  0.00    -0.311 N 
ATOM     14  C   LIG d   1      -4.895  92.050 118.133  0.00  0.00     0.210 C 
ATOM     15  C   LIG d   1      -5.878  91.838 116.977  0.00  0.00     0.109 C 
ATOM     16  O   LIG d   1      -5.287  91.977 119.307  0.00  0.00    -0.276 OA
ATOM     17  H   LIG d   1      -3.427  92.415 116.792  0.00  0.00     0.149 HD
ENDBRANCH   6  13
BRANCH   5  18
ATOM     18  N   LIG d   1      -2.749  95.080 118.783  0.00  0.00     0.381 N 
ATOM     19  H   LIG d   1      -2.398  95.895 118.320  0.00  0.00    -0.090 HD
ATOM     20  H   LIG d   1      -2.770  95.263 119.771  0.00  0.00    -0.090 HD
ATOM     21  H   LIG d   1      -3.667  94.873 118.456  0.00  0.00    -0.090 HD
ENDBRANCH   5  18
BRANCH   3  22
ATOM     22  C   LIG d   1       1.530  93.152 119.740  0.00  0.00     0.382 C 
ATOM     23  O   LIG d   1       2.414  92.748 118.947  0.00  0.00    -0.241 OA
ATOM     24  O   LIG d   1       1.867  93.696 120.809  0.00  0.00    -0.241 OA
ENDBRANCH   3  22
TORSDOF 7
ENDMDL
MODEL 8
REMARK VINA RESULT:      -4.0      2.572      4.620
REMARK  7 active torsions:
REMARK  status: ('A' for Active; 'I' for Inactive)
REMARK    1  A    between atoms: C_2  and  C_3 
REMARK    2  A    between atoms: C_3  and  O_6 
REMARK    3  A    between atoms: C_3  and  C_4 
REMARK    4  A    between atoms: C_7  and  O_6 
REMARK    5  A    between atoms: C_9  and  C_10 
REMARK    6  A    between atoms: N_15  and  C_14 
REMARK    7  A    between atoms: N_20  and  C_19 
REMARK       I    between atoms: C_22  and  N_20 
ROOT
ATOM      1  C   LIG d   1      -5.108  93.754 119.084  0.00  0.00     0.161 C 
ATOM      2  C   LIG d   1      -6.154  93.101 118.413  0.00  0.00     0.016 C 
ATOM      3  C   LIG d   1      -6.004  91.854 117.763  0.00  0.00     0.038 C 
ATOM      4  C   LIG d   1      -4.826  91.099 117.871  0.00  0.00     0.028 C 
ATOM      5  C   LIG d   1      -3.583  91.948 118.114  0.00  0.00    -0.047 C 
ATOM      6  C   LIG d   1      -3.846  92.894 119.307  0.00  0.00     0.091 C 
ENDROOT
BRANCH   1   7
ATOM      7  O   LIG d   1      -5.585  94.279 120.339  0.00  0.00    -0.368 OA
BRANCH   7   8
ATOM      8  C   LIG d   1      -7.005  94.557 120.415  0.00  0.00     0.119 C 
BRANCH   8   9
ATOM      9  C   LIG d   1      -7.176  96.088 120.449  0.00  0.00     0.028 C 
ATOM     10  C   LIG d   1      -7.153  96.712 119.043  0.00  0.00     0.006 C 
ENDBRANCH   8   9
BRANCH   8  11
ATOM     11  C   LIG d   1      -7.601  94.053 121.733  0.00  0.00     0.028 C 
ATOM     12  C   LIG d   1      -9.137  94.078 121.739  0.00  0.00     0.006 C 
ENDBRANCH   8  11
ENDBRANCH   7   8
ENDBRANCH   1   7
BRANCH   6  13
ATOM     13  N   LIG d   1      -2.710  93.819 119.559  0.00  0.00    -0.311 N 
ATOM     14  C   LIG d   1      -1.723  93.553 120.413  0.00  0.00     0.210 C 
ATOM     15  C   LIG d   1      -0.662  94.651 120.537  0.00  0.00     0.109 C 
ATOM     16  O   LIG d   1      -1.609  92.498 121.055  0.00  0.00    -0.276 OA
ATOM     17  H   LIG d   1      -2.707  94.685 119.056  0.00  0.00     0.149 HD
ENDBRANCH   6  13
BRANCH   5  18
ATOM     18  N   LIG d   1      -2.453  91.028 118.344  0.00  0.00     0.381 N 
ATOM     19  H   LIG d   1      -1.604  91.446 118.018  0.00  0.00    -0.090 HD
ATOM     20  H   LIG d   1      -2.609  90.184 117.821  0.00  0.00    -0.090 HD
ATOM     21  H   LIG d   1      -2.377  90.817 119.314  0.00  0.00    -0.090 HD
ENDBRANCH   5  18
BRANCH   3  22
ATOM     22  C   LIG d   1      -7.026  91.368 116.962  0.00  0.00     0.382 C 
ATOM     23  O   LIG d   1      -8.073  92.041 116.806  0.00  0.00    -0.241 OA
ATOM     24  O   LIG d   1      -6.933  90.246 116.430  0.00  0.00    -0.241 OA
ENDBRANCH   3  22
TORSDOF 7
ENDMDL
MODEL 9
REMARK VINA RESULT:      -3.9      2.605      4.904
REMARK  7 active torsions:
REMARK  status: ('A' for Active; 'I' for Inactive)
REMARK    1  A    between atoms: C_2  and  C_3 
REMARK    2  A    between atoms: C_3  and  O_6 
REMARK    3  A    between atoms: C_3  and  C_4 
REMARK    4  A    between atoms: C_7  and  O_6 
REMARK    5  A    between atoms: C_9  and  C_10 
REMARK    6  A    between atoms: N_15  and  C_14 
REMARK    7  A    between atoms: N_20  and  C_19 
REMARK       I    between atoms: C_22  and  N_20 
ROOT
ATOM      1  C   LIG d   1      -5.042  93.721 120.281  0.00  0.00     0.161 C 
ATOM      2  C   LIG d   1      -6.055  93.191 119.465  0.00  0.00     0.016 C 
ATOM      3  C   LIG d   1      -6.983  93.989 118.758  0.00  0.00     0.038 C 
ATOM      4  C   LIG d   1      -6.866  95.386 118.700  0.00  0.00     0.028 C 
ATOM      5  C   LIG d   1      -6.166  95.987 119.914  0.00  0.00    -0.047 C 
ATOM      6  C   LIG d   1      -4.830  95.243 120.141  0.00  0.00     0.091 C 
ENDROOT
BRANCH   1   7
ATOM      7  O   LIG d   1      -3.805  93.019 120.044  0.00  0.00    -0.368 OA
BRANCH   7   8
ATOM      8  C   LIG d   1      -3.426  92.847 118.657  0.00  0.00     0.119 C 
BRANCH   8   9
ATOM      9  C   LIG d   1      -3.047  91.366 118.461  0.00  0.00     0.028 C 
ATOM     10  C   LIG d   1      -3.081  90.573 119.777  0.00  0.00     0.006 C 
ENDBRANCH   8   9
BRANCH   8  11
ATOM     11  C   LIG d   1      -2.157  93.638 118.324  0.00  0.00     0.028 C 
ATOM     12  C   LIG d   1      -1.275  93.896 119.556  0.00  0.00     0.006 C 
ENDBRANCH   8  11
ENDBRANCH   7   8
ENDBRANCH   1   7
BRANCH   6  13
ATOM     13  N   LIG d   1      -4.120  95.712 121.360  0.00  0.00    -0.311 N 
ATOM     14  C   LIG d   1      -3.159  96.634 121.340  0.00  0.00     0.210 C 
ATOM     15  C   LIG d   1      -2.545  96.958 122.706  0.00  0.00     0.109 C 
ATOM     16  O   LIG d   1      -2.779  97.237 120.325  0.00  0.00    -0.276 OA
ATOM     17  H   LIG d   1      -4.388  95.298 122.231  0.00  0.00     0.149 HD
ENDBRANCH   6  13
BRANCH   5  18
ATOM     18  N   LIG d   1      -5.989  97.429 119.659  0.00  0.00     0.381 N 
ATOM     19  H   LIG d   1      -6.739  97.941 120.077  0.00  0.00    -0.090 HD
ATOM     20  H   LIG d   1      -6.013  97.589 118.667  0.00  0.00    -0.090 HD
ATOM     21  H   LIG d   1      -5.118  97.737 120.032  0.00  0.00    -0.090 HD
ENDBRANCH   5  18
BRANCH   3  22
ATOM     22  C   LIG d   1      -8.067  93.393 118.132  0.00  0.00     0.382 C 
ATOM     23  O   LIG d   1      -9.229  93.801 118.367  0.00  0.00    -0.241 OA
ATOM     24  O   LIG d   1      -7.900  92.422 117.370  0.00  0.00    -0.241 OA
ENDBRANCH   3  22
TORSDOF 7
ENDMDL
