MODEL 1
REMARK VINA RESULT:      -5.0      0.000      0.000
REMARK  7 active torsions:
REMARK  status: ('A' for Active; 'I' for Inactive)
REMARK    1  A    between atoms: C_2  and  C_3 
REMARK    2  A    between atoms: C_3  and  O_6 
REMARK    3  A    between atoms: C_3  and  C_4 
REMARK    4  A    between atoms: C_7  and  O_6 
REMARK    5  A    between atoms: C_9  and  C_10 
REMARK    6  A    between atoms: N_15  and  C_14 
REMARK    7  A    between atoms: N_20  and  C_19 
REMARK       I    between atoms: C_22  and  N_20 
ROOT
ATOM      1  C   LIG d   1      -5.669  92.501 119.124  0.00  0.00     0.161 C 
ATOM      2  C   LIG d   1      -5.748  91.331 118.350  0.00  0.00     0.016 C 
ATOM      3  C   LIG d   1      -6.646  91.172 117.270  0.00  0.00     0.038 C 
ATOM      4  C   LIG d   1      -7.426  92.235 116.791  0.00  0.00     0.028 C 
ATOM      5  C   LIG d   1      -7.747  93.278 117.856  0.00  0.00    -0.047 C 
ATOM      6  C   LIG d   1      -6.433  93.711 118.547  0.00  0.00     0.091 C 
ENDROOT
BRANCH   1   7
ATOM      7  O   LIG d   1      -4.288  92.843 119.353  0.00  0.00    -0.368 OA
BRANCH   7   8
ATOM      8  C   LIG d   1      -3.312  92.101 118.581  0.00  0.00     0.119 C 
BRANCH   8   9
ATOM      9  C   LIG d   1      -2.237  91.591 119.561  0.00  0.00     0.028 C 
ATOM     10  C   LIG d   1      -2.500  90.147 120.020  0.00  0.00     0.006 C 
ENDBRANCH   8   9
BRANCH   8  11
ATOM     11  C   LIG d   1      -2.567  93.013 117.601  0.00  0.00     0.028 C 
ATOM     12  C   LIG d   1      -1.273  93.594 118.194  0.00  0.00     0.006 C 
ENDBRANCH   8  11
ENDBRANCH   7   8
ENDBRANCH   1   7
BRANCH   6  13
ATOM     13  N   LIG d   1      -6.667  94.668 119.660  0.00  0.00    -0.311 N 
ATOM     14  C   LIG d   1      -6.718  95.988 119.493  0.00  0.00     0.210 C 
ATOM     15  C   LIG d   1      -6.949  96.793 120.776  0.00  0.00     0.109 C 
ATOM     16  O   LIG d   1      -6.626  96.567 118.400  0.00  0.00    -0.276 OA
ATOM     17  H   LIG d   1      -6.783  94.282 120.577  0.00  0.00     0.149 HD
ENDBRANCH   6  13
BRANCH   5  18
ATOM     18  N   LIG d   1      -8.444  94.395 117.190  0.00  0.00     0.381 N 
ATOM     19  H   LIG d   1      -9.202  94.711 117.763  0.00  0.00    -0.090 HD
ATOM     20  H   LIG d   1      -8.823  94.068 116.319  0.00  0.00    -0.090 HD
ATOM     21  H   LIG d   1      -7.809  95.144 117.025  0.00  0.00    -0.090 HD
ENDBRANCH   5  18
BRANCH   3  22
ATOM     22  C   LIG d   1      -6.799  89.926 116.681  0.00  0.00     0.382 C 
ATOM     23  O   LIG d   1      -7.948  89.484 116.439  0.00  0.00    -0.241 OA
ATOM     24  O   LIG d   1      -5.805  89.219 116.430  0.00  0.00    -0.241 OA
ENDBRANCH   3  22
TORSDOF 7
ENDMDL
MODEL 2
REMARK VINA RESULT:      -5.0      2.838      5.183
REMARK  7 active torsions:
REMARK  status: ('A' for Active; 'I' for Inactive)
REMARK    1  A    between atoms: C_2  and  C_3 
REMARK    2  A    between atoms: C_3  and  O_6 
REMARK    3  A    between atoms: C_3  and  C_4 
REMARK    4  A    between atoms: C_7  and  O_6 
REMARK    5  A    between atoms: C_9  and  C_10 
REMARK    6  A    between atoms: N_15  and  C_14 
REMARK    7  A    between atoms: N_20  and  C_19 
REMARK       I    between atoms: C_22  and  N_20 
ROOT
ATOM      1  C   LIG d   1      -3.870  92.583 117.528  0.00  0.00     0.161 C 
ATOM      2  C   LIG d   1      -5.168  92.098 117.298  0.00  0.00     0.016 C 
ATOM      3  C   LIG d   1      -5.457  90.737 117.043  0.00  0.00     0.038 C 
ATOM      4  C   LIG d   1      -4.478  89.739 117.151  0.00  0.00     0.028 C 
ATOM      5  C   LIG d   1      -3.064  90.245 116.884  0.00  0.00    -0.047 C 
ATOM      6  C   LIG d   1      -2.803  91.491 117.760  0.00  0.00     0.091 C 
ENDROOT
BRANCH   1   7
ATOM      7  O   LIG d   1      -3.883  93.512 118.630  0.00  0.00    -0.368 OA
BRANCH   7   8
ATOM      8  C   LIG d   1      -5.136  93.631 119.348  0.00  0.00     0.119 C 
BRANCH   8   9
ATOM      9  C   LIG d   1      -5.428  95.134 119.522  0.00  0.00     0.028 C 
ATOM     10  C   LIG d   1      -6.832  95.520 119.030  0.00  0.00     0.006 C 
ENDBRANCH   8   9
BRANCH   8  11
ATOM     11  C   LIG d   1      -5.018  93.073 120.769  0.00  0.00     0.028 C 
ATOM     12  C   LIG d   1      -6.008  91.930 121.044  0.00  0.00     0.006 C 
ENDBRANCH   8  11
ENDBRANCH   7   8
ENDBRANCH   1   7
BRANCH   6  13
ATOM     13  N   LIG d   1      -1.473  92.100 117.498  0.00  0.00    -0.311 N 
ATOM     14  C   LIG d   1      -0.378  91.797 118.194  0.00  0.00     0.210 C 
ATOM     15  C   LIG d   1       0.885  92.554 117.774  0.00  0.00     0.109 C 
ATOM     16  O   LIG d   1      -0.327  90.949 119.098  0.00  0.00    -0.276 OA
ATOM     17  H   LIG d   1      -1.417  92.775 116.761  0.00  0.00     0.149 HD
ENDBRANCH   6  13
BRANCH   5  18
ATOM     18  N   LIG d   1      -2.133  89.136 117.165  0.00  0.00     0.381 N 
ATOM     19  H   LIG d   1      -2.479  88.588 117.927  0.00  0.00    -0.090 HD
ATOM     20  H   LIG d   1      -1.243  89.518 117.430  0.00  0.00    -0.090 HD
ATOM     21  H   LIG d   1      -2.030  88.564 116.355  0.00  0.00    -0.090 HD
ENDBRANCH   5  18
BRANCH   3  22
ATOM     22  C   LIG d   1      -6.730  90.370 116.636  0.00  0.00     0.382 C 
ATOM     23  O   LIG d   1      -6.998  89.162 116.430  0.00  0.00    -0.241 OA
ATOM     24  O   LIG d   1      -7.602  91.236 116.431  0.00  0.00    -0.241 OA
ENDBRANCH   3  22
TORSDOF 7
ENDMDL
MODEL 3
REMARK VINA RESULT:      -4.7      3.122      4.899
REMARK  7 active torsions:
REMARK  status: ('A' for Active; 'I' for Inactive)
REMARK    1  A    between atoms: C_2  and  C_3 
REMARK    2  A    between atoms: C_3  and  O_6 
REMARK    3  A    between atoms: C_3  and  C_4 
REMARK    4  A    between atoms: C_7  and  O_6 
REMARK    5  A    between atoms: C_9  and  C_10 
REMARK    6  A    between atoms: N_15  and  C_14 
REMARK    7  A    between atoms: N_20  and  C_19 
REMARK       I    between atoms: C_22  and  N_20 
ROOT
ATOM      1  C   LIG d   1      -3.747  92.467 117.273  0.00  0.00     0.161 C 
ATOM      2  C   LIG d   1      -5.074  92.034 117.117  0.00  0.00     0.016 C 
ATOM      3  C   LIG d   1      -5.439  90.674 116.991  0.00  0.00     0.038 C 
ATOM      4  C   LIG d   1      -4.510  89.638 117.165  0.00  0.00     0.028 C 
ATOM      5  C   LIG d   1      -3.080  90.042 116.822  0.00  0.00    -0.047 C 
ATOM      6  C   LIG d   1      -2.732  91.345 117.577  0.00  0.00     0.091 C 
ENDROOT
BRANCH   1   7
ATOM      7  O   LIG d   1      -3.682  93.489 118.288  0.00  0.00    -0.368 OA
BRANCH   7   8
ATOM      8  C   LIG d   1      -3.475  93.027 119.645  0.00  0.00     0.119 C 
BRANCH   8   9
ATOM      9  C   LIG d   1      -4.707  93.448 120.470  0.00  0.00     0.028 C 
ATOM     10  C   LIG d   1      -5.614  92.256 120.819  0.00  0.00     0.006 C 
ENDBRANCH   8   9
BRANCH   8  11
ATOM     11  C   LIG d   1      -2.287  93.738 120.300  0.00  0.00     0.028 C 
ATOM     12  C   LIG d   1      -2.157  93.423 121.799  0.00  0.00     0.006 C 
ENDBRANCH   8  11
ENDBRANCH   7   8
ENDBRANCH   1   7
BRANCH   6  13
ATOM     13  N   LIG d   1      -1.380  91.856 117.232  0.00  0.00    -0.311 N 
ATOM     14  C   LIG d   1      -0.284  91.561 117.930  0.00  0.00     0.210 C 
ATOM     15  C   LIG d   1       1.005  92.209 117.415  0.00  0.00     0.109 C 
ATOM     16  O   LIG d   1      -0.253  90.798 118.907  0.00  0.00    -0.276 OA
ATOM     17  H   LIG d   1      -1.309  92.457 116.435  0.00  0.00     0.149 HD
ENDBRANCH   6  13
BRANCH   5  18
ATOM     18  N   LIG d   1      -2.200  88.914 117.179  0.00  0.00     0.381 N 
ATOM     19  H   LIG d   1      -1.246  89.157 116.998  0.00  0.00    -0.090 HD
ATOM     20  H   LIG d   1      -2.437  88.122 116.608  0.00  0.00    -0.090 HD
ATOM     21  H   LIG d   1      -2.314  88.684 118.142  0.00  0.00    -0.090 HD
ENDBRANCH   5  18
BRANCH   3  22
ATOM     22  C   LIG d   1      -6.740  90.341 116.647  0.00  0.00     0.382 C 
ATOM     23  O   LIG d   1      -7.623  91.231 116.597  0.00  0.00    -0.241 OA
ATOM     24  O   LIG d   1      -7.053  89.155 116.430  0.00  0.00    -0.241 OA
ENDBRANCH   3  22
TORSDOF 7
ENDMDL
MODEL 4
REMARK VINA RESULT:      -4.7      4.196      7.224
REMARK  7 active torsions:
REMARK  status: ('A' for Active; 'I' for Inactive)
REMARK    1  A    between atoms: C_2  and  C_3 
REMARK    2  A    between atoms: C_3  and  O_6 
REMARK    3  A    between atoms: C_3  and  C_4 
REMARK    4  A    between atoms: C_7  and  O_6 
REMARK    5  A    between atoms: C_9  and  C_10 
REMARK    6  A    between atoms: N_15  and  C_14 
REMARK    7  A    between atoms: N_20  and  C_19 
REMARK       I    between atoms: C_22  and  N_20 
ROOT
ATOM      1  C   LIG d   1       0.119  91.603 117.157  0.00  0.00     0.161 C 
ATOM      2  C   LIG d   1       1.481  91.846 117.401  0.00  0.00     0.016 C 
ATOM      3  C   LIG d   1       1.950  92.934 118.173  0.00  0.00     0.038 C 
ATOM      4  C   LIG d   1       1.077  93.771 118.882  0.00  0.00     0.028 C 
ATOM      5  C   LIG d   1      -0.311  93.868 118.258  0.00  0.00    -0.047 C 
ATOM      6  C   LIG d   1      -0.852  92.441 118.014  0.00  0.00     0.091 C 
ENDROOT
BRANCH   1   7
ATOM      7  O   LIG d   1      -0.162  90.197 117.311  0.00  0.00    -0.368 OA
BRANCH   7   8
ATOM      8  C   LIG d   1      -0.226  89.706 118.672  0.00  0.00     0.119 C 
BRANCH   8   9
ATOM      9  C   LIG d   1       0.851  88.615 118.823  0.00  0.00     0.028 C 
ATOM     10  C   LIG d   1       1.343  88.085 117.465  0.00  0.00     0.006 C 
ENDBRANCH   8   9
BRANCH   8  11
ATOM     11  C   LIG d   1      -1.558  89.002 118.948  0.00  0.00     0.028 C 
ATOM     12  C   LIG d   1      -2.395  88.792 117.676  0.00  0.00     0.006 C 
ENDBRANCH   8  11
ENDBRANCH   7   8
ENDBRANCH   1   7
BRANCH   6  13
ATOM     13  N   LIG d   1      -2.170  92.444 117.328  0.00  0.00    -0.311 N 
ATOM     14  C   LIG d   1      -3.331  92.318 117.969  0.00  0.00     0.210 C 
ATOM     15  C   LIG d   1      -4.571  92.326 117.069  0.00  0.00     0.109 C 
ATOM     16  O   LIG d   1      -3.453  92.232 119.200  0.00  0.00    -0.276 OA
ATOM     17  H   LIG d   1      -2.166  92.540 116.331  0.00  0.00     0.149 HD
ENDBRANCH   6  13
BRANCH   5  18
ATOM     18  N   LIG d   1      -1.157  94.659 119.171  0.00  0.00     0.381 N 
ATOM     19  H   LIG d   1      -0.869  94.507 120.117  0.00  0.00    -0.090 HD
ATOM     20  H   LIG d   1      -2.110  94.353 119.079  0.00  0.00    -0.090 HD
ATOM     21  H   LIG d   1      -1.088  95.627 118.947  0.00  0.00    -0.090 HD
ENDBRANCH   5  18
BRANCH   3  22
ATOM     22  C   LIG d   1       3.307  93.217 118.207  0.00  0.00     0.382 C 
ATOM     23  O   LIG d   1       3.834  93.634 119.267  0.00  0.00    -0.241 OA
ATOM     24  O   LIG d   1       4.003  93.103 117.180  0.00  0.00    -0.241 OA
ENDBRANCH   3  22
TORSDOF 7
ENDMDL
MODEL 5
REMARK VINA RESULT:      -4.6      2.894      4.924
REMARK  7 active torsions:
REMARK  status: ('A' for Active; 'I' for Inactive)
REMARK    1  A    between atoms: C_2  and  C_3 
REMARK    2  A    between atoms: C_3  and  O_6 
REMARK    3  A    between atoms: C_3  and  C_4 
REMARK    4  A    between atoms: C_7  and  O_6 
REMARK    5  A    between atoms: C_9  and  C_10 
REMARK    6  A    between atoms: N_15  and  C_14 
REMARK    7  A    between atoms: N_20  and  C_19 
REMARK       I    between atoms: C_22  and  N_20 
ROOT
ATOM      1  C   LIG d   1      -3.835  92.628 117.820  0.00  0.00     0.161 C 
ATOM      2  C   LIG d   1      -5.209  92.480 117.569  0.00  0.00     0.016 C 
ATOM      3  C   LIG d   1      -5.781  91.300 117.041  0.00  0.00     0.038 C 
ATOM      4  C   LIG d   1      -5.033  90.126 116.870  0.00  0.00     0.028 C 
ATOM      5  C   LIG d   1      -3.548  90.382 116.635  0.00  0.00    -0.047 C 
ATOM      6  C   LIG d   1      -3.019  91.320 117.745  0.00  0.00     0.091 C 
ENDROOT
BRANCH   1   7
ATOM      7  O   LIG d   1      -3.638  93.267 119.097  0.00  0.00    -0.368 OA
BRANCH   7   8
ATOM      8  C   LIG d   1      -3.341  94.685 119.060  0.00  0.00     0.119 C 
BRANCH   8   9
ATOM      9  C   LIG d   1      -1.888  94.866 119.543  0.00  0.00     0.028 C 
ATOM     10  C   LIG d   1      -0.922  95.181 118.389  0.00  0.00     0.006 C 
ENDBRANCH   8   9
BRANCH   8  11
ATOM     11  C   LIG d   1      -4.201  95.461 120.063  0.00  0.00     0.028 C 
ATOM     12  C   LIG d   1      -5.648  95.654 119.582  0.00  0.00     0.006 C 
ENDBRANCH   8  11
ENDBRANCH   7   8
ENDBRANCH   1   7
BRANCH   6  13
ATOM     13  N   LIG d   1      -1.594  91.689 117.543  0.00  0.00    -0.311 N 
ATOM     14  C   LIG d   1      -0.634  91.419 118.426  0.00  0.00     0.210 C 
ATOM     15  C   LIG d   1       0.764  91.905 118.031  0.00  0.00     0.109 C 
ATOM     16  O   LIG d   1      -0.803  90.794 119.484  0.00  0.00    -0.276 OA
ATOM     17  H   LIG d   1      -1.363  92.172 116.696  0.00  0.00     0.149 HD
ENDBRANCH   6  13
BRANCH   5  18
ATOM     18  N   LIG d   1      -2.868  89.073 116.612  0.00  0.00     0.381 N 
ATOM     19  H   LIG d   1      -3.513  88.362 116.330  0.00  0.00    -0.090 HD
ATOM     20  H   LIG d   1      -2.545  88.858 117.538  0.00  0.00    -0.090 HD
ATOM     21  H   LIG d   1      -2.097  89.101 115.981  0.00  0.00    -0.090 HD
ENDBRANCH   5  18
BRANCH   3  22
ATOM     22  C   LIG d   1      -7.109  91.299 116.641  0.00  0.00     0.382 C 
ATOM     23  O   LIG d   1      -7.731  92.383 116.530  0.00  0.00    -0.241 OA
ATOM     24  O   LIG d   1      -7.705  90.226 116.432  0.00  0.00    -0.241 OA
ENDBRANCH   3  22
TORSDOF 7
ENDMDL
MODEL 6
REMARK VINA RESULT:      -4.5      3.292      5.928
REMARK  7 active torsions:
REMARK  status: ('A' for Active; 'I' for Inactive)
REMARK    1  A    between atoms: C_2  and  C_3 
REMARK    2  A    between atoms: C_3  and  O_6 
REMARK    3  A    between atoms: C_3  and  C_4 
REMARK    4  A    between atoms: C_7  and  O_6 
REMARK    5  A    between atoms: C_9  and  C_10 
REMARK    6  A    between atoms: N_15  and  C_14 
REMARK    7  A    between atoms: N_20  and  C_19 
REMARK       I    between atoms: C_22  and  N_20 
ROOT
ATOM      1  C   LIG d   1      -1.856  92.518 117.843  0.00  0.00     0.161 C 
ATOM      2  C   LIG d   1      -0.578  92.070 117.470  0.00  0.00     0.016 C 
ATOM      3  C   LIG d   1       0.608  92.794 117.732  0.00  0.00     0.038 C 
ATOM      4  C   LIG d   1       0.610  93.951 118.525  0.00  0.00     0.028 C 
ATOM      5  C   LIG d   1      -0.713  94.709 118.495  0.00  0.00    -0.047 C 
ATOM      6  C   LIG d   1      -1.863  93.724 118.806  0.00  0.00     0.091 C 
ENDROOT
BRANCH   1   7
ATOM      7  O   LIG d   1      -2.613  91.426 118.401  0.00  0.00    -0.368 OA
BRANCH   7   8
ATOM      8  C   LIG d   1      -3.049  90.409 117.466  0.00  0.00     0.119 C 
BRANCH   8   9
ATOM      9  C   LIG d   1      -4.589  90.364 117.517  0.00  0.00     0.028 C 
ATOM     10  C   LIG d   1      -5.164  91.230 118.650  0.00  0.00     0.006 C 
ENDBRANCH   8   9
BRANCH   8  11
ATOM     11  C   LIG d   1      -2.588  89.016 117.903  0.00  0.00     0.028 C 
ATOM     12  C   LIG d   1      -2.281  88.934 119.407  0.00  0.00     0.006 C 
ENDBRANCH   8  11
ENDBRANCH   7   8
ENDBRANCH   1   7
BRANCH   6  13
ATOM     13  N   LIG d   1      -3.200  94.366 118.714  0.00  0.00    -0.311 N 
ATOM     14  C   LIG d   1      -3.991  94.568 119.767  0.00  0.00     0.210 C 
ATOM     15  C   LIG d   1      -5.336  95.227 119.448  0.00  0.00     0.109 C 
ATOM     16  O   LIG d   1      -3.692  94.293 120.939  0.00  0.00    -0.276 OA
ATOM     17  H   LIG d   1      -3.508  94.649 117.804  0.00  0.00     0.149 HD
ENDBRANCH   6  13
BRANCH   5  18
ATOM     18  N   LIG d   1      -0.617  95.813 119.469  0.00  0.00     0.381 N 
ATOM     19  H   LIG d   1      -0.577  95.442 120.397  0.00  0.00    -0.090 HD
ATOM     20  H   LIG d   1      -1.440  96.385 119.393  0.00  0.00    -0.090 HD
ATOM     21  H   LIG d   1       0.195  96.359 119.286  0.00  0.00    -0.090 HD
ENDBRANCH   5  18
BRANCH   3  22
ATOM     22  C   LIG d   1       1.804  92.382 117.165  0.00  0.00     0.382 C 
ATOM     23  O   LIG d   1       1.866  91.286 116.558  0.00  0.00    -0.241 OA
ATOM     24  O   LIG d   1       2.834  93.073 117.290  0.00  0.00    -0.241 OA
ENDBRANCH   3  22
TORSDOF 7
ENDMDL
MODEL 7
REMARK VINA RESULT:      -4.5      2.818      4.870
REMARK  7 active torsions:
REMARK  status: ('A' for Active; 'I' for Inactive)
REMARK    1  A    between atoms: C_2  and  C_3 
REMARK    2  A    between atoms: C_3  and  O_6 
REMARK    3  A    between atoms: C_3  and  C_4 
REMARK    4  A    between atoms: C_7  and  O_6 
REMARK    5  A    between atoms: C_9  and  C_10 
REMARK    6  A    between atoms: N_15  and  C_14 
REMARK    7  A    between atoms: N_20  and  C_19 
REMARK       I    between atoms: C_22  and  N_20 
ROOT
ATOM      1  C   LIG d   1      -4.635  92.831 118.646  0.00  0.00     0.161 C 
ATOM      2  C   LIG d   1      -5.908  93.421 118.585  0.00  0.00     0.016 C 
ATOM      3  C   LIG d   1      -6.993  92.862 117.870  0.00  0.00     0.038 C 
ATOM      4  C   LIG d   1      -6.918  91.588 117.289  0.00  0.00     0.028 C 
ATOM      5  C   LIG d   1      -5.502  91.183 116.895  0.00  0.00    -0.047 C 
ATOM      6  C   LIG d   1      -4.567  91.385 118.110  0.00  0.00     0.091 C 
ENDROOT
BRANCH   1   7
ATOM      7  O   LIG d   1      -4.133  92.889 119.995  0.00  0.00    -0.368 OA
BRANCH   7   8
ATOM      8  C   LIG d   1      -4.479  91.773 120.853  0.00  0.00     0.119 C 
BRANCH   8   9
ATOM      9  C   LIG d   1      -5.327  92.327 122.014  0.00  0.00     0.028 C 
ATOM     10  C   LIG d   1      -6.817  91.973 121.873  0.00  0.00     0.006 C 
ENDBRANCH   8   9
BRANCH   8  11
ATOM     11  C   LIG d   1      -3.235  91.169 121.511  0.00  0.00     0.028 C 
ATOM     12  C   LIG d   1      -2.839  91.890 122.810  0.00  0.00     0.006 C 
ENDBRANCH   8  11
ENDBRANCH   7   8
ENDBRANCH   1   7
BRANCH   6  13
ATOM     13  N   LIG d   1      -3.146  91.092 117.786  0.00  0.00    -0.311 N 
ATOM     14  C   LIG d   1      -2.564  89.920 118.035  0.00  0.00     0.210 C 
ATOM     15  C   LIG d   1      -1.086  89.836 117.641  0.00  0.00     0.109 C 
ATOM     16  O   LIG d   1      -3.140  88.932 118.515  0.00  0.00    -0.276 OA
ATOM     17  H   LIG d   1      -2.613  91.828 117.366  0.00  0.00     0.149 HD
ENDBRANCH   6  13
BRANCH   5  18
ATOM     18  N   LIG d   1      -5.551  89.784 116.430  0.00  0.00     0.381 N 
ATOM     19  H   LIG d   1      -4.913  89.227 116.964  0.00  0.00    -0.090 HD
ATOM     20  H   LIG d   1      -5.268  89.751 115.467  0.00  0.00    -0.090 HD
ATOM     21  H   LIG d   1      -6.475  89.425 116.525  0.00  0.00    -0.090 HD
ENDBRANCH   5  18
BRANCH   3  22
ATOM     22  C   LIG d   1      -8.155  93.598 117.699  0.00  0.00     0.382 C 
ATOM     23  O   LIG d   1      -8.749  93.583 116.593  0.00  0.00    -0.241 OA
ATOM     24  O   LIG d   1      -8.594  94.310 118.621  0.00  0.00    -0.241 OA
ENDBRANCH   3  22
TORSDOF 7
ENDMDL
MODEL 8
REMARK VINA RESULT:      -4.4      1.905      2.914
REMARK  7 active torsions:
REMARK  status: ('A' for Active; 'I' for Inactive)
REMARK    1  A    between atoms: C_2  and  C_3 
REMARK    2  A    between atoms: C_3  and  O_6 
REMARK    3  A    between atoms: C_3  and  C_4 
REMARK    4  A    between atoms: C_7  and  O_6 
REMARK    5  A    between atoms: C_9  and  C_10 
REMARK    6  A    between atoms: N_15  and  C_14 
REMARK    7  A    between atoms: N_20  and  C_19 
REMARK       I    between atoms: C_22  and  N_20 
ROOT
ATOM      1  C   LIG d   1      -3.721  92.095 118.704  0.00  0.00     0.161 C 
ATOM      2  C   LIG d   1      -4.463  91.178 117.940  0.00  0.00     0.016 C 
ATOM      3  C   LIG d   1      -5.721  91.479 117.369  0.00  0.00     0.038 C 
ATOM      4  C   LIG d   1      -6.256  92.776 117.397  0.00  0.00     0.028 C 
ATOM      5  C   LIG d   1      -5.781  93.602 118.587  0.00  0.00    -0.047 C 
ATOM      6  C   LIG d   1      -4.237  93.548 118.651  0.00  0.00     0.091 C 
ENDROOT
BRANCH   1   7
ATOM      7  O   LIG d   1      -2.333  92.042 118.318  0.00  0.00    -0.368 OA
BRANCH   7   8
ATOM      8  C   LIG d   1      -1.420  91.491 119.299  0.00  0.00     0.119 C 
BRANCH   8   9
ATOM      9  C   LIG d   1      -0.050  92.162 119.083  0.00  0.00     0.028 C 
ATOM     10  C   LIG d   1      -0.127  93.359 118.120  0.00  0.00     0.006 C 
ENDBRANCH   8   9
BRANCH   8  11
ATOM     11  C   LIG d   1      -1.182  89.997 119.061  0.00  0.00     0.028 C 
ATOM     12  C   LIG d   1      -2.024  89.104 119.986  0.00  0.00     0.006 C 
ENDBRANCH   8  11
ENDBRANCH   7   8
ENDBRANCH   1   7
BRANCH   6  13
ATOM     13  N   LIG d   1      -3.694  94.262 119.836  0.00  0.00    -0.311 N 
ATOM     14  C   LIG d   1      -2.884  95.316 119.749  0.00  0.00     0.210 C 
ATOM     15  C   LIG d   1      -2.423  95.890 121.092  0.00  0.00     0.109 C 
ATOM     16  O   LIG d   1      -2.530  95.850 118.687  0.00  0.00    -0.276 OA
ATOM     17  H   LIG d   1      -3.956  93.914 120.737  0.00  0.00     0.149 HD
ENDBRANCH   6  13
BRANCH   5  18
ATOM     18  N   LIG d   1      -6.304  94.971 118.416  0.00  0.00     0.381 N 
ATOM     19  H   LIG d   1      -6.979  94.986 117.678  0.00  0.00    -0.090 HD
ATOM     20  H   LIG d   1      -5.546  95.580 118.163  0.00  0.00    -0.090 HD
ATOM     21  H   LIG d   1      -6.723  95.284 119.265  0.00  0.00    -0.090 HD
ENDBRANCH   5  18
BRANCH   3  22
ATOM     22  C   LIG d   1      -6.476  90.467 116.796  0.00  0.00     0.382 C 
ATOM     23  O   LIG d   1      -5.922  89.403 116.430  0.00  0.00    -0.241 OA
ATOM     24  O   LIG d   1      -7.696  90.622 116.600  0.00  0.00    -0.241 OA
ENDBRANCH   3  22
TORSDOF 7
ENDMDL
MODEL 9
REMARK VINA RESULT:      -4.4      2.758      4.574
REMARK  7 active torsions:
REMARK  status: ('A' for Active; 'I' for Inactive)
REMARK    1  A    between atoms: C_2  and  C_3 
REMARK    2  A    between atoms: C_3  and  O_6 
REMARK    3  A    between atoms: C_3  and  C_4 
REMARK    4  A    between atoms: C_7  and  O_6 
REMARK    5  A    between atoms: C_9  and  C_10 
REMARK    6  A    between atoms: N_15  and  C_14 
REMARK    7  A    between atoms: N_20  and  C_19 
REMARK       I    between atoms: C_22  and  N_20 
ROOT
ATOM      1  C   LIG d   1      -4.714  93.217 118.291  0.00  0.00     0.161 C 
ATOM      2  C   LIG d   1      -6.059  93.625 118.308  0.00  0.00     0.016 C 
ATOM      3  C   LIG d   1      -7.110  92.862 117.750  0.00  0.00     0.038 C 
ATOM      4  C   LIG d   1      -6.907  91.560 117.269  0.00  0.00     0.028 C 
ATOM      5  C   LIG d   1      -5.486  91.312 116.773  0.00  0.00    -0.047 C 
ATOM      6  C   LIG d   1      -4.489  91.750 117.870  0.00  0.00     0.091 C 
ENDROOT
BRANCH   1   7
ATOM      7  O   LIG d   1      -4.112  93.468 119.576  0.00  0.00    -0.368 OA
BRANCH   7   8
ATOM      8  C   LIG d   1      -3.171  94.567 119.636  0.00  0.00     0.119 C 
BRANCH   8   9
ATOM      9  C   LIG d   1      -1.779  93.971 119.919  0.00  0.00     0.028 C 
ATOM     10  C   LIG d   1      -1.826  92.842 120.963  0.00  0.00     0.006 C 
ENDBRANCH   8   9
BRANCH   8  11
ATOM     11  C   LIG d   1      -3.466  95.490 120.822  0.00  0.00     0.028 C 
ATOM     12  C   LIG d   1      -4.844  95.230 121.450  0.00  0.00     0.006 C 
ENDBRANCH   8  11
ENDBRANCH   7   8
ENDBRANCH   1   7
BRANCH   6  13
ATOM     13  N   LIG d   1      -3.074  91.620 117.434  0.00  0.00    -0.311 N 
ATOM     14  C   LIG d   1      -2.213  90.765 117.984  0.00  0.00     0.210 C 
ATOM     15  C   LIG d   1      -0.798  90.806 117.399  0.00  0.00     0.109 C 
ATOM     16  O   LIG d   1      -2.495  89.954 118.879  0.00  0.00    -0.276 OA
ATOM     17  H   LIG d   1      -2.768  92.218 116.692  0.00  0.00     0.149 HD
ENDBRANCH   6  13
BRANCH   5  18
ATOM     18  N   LIG d   1      -5.377  89.881 116.430  0.00  0.00     0.381 N 
ATOM     19  H   LIG d   1      -6.107  89.629 115.795  0.00  0.00    -0.090 HD
ATOM     20  H   LIG d   1      -5.485  89.337 117.268  0.00  0.00    -0.090 HD
ATOM     21  H   LIG d   1      -4.489  89.697 116.018  0.00  0.00    -0.090 HD
ENDBRANCH   5  18
BRANCH   3  22
ATOM     22  C   LIG d   1      -8.375  93.417 117.633  0.00  0.00     0.382 C 
ATOM     23  O   LIG d   1      -8.878  93.600 116.498  0.00  0.00    -0.241 OA
ATOM     24  O   LIG d   1      -9.002  93.778 118.647  0.00  0.00    -0.241 OA
ENDBRANCH   3  22
TORSDOF 7
ENDMDL
