MODEL 1
REMARK VINA RESULT:      -4.8      0.000      0.000
REMARK  7 active torsions:
REMARK  status: ('A' for Active; 'I' for Inactive)
REMARK    1  A    between atoms: C_2  and  C_3 
REMARK    2  A    between atoms: C_3  and  O_6 
REMARK    3  A    between atoms: C_3  and  C_4 
REMARK    4  A    between atoms: C_7  and  O_6 
REMARK    5  A    between atoms: C_9  and  C_10 
REMARK    6  A    between atoms: N_15  and  C_14 
REMARK    7  A    between atoms: N_20  and  C_19 
REMARK       I    between atoms: C_22  and  N_20 
ROOT
ATOM      1  C   LIG d   1      -5.170  92.395 119.564  0.00  0.00     0.161 C 
ATOM      2  C   LIG d   1      -4.156  91.599 119.007  0.00  0.00     0.016 C 
ATOM      3  C   LIG d   1      -4.226  91.047 117.707  0.00  0.00     0.038 C 
ATOM      4  C   LIG d   1      -5.254  91.382 116.814  0.00  0.00     0.028 C 
ATOM      5  C   LIG d   1      -6.554  91.777 117.507  0.00  0.00    -0.047 C 
ATOM      6  C   LIG d   1      -6.248  92.863 118.564  0.00  0.00     0.091 C 
ENDROOT
BRANCH   1   7
ATOM      7  O   LIG d   1      -4.587  93.528 120.238  0.00  0.00    -0.368 OA
BRANCH   7   8
ATOM      8  C   LIG d   1      -4.203  94.643 119.395  0.00  0.00     0.119 C 
BRANCH   8   9
ATOM      9  C   LIG d   1      -2.683  94.841 119.553  0.00  0.00     0.028 C 
ATOM     10  C   LIG d   1      -1.908  94.478 118.276  0.00  0.00     0.006 C 
ENDBRANCH   8   9
BRANCH   8  11
ATOM     11  C   LIG d   1      -4.835  95.951 119.879  0.00  0.00     0.028 C 
ATOM     12  C   LIG d   1      -5.627  95.782 121.185  0.00  0.00     0.006 C 
ENDBRANCH   8  11
ENDBRANCH   7   8
ENDBRANCH   1   7
BRANCH   6  13
ATOM     13  N   LIG d   1      -7.452  93.246 119.348  0.00  0.00    -0.311 N 
ATOM     14  C   LIG d   1      -8.272  94.235 118.995  0.00  0.00     0.210 C 
ATOM     15  C   LIG d   1      -9.442  94.477 119.954  0.00  0.00     0.109 C 
ATOM     16  O   LIG d   1      -8.159  94.913 117.963  0.00  0.00    -0.276 OA
ATOM     17  H   LIG d   1      -7.636  92.726 120.183  0.00  0.00     0.149 HD
ENDBRANCH   6  13
BRANCH   5  18
ATOM     18  N   LIG d   1      -7.494  92.233 116.465  0.00  0.00     0.381 N 
ATOM     19  H   LIG d   1      -6.984  92.588 115.681  0.00  0.00    -0.090 HD
ATOM     20  H   LIG d   1      -8.056  92.978 116.839  0.00  0.00    -0.090 HD
ATOM     21  H   LIG d   1      -8.077  91.478 116.178  0.00  0.00    -0.090 HD
ENDBRANCH   5  18
BRANCH   3  22
ATOM     22  C   LIG d   1      -3.279  90.118 117.303  0.00  0.00     0.382 C 
ATOM     23  O   LIG d   1      -2.114  90.168 117.766  0.00  0.00    -0.241 OA
ATOM     24  O   LIG d   1      -3.563  89.258 116.448  0.00  0.00    -0.241 OA
ENDBRANCH   3  22
TORSDOF 7
ENDMDL
MODEL 2
REMARK VINA RESULT:      -4.6      1.972      3.060
REMARK  7 active torsions:
REMARK  status: ('A' for Active; 'I' for Inactive)
REMARK    1  A    between atoms: C_2  and  C_3 
REMARK    2  A    between atoms: C_3  and  O_6 
REMARK    3  A    between atoms: C_3  and  C_4 
REMARK    4  A    between atoms: C_7  and  O_6 
REMARK    5  A    between atoms: C_9  and  C_10 
REMARK    6  A    between atoms: N_15  and  C_14 
REMARK    7  A    between atoms: N_20  and  C_19 
REMARK       I    between atoms: C_22  and  N_20 
ROOT
ATOM      1  C   LIG d   1      -4.968  93.477 119.222  0.00  0.00     0.161 C 
ATOM      2  C   LIG d   1      -4.914  92.368 118.361  0.00  0.00     0.016 C 
ATOM      3  C   LIG d   1      -5.922  92.066 117.417  0.00  0.00     0.038 C 
ATOM      4  C   LIG d   1      -6.988  92.943 117.164  0.00  0.00     0.028 C 
ATOM      5  C   LIG d   1      -7.349  93.817 118.360  0.00  0.00    -0.047 C 
ATOM      6  C   LIG d   1      -6.068  94.505 118.884  0.00  0.00     0.091 C 
ENDROOT
BRANCH   1   7
ATOM      7  O   LIG d   1      -3.679  94.120 119.273  0.00  0.00    -0.368 OA
BRANCH   7   8
ATOM      8  C   LIG d   1      -2.568  93.365 118.731  0.00  0.00     0.119 C 
BRANCH   8   9
ATOM      9  C   LIG d   1      -1.695  92.911 119.917  0.00  0.00     0.028 C 
ATOM     10  C   LIG d   1      -1.674  91.382 120.079  0.00  0.00     0.006 C 
ENDBRANCH   8   9
BRANCH   8  11
ATOM     11  C   LIG d   1      -1.659  94.249 117.873  0.00  0.00     0.028 C 
ATOM     12  C   LIG d   1      -1.656  95.718 118.325  0.00  0.00     0.006 C 
ENDBRANCH   8  11
ENDBRANCH   7   8
ENDBRANCH   1   7
BRANCH   6  13
ATOM     13  N   LIG d   1      -6.319  95.313 120.106  0.00  0.00    -0.311 N 
ATOM     14  C   LIG d   1      -5.835  96.541 120.284  0.00  0.00     0.210 C 
ATOM     15  C   LIG d   1      -6.196  97.191 121.624  0.00  0.00     0.109 C 
ATOM     16  O   LIG d   1      -5.167  97.167 119.447  0.00  0.00    -0.276 OA
ATOM     17  H   LIG d   1      -6.877  94.894 120.824  0.00  0.00     0.149 HD
ENDBRANCH   6  13
BRANCH   5  18
ATOM     18  N   LIG d   1      -8.380  94.775 117.916  0.00  0.00     0.381 N 
ATOM     19  H   LIG d   1      -9.290  94.405 118.104  0.00  0.00    -0.090 HD
ATOM     20  H   LIG d   1      -8.292  94.910 116.924  0.00  0.00    -0.090 HD
ATOM     21  H   LIG d   1      -8.263  95.644 118.388  0.00  0.00    -0.090 HD
ENDBRANCH   5  18
BRANCH   3  22
ATOM     22  C   LIG d   1      -5.890  90.856 116.742  0.00  0.00     0.382 C 
ATOM     23  O   LIG d   1      -6.963  90.283 116.430  0.00  0.00    -0.241 OA
ATOM     24  O   LIG d   1      -4.803  90.307 116.479  0.00  0.00    -0.241 OA
ENDBRANCH   3  22
TORSDOF 7
ENDMDL
MODEL 3
REMARK VINA RESULT:      -4.5      2.999      5.230
REMARK  7 active torsions:
REMARK  status: ('A' for Active; 'I' for Inactive)
REMARK    1  A    between atoms: C_2  and  C_3 
REMARK    2  A    between atoms: C_3  and  O_6 
REMARK    3  A    between atoms: C_3  and  C_4 
REMARK    4  A    between atoms: C_7  and  O_6 
REMARK    5  A    between atoms: C_9  and  C_10 
REMARK    6  A    between atoms: N_15  and  C_14 
REMARK    7  A    between atoms: N_20  and  C_19 
REMARK       I    between atoms: C_22  and  N_20 
ROOT
ATOM      1  C   LIG d   1      -2.892  92.851 117.835  0.00  0.00     0.161 C 
ATOM      2  C   LIG d   1      -4.296  92.818 117.887  0.00  0.00     0.016 C 
ATOM      3  C   LIG d   1      -5.048  91.622 117.840  0.00  0.00     0.038 C 
ATOM      4  C   LIG d   1      -4.439  90.360 117.891  0.00  0.00     0.028 C 
ATOM      5  C   LIG d   1      -3.020  90.349 117.331  0.00  0.00    -0.047 C 
ATOM      6  C   LIG d   1      -2.207  91.478 118.003  0.00  0.00     0.091 C 
ENDROOT
BRANCH   1   7
ATOM      7  O   LIG d   1      -2.389  93.785 118.811  0.00  0.00    -0.368 OA
BRANCH   7   8
ATOM      8  C   LIG d   1      -1.823  95.011 118.288  0.00  0.00     0.119 C 
BRANCH   8   9
ATOM      9  C   LIG d   1      -0.345  95.061 118.721  0.00  0.00     0.028 C 
ATOM     10  C   LIG d   1      -0.058  94.157 119.931  0.00  0.00     0.006 C 
ENDBRANCH   8   9
BRANCH   8  11
ATOM     11  C   LIG d   1      -2.474  96.242 118.925  0.00  0.00     0.028 C 
ATOM     12  C   LIG d   1      -3.590  95.879 119.919  0.00  0.00     0.006 C 
ENDBRANCH   8  11
ENDBRANCH   7   8
ENDBRANCH   1   7
BRANCH   6  13
ATOM     13  N   LIG d   1      -0.831  91.592 117.452  0.00  0.00    -0.311 N 
ATOM     14  C   LIG d   1       0.231  91.008 118.004  0.00  0.00     0.210 C 
ATOM     15  C   LIG d   1       1.559  91.270 117.286  0.00  0.00     0.109 C 
ATOM     16  O   LIG d   1       0.194  90.272 119.001  0.00  0.00    -0.276 OA
ATOM     17  H   LIG d   1      -0.716  92.146 116.625  0.00  0.00     0.149 HD
ENDBRANCH   6  13
BRANCH   5  18
ATOM     18  N   LIG d   1      -2.456  89.008 117.572  0.00  0.00     0.381 N 
ATOM     19  H   LIG d   1      -1.507  89.089 117.880  0.00  0.00    -0.090 HD
ATOM     20  H   LIG d   1      -2.464  88.492 116.710  0.00  0.00    -0.090 HD
ATOM     21  H   LIG d   1      -2.996  88.529 118.259  0.00  0.00    -0.090 HD
ENDBRANCH   5  18
BRANCH   3  22
ATOM     22  C   LIG d   1      -6.427  91.683 117.700  0.00  0.00     0.382 C 
ATOM     23  O   LIG d   1      -7.048  92.713 118.056  0.00  0.00    -0.241 OA
ATOM     24  O   LIG d   1      -7.061  90.703 117.264  0.00  0.00    -0.241 OA
ENDBRANCH   3  22
TORSDOF 7
ENDMDL
MODEL 4
REMARK VINA RESULT:      -4.3      1.999      3.050
REMARK  7 active torsions:
REMARK  status: ('A' for Active; 'I' for Inactive)
REMARK    1  A    between atoms: C_2  and  C_3 
REMARK    2  A    between atoms: C_3  and  O_6 
REMARK    3  A    between atoms: C_3  and  C_4 
REMARK    4  A    between atoms: C_7  and  O_6 
REMARK    5  A    between atoms: C_9  and  C_10 
REMARK    6  A    between atoms: N_15  and  C_14 
REMARK    7  A    between atoms: N_20  and  C_19 
REMARK       I    between atoms: C_22  and  N_20 
ROOT
ATOM      1  C   LIG d   1      -4.850  93.503 119.125  0.00  0.00     0.161 C 
ATOM      2  C   LIG d   1      -4.826  92.381 118.280  0.00  0.00     0.016 C 
ATOM      3  C   LIG d   1      -5.868  92.063 117.379  0.00  0.00     0.038 C 
ATOM      4  C   LIG d   1      -6.944  92.935 117.153  0.00  0.00     0.028 C 
ATOM      5  C   LIG d   1      -7.262  93.827 118.348  0.00  0.00    -0.047 C 
ATOM      6  C   LIG d   1      -5.963  94.524 118.813  0.00  0.00     0.091 C 
ENDROOT
BRANCH   1   7
ATOM      7  O   LIG d   1      -3.561  94.148 119.117  0.00  0.00    -0.368 OA
BRANCH   7   8
ATOM      8  C   LIG d   1      -2.822  94.111 120.363  0.00  0.00     0.119 C 
BRANCH   8   9
ATOM      9  C   LIG d   1      -2.046  95.437 120.481  0.00  0.00     0.028 C 
ATOM     10  C   LIG d   1      -1.962  96.189 119.141  0.00  0.00     0.006 C 
ENDBRANCH   8   9
BRANCH   8  11
ATOM     11  C   LIG d   1      -1.752  93.015 120.344  0.00  0.00     0.028 C 
ATOM     12  C   LIG d   1      -1.209  92.737 118.933  0.00  0.00     0.006 C 
ENDBRANCH   8  11
ENDBRANCH   7   8
ENDBRANCH   1   7
BRANCH   6  13
ATOM     13  N   LIG d   1      -6.168  95.352 120.030  0.00  0.00    -0.311 N 
ATOM     14  C   LIG d   1      -5.742  96.608 120.143  0.00  0.00     0.210 C 
ATOM     15  C   LIG d   1      -6.041  97.274 121.490  0.00  0.00     0.109 C 
ATOM     16  O   LIG d   1      -5.174  97.246 119.244  0.00  0.00    -0.276 OA
ATOM     17  H   LIG d   1      -6.648  94.923 120.798  0.00  0.00     0.149 HD
ENDBRANCH   6  13
BRANCH   5  18
ATOM     18  N   LIG d   1      -8.309  94.777 117.928  0.00  0.00     0.381 N 
ATOM     19  H   LIG d   1      -8.921  94.968 118.696  0.00  0.00    -0.090 HD
ATOM     20  H   LIG d   1      -8.850  94.360 117.191  0.00  0.00    -0.090 HD
ATOM     21  H   LIG d   1      -7.893  95.624 117.607  0.00  0.00    -0.090 HD
ENDBRANCH   5  18
BRANCH   3  22
ATOM     22  C   LIG d   1      -5.860  90.842 116.722  0.00  0.00     0.382 C 
ATOM     23  O   LIG d   1      -6.943  90.280 116.430  0.00  0.00    -0.241 OA
ATOM     24  O   LIG d   1      -4.784  90.275 116.456  0.00  0.00    -0.241 OA
ENDBRANCH   3  22
TORSDOF 7
ENDMDL
MODEL 5
REMARK VINA RESULT:      -4.3      2.065      2.814
REMARK  7 active torsions:
REMARK  status: ('A' for Active; 'I' for Inactive)
REMARK    1  A    between atoms: C_2  and  C_3 
REMARK    2  A    between atoms: C_3  and  O_6 
REMARK    3  A    between atoms: C_3  and  C_4 
REMARK    4  A    between atoms: C_7  and  O_6 
REMARK    5  A    between atoms: C_9  and  C_10 
REMARK    6  A    between atoms: N_15  and  C_14 
REMARK    7  A    between atoms: N_20  and  C_19 
REMARK       I    between atoms: C_22  and  N_20 
ROOT
ATOM      1  C   LIG d   1      -4.916  93.502 119.165  0.00  0.00     0.161 C 
ATOM      2  C   LIG d   1      -4.829  92.377 118.328  0.00  0.00     0.016 C 
ATOM      3  C   LIG d   1      -5.839  92.010 117.409  0.00  0.00     0.038 C 
ATOM      4  C   LIG d   1      -6.946  92.835 117.156  0.00  0.00     0.028 C 
ATOM      5  C   LIG d   1      -7.324  93.721 118.338  0.00  0.00    -0.047 C 
ATOM      6  C   LIG d   1      -6.064  94.474 118.824  0.00  0.00     0.091 C 
ENDROOT
BRANCH   1   7
ATOM      7  O   LIG d   1      -3.655  94.200 119.177  0.00  0.00    -0.368 OA
BRANCH   7   8
ATOM      8  C   LIG d   1      -2.848  94.036 120.369  0.00  0.00     0.119 C 
BRANCH   8   9
ATOM      9  C   LIG d   1      -1.697  93.072 120.020  0.00  0.00     0.028 C 
ATOM     10  C   LIG d   1      -1.584  91.908 121.019  0.00  0.00     0.006 C 
ENDBRANCH   8   9
BRANCH   8  11
ATOM     11  C   LIG d   1      -3.635  93.342 121.484  0.00  0.00     0.028 C 
ATOM     12  C   LIG d   1      -3.894  94.258 122.690  0.00  0.00     0.006 C 
ENDBRANCH   8  11
ENDBRANCH   7   8
ENDBRANCH   1   7
BRANCH   6  13
ATOM     13  N   LIG d   1      -6.328  95.300 120.031  0.00  0.00    -0.311 N 
ATOM     14  C   LIG d   1      -5.843  96.529 120.199  0.00  0.00     0.210 C 
ATOM     15  C   LIG d   1      -6.219  97.197 121.525  0.00  0.00     0.109 C 
ATOM     16  O   LIG d   1      -5.163  97.141 119.362  0.00  0.00    -0.276 OA
ATOM     17  H   LIG d   1      -6.896  94.892 120.747  0.00  0.00     0.149 HD
ENDBRANCH   6  13
BRANCH   5  18
ATOM     18  N   LIG d   1      -8.401  94.624 117.891  0.00  0.00     0.381 N 
ATOM     19  H   LIG d   1      -8.388  94.701 116.894  0.00  0.00    -0.090 HD
ATOM     20  H   LIG d   1      -8.242  95.537 118.280  0.00  0.00    -0.090 HD
ATOM     21  H   LIG d   1      -9.285  94.276 118.193  0.00  0.00    -0.090 HD
ENDBRANCH   5  18
BRANCH   3  22
ATOM     22  C   LIG d   1      -5.768  90.787 116.761  0.00  0.00     0.382 C 
ATOM     23  O   LIG d   1      -6.821  90.189 116.432  0.00  0.00    -0.241 OA
ATOM     24  O   LIG d   1      -4.665  90.252 116.540  0.00  0.00    -0.241 OA
ENDBRANCH   3  22
TORSDOF 7
ENDMDL
MODEL 6
REMARK VINA RESULT:      -4.2      2.958      5.102
REMARK  7 active torsions:
REMARK  status: ('A' for Active; 'I' for Inactive)
REMARK    1  A    between atoms: C_2  and  C_3 
REMARK    2  A    between atoms: C_3  and  O_6 
REMARK    3  A    between atoms: C_3  and  C_4 
REMARK    4  A    between atoms: C_7  and  O_6 
REMARK    5  A    between atoms: C_9  and  C_10 
REMARK    6  A    between atoms: N_15  and  C_14 
REMARK    7  A    between atoms: N_20  and  C_19 
REMARK       I    between atoms: C_22  and  N_20 
ROOT
ATOM      1  C   LIG d   1      -2.485  93.010 117.896  0.00  0.00     0.161 C 
ATOM      2  C   LIG d   1      -1.465  92.083 117.628  0.00  0.00     0.016 C 
ATOM      3  C   LIG d   1      -0.123  92.261 118.038  0.00  0.00     0.038 C 
ATOM      4  C   LIG d   1       0.260  93.315 118.881  0.00  0.00     0.028 C 
ATOM      5  C   LIG d   1      -0.633  94.545 118.758  0.00  0.00    -0.047 C 
ATOM      6  C   LIG d   1      -2.108  94.111 118.910  0.00  0.00     0.091 C 
ENDROOT
BRANCH   1   7
ATOM      7  O   LIG d   1      -3.674  92.318 118.327  0.00  0.00    -0.368 OA
BRANCH   7   8
ATOM      8  C   LIG d   1      -4.849  92.491 117.497  0.00  0.00     0.119 C 
BRANCH   8   9
ATOM      9  C   LIG d   1      -6.062  92.633 118.436  0.00  0.00     0.028 C 
ATOM     10  C   LIG d   1      -6.654  94.053 118.420  0.00  0.00     0.006 C 
ENDBRANCH   8   9
BRANCH   8  11
ATOM     11  C   LIG d   1      -5.129  91.240 116.659  0.00  0.00     0.028 C 
ATOM     12  C   LIG d   1      -6.630  90.960 116.490  0.00  0.00     0.006 C 
ENDBRANCH   8  11
ENDBRANCH   7   8
ENDBRANCH   1   7
BRANCH   6  13
ATOM     13  N   LIG d   1      -3.054  95.241 118.719  0.00  0.00    -0.311 N 
ATOM     14  C   LIG d   1      -3.540  95.969 119.723  0.00  0.00     0.210 C 
ATOM     15  C   LIG d   1      -4.516  97.074 119.308  0.00  0.00     0.109 C 
ATOM     16  O   LIG d   1      -3.230  95.825 120.915  0.00  0.00    -0.276 OA
ATOM     17  H   LIG d   1      -3.335  95.447 117.780  0.00  0.00     0.149 HD
ENDBRANCH   6  13
BRANCH   5  18
ATOM     18  N   LIG d   1      -0.205  95.511 119.787  0.00  0.00     0.381 N 
ATOM     19  H   LIG d   1      -0.916  96.202 119.920  0.00  0.00    -0.090 HD
ATOM     20  H   LIG d   1       0.630  95.973 119.472  0.00  0.00    -0.090 HD
ATOM     21  H   LIG d   1      -0.027  95.038 120.646  0.00  0.00    -0.090 HD
ENDBRANCH   5  18
BRANCH   3  22
ATOM     22  C   LIG d   1       0.858  91.401 117.570  0.00  0.00     0.382 C 
ATOM     23  O   LIG d   1       2.059  91.765 117.563  0.00  0.00    -0.241 OA
ATOM     24  O   LIG d   1       0.553  90.283 117.114  0.00  0.00    -0.241 OA
ENDBRANCH   3  22
TORSDOF 7
ENDMDL
MODEL 7
REMARK VINA RESULT:      -4.1      2.006      5.009
REMARK  7 active torsions:
REMARK  status: ('A' for Active; 'I' for Inactive)
REMARK    1  A    between atoms: C_2  and  C_3 
REMARK    2  A    between atoms: C_3  and  O_6 
REMARK    3  A    between atoms: C_3  and  C_4 
REMARK    4  A    between atoms: C_7  and  O_6 
REMARK    5  A    between atoms: C_9  and  C_10 
REMARK    6  A    between atoms: N_15  and  C_14 
REMARK    7  A    between atoms: N_20  and  C_19 
REMARK       I    between atoms: C_22  and  N_20 
ROOT
ATOM      1  C   LIG d   1      -4.013  93.392 118.924  0.00  0.00     0.161 C 
ATOM      2  C   LIG d   1      -5.275  93.966 119.151  0.00  0.00     0.016 C 
ATOM      3  C   LIG d   1      -6.461  93.508 118.533  0.00  0.00     0.038 C 
ATOM      4  C   LIG d   1      -6.489  92.340 117.757  0.00  0.00     0.028 C 
ATOM      5  C   LIG d   1      -5.153  92.021 117.093  0.00  0.00    -0.047 C 
ATOM      6  C   LIG d   1      -4.041  92.048 118.167  0.00  0.00     0.091 C 
ENDROOT
BRANCH   1   7
ATOM      7  O   LIG d   1      -3.310  93.248 120.174  0.00  0.00    -0.368 OA
BRANCH   7   8
ATOM      8  C   LIG d   1      -2.315  94.260 120.465  0.00  0.00     0.119 C 
BRANCH   8   9
ATOM      9  C   LIG d   1      -1.808  94.813 119.119  0.00  0.00     0.028 C 
ATOM     10  C   LIG d   1      -0.287  94.657 118.956  0.00  0.00     0.006 C 
ENDBRANCH   8   9
BRANCH   8  11
ATOM     11  C   LIG d   1      -1.083  93.652 121.143  0.00  0.00     0.028 C 
ATOM     12  C   LIG d   1      -1.276  92.173 121.514  0.00  0.00     0.006 C 
ENDBRANCH   8  11
ENDBRANCH   7   8
ENDBRANCH   1   7
BRANCH   6  13
ATOM     13  N   LIG d   1      -2.690  91.829 117.588  0.00  0.00    -0.311 N 
ATOM     14  C   LIG d   1      -1.860  90.873 118.004  0.00  0.00     0.210 C 
ATOM     15  C   LIG d   1      -0.507  90.835 117.286  0.00  0.00     0.109 C 
ATOM     16  O   LIG d   1      -2.129  90.034 118.876  0.00  0.00    -0.276 OA
ATOM     17  H   LIG d   1      -2.403  92.446 116.854  0.00  0.00     0.149 HD
ENDBRANCH   6  13
BRANCH   5  18
ATOM     18  N   LIG d   1      -5.286  90.710 116.430  0.00  0.00     0.381 N 
ATOM     19  H   LIG d   1      -6.209  90.611 116.058  0.00  0.00    -0.090 HD
ATOM     20  H   LIG d   1      -5.141  89.986 117.111  0.00  0.00    -0.090 HD
ATOM     21  H   LIG d   1      -4.614  90.628 115.699  0.00  0.00    -0.090 HD
ENDBRANCH   5  18
BRANCH   3  22
ATOM     22  C   LIG d   1      -7.629  94.244 118.657  0.00  0.00     0.382 C 
ATOM     23  O   LIG d   1      -8.612  93.990 117.920  0.00  0.00    -0.241 OA
ATOM     24  O   LIG d   1      -7.698  95.188 119.467  0.00  0.00    -0.241 OA
ENDBRANCH   3  22
TORSDOF 7
ENDMDL
MODEL 8
REMARK VINA RESULT:      -4.1      1.094      1.927
REMARK  7 active torsions:
REMARK  status: ('A' for Active; 'I' for Inactive)
REMARK    1  A    between atoms: C_2  and  C_3 
REMARK    2  A    between atoms: C_3  and  O_6 
REMARK    3  A    between atoms: C_3  and  C_4 
REMARK    4  A    between atoms: C_7  and  O_6 
REMARK    5  A    between atoms: C_9  and  C_10 
REMARK    6  A    between atoms: N_15  and  C_14 
REMARK    7  A    between atoms: N_20  and  C_19 
REMARK       I    between atoms: C_22  and  N_20 
ROOT
ATOM      1  C   LIG d   1      -5.045  92.677 119.301  0.00  0.00     0.161 C 
ATOM      2  C   LIG d   1      -3.943  91.946 118.827  0.00  0.00     0.016 C 
ATOM      3  C   LIG d   1      -3.995  91.115 117.684  0.00  0.00     0.038 C 
ATOM      4  C   LIG d   1      -5.118  91.078 116.844  0.00  0.00     0.028 C 
ATOM      5  C   LIG d   1      -6.422  91.409 117.562  0.00  0.00    -0.047 C 
ATOM      6  C   LIG d   1      -6.246  92.736 118.335  0.00  0.00     0.091 C 
ENDROOT
BRANCH   1   7
ATOM      7  O   LIG d   1      -4.628  94.008 119.664  0.00  0.00    -0.368 OA
BRANCH   7   8
ATOM      8  C   LIG d   1      -4.531  94.282 121.083  0.00  0.00     0.119 C 
BRANCH   8   9
ATOM      9  C   LIG d   1      -5.285  93.160 121.823  0.00  0.00     0.028 C 
ATOM     10  C   LIG d   1      -6.516  93.682 122.583  0.00  0.00     0.006 C 
ENDBRANCH   8   9
BRANCH   8  11
ATOM     11  C   LIG d   1      -5.265  95.575 121.453  0.00  0.00     0.028 C 
ATOM     12  C   LIG d   1      -5.605  96.438 120.227  0.00  0.00     0.006 C 
ENDBRANCH   8  11
ENDBRANCH   7   8
ENDBRANCH   1   7
BRANCH   6  13
ATOM     13  N   LIG d   1      -7.449  93.090 119.133  0.00  0.00    -0.311 N 
ATOM     14  C   LIG d   1      -8.192  94.171 118.900  0.00  0.00     0.210 C 
ATOM     15  C   LIG d   1      -9.376  94.360 119.853  0.00  0.00     0.109 C 
ATOM     16  O   LIG d   1      -8.002  94.973 117.973  0.00  0.00    -0.276 OA
ATOM     17  H   LIG d   1      -7.694  92.477 119.886  0.00  0.00     0.149 HD
ENDBRANCH   6  13
BRANCH   5  18
ATOM     18  N   LIG d   1      -7.488  91.469 116.544  0.00  0.00     0.381 N 
ATOM     19  H   LIG d   1      -8.099  90.684 116.647  0.00  0.00    -0.090 HD
ATOM     20  H   LIG d   1      -7.069  91.426 115.632  0.00  0.00    -0.090 HD
ATOM     21  H   LIG d   1      -8.004  92.316 116.641  0.00  0.00    -0.090 HD
ENDBRANCH   5  18
BRANCH   3  22
ATOM     22  C   LIG d   1      -2.927  90.279 117.394  0.00  0.00     0.382 C 
ATOM     23  O   LIG d   1      -3.108  89.248 116.703  0.00  0.00    -0.241 OA
ATOM     24  O   LIG d   1      -1.793  90.520 117.851  0.00  0.00    -0.241 OA
ENDBRANCH   3  22
TORSDOF 7
ENDMDL
MODEL 9
REMARK VINA RESULT:      -4.1      3.223      5.604
REMARK  7 active torsions:
REMARK  status: ('A' for Active; 'I' for Inactive)
REMARK    1  A    between atoms: C_2  and  C_3 
REMARK    2  A    between atoms: C_3  and  O_6 
REMARK    3  A    between atoms: C_3  and  C_4 
REMARK    4  A    between atoms: C_7  and  O_6 
REMARK    5  A    between atoms: C_9  and  C_10 
REMARK    6  A    between atoms: N_15  and  C_14 
REMARK    7  A    between atoms: N_20  and  C_19 
REMARK       I    between atoms: C_22  and  N_20 
ROOT
ATOM      1  C   LIG d   1      -2.933  92.699 118.002  0.00  0.00     0.161 C 
ATOM      2  C   LIG d   1      -4.337  92.716 117.953  0.00  0.00     0.016 C 
ATOM      3  C   LIG d   1      -5.116  91.602 117.562  0.00  0.00     0.038 C 
ATOM      4  C   LIG d   1      -4.545  90.341 117.335  0.00  0.00     0.028 C 
ATOM      5  C   LIG d   1      -3.090  90.407 116.882  0.00  0.00    -0.047 C 
ATOM      6  C   LIG d   1      -2.299  91.299 117.865  0.00  0.00     0.091 C 
ENDROOT
BRANCH   1   7
ATOM      7  O   LIG d   1      -2.478  93.340 119.210  0.00  0.00    -0.368 OA
BRANCH   7   8
ATOM      8  C   LIG d   1      -2.385  92.495 120.383  0.00  0.00     0.119 C 
BRANCH   8   9
ATOM      9  C   LIG d   1      -3.402  93.022 121.415  0.00  0.00     0.028 C 
ATOM     10  C   LIG d   1      -4.599  92.075 121.596  0.00  0.00     0.006 C 
ENDBRANCH   8   9
BRANCH   8  11
ATOM     11  C   LIG d   1      -1.017  92.627 121.058  0.00  0.00     0.028 C 
ATOM     12  C   LIG d   1      -0.593  91.351 121.802  0.00  0.00     0.006 C 
ENDBRANCH   8  11
ENDBRANCH   7   8
ENDBRANCH   1   7
BRANCH   6  13
ATOM     13  N   LIG d   1      -0.884  91.485 117.448  0.00  0.00    -0.311 N 
ATOM     14  C   LIG d   1       0.118  90.732 117.898  0.00  0.00     0.210 C 
ATOM     15  C   LIG d   1       1.501  91.106 117.356  0.00  0.00     0.109 C 
ATOM     16  O   LIG d   1      -0.012  89.769 118.669  0.00  0.00    -0.276 OA
ATOM     17  H   LIG d   1      -0.693  92.224 116.800  0.00  0.00     0.149 HD
ENDBRANCH   6  13
BRANCH   5  18
ATOM     18  N   LIG d   1      -2.581  89.025 116.816  0.00  0.00     0.381 N 
ATOM     19  H   LIG d   1      -2.663  88.677 115.882  0.00  0.00    -0.090 HD
ATOM     20  H   LIG d   1      -3.137  88.444 117.419  0.00  0.00    -0.090 HD
ATOM     21  H   LIG d   1      -1.628  88.998 117.106  0.00  0.00    -0.090 HD
ENDBRANCH   5  18
BRANCH   3  22
ATOM     22  C   LIG d   1      -6.478  91.756 117.354  0.00  0.00     0.382 C 
ATOM     23  O   LIG d   1      -7.227  90.749 117.336  0.00  0.00    -0.241 OA
ATOM     24  O   LIG d   1      -6.962  92.883 117.141  0.00  0.00    -0.241 OA
ENDBRANCH   3  22
TORSDOF 7
ENDMDL
