MODEL 1
REMARK VINA RESULT:      -4.7      0.000      0.000
REMARK  7 active torsions:
REMARK  status: ('A' for Active; 'I' for Inactive)
REMARK    1  A    between atoms: C_2  and  C_3 
REMARK    2  A    between atoms: C_3  and  O_6 
REMARK    3  A    between atoms: C_3  and  C_4 
REMARK    4  A    between atoms: C_7  and  O_6 
REMARK    5  A    between atoms: C_9  and  C_10 
REMARK    6  A    between atoms: N_15  and  C_14 
REMARK    7  A    between atoms: N_20  and  C_19 
REMARK       I    between atoms: C_22  and  N_20 
ROOT
ATOM      1  C   LIG d   1      -3.417  92.800 119.540  0.00  0.00     0.161 C 
ATOM      2  C   LIG d   1      -4.544  92.227 118.928  0.00  0.00     0.016 C 
ATOM      3  C   LIG d   1      -4.467  91.341 117.828  0.00  0.00     0.038 C 
ATOM      4  C   LIG d   1      -3.241  90.847 117.359  0.00  0.00     0.028 C 
ATOM      5  C   LIG d   1      -2.069  91.787 117.620  0.00  0.00    -0.047 C 
ATOM      6  C   LIG d   1      -2.067  92.185 119.113  0.00  0.00     0.091 C 
ENDROOT
BRANCH   1   7
ATOM      7  O   LIG d   1      -3.560  92.748 120.973  0.00  0.00    -0.368 OA
BRANCH   7   8
ATOM      8  C   LIG d   1      -4.918  92.713 121.477  0.00  0.00     0.119 C 
BRANCH   8   9
ATOM      9  C   LIG d   1      -5.262  94.127 121.982  0.00  0.00     0.028 C 
ATOM     10  C   LIG d   1      -6.379  94.789 121.157  0.00  0.00     0.006 C 
ENDBRANCH   8   9
BRANCH   8  11
ATOM     11  C   LIG d   1      -5.032  91.805 122.706  0.00  0.00     0.028 C 
ATOM     12  C   LIG d   1      -6.480  91.386 123.003  0.00  0.00     0.006 C 
ENDBRANCH   8  11
ENDBRANCH   7   8
ENDBRANCH   1   7
BRANCH   6  13
ATOM     13  N   LIG d   1      -1.002  93.171 119.436  0.00  0.00    -0.311 N 
ATOM     14  C   LIG d   1       0.219  92.825 119.840  0.00  0.00     0.210 C 
ATOM     15  C   LIG d   1       1.157  93.998 120.139  0.00  0.00     0.109 C 
ATOM     16  O   LIG d   1       0.623  91.657 119.949  0.00  0.00    -0.276 OA
ATOM     17  H   LIG d   1      -1.235  94.140 119.345  0.00  0.00     0.149 HD
ENDBRANCH   6  13
BRANCH   5  18
ATOM     18  N   LIG d   1      -0.837  91.089 117.206  0.00  0.00     0.381 N 
ATOM     19  H   LIG d   1      -0.232  90.974 117.994  0.00  0.00    -0.090 HD
ATOM     20  H   LIG d   1      -0.361  91.649 116.521  0.00  0.00    -0.090 HD
ATOM     21  H   LIG d   1      -1.063  90.199 116.819  0.00  0.00    -0.090 HD
ENDBRANCH   5  18
BRANCH   3  22
ATOM     22  C   LIG d   1      -5.625  90.973 117.161  0.00  0.00     0.382 C 
ATOM     23  O   LIG d   1      -5.630  89.951 116.432  0.00  0.00    -0.241 OA
ATOM     24  O   LIG d   1      -6.652  91.673 117.243  0.00  0.00    -0.241 OA
ENDBRANCH   3  22
TORSDOF 7
ENDMDL
MODEL 2
REMARK VINA RESULT:      -4.7      2.923      5.461
REMARK  7 active torsions:
REMARK  status: ('A' for Active; 'I' for Inactive)
REMARK    1  A    between atoms: C_2  and  C_3 
REMARK    2  A    between atoms: C_3  and  O_6 
REMARK    3  A    between atoms: C_3  and  C_4 
REMARK    4  A    between atoms: C_7  and  O_6 
REMARK    5  A    between atoms: C_9  and  C_10 
REMARK    6  A    between atoms: N_15  and  C_14 
REMARK    7  A    between atoms: N_20  and  C_19 
REMARK       I    between atoms: C_22  and  N_20 
ROOT
ATOM      1  C   LIG d   1      -1.030  93.114 117.587  0.00  0.00     0.161 C 
ATOM      2  C   LIG d   1       0.016  92.245 117.234  0.00  0.00     0.016 C 
ATOM      3  C   LIG d   1       1.254  92.201 117.915  0.00  0.00     0.038 C 
ATOM      4  C   LIG d   1       1.476  92.922 119.097  0.00  0.00     0.028 C 
ATOM      5  C   LIG d   1       0.633  94.189 119.202  0.00  0.00    -0.047 C 
ATOM      6  C   LIG d   1      -0.848  93.828 118.942  0.00  0.00     0.091 C 
ENDROOT
BRANCH   1   7
ATOM      7  O   LIG d   1      -2.285  92.405 117.559  0.00  0.00    -0.368 OA
BRANCH   7   8
ATOM      8  C   LIG d   1      -2.274  91.069 118.121  0.00  0.00     0.119 C 
BRANCH   8   9
ATOM      9  C   LIG d   1      -3.234  90.205 117.279  0.00  0.00     0.028 C 
ATOM     10  C   LIG d   1      -4.476  90.987 116.819  0.00  0.00     0.006 C 
ENDBRANCH   8   9
BRANCH   8  11
ATOM     11  C   LIG d   1      -2.855  91.056 119.538  0.00  0.00     0.028 C 
ATOM     12  C   LIG d   1      -1.776  90.912 120.623  0.00  0.00     0.006 C 
ENDBRANCH   8  11
ENDBRANCH   7   8
ENDBRANCH   1   7
BRANCH   6  13
ATOM     13  N   LIG d   1      -1.731  95.024 118.942  0.00  0.00    -0.311 N 
ATOM     14  C   LIG d   1      -2.695  95.224 119.839  0.00  0.00     0.210 C 
ATOM     15  C   LIG d   1      -3.501  96.512 119.647  0.00  0.00     0.109 C 
ATOM     16  O   LIG d   1      -2.937  94.472 120.796  0.00  0.00    -0.276 OA
ATOM     17  H   LIG d   1      -1.582  95.701 118.219  0.00  0.00     0.149 HD
ENDBRANCH   6  13
BRANCH   5  18
ATOM     18  N   LIG d   1       0.861  94.767 120.539  0.00  0.00     0.381 N 
ATOM     19  H   LIG d   1       1.832  94.975 120.657  0.00  0.00    -0.090 HD
ATOM     20  H   LIG d   1       0.596  94.092 121.235  0.00  0.00    -0.090 HD
ATOM     21  H   LIG d   1       0.321  95.597 120.649  0.00  0.00    -0.090 HD
ENDBRANCH   5  18
BRANCH   3  22
ATOM     22  C   LIG d   1       2.301  91.459 117.390  0.00  0.00     0.382 C 
ATOM     23  O   LIG d   1       3.285  92.041 116.873  0.00  0.00    -0.241 OA
ATOM     24  O   LIG d   1       2.254  90.214 117.386  0.00  0.00    -0.241 OA
ENDBRANCH   3  22
TORSDOF 7
ENDMDL
MODEL 3
REMARK VINA RESULT:      -4.6      1.191      1.797
REMARK  7 active torsions:
REMARK  status: ('A' for Active; 'I' for Inactive)
REMARK    1  A    between atoms: C_2  and  C_3 
REMARK    2  A    between atoms: C_3  and  O_6 
REMARK    3  A    between atoms: C_3  and  C_4 
REMARK    4  A    between atoms: C_7  and  O_6 
REMARK    5  A    between atoms: C_9  and  C_10 
REMARK    6  A    between atoms: N_15  and  C_14 
REMARK    7  A    between atoms: N_20  and  C_19 
REMARK       I    between atoms: C_22  and  N_20 
ROOT
ATOM      1  C   LIG d   1      -3.234  92.969 119.458  0.00  0.00     0.161 C 
ATOM      2  C   LIG d   1      -4.378  92.386 118.889  0.00  0.00     0.016 C 
ATOM      3  C   LIG d   1      -4.329  91.438 117.841  0.00  0.00     0.038 C 
ATOM      4  C   LIG d   1      -3.118  90.892 117.391  0.00  0.00     0.028 C 
ATOM      5  C   LIG d   1      -1.925  91.820 117.588  0.00  0.00    -0.047 C 
ATOM      6  C   LIG d   1      -1.901  92.303 119.057  0.00  0.00     0.091 C 
ENDROOT
BRANCH   1   7
ATOM      7  O   LIG d   1      -3.365  93.002 120.893  0.00  0.00    -0.368 OA
BRANCH   7   8
ATOM      8  C   LIG d   1      -3.391  91.716 121.561  0.00  0.00     0.119 C 
BRANCH   8   9
ATOM      9  C   LIG d   1      -4.453  91.794 122.674  0.00  0.00     0.028 C 
ATOM     10  C   LIG d   1      -5.867  92.042 122.121  0.00  0.00     0.006 C 
ENDBRANCH   8   9
BRANCH   8  11
ATOM     11  C   LIG d   1      -2.069  91.435 122.281  0.00  0.00     0.028 C 
ATOM     12  C   LIG d   1      -1.575  89.994 122.078  0.00  0.00     0.006 C 
ENDBRANCH   8  11
ENDBRANCH   7   8
ENDBRANCH   1   7
BRANCH   6  13
ATOM     13  N   LIG d   1      -0.813  93.282 119.314  0.00  0.00    -0.311 N 
ATOM     14  C   LIG d   1       0.399  92.935 119.744  0.00  0.00     0.210 C 
ATOM     15  C   LIG d   1       1.366  94.103 119.964  0.00  0.00     0.109 C 
ATOM     16  O   LIG d   1       0.776  91.769 119.932  0.00  0.00    -0.276 OA
ATOM     17  H   LIG d   1      -1.023  94.248 119.158  0.00  0.00     0.149 HD
ENDBRANCH   6  13
BRANCH   5  18
ATOM     18  N   LIG d   1      -0.711  91.074 117.205  0.00  0.00     0.381 N 
ATOM     19  H   LIG d   1      -0.957  90.316 116.600  0.00  0.00    -0.090 HD
ATOM     20  H   LIG d   1      -0.289  90.693 118.033  0.00  0.00    -0.090 HD
ATOM     21  H   LIG d   1      -0.069  91.681 116.746  0.00  0.00    -0.090 HD
ENDBRANCH   5  18
BRANCH   3  22
ATOM     22  C   LIG d   1      -5.501  91.057 117.205  0.00  0.00     0.382 C 
ATOM     23  O   LIG d   1      -6.561  91.695 117.408  0.00  0.00    -0.241 OA
ATOM     24  O   LIG d   1      -5.520  90.055 116.464  0.00  0.00    -0.241 OA
ENDBRANCH   3  22
TORSDOF 7
ENDMDL
MODEL 4
REMARK VINA RESULT:      -4.6      2.241      4.695
REMARK  7 active torsions:
REMARK  status: ('A' for Active; 'I' for Inactive)
REMARK    1  A    between atoms: C_2  and  C_3 
REMARK    2  A    between atoms: C_3  and  O_6 
REMARK    3  A    between atoms: C_3  and  C_4 
REMARK    4  A    between atoms: C_7  and  O_6 
REMARK    5  A    between atoms: C_9  and  C_10 
REMARK    6  A    between atoms: N_15  and  C_14 
REMARK    7  A    between atoms: N_20  and  C_19 
REMARK       I    between atoms: C_22  and  N_20 
ROOT
ATOM      1  C   LIG d   1      -2.927  92.210 119.058  0.00  0.00     0.161 C 
ATOM      2  C   LIG d   1      -3.645  91.565 118.037  0.00  0.00     0.016 C 
ATOM      3  C   LIG d   1      -5.042  91.698 117.865  0.00  0.00     0.038 C 
ATOM      4  C   LIG d   1      -5.798  92.611 118.616  0.00  0.00     0.028 C 
ATOM      5  C   LIG d   1      -5.202  92.906 119.988  0.00  0.00    -0.047 C 
ATOM      6  C   LIG d   1      -3.717  93.296 119.817  0.00  0.00     0.091 C 
ENDROOT
BRANCH   1   7
ATOM      7  O   LIG d   1      -1.706  92.759 118.524  0.00  0.00    -0.368 OA
BRANCH   7   8
ATOM      8  C   LIG d   1      -0.526  91.927 118.646  0.00  0.00     0.119 C 
BRANCH   8   9
ATOM      9  C   LIG d   1       0.519  92.722 119.453  0.00  0.00     0.028 C 
ATOM     10  C   LIG d   1       0.563  92.301 120.932  0.00  0.00     0.006 C 
ENDBRANCH   8   9
BRANCH   8  11
ATOM     11  C   LIG d   1       0.122  91.675 117.282  0.00  0.00     0.028 C 
ATOM     12  C   LIG d   1       1.658  91.676 117.342  0.00  0.00     0.006 C 
ENDBRANCH   8  11
ENDBRANCH   7   8
ENDBRANCH   1   7
BRANCH   6  13
ATOM     13  N   LIG d   1      -3.036  93.520 121.119  0.00  0.00    -0.311 N 
ATOM     14  C   LIG d   1      -2.408  94.652 121.433  0.00  0.00     0.210 C 
ATOM     15  C   LIG d   1      -1.755  94.666 122.819  0.00  0.00     0.109 C 
ATOM     16  O   LIG d   1      -2.358  95.657 120.709  0.00  0.00    -0.276 OA
ATOM     17  H   LIG d   1      -3.054  92.767 121.779  0.00  0.00     0.149 HD
ENDBRANCH   6  13
BRANCH   5  18
ATOM     18  N   LIG d   1      -6.013  93.973 120.606  0.00  0.00     0.381 N 
ATOM     19  H   LIG d   1      -5.568  94.858 120.469  0.00  0.00    -0.090 HD
ATOM     20  H   LIG d   1      -6.077  93.801 121.594  0.00  0.00    -0.090 HD
ATOM     21  H   LIG d   1      -6.924  93.985 120.203  0.00  0.00    -0.090 HD
ENDBRANCH   5  18
BRANCH   3  22
ATOM     22  C   LIG d   1      -5.704  90.882 116.960  0.00  0.00     0.382 C 
ATOM     23  O   LIG d   1      -6.915  91.084 116.703  0.00  0.00    -0.241 OA
ATOM     24  O   LIG d   1      -5.117  89.920 116.430  0.00  0.00    -0.241 OA
ENDBRANCH   3  22
TORSDOF 7
ENDMDL
MODEL 5
REMARK VINA RESULT:      -4.5      2.723      5.092
REMARK  7 active torsions:
REMARK  status: ('A' for Active; 'I' for Inactive)
REMARK    1  A    between atoms: C_2  and  C_3 
REMARK    2  A    between atoms: C_3  and  O_6 
REMARK    3  A    between atoms: C_3  and  C_4 
REMARK    4  A    between atoms: C_7  and  O_6 
REMARK    5  A    between atoms: C_9  and  C_10 
REMARK    6  A    between atoms: N_15  and  C_14 
REMARK    7  A    between atoms: N_20  and  C_19 
REMARK       I    between atoms: C_22  and  N_20 
ROOT
ATOM      1  C   LIG d   1      -5.505  93.313 119.694  0.00  0.00     0.161 C 
ATOM      2  C   LIG d   1      -6.894  93.454 119.542  0.00  0.00     0.016 C 
ATOM      3  C   LIG d   1      -7.624  94.558 120.041  0.00  0.00     0.038 C 
ATOM      4  C   LIG d   1      -6.987  95.677 120.598  0.00  0.00     0.028 C 
ATOM      5  C   LIG d   1      -5.635  95.354 121.226  0.00  0.00    -0.047 C 
ATOM      6  C   LIG d   1      -4.778  94.577 120.201  0.00  0.00     0.091 C 
ENDROOT
BRANCH   1   7
ATOM      7  O   LIG d   1      -4.921  92.863 118.456  0.00  0.00    -0.368 OA
BRANCH   7   8
ATOM      8  C   LIG d   1      -4.601  91.452 118.378  0.00  0.00     0.119 C 
BRANCH   8   9
ATOM      9  C   LIG d   1      -3.118  91.291 118.765  0.00  0.00     0.028 C 
ATOM     10  C   LIG d   1      -2.183  91.365 117.546  0.00  0.00     0.006 C 
ENDBRANCH   8   9
BRANCH   8  11
ATOM     11  C   LIG d   1      -4.703  90.935 116.940  0.00  0.00     0.028 C 
ATOM     12  C   LIG d   1      -6.152  90.875 116.430  0.00  0.00     0.006 C 
ENDBRANCH   8  11
ENDBRANCH   7   8
ENDBRANCH   1   7
BRANCH   6  13
ATOM     13  N   LIG d   1      -3.471  94.148 120.764  0.00  0.00    -0.311 N 
ATOM     14  C   LIG d   1      -2.297  94.542 120.274  0.00  0.00     0.210 C 
ATOM     15  C   LIG d   1      -1.071  93.967 120.990  0.00  0.00     0.109 C 
ATOM     16  O   LIG d   1      -2.155  95.339 119.334  0.00  0.00    -0.276 OA
ATOM     17  H   LIG d   1      -3.494  93.526 121.549  0.00  0.00     0.149 HD
ENDBRANCH   6  13
BRANCH   5  18
ATOM     18  N   LIG d   1      -5.022  96.629 121.644  0.00  0.00     0.381 N 
ATOM     19  H   LIG d   1      -4.040  96.502 121.785  0.00  0.00    -0.090 HD
ATOM     20  H   LIG d   1      -5.431  96.916 122.516  0.00  0.00    -0.090 HD
ATOM     21  H   LIG d   1      -5.178  97.326 120.950  0.00  0.00    -0.090 HD
ENDBRANCH   5  18
BRANCH   3  22
ATOM     22  C   LIG d   1      -9.010  94.531 120.021  0.00  0.00     0.382 C 
ATOM     23  O   LIG d   1      -9.610  93.603 119.428  0.00  0.00    -0.241 OA
ATOM     24  O   LIG d   1      -9.667  95.447 120.550  0.00  0.00    -0.241 OA
ENDBRANCH   3  22
TORSDOF 7
ENDMDL
MODEL 6
REMARK VINA RESULT:      -4.3      1.238      1.960
REMARK  7 active torsions:
REMARK  status: ('A' for Active; 'I' for Inactive)
REMARK    1  A    between atoms: C_2  and  C_3 
REMARK    2  A    between atoms: C_3  and  O_6 
REMARK    3  A    between atoms: C_3  and  C_4 
REMARK    4  A    between atoms: C_7  and  O_6 
REMARK    5  A    between atoms: C_9  and  C_10 
REMARK    6  A    between atoms: N_15  and  C_14 
REMARK    7  A    between atoms: N_20  and  C_19 
REMARK       I    between atoms: C_22  and  N_20 
ROOT
ATOM      1  C   LIG d   1      -3.021  92.659 119.757  0.00  0.00     0.161 C 
ATOM      2  C   LIG d   1      -4.168  92.151 119.125  0.00  0.00     0.016 C 
ATOM      3  C   LIG d   1      -4.127  91.384 117.938  0.00  0.00     0.038 C 
ATOM      4  C   LIG d   1      -2.917  90.941 117.383  0.00  0.00     0.028 C 
ATOM      5  C   LIG d   1      -1.735  91.851 117.702  0.00  0.00    -0.047 C 
ATOM      6  C   LIG d   1      -1.686  92.094 119.228  0.00  0.00     0.091 C 
ENDROOT
BRANCH   1   7
ATOM      7  O   LIG d   1      -3.120  92.460 121.181  0.00  0.00    -0.368 OA
BRANCH   7   8
ATOM      8  C   LIG d   1      -3.350  93.649 121.977  0.00  0.00     0.119 C 
BRANCH   8   9
ATOM      9  C   LIG d   1      -2.462  93.547 123.231  0.00  0.00     0.028 C 
ATOM     10  C   LIG d   1      -1.450  92.392 123.141  0.00  0.00     0.006 C 
ENDBRANCH   8   9
BRANCH   8  11
ATOM     11  C   LIG d   1      -4.789  93.699 122.501  0.00  0.00     0.028 C 
ATOM     12  C   LIG d   1      -5.610  94.840 121.881  0.00  0.00     0.006 C 
ENDBRANCH   8  11
ENDBRANCH   7   8
ENDBRANCH   1   7
BRANCH   6  13
ATOM     13  N   LIG d   1      -0.610  93.042 119.617  0.00  0.00    -0.311 N 
ATOM     14  C   LIG d   1       0.608  92.655 119.990  0.00  0.00     0.210 C 
ATOM     15  C   LIG d   1       1.561  93.793 120.370  0.00  0.00     0.109 C 
ATOM     16  O   LIG d   1       1.001  91.478 120.012  0.00  0.00    -0.276 OA
ATOM     17  H   LIG d   1      -0.833  94.018 119.598  0.00  0.00     0.149 HD
ENDBRANCH   6  13
BRANCH   5  18
ATOM     18  N   LIG d   1      -0.518  91.201 117.181  0.00  0.00     0.381 N 
ATOM     19  H   LIG d   1      -0.216  90.490 117.816  0.00  0.00    -0.090 HD
ATOM     20  H   LIG d   1       0.211  91.888 117.106  0.00  0.00    -0.090 HD
ATOM     21  H   LIG d   1      -0.701  90.802 116.286  0.00  0.00    -0.090 HD
ENDBRANCH   5  18
BRANCH   3  22
ATOM     22  C   LIG d   1      -5.305  91.084 117.272  0.00  0.00     0.382 C 
ATOM     23  O   LIG d   1      -6.356  91.714 117.544  0.00  0.00    -0.241 OA
ATOM     24  O   LIG d   1      -5.341  90.162 116.435  0.00  0.00    -0.241 OA
ENDBRANCH   3  22
TORSDOF 7
ENDMDL
MODEL 7
REMARK VINA RESULT:      -4.2      3.009      5.493
REMARK  7 active torsions:
REMARK  status: ('A' for Active; 'I' for Inactive)
REMARK    1  A    between atoms: C_2  and  C_3 
REMARK    2  A    between atoms: C_3  and  O_6 
REMARK    3  A    between atoms: C_3  and  C_4 
REMARK    4  A    between atoms: C_7  and  O_6 
REMARK    5  A    between atoms: C_9  and  C_10 
REMARK    6  A    between atoms: N_15  and  C_14 
REMARK    7  A    between atoms: N_20  and  C_19 
REMARK       I    between atoms: C_22  and  N_20 
ROOT
ATOM      1  C   LIG d   1      -4.707  93.755 120.684  0.00  0.00     0.161 C 
ATOM      2  C   LIG d   1      -3.411  93.422 120.256  0.00  0.00     0.016 C 
ATOM      3  C   LIG d   1      -3.148  92.598 119.138  0.00  0.00     0.038 C 
ATOM      4  C   LIG d   1      -4.168  92.171 118.276  0.00  0.00     0.028 C 
ATOM      5  C   LIG d   1      -5.530  92.064 118.954  0.00  0.00    -0.047 C 
ATOM      6  C   LIG d   1      -5.829  93.390 119.690  0.00  0.00     0.091 C 
ENDROOT
BRANCH   1   7
ATOM      7  O   LIG d   1      -4.767  95.157 121.015  0.00  0.00    -0.368 OA
BRANCH   7   8
ATOM      8  C   LIG d   1      -4.752  96.077 119.896  0.00  0.00     0.119 C 
BRANCH   8   9
ATOM      9  C   LIG d   1      -3.604  97.076 120.134  0.00  0.00     0.028 C 
ATOM     10  C   LIG d   1      -2.390  96.802 119.230  0.00  0.00     0.006 C 
ENDBRANCH   8   9
BRANCH   8  11
ATOM     11  C   LIG d   1      -6.027  96.925 119.855  0.00  0.00     0.028 C 
ATOM     12  C   LIG d   1      -6.785  96.925 121.191  0.00  0.00     0.006 C 
ENDBRANCH   8  11
ENDBRANCH   7   8
ENDBRANCH   1   7
BRANCH   6  13
ATOM     13  N   LIG d   1      -7.105  93.340 120.451  0.00  0.00    -0.311 N 
ATOM     14  C   LIG d   1      -8.282  93.687 119.933  0.00  0.00     0.210 C 
ATOM     15  C   LIG d   1      -9.469  93.581 120.895  0.00  0.00     0.109 C 
ATOM     16  O   LIG d   1      -8.460  94.043 118.758  0.00  0.00    -0.276 OA
ATOM     17  H   LIG d   1      -7.057  93.033 121.403  0.00  0.00     0.149 HD
ENDBRANCH   6  13
BRANCH   5  18
ATOM     18  N   LIG d   1      -6.523  91.743 117.912  0.00  0.00     0.381 N 
ATOM     19  H   LIG d   1      -6.188  90.991 117.344  0.00  0.00    -0.090 HD
ATOM     20  H   LIG d   1      -6.650  92.549 117.325  0.00  0.00    -0.090 HD
ATOM     21  H   LIG d   1      -7.390  91.490 118.334  0.00  0.00    -0.090 HD
ENDBRANCH   5  18
BRANCH   3  22
ATOM     22  C   LIG d   1      -1.855  92.159 118.897  0.00  0.00     0.382 C 
ATOM     23  O   LIG d   1      -1.416  91.144 119.489  0.00  0.00    -0.241 OA
ATOM     24  O   LIG d   1      -1.107  92.792 118.128  0.00  0.00    -0.241 OA
ENDBRANCH   3  22
TORSDOF 7
ENDMDL
MODEL 8
REMARK VINA RESULT:      -4.1      2.387      4.448
REMARK  7 active torsions:
REMARK  status: ('A' for Active; 'I' for Inactive)
REMARK    1  A    between atoms: C_2  and  C_3 
REMARK    2  A    between atoms: C_3  and  O_6 
REMARK    3  A    between atoms: C_3  and  C_4 
REMARK    4  A    between atoms: C_7  and  O_6 
REMARK    5  A    between atoms: C_9  and  C_10 
REMARK    6  A    between atoms: N_15  and  C_14 
REMARK    7  A    between atoms: N_20  and  C_19 
REMARK       I    between atoms: C_22  and  N_20 
ROOT
ATOM      1  C   LIG d   1      -3.883  92.854 120.375  0.00  0.00     0.161 C 
ATOM      2  C   LIG d   1      -5.276  92.753 120.219  0.00  0.00     0.016 C 
ATOM      3  C   LIG d   1      -6.117  93.868 120.003  0.00  0.00     0.038 C 
ATOM      4  C   LIG d   1      -5.602  95.153 119.776  0.00  0.00     0.028 C 
ATOM      5  C   LIG d   1      -4.241  95.383 120.426  0.00  0.00    -0.047 C 
ATOM      6  C   LIG d   1      -3.291  94.234 120.020  0.00  0.00     0.091 C 
ENDROOT
BRANCH   1   7
ATOM      7  O   LIG d   1      -3.230  91.818 119.615  0.00  0.00    -0.368 OA
BRANCH   7   8
ATOM      8  C   LIG d   1      -3.235  91.984 118.176  0.00  0.00     0.119 C 
BRANCH   8   9
ATOM      9  C   LIG d   1      -3.902  90.734 117.568  0.00  0.00     0.028 C 
ATOM     10  C   LIG d   1      -5.241  91.057 116.885  0.00  0.00     0.006 C 
ENDBRANCH   8   9
BRANCH   8  11
ATOM     11  C   LIG d   1      -1.812  91.999 117.611  0.00  0.00     0.028 C 
ATOM     12  C   LIG d   1      -0.748  91.664 118.669  0.00  0.00     0.006 C 
ENDBRANCH   8  11
ENDBRANCH   7   8
ENDBRANCH   1   7
BRANCH   6  13
ATOM     13  N   LIG d   1      -1.963  94.336 120.681  0.00  0.00    -0.311 N 
ATOM     14  C   LIG d   1      -0.910  94.930 120.122  0.00  0.00     0.210 C 
ATOM     15  C   LIG d   1       0.368  94.908 120.965  0.00  0.00     0.109 C 
ATOM     16  O   LIG d   1      -0.923  95.502 119.021  0.00  0.00    -0.276 OA
ATOM     17  H   LIG d   1      -1.873  93.926 121.590  0.00  0.00     0.149 HD
ENDBRANCH   6  13
BRANCH   5  18
ATOM     18  N   LIG d   1      -3.761  96.710 119.996  0.00  0.00     0.381 N 
ATOM     19  H   LIG d   1      -2.764  96.696 119.905  0.00  0.00    -0.090 HD
ATOM     20  H   LIG d   1      -4.004  97.387 120.698  0.00  0.00    -0.090 HD
ATOM     21  H   LIG d   1      -4.178  96.958 119.126  0.00  0.00    -0.090 HD
ENDBRANCH   5  18
BRANCH   3  22
ATOM     22  C   LIG d   1      -7.494  93.710 120.051  0.00  0.00     0.382 C 
ATOM     23  O   LIG d   1      -8.158  93.666 118.988  0.00  0.00    -0.241 OA
ATOM     24  O   LIG d   1      -8.085  93.656 121.146  0.00  0.00    -0.241 OA
ENDBRANCH   3  22
TORSDOF 7
ENDMDL
MODEL 9
REMARK VINA RESULT:      -4.1      2.408      3.076
REMARK  7 active torsions:
REMARK  status: ('A' for Active; 'I' for Inactive)
REMARK    1  A    between atoms: C_2  and  C_3 
REMARK    2  A    between atoms: C_3  and  O_6 
REMARK    3  A    between atoms: C_3  and  C_4 
REMARK    4  A    between atoms: C_7  and  O_6 
REMARK    5  A    between atoms: C_9  and  C_10 
REMARK    6  A    between atoms: N_15  and  C_14 
REMARK    7  A    between atoms: N_20  and  C_19 
REMARK       I    between atoms: C_22  and  N_20 
ROOT
ATOM      1  C   LIG d   1      -5.293  94.176 119.841  0.00  0.00     0.161 C 
ATOM      2  C   LIG d   1      -5.779  93.181 118.976  0.00  0.00     0.016 C 
ATOM      3  C   LIG d   1      -5.004  92.082 118.541  0.00  0.00     0.038 C 
ATOM      4  C   LIG d   1      -3.729  91.819 119.066  0.00  0.00     0.028 C 
ATOM      5  C   LIG d   1      -3.008  93.070 119.557  0.00  0.00    -0.047 C 
ATOM      6  C   LIG d   1      -3.943  93.847 120.511  0.00  0.00     0.091 C 
ENDROOT
BRANCH   1   7
ATOM      7  O   LIG d   1      -6.287  94.482 120.840  0.00  0.00    -0.368 OA
BRANCH   7   8
ATOM      8  C   LIG d   1      -7.209  93.414 121.170  0.00  0.00     0.119 C 
BRANCH   8   9
ATOM      9  C   LIG d   1      -8.623  94.024 121.223  0.00  0.00     0.028 C 
ATOM     10  C   LIG d   1      -9.246  94.184 119.826  0.00  0.00     0.006 C 
ENDBRANCH   8   9
BRANCH   8  11
ATOM     11  C   LIG d   1      -6.949  92.869 122.578  0.00  0.00     0.028 C 
ATOM     12  C   LIG d   1      -6.040  91.630 122.578  0.00  0.00     0.006 C 
ENDBRANCH   8  11
ENDBRANCH   7   8
ENDBRANCH   1   7
BRANCH   6  13
ATOM     13  N   LIG d   1      -3.346  95.127 120.972  0.00  0.00    -0.311 N 
ATOM     14  C   LIG d   1      -3.275  95.484 122.253  0.00  0.00     0.210 C 
ATOM     15  C   LIG d   1      -2.640  96.855 122.509  0.00  0.00     0.109 C 
ATOM     16  O   LIG d   1      -3.649  94.782 123.205  0.00  0.00    -0.276 OA
ATOM     17  H   LIG d   1      -2.990  95.744 120.268  0.00  0.00     0.149 HD
ENDBRANCH   6  13
BRANCH   5  18
ATOM     18  N   LIG d   1      -1.754  92.636 120.203  0.00  0.00     0.381 N 
ATOM     19  H   LIG d   1      -1.690  93.033 121.119  0.00  0.00    -0.090 HD
ATOM     20  H   LIG d   1      -0.977  92.969 119.660  0.00  0.00    -0.090 HD
ATOM     21  H   LIG d   1      -1.726  91.642 120.261  0.00  0.00    -0.090 HD
ENDBRANCH   5  18
BRANCH   3  22
ATOM     22  C   LIG d   1      -5.487  91.252 117.541  0.00  0.00     0.382 C 
ATOM     23  O   LIG d   1      -4.756  90.349 117.067  0.00  0.00    -0.241 OA
ATOM     24  O   LIG d   1      -6.630  91.424 117.075  0.00  0.00    -0.241 OA
ENDBRANCH   3  22
TORSDOF 7
ENDMDL
