MODEL 1
REMARK VINA RESULT:      -4.6      0.000      0.000
REMARK  7 active torsions:
REMARK  status: ('A' for Active; 'I' for Inactive)
REMARK    1  A    between atoms: C_2  and  C_3 
REMARK    2  A    between atoms: C_3  and  O_6 
REMARK    3  A    between atoms: C_3  and  C_4 
REMARK    4  A    between atoms: C_7  and  O_6 
REMARK    5  A    between atoms: C_9  and  C_10 
REMARK    6  A    between atoms: N_15  and  C_14 
REMARK    7  A    between atoms: N_20  and  C_19 
REMARK       I    between atoms: C_22  and  N_20 
ROOT
ATOM      1  C   LIG d   1      -4.683  92.335 119.670  0.00  0.00     0.161 C 
ATOM      2  C   LIG d   1      -3.786  91.422 119.090  0.00  0.00     0.016 C 
ATOM      3  C   LIG d   1      -3.935  90.910 117.780  0.00  0.00     0.038 C 
ATOM      4  C   LIG d   1      -4.914  91.397 116.901  0.00  0.00     0.028 C 
ATOM      5  C   LIG d   1      -6.146  91.947 117.611  0.00  0.00    -0.047 C 
ATOM      6  C   LIG d   1      -5.694  92.961 118.687  0.00  0.00     0.091 C 
ENDROOT
BRANCH   1   7
ATOM      7  O   LIG d   1      -3.951  93.367 120.361  0.00  0.00    -0.368 OA
BRANCH   7   8
ATOM      8  C   LIG d   1      -3.496  94.478 119.549  0.00  0.00     0.119 C 
BRANCH   8   9
ATOM      9  C   LIG d   1      -1.970  94.336 119.384  0.00  0.00     0.028 C 
ATOM     10  C   LIG d   1      -1.553  94.148 117.916  0.00  0.00     0.006 C 
ENDBRANCH   8   9
BRANCH   8  11
ATOM     11  C   LIG d   1      -3.704  95.814 120.267  0.00  0.00     0.028 C 
ATOM     12  C   LIG d   1      -3.600  97.021 119.322  0.00  0.00     0.006 C 
ENDBRANCH   8  11
ENDBRANCH   7   8
ENDBRANCH   1   7
BRANCH   6  13
ATOM     13  N   LIG d   1      -6.832  93.485 119.485  0.00  0.00    -0.311 N 
ATOM     14  C   LIG d   1      -7.265  94.743 119.409  0.00  0.00     0.210 C 
ATOM     15  C   LIG d   1      -8.439  95.081 120.333  0.00  0.00     0.109 C 
ATOM     16  O   LIG d   1      -6.808  95.602 118.639  0.00  0.00    -0.276 OA
ATOM     17  H   LIG d   1      -7.281  92.847 120.113  0.00  0.00     0.149 HD
ENDBRANCH   6  13
BRANCH   5  18
ATOM     18  N   LIG d   1      -7.022  92.544 116.585  0.00  0.00     0.381 N 
ATOM     19  H   LIG d   1      -7.031  91.966 115.769  0.00  0.00    -0.090 HD
ATOM     20  H   LIG d   1      -6.656  93.445 116.329  0.00  0.00    -0.090 HD
ATOM     21  H   LIG d   1      -7.947  92.643 116.942  0.00  0.00    -0.090 HD
ENDBRANCH   5  18
BRANCH   3  22
ATOM     22  C   LIG d   1      -3.122  89.872 117.352  0.00  0.00     0.382 C 
ATOM     23  O   LIG d   1      -3.616  88.741 117.127  0.00  0.00    -0.241 OA
ATOM     24  O   LIG d   1      -1.894  90.040 117.230  0.00  0.00    -0.241 OA
ENDBRANCH   3  22
TORSDOF 7
ENDMDL
MODEL 2
REMARK VINA RESULT:      -4.4      0.858      1.410
REMARK  7 active torsions:
REMARK  status: ('A' for Active; 'I' for Inactive)
REMARK    1  A    between atoms: C_2  and  C_3 
REMARK    2  A    between atoms: C_3  and  O_6 
REMARK    3  A    between atoms: C_3  and  C_4 
REMARK    4  A    between atoms: C_7  and  O_6 
REMARK    5  A    between atoms: C_9  and  C_10 
REMARK    6  A    between atoms: N_15  and  C_14 
REMARK    7  A    between atoms: N_20  and  C_19 
REMARK       I    between atoms: C_22  and  N_20 
ROOT
ATOM      1  C   LIG d   1      -4.719  92.335 119.663  0.00  0.00     0.161 C 
ATOM      2  C   LIG d   1      -3.807  91.423 119.107  0.00  0.00     0.016 C 
ATOM      3  C   LIG d   1      -3.913  90.922 117.789  0.00  0.00     0.038 C 
ATOM      4  C   LIG d   1      -4.861  91.419 116.881  0.00  0.00     0.028 C 
ATOM      5  C   LIG d   1      -6.114  91.970 117.554  0.00  0.00    -0.047 C 
ATOM      6  C   LIG d   1      -5.694  92.973 118.652  0.00  0.00     0.091 C 
ENDROOT
BRANCH   1   7
ATOM      7  O   LIG d   1      -4.007  93.359 120.386  0.00  0.00    -0.368 OA
BRANCH   7   8
ATOM      8  C   LIG d   1      -2.571  93.394 120.193  0.00  0.00     0.119 C 
BRANCH   8   9
ATOM      9  C   LIG d   1      -1.922  93.594 121.576  0.00  0.00     0.028 C 
ATOM     10  C   LIG d   1      -0.542  94.266 121.485  0.00  0.00     0.006 C 
ENDBRANCH   8   9
BRANCH   8  11
ATOM     11  C   LIG d   1      -2.150  94.614 119.368  0.00  0.00     0.028 C 
ATOM     12  C   LIG d   1      -1.654  94.240 117.962  0.00  0.00     0.006 C 
ENDBRANCH   8  11
ENDBRANCH   7   8
ENDBRANCH   1   7
BRANCH   6  13
ATOM     13  N   LIG d   1      -6.857  93.496 119.416  0.00  0.00    -0.311 N 
ATOM     14  C   LIG d   1      -7.176  94.788 119.473  0.00  0.00     0.210 C 
ATOM     15  C   LIG d   1      -8.401  95.114 120.333  0.00  0.00     0.109 C 
ATOM     16  O   LIG d   1      -6.581  95.691 118.866  0.00  0.00    -0.276 OA
ATOM     17  H   LIG d   1      -7.413  92.828 119.913  0.00  0.00     0.149 HD
ENDBRANCH   6  13
BRANCH   5  18
ATOM     18  N   LIG d   1      -6.952  92.578 116.504  0.00  0.00     0.381 N 
ATOM     19  H   LIG d   1      -6.723  92.181 115.615  0.00  0.00    -0.090 HD
ATOM     20  H   LIG d   1      -6.763  93.564 116.467  0.00  0.00    -0.090 HD
ATOM     21  H   LIG d   1      -7.916  92.425 116.706  0.00  0.00    -0.090 HD
ENDBRANCH   5  18
BRANCH   3  22
ATOM     22  C   LIG d   1      -3.091  89.884 117.380  0.00  0.00     0.382 C 
ATOM     23  O   LIG d   1      -3.573  88.742 117.183  0.00  0.00    -0.241 OA
ATOM     24  O   LIG d   1      -1.865  90.063 117.248  0.00  0.00    -0.241 OA
ENDBRANCH   3  22
TORSDOF 7
ENDMDL
MODEL 3
REMARK VINA RESULT:      -4.4      4.159      6.748
REMARK  7 active torsions:
REMARK  status: ('A' for Active; 'I' for Inactive)
REMARK    1  A    between atoms: C_2  and  C_3 
REMARK    2  A    between atoms: C_3  and  O_6 
REMARK    3  A    between atoms: C_3  and  C_4 
REMARK    4  A    between atoms: C_7  and  O_6 
REMARK    5  A    between atoms: C_9  and  C_10 
REMARK    6  A    between atoms: N_15  and  C_14 
REMARK    7  A    between atoms: N_20  and  C_19 
REMARK       I    between atoms: C_22  and  N_20 
ROOT
ATOM      1  C   LIG d   1       0.256  90.842 117.129  0.00  0.00     0.161 C 
ATOM      2  C   LIG d   1       1.646  90.977 117.279  0.00  0.00     0.016 C 
ATOM      3  C   LIG d   1       2.252  92.016 118.023  0.00  0.00     0.038 C 
ATOM      4  C   LIG d   1       1.497  92.910 118.797  0.00  0.00     0.028 C 
ATOM      5  C   LIG d   1       0.081  93.121 118.272  0.00  0.00    -0.047 C 
ATOM      6  C   LIG d   1      -0.585  91.742 118.059  0.00  0.00     0.091 C 
ENDROOT
BRANCH   1   7
ATOM      7  O   LIG d   1      -0.121  89.460 117.294  0.00  0.00    -0.368 OA
BRANCH   7   8
ATOM      8  C   LIG d   1      -0.227  88.987 118.660  0.00  0.00     0.119 C 
BRANCH   8   9
ATOM      9  C   LIG d   1       0.886  87.944 118.876  0.00  0.00     0.028 C 
ATOM     10  C   LIG d   1       0.762  87.227 120.231  0.00  0.00     0.006 C 
ENDBRANCH   8   9
BRANCH   8  11
ATOM     11  C   LIG d   1      -1.541  88.233 118.888  0.00  0.00     0.028 C 
ATOM     12  C   LIG d   1      -2.350  88.042 117.595  0.00  0.00     0.006 C 
ENDBRANCH   8  11
ENDBRANCH   7   8
ENDBRANCH   1   7
BRANCH   6  13
ATOM     13  N   LIG d   1      -1.944  91.855 117.467  0.00  0.00    -0.311 N 
ATOM     14  C   LIG d   1      -3.062  91.608 118.146  0.00  0.00     0.210 C 
ATOM     15  C   LIG d   1      -4.356  91.764 117.341  0.00  0.00     0.109 C 
ATOM     16  O   LIG d   1      -3.107  91.307 119.348  0.00  0.00    -0.276 OA
ATOM     17  H   LIG d   1      -2.001  92.124 116.504  0.00  0.00     0.149 HD
ENDBRANCH   6  13
BRANCH   5  18
ATOM     18  N   LIG d   1      -0.635  93.964 119.248  0.00  0.00     0.381 N 
ATOM     19  H   LIG d   1      -0.952  94.802 118.803  0.00  0.00    -0.090 HD
ATOM     20  H   LIG d   1      -0.002  94.218 119.985  0.00  0.00    -0.090 HD
ATOM     21  H   LIG d   1      -1.412  93.465 119.624  0.00  0.00    -0.090 HD
ENDBRANCH   5  18
BRANCH   3  22
ATOM     22  C   LIG d   1       3.625  92.193 117.964  0.00  0.00     0.382 C 
ATOM     23  O   LIG d   1       4.283  92.352 119.020  0.00  0.00    -0.241 OA
ATOM     24  O   LIG d   1       4.210  92.241 116.864  0.00  0.00    -0.241 OA
ENDBRANCH   3  22
TORSDOF 7
ENDMDL
MODEL 4
REMARK VINA RESULT:      -4.3      2.925      5.207
REMARK  7 active torsions:
REMARK  status: ('A' for Active; 'I' for Inactive)
REMARK    1  A    between atoms: C_2  and  C_3 
REMARK    2  A    between atoms: C_3  and  O_6 
REMARK    3  A    between atoms: C_3  and  C_4 
REMARK    4  A    between atoms: C_7  and  O_6 
REMARK    5  A    between atoms: C_9  and  C_10 
REMARK    6  A    between atoms: N_15  and  C_14 
REMARK    7  A    between atoms: N_20  and  C_19 
REMARK       I    between atoms: C_22  and  N_20 
ROOT
ATOM      1  C   LIG d   1      -1.775  92.822 117.979  0.00  0.00     0.161 C 
ATOM      2  C   LIG d   1      -0.607  92.100 117.682  0.00  0.00     0.016 C 
ATOM      3  C   LIG d   1       0.683  92.500 118.101  0.00  0.00     0.038 C 
ATOM      4  C   LIG d   1       0.876  93.576 118.980  0.00  0.00     0.028 C 
ATOM      5  C   LIG d   1      -0.221  94.631 118.897  0.00  0.00    -0.047 C 
ATOM      6  C   LIG d   1      -1.596  93.937 119.031  0.00  0.00     0.091 C 
ENDROOT
BRANCH   1   7
ATOM      7  O   LIG d   1      -2.820  91.915 118.384  0.00  0.00    -0.368 OA
BRANCH   7   8
ATOM      8  C   LIG d   1      -3.950  91.803 117.484  0.00  0.00     0.119 C 
BRANCH   8   9
ATOM      9  C   LIG d   1      -5.205  92.247 118.260  0.00  0.00     0.028 C 
ATOM     10  C   LIG d   1      -5.016  92.155 119.783  0.00  0.00     0.006 C 
ENDBRANCH   8   9
BRANCH   8  11
ATOM     11  C   LIG d   1      -4.209  90.345 117.094  0.00  0.00     0.028 C 
ATOM     12  C   LIG d   1      -3.104  89.393 117.579  0.00  0.00     0.006 C 
ENDBRANCH   8  11
ENDBRANCH   7   8
ENDBRANCH   1   7
BRANCH   6  13
ATOM     13  N   LIG d   1      -2.728  94.887 118.876  0.00  0.00    -0.311 N 
ATOM     14  C   LIG d   1      -3.336  95.477 119.904  0.00  0.00     0.210 C 
ATOM     15  C   LIG d   1      -4.494  96.406 119.524  0.00  0.00     0.109 C 
ATOM     16  O   LIG d   1      -3.005  95.345 121.092  0.00  0.00    -0.276 OA
ATOM     17  H   LIG d   1      -3.041  95.076 117.944  0.00  0.00     0.149 HD
ENDBRANCH   6  13
BRANCH   5  18
ATOM     18  N   LIG d   1       0.032  95.623 119.960  0.00  0.00     0.381 N 
ATOM     19  H   LIG d   1      -0.203  95.232 120.850  0.00  0.00    -0.090 HD
ATOM     20  H   LIG d   1      -0.554  96.424 119.803  0.00  0.00    -0.090 HD
ATOM     21  H   LIG d   1       0.990  95.895 119.950  0.00  0.00    -0.090 HD
ENDBRANCH   5  18
BRANCH   3  22
ATOM     22  C   LIG d   1       1.800  91.844 117.607  0.00  0.00     0.382 C 
ATOM     23  O   LIG d   1       1.695  90.678 117.157  0.00  0.00    -0.241 OA
ATOM     24  O   LIG d   1       2.920  92.388 117.646  0.00  0.00    -0.241 OA
ENDBRANCH   3  22
TORSDOF 7
ENDMDL
MODEL 5
REMARK VINA RESULT:      -4.3      1.550      2.449
REMARK  7 active torsions:
REMARK  status: ('A' for Active; 'I' for Inactive)
REMARK    1  A    between atoms: C_2  and  C_3 
REMARK    2  A    between atoms: C_3  and  O_6 
REMARK    3  A    between atoms: C_3  and  C_4 
REMARK    4  A    between atoms: C_7  and  O_6 
REMARK    5  A    between atoms: C_9  and  C_10 
REMARK    6  A    between atoms: N_15  and  C_14 
REMARK    7  A    between atoms: N_20  and  C_19 
REMARK       I    between atoms: C_22  and  N_20 
ROOT
ATOM      1  C   LIG d   1      -3.189  92.968 119.059  0.00  0.00     0.161 C 
ATOM      2  C   LIG d   1      -2.932  91.828 118.280  0.00  0.00     0.016 C 
ATOM      3  C   LIG d   1      -3.948  90.975 117.791  0.00  0.00     0.038 C 
ATOM      4  C   LIG d   1      -5.309  91.291 117.921  0.00  0.00     0.028 C 
ATOM      5  C   LIG d   1      -5.613  92.165 119.133  0.00  0.00    -0.047 C 
ATOM      6  C   LIG d   1      -4.672  93.391 119.118  0.00  0.00     0.091 C 
ENDROOT
BRANCH   1   7
ATOM      7  O   LIG d   1      -2.373  94.065 118.602  0.00  0.00    -0.368 OA
BRANCH   7   8
ATOM      8  C   LIG d   1      -1.316  94.489 119.497  0.00  0.00     0.119 C 
BRANCH   8   9
ATOM      9  C   LIG d   1      -1.688  95.888 120.025  0.00  0.00     0.028 C 
ATOM     10  C   LIG d   1      -2.438  96.729 118.979  0.00  0.00     0.006 C 
ENDBRANCH   8   9
BRANCH   8  11
ATOM     11  C   LIG d   1       0.007  94.678 118.748  0.00  0.00     0.028 C 
ATOM     12  C   LIG d   1       0.899  93.427 118.789  0.00  0.00     0.006 C 
ENDBRANCH   8  11
ENDBRANCH   7   8
ENDBRANCH   1   7
BRANCH   6  13
ATOM     13  N   LIG d   1      -4.846  94.255 120.314  0.00  0.00    -0.311 N 
ATOM     14  C   LIG d   1      -5.593  95.357 120.320  0.00  0.00     0.210 C 
ATOM     15  C   LIG d   1      -5.621  96.112 121.652  0.00  0.00     0.109 C 
ATOM     16  O   LIG d   1      -6.262  95.763 119.358  0.00  0.00    -0.276 OA
ATOM     17  H   LIG d   1      -4.364  93.982 121.148  0.00  0.00     0.149 HD
ENDBRANCH   6  13
BRANCH   5  18
ATOM     18  N   LIG d   1      -7.041  92.532 119.070  0.00  0.00     0.381 N 
ATOM     19  H   LIG d   1      -7.291  93.060 119.882  0.00  0.00    -0.090 HD
ATOM     20  H   LIG d   1      -7.592  91.692 119.059  0.00  0.00    -0.090 HD
ATOM     21  H   LIG d   1      -7.220  93.066 118.249  0.00  0.00    -0.090 HD
ENDBRANCH   5  18
BRANCH   3  22
ATOM     22  C   LIG d   1      -3.606  89.769 117.197  0.00  0.00     0.382 C 
ATOM     23  O   LIG d   1      -2.413  89.383 117.203  0.00  0.00    -0.241 OA
ATOM     24  O   LIG d   1      -4.470  89.084 116.616  0.00  0.00    -0.241 OA
ENDBRANCH   3  22
TORSDOF 7
ENDMDL
MODEL 6
REMARK VINA RESULT:      -4.2      2.553      5.455
REMARK  7 active torsions:
REMARK  status: ('A' for Active; 'I' for Inactive)
REMARK    1  A    between atoms: C_2  and  C_3 
REMARK    2  A    between atoms: C_3  and  O_6 
REMARK    3  A    between atoms: C_3  and  C_4 
REMARK    4  A    between atoms: C_7  and  O_6 
REMARK    5  A    between atoms: C_9  and  C_10 
REMARK    6  A    between atoms: N_15  and  C_14 
REMARK    7  A    between atoms: N_20  and  C_19 
REMARK       I    between atoms: C_22  and  N_20 
ROOT
ATOM      1  C   LIG d   1      -5.831  93.398 119.998  0.00  0.00     0.161 C 
ATOM      2  C   LIG d   1      -7.118  92.904 120.267  0.00  0.00     0.016 C 
ATOM      3  C   LIG d   1      -8.108  93.643 120.954  0.00  0.00     0.038 C 
ATOM      4  C   LIG d   1      -7.925  94.993 121.289  0.00  0.00     0.028 C 
ATOM      5  C   LIG d   1      -6.463  95.376 121.487  0.00  0.00    -0.047 C 
ATOM      6  C   LIG d   1      -5.651  94.908 120.257  0.00  0.00     0.091 C 
ENDROOT
BRANCH   1   7
ATOM      7  O   LIG d   1      -5.456  93.074 118.644  0.00  0.00    -0.368 OA
BRANCH   7   8
ATOM      8  C   LIG d   1      -4.876  91.762 118.440  0.00  0.00     0.119 C 
BRANCH   8   9
ATOM      9  C   LIG d   1      -3.413  91.823 118.923  0.00  0.00     0.028 C 
ATOM     10  C   LIG d   1      -2.577  92.844 118.134  0.00  0.00     0.006 C 
ENDBRANCH   8   9
BRANCH   8  11
ATOM     11  C   LIG d   1      -4.797  91.413 116.951  0.00  0.00     0.028 C 
ATOM     12  C   LIG d   1      -4.433  89.941 116.703  0.00  0.00     0.006 C 
ENDBRANCH   8  11
ENDBRANCH   7   8
ENDBRANCH   1   7
BRANCH   6  13
ATOM     13  N   LIG d   1      -4.195  95.169 120.407  0.00  0.00    -0.311 N 
ATOM     14  C   LIG d   1      -3.586  96.239 119.899  0.00  0.00     0.210 C 
ATOM     15  C   LIG d   1      -2.077  96.304 120.152  0.00  0.00     0.109 C 
ATOM     16  O   LIG d   1      -4.158  97.157 119.292  0.00  0.00    -0.276 OA
ATOM     17  H   LIG d   1      -3.660  94.490 120.912  0.00  0.00     0.149 HD
ENDBRANCH   6  13
BRANCH   5  18
ATOM     18  N   LIG d   1      -6.408  96.835 121.695  0.00  0.00     0.381 N 
ATOM     19  H   LIG d   1      -5.457  97.144 121.680  0.00  0.00    -0.090 HD
ATOM     20  H   LIG d   1      -6.796  97.050 122.596  0.00  0.00    -0.090 HD
ATOM     21  H   LIG d   1      -6.927  97.301 120.983  0.00  0.00    -0.090 HD
ENDBRANCH   5  18
BRANCH   3  22
ATOM     22  C   LIG d   1      -9.281  93.019 121.349  0.00  0.00     0.382 C 
ATOM     23  O   LIG d   1      -9.299  92.320 122.391  0.00  0.00    -0.241 OA
ATOM     24  O   LIG d   1     -10.310  93.111 120.654  0.00  0.00    -0.241 OA
ENDBRANCH   3  22
TORSDOF 7
ENDMDL
MODEL 7
REMARK VINA RESULT:      -4.2      2.497      4.451
REMARK  7 active torsions:
REMARK  status: ('A' for Active; 'I' for Inactive)
REMARK    1  A    between atoms: C_2  and  C_3 
REMARK    2  A    between atoms: C_3  and  O_6 
REMARK    3  A    between atoms: C_3  and  C_4 
REMARK    4  A    between atoms: C_7  and  O_6 
REMARK    5  A    between atoms: C_9  and  C_10 
REMARK    6  A    between atoms: N_15  and  C_14 
REMARK    7  A    between atoms: N_20  and  C_19 
REMARK       I    between atoms: C_22  and  N_20 
ROOT
ATOM      1  C   LIG d   1      -2.963  92.542 118.136  0.00  0.00     0.161 C 
ATOM      2  C   LIG d   1      -2.471  91.261 117.839  0.00  0.00     0.016 C 
ATOM      3  C   LIG d   1      -1.093  90.946 117.799  0.00  0.00     0.038 C 
ATOM      4  C   LIG d   1      -0.111  91.863 118.204  0.00  0.00     0.028 C 
ATOM      5  C   LIG d   1      -0.531  93.318 118.026  0.00  0.00    -0.047 C 
ATOM      6  C   LIG d   1      -1.911  93.527 118.690  0.00  0.00     0.091 C 
ENDROOT
BRANCH   1   7
ATOM      7  O   LIG d   1      -4.078  92.439 119.043  0.00  0.00    -0.368 OA
BRANCH   7   8
ATOM      8  C   LIG d   1      -5.350  92.924 118.547  0.00  0.00     0.119 C 
BRANCH   8   9
ATOM      9  C   LIG d   1      -6.157  93.430 119.759  0.00  0.00     0.028 C 
ATOM     10  C   LIG d   1      -6.675  94.865 119.562  0.00  0.00     0.006 C 
ENDBRANCH   8   9
BRANCH   8  11
ATOM     11  C   LIG d   1      -6.185  91.788 117.949  0.00  0.00     0.028 C 
ATOM     12  C   LIG d   1      -6.505  92.003 116.461  0.00  0.00     0.006 C 
ENDBRANCH   8  11
ENDBRANCH   7   8
ENDBRANCH   1   7
BRANCH   6  13
ATOM     13  N   LIG d   1      -2.435  94.903 118.489  0.00  0.00    -0.311 N 
ATOM     14  C   LIG d   1      -2.949  95.642 119.470  0.00  0.00     0.210 C 
ATOM     15  C   LIG d   1      -3.449  97.026 119.043  0.00  0.00     0.109 C 
ATOM     16  O   LIG d   1      -3.010  95.296 120.659  0.00  0.00    -0.276 OA
ATOM     17  H   LIG d   1      -2.395  95.275 117.560  0.00  0.00     0.149 HD
ENDBRANCH   6  13
BRANCH   5  18
ATOM     18  N   LIG d   1       0.527  94.162 118.614  0.00  0.00     0.381 N 
ATOM     19  H   LIG d   1       1.112  94.526 117.889  0.00  0.00    -0.090 HD
ATOM     20  H   LIG d   1       1.093  93.597 119.222  0.00  0.00    -0.090 HD
ATOM     21  H   LIG d   1       0.118  94.911 119.129  0.00  0.00    -0.090 HD
ENDBRANCH   5  18
BRANCH   3  22
ATOM     22  C   LIG d   1      -0.683  89.715 117.311  0.00  0.00     0.382 C 
ATOM     23  O   LIG d   1       0.336  89.636 116.584  0.00  0.00    -0.241 OA
ATOM     24  O   LIG d   1      -1.344  88.687 117.553  0.00  0.00    -0.241 OA
ENDBRANCH   3  22
TORSDOF 7
ENDMDL
MODEL 8
REMARK VINA RESULT:      -4.2      1.666      2.175
REMARK  7 active torsions:
REMARK  status: ('A' for Active; 'I' for Inactive)
REMARK    1  A    between atoms: C_2  and  C_3 
REMARK    2  A    between atoms: C_3  and  O_6 
REMARK    3  A    between atoms: C_3  and  C_4 
REMARK    4  A    between atoms: C_7  and  O_6 
REMARK    5  A    between atoms: C_9  and  C_10 
REMARK    6  A    between atoms: N_15  and  C_14 
REMARK    7  A    between atoms: N_20  and  C_19 
REMARK       I    between atoms: C_22  and  N_20 
ROOT
ATOM      1  C   LIG d   1      -3.676  92.258 119.711  0.00  0.00     0.161 C 
ATOM      2  C   LIG d   1      -3.291  91.164 118.918  0.00  0.00     0.016 C 
ATOM      3  C   LIG d   1      -3.996  90.753 117.763  0.00  0.00     0.038 C 
ATOM      4  C   LIG d   1      -5.055  91.506 117.234  0.00  0.00     0.028 C 
ATOM      5  C   LIG d   1      -5.793  92.333 118.282  0.00  0.00    -0.047 C 
ATOM      6  C   LIG d   1      -4.763  93.158 119.087  0.00  0.00     0.091 C 
ENDROOT
BRANCH   1   7
ATOM      7  O   LIG d   1      -2.517  93.040 120.059  0.00  0.00    -0.368 OA
BRANCH   7   8
ATOM      8  C   LIG d   1      -1.248  92.560 119.551  0.00  0.00     0.119 C 
BRANCH   8   9
ATOM      9  C   LIG d   1      -0.315  92.349 120.760  0.00  0.00     0.028 C 
ATOM     10  C   LIG d   1       1.120  92.830 120.485  0.00  0.00     0.006 C 
ENDBRANCH   8   9
BRANCH   8  11
ATOM     11  C   LIG d   1      -0.557  93.619 118.687  0.00  0.00     0.028 C 
ATOM     12  C   LIG d   1      -1.549  94.600 118.041  0.00  0.00     0.006 C 
ENDBRANCH   8  11
ENDBRANCH   7   8
ENDBRANCH   1   7
BRANCH   6  13
ATOM     13  N   LIG d   1      -5.393  93.931 120.189  0.00  0.00    -0.311 N 
ATOM     14  C   LIG d   1      -5.211  95.239 120.363  0.00  0.00     0.210 C 
ATOM     15  C   LIG d   1      -5.937  95.837 121.572  0.00  0.00     0.109 C 
ATOM     16  O   LIG d   1      -4.544  95.967 119.612  0.00  0.00    -0.276 OA
ATOM     17  H   LIG d   1      -5.975  93.425 120.826  0.00  0.00     0.149 HD
ENDBRANCH   6  13
BRANCH   5  18
ATOM     18  N   LIG d   1      -6.779  93.171 117.574  0.00  0.00     0.381 N 
ATOM     19  H   LIG d   1      -6.351  94.029 117.288  0.00  0.00    -0.090 HD
ATOM     20  H   LIG d   1      -7.532  93.389 118.204  0.00  0.00    -0.090 HD
ATOM     21  H   LIG d   1      -7.132  92.686 116.779  0.00  0.00    -0.090 HD
ENDBRANCH   5  18
BRANCH   3  22
ATOM     22  C   LIG d   1      -3.669  89.555 117.148  0.00  0.00     0.382 C 
ATOM     23  O   LIG d   1      -4.520  88.957 116.446  0.00  0.00    -0.241 OA
ATOM     24  O   LIG d   1      -2.547  89.041 117.321  0.00  0.00    -0.241 OA
ENDBRANCH   3  22
TORSDOF 7
ENDMDL
MODEL 9
REMARK VINA RESULT:      -4.2      2.345      4.044
REMARK  7 active torsions:
REMARK  status: ('A' for Active; 'I' for Inactive)
REMARK    1  A    between atoms: C_2  and  C_3 
REMARK    2  A    between atoms: C_3  and  O_6 
REMARK    3  A    between atoms: C_3  and  C_4 
REMARK    4  A    between atoms: C_7  and  O_6 
REMARK    5  A    between atoms: C_9  and  C_10 
REMARK    6  A    between atoms: N_15  and  C_14 
REMARK    7  A    between atoms: N_20  and  C_19 
REMARK       I    between atoms: C_22  and  N_20 
ROOT
ATOM      1  C   LIG d   1      -4.265  92.722 118.754  0.00  0.00     0.161 C 
ATOM      2  C   LIG d   1      -4.345  91.357 118.431  0.00  0.00     0.016 C 
ATOM      3  C   LIG d   1      -3.253  90.608 117.935  0.00  0.00     0.038 C 
ATOM      4  C   LIG d   1      -1.957  91.142 117.870  0.00  0.00     0.028 C 
ATOM      5  C   LIG d   1      -1.934  92.658 117.708  0.00  0.00    -0.047 C 
ATOM      6  C   LIG d   1      -2.832  93.293 118.794  0.00  0.00     0.091 C 
ENDROOT
BRANCH   1   7
ATOM      7  O   LIG d   1      -4.938  92.969 120.004  0.00  0.00    -0.368 OA
BRANCH   7   8
ATOM      8  C   LIG d   1      -6.248  93.581 119.911  0.00  0.00     0.119 C 
BRANCH   8   9
ATOM      9  C   LIG d   1      -6.125  95.021 120.446  0.00  0.00     0.028 C 
ATOM     10  C   LIG d   1      -6.284  96.075 119.338  0.00  0.00     0.006 C 
ENDBRANCH   8   9
BRANCH   8  11
ATOM     11  C   LIG d   1      -7.253  92.889 120.837  0.00  0.00     0.028 C 
ATOM     12  C   LIG d   1      -6.592  91.872 121.780  0.00  0.00     0.006 C 
ENDBRANCH   8  11
ENDBRANCH   7   8
ENDBRANCH   1   7
BRANCH   6  13
ATOM     13  N   LIG d   1      -2.932  94.769 118.656  0.00  0.00    -0.311 N 
ATOM     14  C   LIG d   1      -2.165  95.623 119.332  0.00  0.00     0.210 C 
ATOM     15  C   LIG d   1      -2.446  97.103 119.055  0.00  0.00     0.109 C 
ATOM     16  O   LIG d   1      -1.257  95.294 120.110  0.00  0.00    -0.276 OA
ATOM     17  H   LIG d   1      -3.622  95.122 118.021  0.00  0.00     0.149 HD
ENDBRANCH   6  13
BRANCH   5  18
ATOM     18  N   LIG d   1      -0.527  93.094 117.793  0.00  0.00     0.381 N 
ATOM     19  H   LIG d   1      -0.259  93.186 118.752  0.00  0.00    -0.090 HD
ATOM     20  H   LIG d   1      -0.438  93.993 117.353  0.00  0.00    -0.090 HD
ATOM     21  H   LIG d   1       0.063  92.433 117.338  0.00  0.00    -0.090 HD
ENDBRANCH   5  18
BRANCH   3  22
ATOM     22  C   LIG d   1      -3.460  89.322 117.460  0.00  0.00     0.382 C 
ATOM     23  O   LIG d   1      -4.312  89.115 116.563  0.00  0.00    -0.241 OA
ATOM     24  O   LIG d   1      -2.837  88.360 117.948  0.00  0.00    -0.241 OA
ENDBRANCH   3  22
TORSDOF 7
ENDMDL
