MODEL 1
REMARK VINA RESULT:      -6.7      0.000      0.000
REMARK  7 active torsions:
REMARK  status: ('A' for Active; 'I' for Inactive)
REMARK    1  A    between atoms: C_2  and  C_3 
REMARK    2  A    between atoms: C_3  and  O_6 
REMARK    3  A    between atoms: C_3  and  C_4 
REMARK    4  A    between atoms: C_7  and  O_6 
REMARK    5  A    between atoms: C_9  and  C_10 
REMARK    6  A    between atoms: N_15  and  C_14 
REMARK    7  A    between atoms: N_20  and  C_19 
REMARK       I    between atoms: C_22  and  N_20 
ROOT
ATOM      1  C   LIG d   1       2.822  84.224 110.752  0.00  0.00     0.161 C 
ATOM      2  C   LIG d   1       3.269  85.552 110.844  0.00  0.00     0.016 C 
ATOM      3  C   LIG d   1       3.155  86.331 112.019  0.00  0.00     0.038 C 
ATOM      4  C   LIG d   1       2.721  85.781 113.234  0.00  0.00     0.028 C 
ATOM      5  C   LIG d   1       1.789  84.587 113.060  0.00  0.00    -0.047 C 
ATOM      6  C   LIG d   1       2.448  83.572 112.099  0.00  0.00     0.091 C 
ENDROOT
BRANCH   1   7
ATOM      7  O   LIG d   1       3.806  83.425 110.064  0.00  0.00    -0.368 OA
BRANCH   7   8
ATOM      8  C   LIG d   1       3.532  83.135 108.672  0.00  0.00     0.119 C 
BRANCH   8   9
ATOM      9  C   LIG d   1       2.001  83.140 108.490  0.00  0.00     0.028 C 
ATOM     10  C   LIG d   1       1.562  83.904 107.229  0.00  0.00     0.006 C 
ENDBRANCH   8   9
BRANCH   8  11
ATOM     11  C   LIG d   1       3.979  81.719 108.298  0.00  0.00     0.028 C 
ATOM     12  C   LIG d   1       3.801  80.715 109.448  0.00  0.00     0.006 C 
ENDBRANCH   8  11
ENDBRANCH   7   8
ENDBRANCH   1   7
BRANCH   6  13
ATOM     13  N   LIG d   1       1.566  82.412 111.808  0.00  0.00    -0.311 N 
ATOM     14  C   LIG d   1       1.582  81.283 112.514  0.00  0.00     0.210 C 
ATOM     15  C   LIG d   1       0.605  80.205 112.033  0.00  0.00     0.109 C 
ATOM     16  O   LIG d   1       2.289  81.084 113.513  0.00  0.00    -0.276 OA
ATOM     17  H   LIG d   1       0.938  82.500 111.033  0.00  0.00     0.149 HD
ENDBRANCH   6  13
BRANCH   5  18
ATOM     18  N   LIG d   1       1.525  84.029 114.400  0.00  0.00     0.381 N 
ATOM     19  H   LIG d   1       2.362  84.051 114.947  0.00  0.00    -0.090 HD
ATOM     20  H   LIG d   1       1.238  83.071 114.302  0.00  0.00    -0.090 HD
ATOM     21  H   LIG d   1       0.809  84.553 114.853  0.00  0.00    -0.090 HD
ENDBRANCH   5  18
BRANCH   3  22
ATOM     22  C   LIG d   1       3.440  87.688 111.974  0.00  0.00     0.382 C 
ATOM     23  O   LIG d   1       2.506  88.525 111.983  0.00  0.00    -0.241 OA
ATOM     24  O   LIG d   1       4.618  88.083 111.879  0.00  0.00    -0.241 OA
ENDBRANCH   3  22
TORSDOF 7
ENDMDL
MODEL 2
REMARK VINA RESULT:      -6.5      2.974      6.007
REMARK  7 active torsions:
REMARK  status: ('A' for Active; 'I' for Inactive)
REMARK    1  A    between atoms: C_2  and  C_3 
REMARK    2  A    between atoms: C_3  and  O_6 
REMARK    3  A    between atoms: C_3  and  C_4 
REMARK    4  A    between atoms: C_7  and  O_6 
REMARK    5  A    between atoms: C_9  and  C_10 
REMARK    6  A    between atoms: N_15  and  C_14 
REMARK    7  A    between atoms: N_20  and  C_19 
REMARK       I    between atoms: C_22  and  N_20 
ROOT
ATOM      1  C   LIG d   1       0.358  82.051 111.059  0.00  0.00     0.161 C 
ATOM      2  C   LIG d   1      -0.828  81.879 111.792  0.00  0.00     0.016 C 
ATOM      3  C   LIG d   1      -1.445  80.622 111.990  0.00  0.00     0.038 C 
ATOM      4  C   LIG d   1      -0.832  79.424 111.595  0.00  0.00     0.028 C 
ATOM      5  C   LIG d   1       0.115  79.591 110.411  0.00  0.00    -0.047 C 
ATOM      6  C   LIG d   1       1.100  80.743 110.714  0.00  0.00     0.091 C 
ENDROOT
BRANCH   1   7
ATOM      7  O   LIG d   1       1.236  82.956 111.756  0.00  0.00    -0.368 OA
BRANCH   7   8
ATOM      8  C   LIG d   1       1.367  84.282 111.187  0.00  0.00     0.119 C 
BRANCH   8   9
ATOM      9  C   LIG d   1       0.634  85.262 112.124  0.00  0.00     0.028 C 
ATOM     10  C   LIG d   1      -0.726  85.706 111.561  0.00  0.00     0.006 C 
ENDBRANCH   8   9
BRANCH   8  11
ATOM     11  C   LIG d   1       0.639  84.386 109.843  0.00  0.00     0.028 C 
ATOM     12  C   LIG d   1       1.600  84.584 108.660  0.00  0.00     0.006 C 
ENDBRANCH   8  11
ENDBRANCH   7   8
ENDBRANCH   1   7
BRANCH   6  13
ATOM     13  N   LIG d   1       2.008  81.028 109.572  0.00  0.00    -0.311 N 
ATOM     14  C   LIG d   1       3.300  81.314 109.717  0.00  0.00     0.210 C 
ATOM     15  C   LIG d   1       4.050  81.596 108.411  0.00  0.00     0.109 C 
ATOM     16  O   LIG d   1       3.904  81.330 110.800  0.00  0.00    -0.276 OA
ATOM     17  H   LIG d   1       1.607  81.005 108.655  0.00  0.00     0.149 HD
ENDBRANCH   6  13
BRANCH   5  18
ATOM     18  N   LIG d   1       0.787  78.297 110.192  0.00  0.00     0.381 N 
ATOM     19  H   LIG d   1       1.731  78.451 109.897  0.00  0.00    -0.090 HD
ATOM     20  H   LIG d   1       0.306  77.799 109.464  0.00  0.00    -0.090 HD
ATOM     21  H   LIG d   1       0.778  77.762 111.033  0.00  0.00    -0.090 HD
ENDBRANCH   5  18
BRANCH   3  22
ATOM     22  C   LIG d   1      -2.709  80.559 112.557  0.00  0.00     0.382 C 
ATOM     23  O   LIG d   1      -3.432  81.584 112.593  0.00  0.00    -0.241 OA
ATOM     24  O   LIG d   1      -3.119  79.502 113.072  0.00  0.00    -0.241 OA
ENDBRANCH   3  22
TORSDOF 7
ENDMDL
MODEL 3
REMARK VINA RESULT:      -6.5      2.216      5.212
REMARK  7 active torsions:
REMARK  status: ('A' for Active; 'I' for Inactive)
REMARK    1  A    between atoms: C_2  and  C_3 
REMARK    2  A    between atoms: C_3  and  O_6 
REMARK    3  A    between atoms: C_3  and  C_4 
REMARK    4  A    between atoms: C_7  and  O_6 
REMARK    5  A    between atoms: C_9  and  C_10 
REMARK    6  A    between atoms: N_15  and  C_14 
REMARK    7  A    between atoms: N_20  and  C_19 
REMARK       I    between atoms: C_22  and  N_20 
ROOT
ATOM      1  C   LIG d   1       2.113  83.142 111.603  0.00  0.00     0.161 C 
ATOM      2  C   LIG d   1       1.257  82.033 111.501  0.00  0.00     0.016 C 
ATOM      3  C   LIG d   1      -0.153  82.138 111.473  0.00  0.00     0.038 C 
ATOM      4  C   LIG d   1      -0.802  83.379 111.391  0.00  0.00     0.028 C 
ATOM      5  C   LIG d   1       0.001  84.524 112.000  0.00  0.00    -0.047 C 
ATOM      6  C   LIG d   1       1.427  84.509 111.403  0.00  0.00     0.091 C 
ENDROOT
BRANCH   1   7
ATOM      7  O   LIG d   1       3.214  82.995 110.684  0.00  0.00    -0.368 OA
BRANCH   7   8
ATOM      8  C   LIG d   1       2.941  82.242 109.477  0.00  0.00     0.119 C 
BRANCH   8   9
ATOM      9  C   LIG d   1       4.060  81.195 109.321  0.00  0.00     0.028 C 
ATOM     10  C   LIG d   1       3.591  79.776 109.686  0.00  0.00     0.006 C 
ENDBRANCH   8   9
BRANCH   8  11
ATOM     11  C   LIG d   1       3.039  83.130 108.232  0.00  0.00     0.028 C 
ATOM     12  C   LIG d   1       1.672  83.648 107.760  0.00  0.00     0.006 C 
ENDBRANCH   8  11
ENDBRANCH   7   8
ENDBRANCH   1   7
BRANCH   6  13
ATOM     13  N   LIG d   1       2.304  85.546 112.007  0.00  0.00    -0.311 N 
ATOM     14  C   LIG d   1       2.510  86.742 111.459  0.00  0.00     0.210 C 
ATOM     15  C   LIG d   1       3.467  87.653 112.235  0.00  0.00     0.109 C 
ATOM     16  O   LIG d   1       1.966  87.148 110.421  0.00  0.00    -0.276 OA
ATOM     17  H   LIG d   1       2.761  85.312 112.866  0.00  0.00     0.149 HD
ENDBRANCH   6  13
BRANCH   5  18
ATOM     18  N   LIG d   1      -0.729  85.776 111.724  0.00  0.00     0.381 N 
ATOM     19  H   LIG d   1      -1.609  85.568 111.295  0.00  0.00    -0.090 HD
ATOM     20  H   LIG d   1      -0.190  86.332 111.083  0.00  0.00    -0.090 HD
ATOM     21  H   LIG d   1      -0.874  86.280 112.571  0.00  0.00    -0.090 HD
ENDBRANCH   5  18
BRANCH   3  22
ATOM     22  C   LIG d   1      -0.930  80.993 111.566  0.00  0.00     0.382 C 
ATOM     23  O   LIG d   1      -0.644  79.984 110.877  0.00  0.00    -0.241 OA
ATOM     24  O   LIG d   1      -1.938  80.972 112.297  0.00  0.00    -0.241 OA
ENDBRANCH   3  22
TORSDOF 7
ENDMDL
MODEL 4
REMARK VINA RESULT:      -6.3      2.698      5.241
REMARK  7 active torsions:
REMARK  status: ('A' for Active; 'I' for Inactive)
REMARK    1  A    between atoms: C_2  and  C_3 
REMARK    2  A    between atoms: C_3  and  O_6 
REMARK    3  A    between atoms: C_3  and  C_4 
REMARK    4  A    between atoms: C_7  and  O_6 
REMARK    5  A    between atoms: C_9  and  C_10 
REMARK    6  A    between atoms: N_15  and  C_14 
REMARK    7  A    between atoms: N_20  and  C_19 
REMARK       I    between atoms: C_22  and  N_20 
ROOT
ATOM      1  C   LIG d   1       1.216  81.772 111.600  0.00  0.00     0.161 C 
ATOM      2  C   LIG d   1       2.262  82.336 110.851  0.00  0.00     0.016 C 
ATOM      3  C   LIG d   1       2.395  82.172 109.453  0.00  0.00     0.038 C 
ATOM      4  C   LIG d   1       1.400  81.554 108.681  0.00  0.00     0.028 C 
ATOM      5  C   LIG d   1       0.577  80.532 109.459  0.00  0.00    -0.047 C 
ATOM      6  C   LIG d   1       0.061  81.189 110.760  0.00  0.00     0.091 C 
ENDROOT
BRANCH   1   7
ATOM      7  O   LIG d   1       0.711  82.740 112.541  0.00  0.00    -0.368 OA
BRANCH   7   8
ATOM      8  C   LIG d   1       0.854  84.131 112.162  0.00  0.00     0.119 C 
BRANCH   8   9
ATOM      9  C   LIG d   1       1.375  84.896 113.394  0.00  0.00     0.028 C 
ATOM     10  C   LIG d   1       2.196  86.138 113.009  0.00  0.00     0.006 C 
ENDBRANCH   8   9
BRANCH   8  11
ATOM     11  C   LIG d   1      -0.504  84.762 111.838  0.00  0.00     0.028 C 
ATOM     12  C   LIG d   1      -0.678  85.066 110.342  0.00  0.00     0.006 C 
ENDBRANCH   8  11
ENDBRANCH   7   8
ENDBRANCH   1   7
BRANCH   6  13
ATOM     13  N   LIG d   1      -0.684  80.233 111.620  0.00  0.00    -0.311 N 
ATOM     14  C   LIG d   1      -1.822  80.537 112.240  0.00  0.00     0.210 C 
ATOM     15  C   LIG d   1      -2.415  79.412 113.094  0.00  0.00     0.109 C 
ATOM     16  O   LIG d   1      -2.415  81.622 112.138  0.00  0.00    -0.276 OA
ATOM     17  H   LIG d   1      -0.290  79.319 111.733  0.00  0.00     0.149 HD
ENDBRANCH   6  13
BRANCH   5  18
ATOM     18  N   LIG d   1      -0.508  80.068 108.575  0.00  0.00     0.381 N 
ATOM     19  H   LIG d   1      -0.539  79.068 108.572  0.00  0.00    -0.090 HD
ATOM     20  H   LIG d   1      -0.321  80.381 107.638  0.00  0.00    -0.090 HD
ATOM     21  H   LIG d   1      -1.381  80.434 108.886  0.00  0.00    -0.090 HD
ENDBRANCH   5  18
BRANCH   3  22
ATOM     22  C   LIG d   1       3.554  82.594 108.819  0.00  0.00     0.382 C 
ATOM     23  O   LIG d   1       4.166  83.604 109.240  0.00  0.00    -0.241 OA
ATOM     24  O   LIG d   1       3.969  82.003 107.804  0.00  0.00    -0.241 OA
ENDBRANCH   3  22
TORSDOF 7
ENDMDL
MODEL 5
REMARK VINA RESULT:      -6.2      1.493      1.784
REMARK  7 active torsions:
REMARK  status: ('A' for Active; 'I' for Inactive)
REMARK    1  A    between atoms: C_2  and  C_3 
REMARK    2  A    between atoms: C_3  and  O_6 
REMARK    3  A    between atoms: C_3  and  C_4 
REMARK    4  A    between atoms: C_7  and  O_6 
REMARK    5  A    between atoms: C_9  and  C_10 
REMARK    6  A    between atoms: N_15  and  C_14 
REMARK    7  A    between atoms: N_20  and  C_19 
REMARK       I    between atoms: C_22  and  N_20 
ROOT
ATOM      1  C   LIG d   1       0.869  84.122 110.327  0.00  0.00     0.161 C 
ATOM      2  C   LIG d   1       1.604  85.319 110.317  0.00  0.00     0.016 C 
ATOM      3  C   LIG d   1       2.335  85.792 111.432  0.00  0.00     0.038 C 
ATOM      4  C   LIG d   1       2.503  85.019 112.590  0.00  0.00     0.028 C 
ATOM      5  C   LIG d   1       1.365  84.034 112.832  0.00  0.00    -0.047 C 
ATOM      6  C   LIG d   1       1.131  83.211 111.544  0.00  0.00     0.091 C 
ENDROOT
BRANCH   1   7
ATOM      7  O   LIG d   1       1.097  83.399 109.101  0.00  0.00    -0.368 OA
BRANCH   7   8
ATOM      8  C   LIG d   1       2.083  82.339 109.161  0.00  0.00     0.119 C 
BRANCH   8   9
ATOM      9  C   LIG d   1       3.214  82.704 108.181  0.00  0.00     0.028 C 
ATOM     10  C   LIG d   1       4.600  82.676 108.847  0.00  0.00     0.006 C 
ENDBRANCH   8   9
BRANCH   8  11
ATOM     11  C   LIG d   1       1.511  81.015 108.644  0.00  0.00     0.028 C 
ATOM     12  C   LIG d   1       2.328  79.796 109.097  0.00  0.00     0.006 C 
ENDBRANCH   8  11
ENDBRANCH   7   8
ENDBRANCH   1   7
BRANCH   6  13
ATOM     13  N   LIG d   1      -0.021  82.281 111.667  0.00  0.00    -0.311 N 
ATOM     14  C   LIG d   1       0.101  81.005 112.030  0.00  0.00     0.210 C 
ATOM     15  C   LIG d   1      -1.211  80.217 112.075  0.00  0.00     0.109 C 
ATOM     16  O   LIG d   1       1.168  80.461 112.351  0.00  0.00    -0.276 OA
ATOM     17  H   LIG d   1      -0.929  82.648 111.456  0.00  0.00     0.149 HD
ENDBRANCH   6  13
BRANCH   5  18
ATOM     18  N   LIG d   1       1.735  83.200 113.991  0.00  0.00     0.381 N 
ATOM     19  H   LIG d   1       2.463  83.648 114.512  0.00  0.00    -0.090 HD
ATOM     20  H   LIG d   1       2.083  82.318 113.659  0.00  0.00    -0.090 HD
ATOM     21  H   LIG d   1       0.941  83.055 114.574  0.00  0.00    -0.090 HD
ENDBRANCH   5  18
BRANCH   3  22
ATOM     22  C   LIG d   1       2.873  87.069 111.408  0.00  0.00     0.382 C 
ATOM     23  O   LIG d   1       2.116  88.068 111.357  0.00  0.00    -0.241 OA
ATOM     24  O   LIG d   1       4.108  87.234 111.392  0.00  0.00    -0.241 OA
ENDBRANCH   3  22
TORSDOF 7
ENDMDL
MODEL 6
REMARK VINA RESULT:      -5.7      2.729      3.658
REMARK  7 active torsions:
REMARK  status: ('A' for Active; 'I' for Inactive)
REMARK    1  A    between atoms: C_2  and  C_3 
REMARK    2  A    between atoms: C_3  and  O_6 
REMARK    3  A    between atoms: C_3  and  C_4 
REMARK    4  A    between atoms: C_7  and  O_6 
REMARK    5  A    between atoms: C_9  and  C_10 
REMARK    6  A    between atoms: N_15  and  C_14 
REMARK    7  A    between atoms: N_20  and  C_19 
REMARK       I    between atoms: C_22  and  N_20 
ROOT
ATOM      1  C   LIG d   1       1.042  83.669 109.427  0.00  0.00     0.161 C 
ATOM      2  C   LIG d   1       0.502  84.802 110.058  0.00  0.00     0.016 C 
ATOM      3  C   LIG d   1      -0.423  84.731 111.125  0.00  0.00     0.038 C 
ATOM      4  C   LIG d   1      -0.758  83.514 111.736  0.00  0.00     0.028 C 
ATOM      5  C   LIG d   1      -0.627  82.312 110.806  0.00  0.00    -0.047 C 
ATOM      6  C   LIG d   1       0.774  82.334 110.153  0.00  0.00     0.091 C 
ENDROOT
BRANCH   1   7
ATOM      7  O   LIG d   1       2.457  83.852 109.222  0.00  0.00    -0.368 OA
BRANCH   7   8
ATOM      8  C   LIG d   1       3.331  83.132 110.127  0.00  0.00     0.119 C 
BRANCH   8   9
ATOM      9  C   LIG d   1       3.809  84.130 111.199  0.00  0.00     0.028 C 
ATOM     10  C   LIG d   1       3.720  85.590 110.725  0.00  0.00     0.006 C 
ENDBRANCH   8   9
BRANCH   8  11
ATOM     11  C   LIG d   1       4.602  82.660 109.416  0.00  0.00     0.028 C 
ATOM     12  C   LIG d   1       4.317  82.012 108.052  0.00  0.00     0.006 C 
ENDBRANCH   8  11
ENDBRANCH   7   8
ENDBRANCH   1   7
BRANCH   6  13
ATOM     13  N   LIG d   1       0.955  81.239 109.165  0.00  0.00    -0.311 N 
ATOM     14  C   LIG d   1       1.526  80.073 109.459  0.00  0.00     0.210 C 
ATOM     15  C   LIG d   1       1.632  79.091 108.288  0.00  0.00     0.109 C 
ATOM     16  O   LIG d   1       1.925  79.745 110.587  0.00  0.00    -0.276 OA
ATOM     17  H   LIG d   1       0.632  81.409 108.232  0.00  0.00     0.149 HD
ENDBRANCH   6  13
BRANCH   5  18
ATOM     18  N   LIG d   1      -0.872  81.099 111.609  0.00  0.00     0.381 N 
ATOM     19  H   LIG d   1      -1.855  80.914 111.651  0.00  0.00    -0.090 HD
ATOM     20  H   LIG d   1      -0.540  81.255 112.544  0.00  0.00    -0.090 HD
ATOM     21  H   LIG d   1      -0.398  80.322 111.205  0.00  0.00    -0.090 HD
ENDBRANCH   5  18
BRANCH   3  22
ATOM     22  C   LIG d   1      -1.055  85.885 111.564  0.00  0.00     0.382 C 
ATOM     23  O   LIG d   1      -1.422  86.753 110.736  0.00  0.00    -0.241 OA
ATOM     24  O   LIG d   1      -1.222  86.089 112.781  0.00  0.00    -0.241 OA
ENDBRANCH   3  22
TORSDOF 7
ENDMDL
MODEL 7
REMARK VINA RESULT:      -5.6      2.638      3.301
REMARK  7 active torsions:
REMARK  status: ('A' for Active; 'I' for Inactive)
REMARK    1  A    between atoms: C_2  and  C_3 
REMARK    2  A    between atoms: C_3  and  O_6 
REMARK    3  A    between atoms: C_3  and  C_4 
REMARK    4  A    between atoms: C_7  and  O_6 
REMARK    5  A    between atoms: C_9  and  C_10 
REMARK    6  A    between atoms: N_15  and  C_14 
REMARK    7  A    between atoms: N_20  and  C_19 
REMARK       I    between atoms: C_22  and  N_20 
ROOT
ATOM      1  C   LIG d   1       1.100  82.843 111.801  0.00  0.00     0.161 C 
ATOM      2  C   LIG d   1       0.625  83.556 110.688  0.00  0.00     0.016 C 
ATOM      3  C   LIG d   1       0.462  84.961 110.676  0.00  0.00     0.038 C 
ATOM      4  C   LIG d   1       0.909  85.768 111.733  0.00  0.00     0.028 C 
ATOM      5  C   LIG d   1       0.928  85.050 113.078  0.00  0.00    -0.047 C 
ATOM      6  C   LIG d   1       1.697  83.717 112.924  0.00  0.00     0.091 C 
ENDROOT
BRANCH   1   7
ATOM      7  O   LIG d   1       2.057  81.853 111.375  0.00  0.00    -0.368 OA
BRANCH   7   8
ATOM      8  C   LIG d   1       2.467  81.919 109.987  0.00  0.00     0.119 C 
BRANCH   8   9
ATOM      9  C   LIG d   1       2.243  80.524 109.371  0.00  0.00     0.028 C 
ATOM     10  C   LIG d   1       0.898  80.418 108.633  0.00  0.00     0.006 C 
ENDBRANCH   8   9
BRANCH   8  11
ATOM     11  C   LIG d   1       3.971  82.180 109.863  0.00  0.00     0.028 C 
ATOM     12  C   LIG d   1       4.418  82.410 108.410  0.00  0.00     0.006 C 
ENDBRANCH   8  11
ENDBRANCH   7   8
ENDBRANCH   1   7
BRANCH   6  13
ATOM     13  N   LIG d   1       1.691  82.912 114.173  0.00  0.00    -0.311 N 
ATOM     14  C   LIG d   1       2.655  82.974 115.090  0.00  0.00     0.210 C 
ATOM     15  C   LIG d   1       2.464  82.045 116.293  0.00  0.00     0.109 C 
ATOM     16  O   LIG d   1       3.634  83.733 115.036  0.00  0.00    -0.276 OA
ATOM     17  H   LIG d   1       0.917  82.292 114.312  0.00  0.00     0.149 HD
ENDBRANCH   6  13
BRANCH   5  18
ATOM     18  N   LIG d   1       1.543  85.962 114.061  0.00  0.00     0.381 N 
ATOM     19  H   LIG d   1       1.461  85.574 114.980  0.00  0.00    -0.090 HD
ATOM     20  H   LIG d   1       1.052  86.838 114.043  0.00  0.00    -0.090 HD
ATOM     21  H   LIG d   1       2.503  86.106 113.838  0.00  0.00    -0.090 HD
ENDBRANCH   5  18
BRANCH   3  22
ATOM     22  C   LIG d   1      -0.190  85.568 109.614  0.00  0.00     0.382 C 
ATOM     23  O   LIG d   1      -1.370  85.972 109.751  0.00  0.00    -0.241 OA
ATOM     24  O   LIG d   1       0.371  85.677 108.507  0.00  0.00    -0.241 OA
ENDBRANCH   3  22
TORSDOF 7
ENDMDL
MODEL 8
REMARK VINA RESULT:      -5.6      2.972      4.726
REMARK  7 active torsions:
REMARK  status: ('A' for Active; 'I' for Inactive)
REMARK    1  A    between atoms: C_2  and  C_3 
REMARK    2  A    between atoms: C_3  and  O_6 
REMARK    3  A    between atoms: C_3  and  C_4 
REMARK    4  A    between atoms: C_7  and  O_6 
REMARK    5  A    between atoms: C_9  and  C_10 
REMARK    6  A    between atoms: N_15  and  C_14 
REMARK    7  A    between atoms: N_20  and  C_19 
REMARK       I    between atoms: C_22  and  N_20 
ROOT
ATOM      1  C   LIG d   1       0.664  82.566 110.422  0.00  0.00     0.161 C 
ATOM      2  C   LIG d   1       0.138  83.831 110.736  0.00  0.00     0.016 C 
ATOM      3  C   LIG d   1       0.279  84.962 109.899  0.00  0.00     0.038 C 
ATOM      4  C   LIG d   1       0.829  84.868 108.612  0.00  0.00     0.028 C 
ATOM      5  C   LIG d   1       1.825  83.722 108.461  0.00  0.00    -0.047 C 
ATOM      6  C   LIG d   1       1.170  82.418 108.972  0.00  0.00     0.091 C 
ENDROOT
BRANCH   1   7
ATOM      7  O   LIG d   1      -0.309  81.545 110.720  0.00  0.00    -0.368 OA
BRANCH   7   8
ATOM      8  C   LIG d   1      -0.171  80.888 112.003  0.00  0.00     0.119 C 
BRANCH   8   9
ATOM      9  C   LIG d   1       1.336  80.718 112.276  0.00  0.00     0.028 C 
ATOM     10  C   LIG d   1       1.735  81.191 113.684  0.00  0.00     0.006 C 
ENDBRANCH   8   9
BRANCH   8  11
ATOM     11  C   LIG d   1      -0.739  79.466 111.966  0.00  0.00     0.028 C 
ATOM     12  C   LIG d   1      -0.500  78.765 110.619  0.00  0.00     0.006 C 
ENDBRANCH   8  11
ENDBRANCH   7   8
ENDBRANCH   1   7
BRANCH   6  13
ATOM     13  N   LIG d   1       2.105  81.264 108.938  0.00  0.00    -0.311 N 
ATOM     14  C   LIG d   1       3.306  81.275 109.514  0.00  0.00     0.210 C 
ATOM     15  C   LIG d   1       4.118  79.988 109.343  0.00  0.00     0.109 C 
ATOM     16  O   LIG d   1       3.762  82.218 110.179  0.00  0.00    -0.276 OA
ATOM     17  H   LIG d   1       1.802  80.446 108.447  0.00  0.00     0.149 HD
ENDBRANCH   6  13
BRANCH   5  18
ATOM     18  N   LIG d   1       2.214  83.655 107.040  0.00  0.00     0.381 N 
ATOM     19  H   LIG d   1       2.453  82.714 106.798  0.00  0.00    -0.090 HD
ATOM     20  H   LIG d   1       3.025  84.232 106.898  0.00  0.00    -0.090 HD
ATOM     21  H   LIG d   1       1.465  83.974 106.466  0.00  0.00    -0.090 HD
ENDBRANCH   5  18
BRANCH   3  22
ATOM     22  C   LIG d   1      -0.097  86.212 110.365  0.00  0.00     0.382 C 
ATOM     23  O   LIG d   1      -1.313  86.511 110.448  0.00  0.00    -0.241 OA
ATOM     24  O   LIG d   1       0.765  87.062 110.661  0.00  0.00    -0.241 OA
ENDBRANCH   3  22
TORSDOF 7
ENDMDL
MODEL 9
REMARK VINA RESULT:      -5.4      2.579      3.542
REMARK  7 active torsions:
REMARK  status: ('A' for Active; 'I' for Inactive)
REMARK    1  A    between atoms: C_2  and  C_3 
REMARK    2  A    between atoms: C_3  and  O_6 
REMARK    3  A    between atoms: C_3  and  C_4 
REMARK    4  A    between atoms: C_7  and  O_6 
REMARK    5  A    between atoms: C_9  and  C_10 
REMARK    6  A    between atoms: N_15  and  C_14 
REMARK    7  A    between atoms: N_20  and  C_19 
REMARK       I    between atoms: C_22  and  N_20 
ROOT
ATOM      1  C   LIG d   1       1.028  82.889 109.971  0.00  0.00     0.161 C 
ATOM      2  C   LIG d   1       0.816  84.275 110.049  0.00  0.00     0.016 C 
ATOM      3  C   LIG d   1      -0.247  84.860 110.775  0.00  0.00     0.038 C 
ATOM      4  C   LIG d   1      -1.088  84.099 111.600  0.00  0.00     0.028 C 
ATOM      5  C   LIG d   1      -1.224  82.647 111.153  0.00  0.00    -0.047 C 
ATOM      6  C   LIG d   1       0.187  82.049 110.955  0.00  0.00     0.091 C 
ENDROOT
BRANCH   1   7
ATOM      7  O   LIG d   1       2.430  82.599 110.136  0.00  0.00    -0.368 OA
BRANCH   7   8
ATOM      8  C   LIG d   1       3.351  83.525 109.508  0.00  0.00     0.119 C 
BRANCH   8   9
ATOM      9  C   LIG d   1       4.525  82.701 108.945  0.00  0.00     0.028 C 
ATOM     10  C   LIG d   1       4.059  81.400 108.270  0.00  0.00     0.006 C 
ENDBRANCH   8   9
BRANCH   8  11
ATOM     11  C   LIG d   1       3.977  84.472 110.536  0.00  0.00     0.028 C 
ATOM     12  C   LIG d   1       3.707  84.039 111.986  0.00  0.00     0.006 C 
ENDBRANCH   8  11
ENDBRANCH   7   8
ENDBRANCH   1   7
BRANCH   6  13
ATOM     13  N   LIG d   1       0.146  80.657 110.436  0.00  0.00    -0.311 N 
ATOM     14  C   LIG d   1       0.012  79.587 111.218  0.00  0.00     0.210 C 
ATOM     15  C   LIG d   1       0.012  78.244 110.482  0.00  0.00     0.109 C 
ATOM     16  O   LIG d   1      -0.140  79.624 112.449  0.00  0.00    -0.276 OA
ATOM     17  H   LIG d   1       0.230  80.536 109.446  0.00  0.00     0.149 HD
ENDBRANCH   6  13
BRANCH   5  18
ATOM     18  N   LIG d   1      -2.014  81.937 112.176  0.00  0.00     0.381 N 
ATOM     19  H   LIG d   1      -1.425  81.683 112.944  0.00  0.00    -0.090 HD
ATOM     20  H   LIG d   1      -2.387  81.096 111.773  0.00  0.00    -0.090 HD
ATOM     21  H   LIG d   1      -2.757  82.518 112.497  0.00  0.00    -0.090 HD
ENDBRANCH   5  18
BRANCH   3  22
ATOM     22  C   LIG d   1      -0.503  86.217 110.647  0.00  0.00     0.382 C 
ATOM     23  O   LIG d   1       0.432  87.045 110.768  0.00  0.00    -0.241 OA
ATOM     24  O   LIG d   1      -1.664  86.626 110.455  0.00  0.00    -0.241 OA
ENDBRANCH   3  22
TORSDOF 7
ENDMDL
