MODEL 1
REMARK VINA RESULT:      -6.9      0.000      0.000
REMARK  7 active torsions:
REMARK  status: ('A' for Active; 'I' for Inactive)
REMARK    1  A    between atoms: C_2  and  C_3 
REMARK    2  A    between atoms: C_3  and  O_6 
REMARK    3  A    between atoms: C_3  and  C_4 
REMARK    4  A    between atoms: C_7  and  O_6 
REMARK    5  A    between atoms: C_9  and  C_10 
REMARK    6  A    between atoms: N_15  and  C_14 
REMARK    7  A    between atoms: N_20  and  C_19 
REMARK       I    between atoms: C_22  and  N_20 
ROOT
ATOM      1  C   LIG d   1       0.381  82.885 111.238  0.00  0.00     0.161 C 
ATOM      2  C   LIG d   1      -0.699  82.519 112.059  0.00  0.00     0.016 C 
ATOM      3  C   LIG d   1      -1.280  81.230 112.053  0.00  0.00     0.038 C 
ATOM      4  C   LIG d   1      -0.718  80.168 111.330  0.00  0.00     0.028 C 
ATOM      5  C   LIG d   1       0.065  80.618 110.101  0.00  0.00    -0.047 C 
ATOM      6  C   LIG d   1       1.077  81.708 110.524  0.00  0.00     0.091 C 
ENDROOT
BRANCH   1   7
ATOM      7  O   LIG d   1       1.339  83.645 112.001  0.00  0.00    -0.368 OA
BRANCH   7   8
ATOM      8  C   LIG d   1       1.547  85.015 111.577  0.00  0.00     0.119 C 
BRANCH   8   9
ATOM      9  C   LIG d   1       0.463  85.347 110.533  0.00  0.00     0.028 C 
ATOM     10  C   LIG d   1      -0.479  86.469 111.001  0.00  0.00     0.006 C 
ENDBRANCH   8   9
BRANCH   8  11
ATOM     11  C   LIG d   1       2.881  85.174 110.842  0.00  0.00     0.028 C 
ATOM     12  C   LIG d   1       3.782  86.251 111.468  0.00  0.00     0.006 C 
ENDBRANCH   8  11
ENDBRANCH   7   8
ENDBRANCH   1   7
BRANCH   6  13
ATOM     13  N   LIG d   1       1.827  82.264 109.367  0.00  0.00    -0.311 N 
ATOM     14  C   LIG d   1       3.008  81.797 108.966  0.00  0.00     0.210 C 
ATOM     15  C   LIG d   1       3.618  82.527 107.765  0.00  0.00     0.109 C 
ATOM     16  O   LIG d   1       3.593  80.827 109.471  0.00  0.00    -0.276 OA
ATOM     17  H   LIG d   1       1.410  83.033 108.880  0.00  0.00     0.149 HD
ENDBRANCH   6  13
BRANCH   5  18
ATOM     18  N   LIG d   1       0.709  79.425 109.521  0.00  0.00     0.381 N 
ATOM     19  H   LIG d   1       0.010  78.786 109.197  0.00  0.00    -0.090 HD
ATOM     20  H   LIG d   1       1.248  78.967 110.234  0.00  0.00    -0.090 HD
ATOM     21  H   LIG d   1       1.301  79.690 108.765  0.00  0.00    -0.090 HD
ENDBRANCH   5  18
BRANCH   3  22
ATOM     22  C   LIG d   1      -2.459  81.004 112.747  0.00  0.00     0.382 C 
ATOM     23  O   LIG d   1      -2.860  79.831 112.937  0.00  0.00    -0.241 OA
ATOM     24  O   LIG d   1      -3.150  81.961 113.146  0.00  0.00    -0.241 OA
ENDBRANCH   3  22
TORSDOF 7
ENDMDL
MODEL 2
REMARK VINA RESULT:      -6.7      1.554      4.906
REMARK  7 active torsions:
REMARK  status: ('A' for Active; 'I' for Inactive)
REMARK    1  A    between atoms: C_2  and  C_3 
REMARK    2  A    between atoms: C_3  and  O_6 
REMARK    3  A    between atoms: C_3  and  C_4 
REMARK    4  A    between atoms: C_7  and  O_6 
REMARK    5  A    between atoms: C_9  and  C_10 
REMARK    6  A    between atoms: N_15  and  C_14 
REMARK    7  A    between atoms: N_20  and  C_19 
REMARK       I    between atoms: C_22  and  N_20 
ROOT
ATOM      1  C   LIG d   1       1.806  82.692 111.554  0.00  0.00     0.161 C 
ATOM      2  C   LIG d   1       2.625  82.872 110.427  0.00  0.00     0.016 C 
ATOM      3  C   LIG d   1       2.469  82.140 109.227  0.00  0.00     0.038 C 
ATOM      4  C   LIG d   1       1.381  81.279 109.020  0.00  0.00     0.028 C 
ATOM      5  C   LIG d   1       0.820  80.690 110.310  0.00  0.00    -0.047 C 
ATOM      6  C   LIG d   1       0.545  81.838 111.308  0.00  0.00     0.091 C 
ENDROOT
BRANCH   1   7
ATOM      7  O   LIG d   1       1.444  83.974 112.104  0.00  0.00    -0.368 OA
BRANCH   7   8
ATOM      8  C   LIG d   1       1.298  85.057 111.152  0.00  0.00     0.119 C 
BRANCH   8   9
ATOM      9  C   LIG d   1       1.959  86.306 111.768  0.00  0.00     0.028 C 
ATOM     10  C   LIG d   1       3.487  86.305 111.599  0.00  0.00     0.006 C 
ENDBRANCH   8   9
BRANCH   8  11
ATOM     11  C   LIG d   1      -0.174  85.433 110.956  0.00  0.00     0.028 C 
ATOM     12  C   LIG d   1      -0.542  86.769 111.620  0.00  0.00     0.006 C 
ENDBRANCH   8  11
ENDBRANCH   7   8
ENDBRANCH   1   7
BRANCH   6  13
ATOM     13  N   LIG d   1       0.074  81.341 112.628  0.00  0.00    -0.311 N 
ATOM     14  C   LIG d   1      -1.213  81.211 112.945  0.00  0.00     0.210 C 
ATOM     15  C   LIG d   1      -1.481  80.701 114.364  0.00  0.00     0.109 C 
ATOM     16  O   LIG d   1      -2.158  81.439 112.175  0.00  0.00    -0.276 OA
ATOM     17  H   LIG d   1       0.775  81.104 113.302  0.00  0.00     0.149 HD
ENDBRANCH   6  13
BRANCH   5  18
ATOM     18  N   LIG d   1      -0.392  79.924 109.961  0.00  0.00     0.381 N 
ATOM     19  H   LIG d   1      -0.656  79.340 110.729  0.00  0.00    -0.090 HD
ATOM     20  H   LIG d   1      -0.188  79.336 109.173  0.00  0.00    -0.090 HD
ATOM     21  H   LIG d   1      -1.136  80.548 109.737  0.00  0.00    -0.090 HD
ENDBRANCH   5  18
BRANCH   3  22
ATOM     22  C   LIG d   1       3.431  82.235 108.234  0.00  0.00     0.382 C 
ATOM     23  O   LIG d   1       3.122  82.682 107.103  0.00  0.00    -0.241 OA
ATOM     24  O   LIG d   1       4.594  81.839 108.440  0.00  0.00    -0.241 OA
ENDBRANCH   3  22
TORSDOF 7
ENDMDL
MODEL 3
REMARK VINA RESULT:      -6.0      2.306      5.560
REMARK  7 active torsions:
REMARK  status: ('A' for Active; 'I' for Inactive)
REMARK    1  A    between atoms: C_2  and  C_3 
REMARK    2  A    between atoms: C_3  and  O_6 
REMARK    3  A    between atoms: C_3  and  C_4 
REMARK    4  A    between atoms: C_7  and  O_6 
REMARK    5  A    between atoms: C_9  and  C_10 
REMARK    6  A    between atoms: N_15  and  C_14 
REMARK    7  A    between atoms: N_20  and  C_19 
REMARK       I    between atoms: C_22  and  N_20 
ROOT
ATOM      1  C   LIG d   1       0.367  82.534 110.471  0.00  0.00     0.161 C 
ATOM      2  C   LIG d   1       1.179  81.447 110.106  0.00  0.00     0.016 C 
ATOM      3  C   LIG d   1       2.576  81.549 109.912  0.00  0.00     0.038 C 
ATOM      4  C   LIG d   1       3.283  82.721 110.220  0.00  0.00     0.028 C 
ATOM      5  C   LIG d   1       2.438  83.986 110.107  0.00  0.00    -0.047 C 
ATOM      6  C   LIG d   1       1.137  83.794 110.919  0.00  0.00     0.091 C 
ENDROOT
BRANCH   1   7
ATOM      7  O   LIG d   1      -0.565  82.126 111.492  0.00  0.00    -0.368 OA
BRANCH   7   8
ATOM      8  C   LIG d   1      -0.278  80.869 112.152  0.00  0.00     0.119 C 
BRANCH   8   9
ATOM      9  C   LIG d   1      -1.561  80.017 112.104  0.00  0.00     0.028 C 
ATOM     10  C   LIG d   1      -1.514  78.831 113.082  0.00  0.00     0.006 C 
ENDBRANCH   8   9
BRANCH   8  11
ATOM     11  C   LIG d   1       0.017  81.075 113.641  0.00  0.00     0.028 C 
ATOM     12  C   LIG d   1       1.468  81.509 113.906  0.00  0.00     0.006 C 
ENDBRANCH   8  11
ENDBRANCH   7   8
ENDBRANCH   1   7
BRANCH   6  13
ATOM     13  N   LIG d   1       0.215  84.953 110.794  0.00  0.00    -0.311 N 
ATOM     14  C   LIG d   1       0.255  86.012 111.600  0.00  0.00     0.210 C 
ATOM     15  C   LIG d   1      -0.798  87.086 111.310  0.00  0.00     0.109 C 
ATOM     16  O   LIG d   1       1.084  86.179 112.508  0.00  0.00    -0.276 OA
ATOM     17  H   LIG d   1      -0.470  84.914 110.064  0.00  0.00     0.149 HD
ENDBRANCH   6  13
BRANCH   5  18
ATOM     18  N   LIG d   1       3.259  85.114 110.588  0.00  0.00     0.381 N 
ATOM     19  H   LIG d   1       4.027  84.768 111.128  0.00  0.00    -0.090 HD
ATOM     20  H   LIG d   1       2.694  85.697 111.180  0.00  0.00    -0.090 HD
ATOM     21  H   LIG d   1       3.598  85.642 109.815  0.00  0.00    -0.090 HD
ENDBRANCH   5  18
BRANCH   3  22
ATOM     22  C   LIG d   1       3.274  80.483 109.367  0.00  0.00     0.382 C 
ATOM     23  O   LIG d   1       4.528  80.506 109.333  0.00  0.00    -0.241 OA
ATOM     24  O   LIG d   1       2.664  79.517 108.868  0.00  0.00    -0.241 OA
ENDBRANCH   3  22
TORSDOF 7
ENDMDL
MODEL 4
REMARK VINA RESULT:      -6.0      2.139      4.230
REMARK  7 active torsions:
REMARK  status: ('A' for Active; 'I' for Inactive)
REMARK    1  A    between atoms: C_2  and  C_3 
REMARK    2  A    between atoms: C_3  and  O_6 
REMARK    3  A    between atoms: C_3  and  C_4 
REMARK    4  A    between atoms: C_7  and  O_6 
REMARK    5  A    between atoms: C_9  and  C_10 
REMARK    6  A    between atoms: N_15  and  C_14 
REMARK    7  A    between atoms: N_20  and  C_19 
REMARK       I    between atoms: C_22  and  N_20 
ROOT
ATOM      1  C   LIG d   1       2.139  82.241 111.586  0.00  0.00     0.161 C 
ATOM      2  C   LIG d   1       1.145  81.253 111.676  0.00  0.00     0.016 C 
ATOM      3  C   LIG d   1      -0.237  81.544 111.742  0.00  0.00     0.038 C 
ATOM      4  C   LIG d   1      -0.730  82.846 111.569  0.00  0.00     0.028 C 
ATOM      5  C   LIG d   1       0.262  83.929 111.982  0.00  0.00    -0.047 C 
ATOM      6  C   LIG d   1       1.615  83.661 111.285  0.00  0.00     0.091 C 
ENDROOT
BRANCH   1   7
ATOM      7  O   LIG d   1       3.126  81.853 110.610  0.00  0.00    -0.368 OA
BRANCH   7   8
ATOM      8  C   LIG d   1       2.626  81.545 109.286  0.00  0.00     0.119 C 
BRANCH   8   9
ATOM      9  C   LIG d   1       3.194  80.170 108.885  0.00  0.00     0.028 C 
ATOM     10  C   LIG d   1       2.090  79.151 108.557  0.00  0.00     0.006 C 
ENDBRANCH   8   9
BRANCH   8  11
ATOM     11  C   LIG d   1       3.168  82.527 108.243  0.00  0.00     0.028 C 
ATOM     12  C   LIG d   1       2.059  83.349 107.567  0.00  0.00     0.006 C 
ENDBRANCH   8  11
ENDBRANCH   7   8
ENDBRANCH   1   7
BRANCH   6  13
ATOM     13  N   LIG d   1       2.667  84.626 111.699  0.00  0.00    -0.311 N 
ATOM     14  C   LIG d   1       2.881  85.786 111.083  0.00  0.00     0.210 C 
ATOM     15  C   LIG d   1       4.028  86.623 111.658  0.00  0.00     0.109 C 
ATOM     16  O   LIG d   1       2.209  86.218 110.134  0.00  0.00    -0.276 OA
ATOM     17  H   LIG d   1       3.239  84.370 112.480  0.00  0.00     0.149 HD
ENDBRANCH   6  13
BRANCH   5  18
ATOM     18  N   LIG d   1      -0.326  85.233 111.621  0.00  0.00     0.381 N 
ATOM     19  H   LIG d   1      -0.033  85.929 112.277  0.00  0.00    -0.090 HD
ATOM     20  H   LIG d   1      -1.327  85.161 111.663  0.00  0.00    -0.090 HD
ATOM     21  H   LIG d   1      -0.043  85.492 110.701  0.00  0.00    -0.090 HD
ENDBRANCH   5  18
BRANCH   3  22
ATOM     22  C   LIG d   1      -1.141  80.530 112.023  0.00  0.00     0.382 C 
ATOM     23  O   LIG d   1      -1.560  80.371 113.195  0.00  0.00    -0.241 OA
ATOM     24  O   LIG d   1      -1.508  79.745 111.128  0.00  0.00    -0.241 OA
ENDBRANCH   3  22
TORSDOF 7
ENDMDL
MODEL 5
REMARK VINA RESULT:      -5.8      2.690      4.984
REMARK  7 active torsions:
REMARK  status: ('A' for Active; 'I' for Inactive)
REMARK    1  A    between atoms: C_2  and  C_3 
REMARK    2  A    between atoms: C_3  and  O_6 
REMARK    3  A    between atoms: C_3  and  C_4 
REMARK    4  A    between atoms: C_7  and  O_6 
REMARK    5  A    between atoms: C_9  and  C_10 
REMARK    6  A    between atoms: N_15  and  C_14 
REMARK    7  A    between atoms: N_20  and  C_19 
REMARK       I    between atoms: C_22  and  N_20 
ROOT
ATOM      1  C   LIG d   1       2.445  84.256 111.168  0.00  0.00     0.161 C 
ATOM      2  C   LIG d   1       1.540  83.183 111.204  0.00  0.00     0.016 C 
ATOM      3  C   LIG d   1       0.138  83.349 111.281  0.00  0.00     0.038 C 
ATOM      4  C   LIG d   1      -0.466  84.611 111.173  0.00  0.00     0.028 C 
ATOM      5  C   LIG d   1       0.429  85.753 111.643  0.00  0.00    -0.047 C 
ATOM      6  C   LIG d   1       1.800  85.639 110.937  0.00  0.00     0.091 C 
ENDROOT
BRANCH   1   7
ATOM      7  O   LIG d   1       3.460  84.006 110.176  0.00  0.00    -0.368 OA
BRANCH   7   8
ATOM      8  C   LIG d   1       3.372  82.738 109.479  0.00  0.00     0.119 C 
BRANCH   8   9
ATOM      9  C   LIG d   1       4.706  81.998 109.695  0.00  0.00     0.028 C 
ATOM     10  C   LIG d   1       4.622  80.512 109.305  0.00  0.00     0.006 C 
ENDBRANCH   8   9
BRANCH   8  11
ATOM     11  C   LIG d   1       3.261  82.941 107.965  0.00  0.00     0.028 C 
ATOM     12  C   LIG d   1       1.882  83.466 107.534  0.00  0.00     0.006 C 
ENDBRANCH   8  11
ENDBRANCH   7   8
ENDBRANCH   1   7
BRANCH   6  13
ATOM     13  N   LIG d   1       2.765  86.669 111.403  0.00  0.00    -0.311 N 
ATOM     14  C   LIG d   1       3.067  86.863 112.685  0.00  0.00     0.210 C 
ATOM     15  C   LIG d   1       4.071  87.990 112.949  0.00  0.00     0.109 C 
ATOM     16  O   LIG d   1       2.625  86.187 113.627  0.00  0.00    -0.276 OA
ATOM     17  H   LIG d   1       3.194  87.241 110.703  0.00  0.00     0.149 HD
ENDBRANCH   6  13
BRANCH   5  18
ATOM     18  N   LIG d   1      -0.270  87.018 111.347  0.00  0.00     0.381 N 
ATOM     19  H   LIG d   1       0.301  87.792 111.620  0.00  0.00    -0.090 HD
ATOM     20  H   LIG d   1      -1.121  87.051 111.879  0.00  0.00    -0.090 HD
ATOM     21  H   LIG d   1      -0.476  87.074 110.374  0.00  0.00    -0.090 HD
ENDBRANCH   5  18
BRANCH   3  22
ATOM     22  C   LIG d   1      -0.674  82.248 111.507  0.00  0.00     0.382 C 
ATOM     23  O   LIG d   1      -1.658  82.343 112.280  0.00  0.00    -0.241 OA
ATOM     24  O   LIG d   1      -0.408  81.149 110.984  0.00  0.00    -0.241 OA
ENDBRANCH   3  22
TORSDOF 7
ENDMDL
MODEL 6
REMARK VINA RESULT:      -5.2      1.830      2.212
REMARK  7 active torsions:
REMARK  status: ('A' for Active; 'I' for Inactive)
REMARK    1  A    between atoms: C_2  and  C_3 
REMARK    2  A    between atoms: C_3  and  O_6 
REMARK    3  A    between atoms: C_3  and  C_4 
REMARK    4  A    between atoms: C_7  and  O_6 
REMARK    5  A    between atoms: C_9  and  C_10 
REMARK    6  A    between atoms: N_15  and  C_14 
REMARK    7  A    between atoms: N_20  and  C_19 
REMARK       I    between atoms: C_22  and  N_20 
ROOT
ATOM      1  C   LIG d   1       1.130  82.498 112.286  0.00  0.00     0.161 C 
ATOM      2  C   LIG d   1       0.493  81.907 113.390  0.00  0.00     0.016 C 
ATOM      3  C   LIG d   1      -0.392  80.810 113.282  0.00  0.00     0.038 C 
ATOM      4  C   LIG d   1      -0.583  80.128 112.070  0.00  0.00     0.028 C 
ATOM      5  C   LIG d   1      -0.353  81.001 110.841  0.00  0.00    -0.047 C 
ATOM      6  C   LIG d   1       1.021  81.698 110.971  0.00  0.00     0.091 C 
ENDROOT
BRANCH   1   7
ATOM      7  O   LIG d   1       2.513  82.757 112.601  0.00  0.00    -0.368 OA
BRANCH   7   8
ATOM      8  C   LIG d   1       2.880  84.149 112.764  0.00  0.00     0.119 C 
BRANCH   8   9
ATOM      9  C   LIG d   1       3.948  84.474 111.701  0.00  0.00     0.028 C 
ATOM     10  C   LIG d   1       3.432  85.448 110.629  0.00  0.00     0.006 C 
ENDBRANCH   8   9
BRANCH   8  11
ATOM     11  C   LIG d   1       3.563  84.392 114.113  0.00  0.00     0.028 C 
ATOM     12  C   LIG d   1       3.499  85.862 114.557  0.00  0.00     0.006 C 
ENDBRANCH   8  11
ENDBRANCH   7   8
ENDBRANCH   1   7
BRANCH   6  13
ATOM     13  N   LIG d   1       1.288  82.637 109.850  0.00  0.00    -0.311 N 
ATOM     14  C   LIG d   1       1.994  82.307 108.770  0.00  0.00     0.210 C 
ATOM     15  C   LIG d   1       2.168  83.430 107.743  0.00  0.00     0.109 C 
ATOM     16  O   LIG d   1       2.465  81.181 108.550  0.00  0.00    -0.276 OA
ATOM     17  H   LIG d   1       0.915  83.563 109.932  0.00  0.00     0.149 HD
ENDBRANCH   6  13
BRANCH   5  18
ATOM     18  N   LIG d   1      -0.450  80.132 109.653  0.00  0.00     0.381 N 
ATOM     19  H   LIG d   1      -0.198  79.195 109.897  0.00  0.00    -0.090 HD
ATOM     20  H   LIG d   1       0.196  80.461 108.957  0.00  0.00    -0.090 HD
ATOM     21  H   LIG d   1      -1.378  80.151 109.292  0.00  0.00    -0.090 HD
ENDBRANCH   5  18
BRANCH   3  22
ATOM     22  C   LIG d   1      -1.127  80.408 114.386  0.00  0.00     0.382 C 
ATOM     23  O   LIG d   1      -0.541  79.950 115.397  0.00  0.00    -0.241 OA
ATOM     24  O   LIG d   1      -2.372  80.457 114.369  0.00  0.00    -0.241 OA
ENDBRANCH   3  22
TORSDOF 7
ENDMDL
MODEL 7
REMARK VINA RESULT:      -5.2      3.683      5.651
REMARK  7 active torsions:
REMARK  status: ('A' for Active; 'I' for Inactive)
REMARK    1  A    between atoms: C_2  and  C_3 
REMARK    2  A    between atoms: C_3  and  O_6 
REMARK    3  A    between atoms: C_3  and  C_4 
REMARK    4  A    between atoms: C_7  and  O_6 
REMARK    5  A    between atoms: C_9  and  C_10 
REMARK    6  A    between atoms: N_15  and  C_14 
REMARK    7  A    between atoms: N_20  and  C_19 
REMARK       I    between atoms: C_22  and  N_20 
ROOT
ATOM      1  C   LIG d   1       2.944  85.717 111.349  0.00  0.00     0.161 C 
ATOM      2  C   LIG d   1       3.766  84.582 111.250  0.00  0.00     0.016 C 
ATOM      3  C   LIG d   1       3.646  83.623 110.218  0.00  0.00     0.038 C 
ATOM      4  C   LIG d   1       2.791  83.814 109.123  0.00  0.00     0.028 C 
ATOM      5  C   LIG d   1       1.586  84.692 109.442  0.00  0.00    -0.047 C 
ATOM      6  C   LIG d   1       2.079  86.000 110.103  0.00  0.00     0.091 C 
ENDROOT
BRANCH   1   7
ATOM      7  O   LIG d   1       3.742  86.871 111.678  0.00  0.00    -0.368 OA
BRANCH   7   8
ATOM      8  C   LIG d   1       3.875  87.173 113.089  0.00  0.00     0.119 C 
BRANCH   8   9
ATOM      9  C   LIG d   1       2.520  86.867 113.757  0.00  0.00     0.028 C 
ATOM     10  C   LIG d   1       2.539  87.136 115.271  0.00  0.00     0.006 C 
ENDBRANCH   8   9
BRANCH   8  11
ATOM     11  C   LIG d   1       4.111  88.669 113.318  0.00  0.00     0.028 C 
ATOM     12  C   LIG d   1       5.589  89.007 113.570  0.00  0.00     0.006 C 
ENDBRANCH   8  11
ENDBRANCH   7   8
ENDBRANCH   1   7
BRANCH   6  13
ATOM     13  N   LIG d   1       0.958  86.880 110.524  0.00  0.00    -0.311 N 
ATOM     14  C   LIG d   1      -0.080  86.453 111.242  0.00  0.00     0.210 C 
ATOM     15  C   LIG d   1      -1.135  87.520 111.551  0.00  0.00     0.109 C 
ATOM     16  O   LIG d   1      -0.210  85.300 111.679  0.00  0.00    -0.276 OA
ATOM     17  H   LIG d   1       0.999  87.839 110.239  0.00  0.00     0.149 HD
ENDBRANCH   6  13
BRANCH   5  18
ATOM     18  N   LIG d   1       0.855  84.922 108.182  0.00  0.00     0.381 N 
ATOM     19  H   LIG d   1       0.847  85.899 107.968  0.00  0.00    -0.090 HD
ATOM     20  H   LIG d   1      -0.096  84.617 108.297  0.00  0.00    -0.090 HD
ATOM     21  H   LIG d   1       1.286  84.415 107.441  0.00  0.00    -0.090 HD
ENDBRANCH   5  18
BRANCH   3  22
ATOM     22  C   LIG d   1       4.361  82.437 110.296  0.00  0.00     0.382 C 
ATOM     23  O   LIG d   1       5.353  82.252 109.551  0.00  0.00    -0.241 OA
ATOM     24  O   LIG d   1       3.999  81.531 111.072  0.00  0.00    -0.241 OA
ENDBRANCH   3  22
TORSDOF 7
ENDMDL
MODEL 8
REMARK VINA RESULT:      -5.0      3.475      5.932
REMARK  7 active torsions:
REMARK  status: ('A' for Active; 'I' for Inactive)
REMARK    1  A    between atoms: C_2  and  C_3 
REMARK    2  A    between atoms: C_3  and  O_6 
REMARK    3  A    between atoms: C_3  and  C_4 
REMARK    4  A    between atoms: C_7  and  O_6 
REMARK    5  A    between atoms: C_9  and  C_10 
REMARK    6  A    between atoms: N_15  and  C_14 
REMARK    7  A    between atoms: N_20  and  C_19 
REMARK       I    between atoms: C_22  and  N_20 
ROOT
ATOM      1  C   LIG d   1       2.253  83.876 112.379  0.00  0.00     0.161 C 
ATOM      2  C   LIG d   1       1.308  84.284 111.424  0.00  0.00     0.016 C 
ATOM      3  C   LIG d   1       1.254  85.593 110.893  0.00  0.00     0.038 C 
ATOM      4  C   LIG d   1       2.244  86.548 111.171  0.00  0.00     0.028 C 
ATOM      5  C   LIG d   1       2.928  86.336 112.518  0.00  0.00    -0.047 C 
ATOM      6  C   LIG d   1       3.409  84.871 112.612  0.00  0.00     0.091 C 
ENDROOT
BRANCH   1   7
ATOM      7  O   LIG d   1       2.772  82.577 112.029  0.00  0.00    -0.368 OA
BRANCH   7   8
ATOM      8  C   LIG d   1       2.706  82.222 110.626  0.00  0.00     0.119 C 
BRANCH   8   9
ATOM      9  C   LIG d   1       1.765  81.007 110.500  0.00  0.00     0.028 C 
ATOM     10  C   LIG d   1       1.953  80.254 109.172  0.00  0.00     0.006 C 
ENDBRANCH   8   9
BRANCH   8  11
ATOM     11  C   LIG d   1       4.064  81.738 110.108  0.00  0.00     0.028 C 
ATOM     12  C   LIG d   1       4.684  82.696 109.079  0.00  0.00     0.006 C 
ENDBRANCH   8  11
ENDBRANCH   7   8
ENDBRANCH   1   7
BRANCH   6  13
ATOM     13  N   LIG d   1       4.015  84.556 113.932  0.00  0.00    -0.311 N 
ATOM     14  C   LIG d   1       3.596  85.093 115.077  0.00  0.00     0.210 C 
ATOM     15  C   LIG d   1       4.371  84.648 116.321  0.00  0.00     0.109 C 
ATOM     16  O   LIG d   1       2.635  85.870 115.184  0.00  0.00    -0.276 OA
ATOM     17  H   LIG d   1       4.780  83.910 113.941  0.00  0.00     0.149 HD
ENDBRANCH   6  13
BRANCH   5  18
ATOM     18  N   LIG d   1       4.027  87.314 112.618  0.00  0.00     0.381 N 
ATOM     19  H   LIG d   1       4.568  87.133 113.441  0.00  0.00    -0.090 HD
ATOM     20  H   LIG d   1       3.636  88.237 112.694  0.00  0.00    -0.090 HD
ATOM     21  H   LIG d   1       4.609  87.257 111.811  0.00  0.00    -0.090 HD
ENDBRANCH   5  18
BRANCH   3  22
ATOM     22  C   LIG d   1       0.179  85.972 110.104  0.00  0.00     0.382 C 
ATOM     23  O   LIG d   1       0.273  85.929 108.853  0.00  0.00    -0.241 OA
ATOM     24  O   LIG d   1      -0.869  86.396 110.626  0.00  0.00    -0.241 OA
ENDBRANCH   3  22
TORSDOF 7
ENDMDL
MODEL 9
REMARK VINA RESULT:      -4.9      3.233      4.938
REMARK  7 active torsions:
REMARK  status: ('A' for Active; 'I' for Inactive)
REMARK    1  A    between atoms: C_2  and  C_3 
REMARK    2  A    between atoms: C_3  and  O_6 
REMARK    3  A    between atoms: C_3  and  C_4 
REMARK    4  A    between atoms: C_7  and  O_6 
REMARK    5  A    between atoms: C_9  and  C_10 
REMARK    6  A    between atoms: N_15  and  C_14 
REMARK    7  A    between atoms: N_20  and  C_19 
REMARK       I    between atoms: C_22  and  N_20 
ROOT
ATOM      1  C   LIG d   1      -0.642  80.826 113.789  0.00  0.00     0.161 C 
ATOM      2  C   LIG d   1      -1.537  79.760 113.973  0.00  0.00     0.016 C 
ATOM      3  C   LIG d   1      -2.030  78.965 112.912  0.00  0.00     0.038 C 
ATOM      4  C   LIG d   1      -1.539  79.089 111.604  0.00  0.00     0.028 C 
ATOM      5  C   LIG d   1      -1.011  80.483 111.284  0.00  0.00    -0.047 C 
ATOM      6  C   LIG d   1      -0.009  80.905 112.384  0.00  0.00     0.091 C 
ENDROOT
BRANCH   1   7
ATOM      7  O   LIG d   1       0.386  80.781 114.799  0.00  0.00    -0.368 OA
BRANCH   7   8
ATOM      8  C   LIG d   1      -0.037  80.365 116.121  0.00  0.00     0.119 C 
BRANCH   8   9
ATOM      9  C   LIG d   1       0.273  81.522 117.091  0.00  0.00     0.028 C 
ATOM     10  C   LIG d   1       1.622  82.196 116.789  0.00  0.00     0.006 C 
ENDBRANCH   8   9
BRANCH   8  11
ATOM     11  C   LIG d   1       0.792  79.180 116.624  0.00  0.00     0.028 C 
ATOM     12  C   LIG d   1      -0.076  78.040 117.180  0.00  0.00     0.006 C 
ENDBRANCH   8  11
ENDBRANCH   7   8
ENDBRANCH   1   7
BRANCH   6  13
ATOM     13  N   LIG d   1       0.492  82.291 112.193  0.00  0.00    -0.311 N 
ATOM     14  C   LIG d   1       1.743  82.576 111.836  0.00  0.00     0.210 C 
ATOM     15  C   LIG d   1       2.056  84.070 111.714  0.00  0.00     0.109 C 
ATOM     16  O   LIG d   1       2.614  81.732 111.578  0.00  0.00    -0.276 OA
ATOM     17  H   LIG d   1      -0.158  83.037 112.352  0.00  0.00     0.149 HD
ENDBRANCH   6  13
BRANCH   5  18
ATOM     18  N   LIG d   1      -0.406  80.433 109.940  0.00  0.00     0.381 N 
ATOM     19  H   LIG d   1      -0.937  79.822 109.352  0.00  0.00    -0.090 HD
ATOM     20  H   LIG d   1       0.526  80.066 110.016  0.00  0.00    -0.090 HD
ATOM     21  H   LIG d   1      -0.379  81.347 109.544  0.00  0.00    -0.090 HD
ENDBRANCH   5  18
BRANCH   3  22
ATOM     22  C   LIG d   1      -3.054  78.061 113.149  0.00  0.00     0.382 C 
ATOM     23  O   LIG d   1      -3.598  77.465 112.189  0.00  0.00    -0.241 OA
ATOM     24  O   LIG d   1      -3.470  77.867 114.307  0.00  0.00    -0.241 OA
ENDBRANCH   3  22
TORSDOF 7
ENDMDL
