MODEL 1
REMARK VINA RESULT:      -6.4      0.000      0.000
REMARK  7 active torsions:
REMARK  status: ('A' for Active; 'I' for Inactive)
REMARK    1  A    between atoms: C_2  and  C_3 
REMARK    2  A    between atoms: C_3  and  O_6 
REMARK    3  A    between atoms: C_3  and  C_4 
REMARK    4  A    between atoms: C_7  and  O_6 
REMARK    5  A    between atoms: C_9  and  C_10 
REMARK    6  A    between atoms: N_15  and  C_14 
REMARK    7  A    between atoms: N_20  and  C_19 
REMARK       I    between atoms: C_22  and  N_20 
ROOT
ATOM      1  C   LIG d   1       2.071  84.050 111.443  0.00  0.00     0.161 C 
ATOM      2  C   LIG d   1       1.057  83.079 111.487  0.00  0.00     0.016 C 
ATOM      3  C   LIG d   1      -0.041  83.140 112.375  0.00  0.00     0.038 C 
ATOM      4  C   LIG d   1      -0.280  84.263 113.182  0.00  0.00     0.028 C 
ATOM      5  C   LIG d   1       0.986  85.035 113.536  0.00  0.00    -0.047 C 
ATOM      6  C   LIG d   1       1.769  85.338 112.238  0.00  0.00     0.091 C 
ENDROOT
BRANCH   1   7
ATOM      7  O   LIG d   1       2.384  84.369 110.073  0.00  0.00    -0.368 OA
BRANCH   7   8
ATOM      8  C   LIG d   1       1.319  84.162 109.112  0.00  0.00     0.119 C 
BRANCH   8   9
ATOM      9  C   LIG d   1       1.952  83.553 107.845  0.00  0.00     0.028 C 
ATOM     10  C   LIG d   1       2.634  82.202 108.120  0.00  0.00     0.006 C 
ENDBRANCH   8   9
BRANCH   8  11
ATOM     11  C   LIG d   1       0.709  85.492 108.661  0.00  0.00     0.028 C 
ATOM     12  C   LIG d   1      -0.575  85.848 109.427  0.00  0.00     0.006 C 
ENDBRANCH   8  11
ENDBRANCH   7   8
ENDBRANCH   1   7
BRANCH   6  13
ATOM     13  N   LIG d   1       3.063  86.018 112.502  0.00  0.00    -0.311 N 
ATOM     14  C   LIG d   1       3.398  87.190 111.966  0.00  0.00     0.210 C 
ATOM     15  C   LIG d   1       4.788  87.705 112.354  0.00  0.00     0.109 C 
ATOM     16  O   LIG d   1       2.664  87.867 111.231  0.00  0.00    -0.276 OA
ATOM     17  H   LIG d   1       3.707  85.553 113.112  0.00  0.00     0.149 HD
ENDBRANCH   6  13
BRANCH   5  18
ATOM     18  N   LIG d   1       0.577  86.253 114.261  0.00  0.00     0.381 N 
ATOM     19  H   LIG d   1       0.787  87.062 113.711  0.00  0.00    -0.090 HD
ATOM     20  H   LIG d   1       1.097  86.311 115.119  0.00  0.00    -0.090 HD
ATOM     21  H   LIG d   1      -0.399  86.221 114.458  0.00  0.00    -0.090 HD
ENDBRANCH   5  18
BRANCH   3  22
ATOM     22  C   LIG d   1      -0.892  82.052 112.492  0.00  0.00     0.382 C 
ATOM     23  O   LIG d   1      -0.504  81.012 113.078  0.00  0.00    -0.241 OA
ATOM     24  O   LIG d   1      -2.028  82.080 111.980  0.00  0.00    -0.241 OA
ENDBRANCH   3  22
TORSDOF 7
ENDMDL
MODEL 2
REMARK VINA RESULT:      -6.1      2.618      5.278
REMARK  7 active torsions:
REMARK  status: ('A' for Active; 'I' for Inactive)
REMARK    1  A    between atoms: C_2  and  C_3 
REMARK    2  A    between atoms: C_3  and  O_6 
REMARK    3  A    between atoms: C_3  and  C_4 
REMARK    4  A    between atoms: C_7  and  O_6 
REMARK    5  A    between atoms: C_9  and  C_10 
REMARK    6  A    between atoms: N_15  and  C_14 
REMARK    7  A    between atoms: N_20  and  C_19 
REMARK       I    between atoms: C_22  and  N_20 
ROOT
ATOM      1  C   LIG d   1       1.804  83.180 111.176  0.00  0.00     0.161 C 
ATOM      2  C   LIG d   1       2.685  83.020 110.094  0.00  0.00     0.016 C 
ATOM      3  C   LIG d   1       2.644  81.915 109.214  0.00  0.00     0.038 C 
ATOM      4  C   LIG d   1       1.614  80.964 109.266  0.00  0.00     0.028 C 
ATOM      5  C   LIG d   1       0.999  80.812 110.653  0.00  0.00    -0.047 C 
ATOM      6  C   LIG d   1       0.604  82.210 111.182  0.00  0.00     0.091 C 
ENDROOT
BRANCH   1   7
ATOM      7  O   LIG d   1       1.345  84.545 111.235  0.00  0.00    -0.368 OA
BRANCH   7   8
ATOM      8  C   LIG d   1       1.682  85.380 110.100  0.00  0.00     0.119 C 
BRANCH   8   9
ATOM      9  C   LIG d   1       2.275  86.692 110.651  0.00  0.00     0.028 C 
ATOM     10  C   LIG d   1       3.718  86.518 111.154  0.00  0.00     0.006 C 
ENDBRANCH   8   9
BRANCH   8  11
ATOM     11  C   LIG d   1       0.430  85.796 109.323  0.00  0.00     0.028 C 
ATOM     12  C   LIG d   1      -0.697  86.305 110.236  0.00  0.00     0.006 C 
ENDBRANCH   8  11
ENDBRANCH   7   8
ENDBRANCH   1   7
BRANCH   6  13
ATOM     13  N   LIG d   1       0.072  82.162 112.569  0.00  0.00    -0.311 N 
ATOM     14  C   LIG d   1      -1.225  82.057 112.853  0.00  0.00     0.210 C 
ATOM     15  C   LIG d   1      -1.561  82.044 114.348  0.00  0.00     0.109 C 
ATOM     16  O   LIG d   1      -2.127  81.941 112.009  0.00  0.00    -0.276 OA
ATOM     17  H   LIG d   1       0.737  82.218 113.315  0.00  0.00     0.149 HD
ENDBRANCH   6  13
BRANCH   5  18
ATOM     18  N   LIG d   1      -0.150  79.894 110.534  0.00  0.00     0.381 N 
ATOM     19  H   LIG d   1      -0.881  80.185 111.151  0.00  0.00    -0.090 HD
ATOM     20  H   LIG d   1       0.143  78.971 110.804  0.00  0.00    -0.090 HD
ATOM     21  H   LIG d   1      -0.482  79.884 109.594  0.00  0.00    -0.090 HD
ENDBRANCH   5  18
BRANCH   3  22
ATOM     22  C   LIG d   1       3.663  81.731 108.292  0.00  0.00     0.382 C 
ATOM     23  O   LIG d   1       3.529  82.148 107.117  0.00  0.00    -0.241 OA
ATOM     24  O   LIG d   1       4.698  81.115 108.610  0.00  0.00    -0.241 OA
ENDBRANCH   3  22
TORSDOF 7
ENDMDL
MODEL 3
REMARK VINA RESULT:      -6.0      2.690      4.408
REMARK  7 active torsions:
REMARK  status: ('A' for Active; 'I' for Inactive)
REMARK    1  A    between atoms: C_2  and  C_3 
REMARK    2  A    between atoms: C_3  and  O_6 
REMARK    3  A    between atoms: C_3  and  C_4 
REMARK    4  A    between atoms: C_7  and  O_6 
REMARK    5  A    between atoms: C_9  and  C_10 
REMARK    6  A    between atoms: N_15  and  C_14 
REMARK    7  A    between atoms: N_20  and  C_19 
REMARK       I    between atoms: C_22  and  N_20 
ROOT
ATOM      1  C   LIG d   1       0.362  82.810 111.062  0.00  0.00     0.161 C 
ATOM      2  C   LIG d   1      -0.757  82.558 111.873  0.00  0.00     0.016 C 
ATOM      3  C   LIG d   1      -1.291  81.266 112.084  0.00  0.00     0.038 C 
ATOM      4  C   LIG d   1      -0.646  80.112 111.614  0.00  0.00     0.028 C 
ATOM      5  C   LIG d   1       0.201  80.355 110.370  0.00  0.00    -0.047 C 
ATOM      6  C   LIG d   1       1.145  81.551 110.631  0.00  0.00     0.091 C 
ENDROOT
BRANCH   1   7
ATOM      7  O   LIG d   1       1.241  83.746 111.717  0.00  0.00    -0.368 OA
BRANCH   7   8
ATOM      8  C   LIG d   1       1.310  85.070 111.133  0.00  0.00     0.119 C 
BRANCH   8   9
ATOM      9  C   LIG d   1       0.276  85.128 109.992  0.00  0.00     0.028 C 
ATOM     10  C   LIG d   1       0.927  85.390 108.623  0.00  0.00     0.006 C 
ENDBRANCH   8   9
BRANCH   8  11
ATOM     11  C   LIG d   1       2.667  85.313 110.464  0.00  0.00     0.028 C 
ATOM     12  C   LIG d   1       3.853  84.965 111.378  0.00  0.00     0.006 C 
ENDBRANCH   8  11
ENDBRANCH   7   8
ENDBRANCH   1   7
BRANCH   6  13
ATOM     13  N   LIG d   1       1.950  81.910 109.435  0.00  0.00    -0.311 N 
ATOM     14  C   LIG d   1       3.282  81.888 109.414  0.00  0.00     0.210 C 
ATOM     15  C   LIG d   1       3.914  82.313 108.085  0.00  0.00     0.109 C 
ATOM     16  O   LIG d   1       3.998  81.525 110.359  0.00  0.00    -0.276 OA
ATOM     17  H   LIG d   1       1.448  82.187 108.613  0.00  0.00     0.149 HD
ENDBRANCH   6  13
BRANCH   5  18
ATOM     18  N   LIG d   1       0.923  79.104 110.071  0.00  0.00     0.381 N 
ATOM     19  H   LIG d   1       1.859  79.313 109.786  0.00  0.00    -0.090 HD
ATOM     20  H   LIG d   1       0.460  78.635 109.312  0.00  0.00    -0.090 HD
ATOM     21  H   LIG d   1       0.936  78.517 110.876  0.00  0.00    -0.090 HD
ENDBRANCH   5  18
BRANCH   3  22
ATOM     22  C   LIG d   1      -2.505  81.123 112.738  0.00  0.00     0.382 C 
ATOM     23  O   LIG d   1      -3.567  81.475 112.171  0.00  0.00    -0.241 OA
ATOM     24  O   LIG d   1      -2.547  80.686 113.903  0.00  0.00    -0.241 OA
ENDBRANCH   3  22
TORSDOF 7
ENDMDL
MODEL 4
REMARK VINA RESULT:      -6.0      2.799      6.034
REMARK  7 active torsions:
REMARK  status: ('A' for Active; 'I' for Inactive)
REMARK    1  A    between atoms: C_2  and  C_3 
REMARK    2  A    between atoms: C_3  and  O_6 
REMARK    3  A    between atoms: C_3  and  C_4 
REMARK    4  A    between atoms: C_7  and  O_6 
REMARK    5  A    between atoms: C_9  and  C_10 
REMARK    6  A    between atoms: N_15  and  C_14 
REMARK    7  A    between atoms: N_20  and  C_19 
REMARK       I    between atoms: C_22  and  N_20 
ROOT
ATOM      1  C   LIG d   1       3.060  82.868 111.403  0.00  0.00     0.161 C 
ATOM      2  C   LIG d   1       3.236  84.245 111.620  0.00  0.00     0.016 C 
ATOM      3  C   LIG d   1       2.923  85.231 110.656  0.00  0.00     0.038 C 
ATOM      4  C   LIG d   1       2.267  84.914 109.457  0.00  0.00     0.028 C 
ATOM      5  C   LIG d   1       2.530  83.489 108.982  0.00  0.00    -0.047 C 
ATOM      6  C   LIG d   1       2.243  82.511 110.144  0.00  0.00     0.091 C 
ENDROOT
BRANCH   1   7
ATOM      7  O   LIG d   1       2.473  82.261 112.571  0.00  0.00    -0.368 OA
BRANCH   7   8
ATOM      8  C   LIG d   1       1.074  82.552 112.806  0.00  0.00     0.119 C 
BRANCH   8   9
ATOM      9  C   LIG d   1       0.971  83.263 114.169  0.00  0.00     0.028 C 
ATOM     10  C   LIG d   1       0.101  84.530 114.106  0.00  0.00     0.006 C 
ENDBRANCH   8   9
BRANCH   8  11
ATOM     11  C   LIG d   1       0.254  81.267 112.956  0.00  0.00     0.028 C 
ATOM     12  C   LIG d   1      -1.162  81.392 112.373  0.00  0.00     0.006 C 
ENDBRANCH   8  11
ENDBRANCH   7   8
ENDBRANCH   1   7
BRANCH   6  13
ATOM     13  N   LIG d   1       2.555  81.102 109.790  0.00  0.00    -0.311 N 
ATOM     14  C   LIG d   1       1.633  80.222 109.403  0.00  0.00     0.210 C 
ATOM     15  C   LIG d   1       2.166  78.817 109.104  0.00  0.00     0.109 C 
ATOM     16  O   LIG d   1       0.430  80.480 109.249  0.00  0.00    -0.276 OA
ATOM     17  H   LIG d   1       3.512  80.816 109.857  0.00  0.00     0.149 HD
ENDBRANCH   6  13
BRANCH   5  18
ATOM     18  N   LIG d   1       1.679  83.249 107.801  0.00  0.00     0.381 N 
ATOM     19  H   LIG d   1       1.645  84.074 107.235  0.00  0.00    -0.090 HD
ATOM     20  H   LIG d   1       0.746  83.040 108.110  0.00  0.00    -0.090 HD
ATOM     21  H   LIG d   1       2.040  82.488 107.270  0.00  0.00    -0.090 HD
ENDBRANCH   5  18
BRANCH   3  22
ATOM     22  C   LIG d   1       3.303  86.547 110.871  0.00  0.00     0.382 C 
ATOM     23  O   LIG d   1       2.433  87.448 110.939  0.00  0.00    -0.241 OA
ATOM     24  O   LIG d   1       4.509  86.851 110.954  0.00  0.00    -0.241 OA
ENDBRANCH   3  22
TORSDOF 7
ENDMDL
MODEL 5
REMARK VINA RESULT:      -5.8      1.923      5.100
REMARK  7 active torsions:
REMARK  status: ('A' for Active; 'I' for Inactive)
REMARK    1  A    between atoms: C_2  and  C_3 
REMARK    2  A    between atoms: C_3  and  O_6 
REMARK    3  A    between atoms: C_3  and  C_4 
REMARK    4  A    between atoms: C_7  and  O_6 
REMARK    5  A    between atoms: C_9  and  C_10 
REMARK    6  A    between atoms: N_15  and  C_14 
REMARK    7  A    between atoms: N_20  and  C_19 
REMARK       I    between atoms: C_22  and  N_20 
ROOT
ATOM      1  C   LIG d   1       1.294  83.391 110.794  0.00  0.00     0.161 C 
ATOM      2  C   LIG d   1       2.214  84.435 110.606  0.00  0.00     0.016 C 
ATOM      3  C   LIG d   1       2.230  85.610 111.392  0.00  0.00     0.038 C 
ATOM      4  C   LIG d   1       1.417  85.754 112.526  0.00  0.00     0.028 C 
ATOM      5  C   LIG d   1       0.127  84.945 112.453  0.00  0.00    -0.047 C 
ATOM      6  C   LIG d   1       0.472  83.481 112.097  0.00  0.00     0.091 C 
ENDROOT
BRANCH   1   7
ATOM      7  O   LIG d   1       1.972  82.121 110.717  0.00  0.00    -0.368 OA
BRANCH   7   8
ATOM      8  C   LIG d   1       2.150  81.574 109.387  0.00  0.00     0.119 C 
BRANCH   8   9
ATOM      9  C   LIG d   1       1.293  80.297 109.294  0.00  0.00     0.028 C 
ATOM     10  C   LIG d   1       2.141  79.037 109.049  0.00  0.00     0.006 C 
ENDBRANCH   8   9
BRANCH   8  11
ATOM     11  C   LIG d   1       3.593  81.111 109.164  0.00  0.00     0.028 C 
ATOM     12  C   LIG d   1       4.481  82.204 108.548  0.00  0.00     0.006 C 
ENDBRANCH   8  11
ENDBRANCH   7   8
ENDBRANCH   1   7
BRANCH   6  13
ATOM     13  N   LIG d   1      -0.741  82.639 111.923  0.00  0.00    -0.311 N 
ATOM     14  C   LIG d   1      -1.296  81.940 112.912  0.00  0.00     0.210 C 
ATOM     15  C   LIG d   1      -2.529  81.123 112.513  0.00  0.00     0.109 C 
ATOM     16  O   LIG d   1      -0.903  81.944 114.088  0.00  0.00    -0.276 OA
ATOM     17  H   LIG d   1      -1.143  82.603 111.007  0.00  0.00     0.149 HD
ENDBRANCH   6  13
BRANCH   5  18
ATOM     18  N   LIG d   1      -0.557  85.078 113.754  0.00  0.00     0.381 N 
ATOM     19  H   LIG d   1       0.069  85.474 114.426  0.00  0.00    -0.090 HD
ATOM     20  H   LIG d   1      -0.827  84.165 114.074  0.00  0.00    -0.090 HD
ATOM     21  H   LIG d   1      -1.362  85.656 113.658  0.00  0.00    -0.090 HD
ENDBRANCH   5  18
BRANCH   3  22
ATOM     22  C   LIG d   1       3.039  86.673 111.022  0.00  0.00     0.382 C 
ATOM     23  O   LIG d   1       4.186  86.458 110.562  0.00  0.00    -0.241 OA
ATOM     24  O   LIG d   1       2.653  87.847 111.184  0.00  0.00    -0.241 OA
ENDBRANCH   3  22
TORSDOF 7
ENDMDL
MODEL 6
REMARK VINA RESULT:      -5.5      2.072      4.845
REMARK  7 active torsions:
REMARK  status: ('A' for Active; 'I' for Inactive)
REMARK    1  A    between atoms: C_2  and  C_3 
REMARK    2  A    between atoms: C_3  and  O_6 
REMARK    3  A    between atoms: C_3  and  C_4 
REMARK    4  A    between atoms: C_7  and  O_6 
REMARK    5  A    between atoms: C_9  and  C_10 
REMARK    6  A    between atoms: N_15  and  C_14 
REMARK    7  A    between atoms: N_20  and  C_19 
REMARK       I    between atoms: C_22  and  N_20 
ROOT
ATOM      1  C   LIG d   1       2.193  83.244 111.536  0.00  0.00     0.161 C 
ATOM      2  C   LIG d   1       2.881  84.411 111.164  0.00  0.00     0.016 C 
ATOM      3  C   LIG d   1       2.698  85.659 111.804  0.00  0.00     0.038 C 
ATOM      4  C   LIG d   1       1.921  85.791 112.964  0.00  0.00     0.028 C 
ATOM      5  C   LIG d   1       0.813  84.748 113.072  0.00  0.00    -0.047 C 
ATOM      6  C   LIG d   1       1.424  83.343 112.870  0.00  0.00     0.091 C 
ENDROOT
BRANCH   1   7
ATOM      7  O   LIG d   1       3.105  82.128 111.564  0.00  0.00    -0.368 OA
BRANCH   7   8
ATOM      8  C   LIG d   1       3.075  81.250 110.412  0.00  0.00     0.119 C 
BRANCH   8   9
ATOM      9  C   LIG d   1       4.194  81.704 109.455  0.00  0.00     0.028 C 
ATOM     10  C   LIG d   1       3.646  82.235 108.120  0.00  0.00     0.006 C 
ENDBRANCH   8   9
BRANCH   8  11
ATOM     11  C   LIG d   1       1.774  81.415 109.620  0.00  0.00     0.028 C 
ATOM     12  C   LIG d   1       0.938  80.126 109.574  0.00  0.00     0.006 C 
ENDBRANCH   8  11
ENDBRANCH   7   8
ENDBRANCH   1   7
BRANCH   6  13
ATOM     13  N   LIG d   1       0.396  82.271 112.877  0.00  0.00    -0.311 N 
ATOM     14  C   LIG d   1      -0.690  82.291 112.105  0.00  0.00     0.210 C 
ATOM     15  C   LIG d   1      -1.632  81.096 112.283  0.00  0.00     0.109 C 
ATOM     16  O   LIG d   1      -0.945  83.168 111.266  0.00  0.00    -0.276 OA
ATOM     17  H   LIG d   1       0.539  81.505 113.505  0.00  0.00     0.149 HD
ENDBRANCH   6  13
BRANCH   5  18
ATOM     18  N   LIG d   1       0.171  84.915 114.390  0.00  0.00     0.381 N 
ATOM     19  H   LIG d   1      -0.805  84.709 114.320  0.00  0.00    -0.090 HD
ATOM     20  H   LIG d   1       0.271  85.872 114.681  0.00  0.00    -0.090 HD
ATOM     21  H   LIG d   1       0.599  84.311 115.056  0.00  0.00    -0.090 HD
ENDBRANCH   5  18
BRANCH   3  22
ATOM     22  C   LIG d   1       3.265  86.800 111.258  0.00  0.00     0.382 C 
ATOM     23  O   LIG d   1       2.591  87.855 111.170  0.00  0.00    -0.241 OA
ATOM     24  O   LIG d   1       4.428  86.777 110.812  0.00  0.00    -0.241 OA
ENDBRANCH   3  22
TORSDOF 7
ENDMDL
MODEL 7
REMARK VINA RESULT:      -5.3      2.827      4.885
REMARK  7 active torsions:
REMARK  status: ('A' for Active; 'I' for Inactive)
REMARK    1  A    between atoms: C_2  and  C_3 
REMARK    2  A    between atoms: C_3  and  O_6 
REMARK    3  A    between atoms: C_3  and  C_4 
REMARK    4  A    between atoms: C_7  and  O_6 
REMARK    5  A    between atoms: C_9  and  C_10 
REMARK    6  A    between atoms: N_15  and  C_14 
REMARK    7  A    between atoms: N_20  and  C_19 
REMARK       I    between atoms: C_22  and  N_20 
ROOT
ATOM      1  C   LIG d   1       0.557  83.924 110.622  0.00  0.00     0.161 C 
ATOM      2  C   LIG d   1       0.351  84.906 111.606  0.00  0.00     0.016 C 
ATOM      3  C   LIG d   1      -0.094  84.613 112.916  0.00  0.00     0.038 C 
ATOM      4  C   LIG d   1      -0.217  83.294 113.379  0.00  0.00     0.028 C 
ATOM      5  C   LIG d   1      -0.505  82.287 112.271  0.00  0.00    -0.047 C 
ATOM      6  C   LIG d   1       0.534  82.472 111.143  0.00  0.00     0.091 C 
ENDROOT
BRANCH   1   7
ATOM      7  O   LIG d   1       1.790  84.186 109.922  0.00  0.00    -0.368 OA
BRANCH   7   8
ATOM      8  C   LIG d   1       2.958  84.410 110.750  0.00  0.00     0.119 C 
BRANCH   8   9
ATOM      9  C   LIG d   1       3.644  85.694 110.244  0.00  0.00     0.028 C 
ATOM     10  C   LIG d   1       4.288  86.503 111.382  0.00  0.00     0.006 C 
ENDBRANCH   8   9
BRANCH   8  11
ATOM     11  C   LIG d   1       3.993  83.297 110.566  0.00  0.00     0.028 C 
ATOM     12  C   LIG d   1       4.226  82.938 109.090  0.00  0.00     0.006 C 
ENDBRANCH   8  11
ENDBRANCH   7   8
ENDBRANCH   1   7
BRANCH   6  13
ATOM     13  N   LIG d   1       0.274  81.582 109.981  0.00  0.00    -0.311 N 
ATOM     14  C   LIG d   1       1.110  80.621 109.592  0.00  0.00     0.210 C 
ATOM     15  C   LIG d   1       0.659  79.832 108.359  0.00  0.00     0.109 C 
ATOM     16  O   LIG d   1       2.166  80.325 110.171  0.00  0.00    -0.276 OA
ATOM     17  H   LIG d   1      -0.575  81.732 109.473  0.00  0.00     0.149 HD
ENDBRANCH   6  13
BRANCH   5  18
ATOM     18  N   LIG d   1      -0.472  80.941 112.873  0.00  0.00     0.381 N 
ATOM     19  H   LIG d   1      -0.582  80.248 112.160  0.00  0.00    -0.090 HD
ATOM     20  H   LIG d   1      -1.239  80.854 113.518  0.00  0.00    -0.090 HD
ATOM     21  H   LIG d   1       0.391  80.802 113.351  0.00  0.00    -0.090 HD
ENDBRANCH   5  18
BRANCH   3  22
ATOM     22  C   LIG d   1      -0.458  85.646 113.765  0.00  0.00     0.382 C 
ATOM     23  O   LIG d   1      -1.671  85.914 113.942  0.00  0.00    -0.241 OA
ATOM     24  O   LIG d   1       0.412  86.343 114.322  0.00  0.00    -0.241 OA
ENDBRANCH   3  22
TORSDOF 7
ENDMDL
MODEL 8
REMARK VINA RESULT:      -5.2      3.066      4.854
REMARK  7 active torsions:
REMARK  status: ('A' for Active; 'I' for Inactive)
REMARK    1  A    between atoms: C_2  and  C_3 
REMARK    2  A    between atoms: C_3  and  O_6 
REMARK    3  A    between atoms: C_3  and  C_4 
REMARK    4  A    between atoms: C_7  and  O_6 
REMARK    5  A    between atoms: C_9  and  C_10 
REMARK    6  A    between atoms: N_15  and  C_14 
REMARK    7  A    between atoms: N_20  and  C_19 
REMARK       I    between atoms: C_22  and  N_20 
ROOT
ATOM      1  C   LIG d   1       1.987  82.870 111.805  0.00  0.00     0.161 C 
ATOM      2  C   LIG d   1       0.796  82.749 112.540  0.00  0.00     0.016 C 
ATOM      3  C   LIG d   1      -0.231  81.833 112.214  0.00  0.00     0.038 C 
ATOM      4  C   LIG d   1      -0.068  80.864 111.213  0.00  0.00     0.028 C 
ATOM      5  C   LIG d   1       0.910  81.280 110.119  0.00  0.00    -0.047 C 
ATOM      6  C   LIG d   1       2.229  81.745 110.777  0.00  0.00     0.091 C 
ENDROOT
BRANCH   1   7
ATOM      7  O   LIG d   1       3.108  82.976 112.705  0.00  0.00    -0.368 OA
BRANCH   7   8
ATOM      8  C   LIG d   1       3.909  84.177 112.586  0.00  0.00     0.119 C 
BRANCH   8   9
ATOM      9  C   LIG d   1       4.010  84.807 113.989  0.00  0.00     0.028 C 
ATOM     10  C   LIG d   1       2.706  85.503 114.415  0.00  0.00     0.006 C 
ENDBRANCH   8   9
BRANCH   8  11
ATOM     11  C   LIG d   1       3.211  85.229 111.719  0.00  0.00     0.028 C 
ATOM     12  C   LIG d   1       4.156  85.883 110.699  0.00  0.00     0.006 C 
ENDBRANCH   8  11
ENDBRANCH   7   8
ENDBRANCH   1   7
BRANCH   6  13
ATOM     13  N   LIG d   1       3.211  82.249 109.782  0.00  0.00    -0.311 N 
ATOM     14  C   LIG d   1       4.102  81.469 109.171  0.00  0.00     0.210 C 
ATOM     15  C   LIG d   1       5.035  82.194 108.196  0.00  0.00     0.109 C 
ATOM     16  O   LIG d   1       4.187  80.241 109.320  0.00  0.00    -0.276 OA
ATOM     17  H   LIG d   1       3.192  83.229 109.578  0.00  0.00     0.149 HD
ENDBRANCH   6  13
BRANCH   5  18
ATOM     18  N   LIG d   1       1.088  80.126 109.218  0.00  0.00     0.381 N 
ATOM     19  H   LIG d   1       1.957  80.209 108.729  0.00  0.00    -0.090 HD
ATOM     20  H   LIG d   1       0.345  80.123 108.542  0.00  0.00    -0.090 HD
ATOM     21  H   LIG d   1       1.074  79.279 109.742  0.00  0.00    -0.090 HD
ENDBRANCH   5  18
BRANCH   3  22
ATOM     22  C   LIG d   1      -1.451  81.907 112.867  0.00  0.00     0.382 C 
ATOM     23  O   LIG d   1      -2.517  81.750 112.224  0.00  0.00    -0.241 OA
ATOM     24  O   LIG d   1      -1.502  82.172 114.083  0.00  0.00    -0.241 OA
ENDBRANCH   3  22
TORSDOF 7
ENDMDL
MODEL 9
REMARK VINA RESULT:      -4.1      2.249      4.475
REMARK  7 active torsions:
REMARK  status: ('A' for Active; 'I' for Inactive)
REMARK    1  A    between atoms: C_2  and  C_3 
REMARK    2  A    between atoms: C_3  and  O_6 
REMARK    3  A    between atoms: C_3  and  C_4 
REMARK    4  A    between atoms: C_7  and  O_6 
REMARK    5  A    between atoms: C_9  and  C_10 
REMARK    6  A    between atoms: N_15  and  C_14 
REMARK    7  A    between atoms: N_20  and  C_19 
REMARK       I    between atoms: C_22  and  N_20 
ROOT
ATOM      1  C   LIG d   1       1.840  83.245 111.870  0.00  0.00     0.161 C 
ATOM      2  C   LIG d   1       1.828  82.699 110.576  0.00  0.00     0.016 C 
ATOM      3  C   LIG d   1       2.691  83.130 109.542  0.00  0.00     0.038 C 
ATOM      4  C   LIG d   1       3.734  84.038 109.777  0.00  0.00     0.028 C 
ATOM      5  C   LIG d   1       3.461  84.987 110.939  0.00  0.00    -0.047 C 
ATOM      6  C   LIG d   1       3.045  84.158 112.176  0.00  0.00     0.091 C 
ENDROOT
BRANCH   1   7
ATOM      7  O   LIG d   1       1.751  82.188 112.846  0.00  0.00    -0.368 OA
BRANCH   7   8
ATOM      8  C   LIG d   1       0.612  82.241 113.741  0.00  0.00     0.119 C 
BRANCH   8   9
ATOM      9  C   LIG d   1      -0.063  80.856 113.712  0.00  0.00     0.028 C 
ATOM     10  C   LIG d   1      -0.594  80.491 112.316  0.00  0.00     0.006 C 
ENDBRANCH   8   9
BRANCH   8  11
ATOM     11  C   LIG d   1      -0.450  83.221 113.233  0.00  0.00     0.028 C 
ATOM     12  C   LIG d   1      -1.026  84.106 114.350  0.00  0.00     0.006 C 
ENDBRANCH   8  11
ENDBRANCH   7   8
ENDBRANCH   1   7
BRANCH   6  13
ATOM     13  N   LIG d   1       2.678  85.014 113.334  0.00  0.00    -0.311 N 
ATOM     14  C   LIG d   1       1.847  86.052 113.245  0.00  0.00     0.210 C 
ATOM     15  C   LIG d   1       1.620  86.813 114.555  0.00  0.00     0.109 C 
ATOM     16  O   LIG d   1       1.252  86.395 112.212  0.00  0.00    -0.276 OA
ATOM     17  H   LIG d   1       3.091  84.788 114.218  0.00  0.00     0.149 HD
ENDBRANCH   6  13
BRANCH   5  18
ATOM     18  N   LIG d   1       4.682  85.784 111.161  0.00  0.00     0.381 N 
ATOM     19  H   LIG d   1       4.967  86.213 110.303  0.00  0.00    -0.090 HD
ATOM     20  H   LIG d   1       5.418  85.172 111.467  0.00  0.00    -0.090 HD
ATOM     21  H   LIG d   1       4.512  86.483 111.850  0.00  0.00    -0.090 HD
ENDBRANCH   5  18
BRANCH   3  22
ATOM     22  C   LIG d   1       2.489  82.680 108.246  0.00  0.00     0.382 C 
ATOM     23  O   LIG d   1       1.860  83.391 107.426  0.00  0.00    -0.241 OA
ATOM     24  O   LIG d   1       2.889  81.552 107.899  0.00  0.00    -0.241 OA
ENDBRANCH   3  22
TORSDOF 7
ENDMDL
