MODEL 1
REMARK VINA RESULT:      -6.6      0.000      0.000
REMARK  7 active torsions:
REMARK  status: ('A' for Active; 'I' for Inactive)
REMARK    1  A    between atoms: C_2  and  C_3 
REMARK    2  A    between atoms: C_3  and  O_6 
REMARK    3  A    between atoms: C_3  and  C_4 
REMARK    4  A    between atoms: C_7  and  O_6 
REMARK    5  A    between atoms: C_9  and  C_10 
REMARK    6  A    between atoms: N_15  and  C_14 
REMARK    7  A    between atoms: N_20  and  C_19 
REMARK       I    between atoms: C_22  and  N_20 
ROOT
ATOM      1  C   LIG d   1       0.411  82.440 111.033  0.00  0.00     0.161 C 
ATOM      2  C   LIG d   1      -0.699  82.218 111.865  0.00  0.00     0.016 C 
ATOM      3  C   LIG d   1      -1.265  80.941 112.084  0.00  0.00     0.038 C 
ATOM      4  C   LIG d   1      -0.662  79.770 111.601  0.00  0.00     0.028 C 
ATOM      5  C   LIG d   1       0.168  79.992 110.341  0.00  0.00    -0.047 C 
ATOM      6  C   LIG d   1       1.150  81.161 110.586  0.00  0.00     0.091 C 
ENDROOT
BRANCH   1   7
ATOM      7  O   LIG d   1       1.328  83.350 111.672  0.00  0.00    -0.368 OA
BRANCH   7   8
ATOM      8  C   LIG d   1       1.453  84.660 111.065  0.00  0.00     0.119 C 
BRANCH   8   9
ATOM      9  C   LIG d   1       0.531  84.687 109.830  0.00  0.00     0.028 C 
ATOM     10  C   LIG d   1      -0.528  85.800 109.913  0.00  0.00     0.006 C 
ENDBRANCH   8   9
BRANCH   8  11
ATOM     11  C   LIG d   1       2.866  84.889 110.521  0.00  0.00     0.028 C 
ATOM     12  C   LIG d   1       3.585  86.062 111.207  0.00  0.00     0.006 C 
ENDBRANCH   8  11
ENDBRANCH   7   8
ENDBRANCH   1   7
BRANCH   6  13
ATOM     13  N   LIG d   1       1.942  81.499 109.375  0.00  0.00    -0.311 N 
ATOM     14  C   LIG d   1       3.273  81.503 109.347  0.00  0.00     0.210 C 
ATOM     15  C   LIG d   1       3.891  81.900 108.003  0.00  0.00     0.109 C 
ATOM     16  O   LIG d   1       4.001  81.185 110.299  0.00  0.00    -0.276 OA
ATOM     17  H   LIG d   1       1.431  81.739 108.548  0.00  0.00     0.149 HD
ENDBRANCH   6  13
BRANCH   5  18
ATOM     18  N   LIG d   1       0.849  78.721 110.027  0.00  0.00     0.381 N 
ATOM     19  H   LIG d   1       0.242  77.953 110.230  0.00  0.00    -0.090 HD
ATOM     20  H   LIG d   1       1.667  78.639 110.605  0.00  0.00    -0.090 HD
ATOM     21  H   LIG d   1       1.109  78.703 109.065  0.00  0.00    -0.090 HD
ENDBRANCH   5  18
BRANCH   3  22
ATOM     22  C   LIG d   1      -2.470  80.831 112.761  0.00  0.00     0.382 C 
ATOM     23  O   LIG d   1      -3.057  81.862 113.168  0.00  0.00    -0.241 OA
ATOM     24  O   LIG d   1      -2.956  79.711 113.007  0.00  0.00    -0.241 OA
ENDBRANCH   3  22
TORSDOF 7
ENDMDL
MODEL 2
REMARK VINA RESULT:      -6.5      2.611      4.587
REMARK  7 active torsions:
REMARK  status: ('A' for Active; 'I' for Inactive)
REMARK    1  A    between atoms: C_2  and  C_3 
REMARK    2  A    between atoms: C_3  and  O_6 
REMARK    3  A    between atoms: C_3  and  C_4 
REMARK    4  A    between atoms: C_7  and  O_6 
REMARK    5  A    between atoms: C_9  and  C_10 
REMARK    6  A    between atoms: N_15  and  C_14 
REMARK    7  A    between atoms: N_20  and  C_19 
REMARK       I    between atoms: C_22  and  N_20 
ROOT
ATOM      1  C   LIG d   1       2.180  83.206 111.978  0.00  0.00     0.161 C 
ATOM      2  C   LIG d   1       1.100  82.307 111.983  0.00  0.00     0.016 C 
ATOM      3  C   LIG d   1      -0.252  82.716 112.036  0.00  0.00     0.038 C 
ATOM      4  C   LIG d   1      -0.624  84.065 111.934  0.00  0.00     0.028 C 
ATOM      5  C   LIG d   1       0.447  85.028 112.436  0.00  0.00    -0.047 C 
ATOM      6  C   LIG d   1       1.791  84.682 111.754  0.00  0.00     0.091 C 
ENDROOT
BRANCH   1   7
ATOM      7  O   LIG d   1       3.156  82.791 111.002  0.00  0.00    -0.368 OA
BRANCH   7   8
ATOM      8  C   LIG d   1       2.656  81.999 109.897  0.00  0.00     0.119 C 
BRANCH   8   9
ATOM      9  C   LIG d   1       3.581  80.776 109.748  0.00  0.00     0.028 C 
ATOM     10  C   LIG d   1       5.070  81.162 109.752  0.00  0.00     0.006 C 
ENDBRANCH   8   9
BRANCH   8  11
ATOM     11  C   LIG d   1       2.769  82.757 108.571  0.00  0.00     0.028 C 
ATOM     12  C   LIG d   1       1.509  83.571 108.240  0.00  0.00     0.006 C 
ENDBRANCH   8  11
ENDBRANCH   7   8
ENDBRANCH   1   7
BRANCH   6  13
ATOM     13  N   LIG d   1       2.911  85.523 112.252  0.00  0.00    -0.311 N 
ATOM     14  C   LIG d   1       3.230  86.705 111.727  0.00  0.00     0.210 C 
ATOM     15  C   LIG d   1       4.432  87.398 112.377  0.00  0.00     0.109 C 
ATOM     16  O   LIG d   1       2.611  87.261 110.807  0.00  0.00    -0.276 OA
ATOM     17  H   LIG d   1       3.447  85.163 113.017  0.00  0.00     0.149 HD
ENDBRANCH   6  13
BRANCH   5  18
ATOM     18  N   LIG d   1      -0.014  86.398 112.144  0.00  0.00     0.381 N 
ATOM     19  H   LIG d   1       0.614  86.837 111.500  0.00  0.00    -0.090 HD
ATOM     20  H   LIG d   1      -0.013  86.930 112.997  0.00  0.00    -0.090 HD
ATOM     21  H   LIG d   1      -0.933  86.374 111.760  0.00  0.00    -0.090 HD
ENDBRANCH   5  18
BRANCH   3  22
ATOM     22  C   LIG d   1      -1.248  81.771 112.233  0.00  0.00     0.382 C 
ATOM     23  O   LIG d   1      -1.120  80.617 111.759  0.00  0.00    -0.241 OA
ATOM     24  O   LIG d   1      -2.293  82.072 112.840  0.00  0.00    -0.241 OA
ENDBRANCH   3  22
TORSDOF 7
ENDMDL
MODEL 3
REMARK VINA RESULT:      -6.2      2.488      5.089
REMARK  7 active torsions:
REMARK  status: ('A' for Active; 'I' for Inactive)
REMARK    1  A    between atoms: C_2  and  C_3 
REMARK    2  A    between atoms: C_3  and  O_6 
REMARK    3  A    between atoms: C_3  and  C_4 
REMARK    4  A    between atoms: C_7  and  O_6 
REMARK    5  A    between atoms: C_9  and  C_10 
REMARK    6  A    between atoms: N_15  and  C_14 
REMARK    7  A    between atoms: N_20  and  C_19 
REMARK       I    between atoms: C_22  and  N_20 
ROOT
ATOM      1  C   LIG d   1       2.284  84.101 109.608  0.00  0.00     0.161 C 
ATOM      2  C   LIG d   1       2.408  85.393 110.144  0.00  0.00     0.016 C 
ATOM      3  C   LIG d   1       1.479  85.951 111.052  0.00  0.00     0.038 C 
ATOM      4  C   LIG d   1       0.437  85.193 111.607  0.00  0.00     0.028 C 
ATOM      5  C   LIG d   1      -0.020  84.046 110.711  0.00  0.00    -0.047 C 
ATOM      6  C   LIG d   1       1.215  83.219 110.286  0.00  0.00     0.091 C 
ENDROOT
BRANCH   1   7
ATOM      7  O   LIG d   1       3.565  83.439 109.626  0.00  0.00    -0.368 OA
BRANCH   7   8
ATOM      8  C   LIG d   1       3.757  82.452 110.669  0.00  0.00     0.119 C 
BRANCH   8   9
ATOM      9  C   LIG d   1       4.648  83.090 111.752  0.00  0.00     0.028 C 
ATOM     10  C   LIG d   1       3.848  83.509 112.998  0.00  0.00     0.006 C 
ENDBRANCH   8   9
BRANCH   8  11
ATOM     11  C   LIG d   1       4.546  81.245 110.155  0.00  0.00     0.028 C 
ATOM     12  C   LIG d   1       5.149  81.477 108.760  0.00  0.00     0.006 C 
ENDBRANCH   8  11
ENDBRANCH   7   8
ENDBRANCH   1   7
BRANCH   6  13
ATOM     13  N   LIG d   1       0.867  82.127 109.340  0.00  0.00    -0.311 N 
ATOM     14  C   LIG d   1       0.576  80.886 109.727  0.00  0.00     0.210 C 
ATOM     15  C   LIG d   1       0.265  79.909 108.589  0.00  0.00     0.109 C 
ATOM     16  O   LIG d   1       0.516  80.510 110.908  0.00  0.00    -0.276 OA
ATOM     17  H   LIG d   1       0.862  82.352 108.364  0.00  0.00     0.149 HD
ENDBRANCH   6  13
BRANCH   5  18
ATOM     18  N   LIG d   1      -1.011  83.258 111.468  0.00  0.00     0.381 N 
ATOM     19  H   LIG d   1      -1.880  83.751 111.504  0.00  0.00    -0.090 HD
ATOM     20  H   LIG d   1      -0.679  83.135 112.408  0.00  0.00    -0.090 HD
ATOM     21  H   LIG d   1      -1.143  82.370 111.035  0.00  0.00    -0.090 HD
ENDBRANCH   5  18
BRANCH   3  22
ATOM     22  C   LIG d   1       1.565  87.294 111.385  0.00  0.00     0.382 C 
ATOM     23  O   LIG d   1       2.670  87.886 111.325  0.00  0.00    -0.241 OA
ATOM     24  O   LIG d   1       0.560  87.911 111.787  0.00  0.00    -0.241 OA
ENDBRANCH   3  22
TORSDOF 7
ENDMDL
MODEL 4
REMARK VINA RESULT:      -6.0      2.263      4.959
REMARK  7 active torsions:
REMARK  status: ('A' for Active; 'I' for Inactive)
REMARK    1  A    between atoms: C_2  and  C_3 
REMARK    2  A    between atoms: C_3  and  O_6 
REMARK    3  A    between atoms: C_3  and  C_4 
REMARK    4  A    between atoms: C_7  and  O_6 
REMARK    5  A    between atoms: C_9  and  C_10 
REMARK    6  A    between atoms: N_15  and  C_14 
REMARK    7  A    between atoms: N_20  and  C_19 
REMARK       I    between atoms: C_22  and  N_20 
ROOT
ATOM      1  C   LIG d   1       0.765  82.842 111.024  0.00  0.00     0.161 C 
ATOM      2  C   LIG d   1      -0.234  83.779 111.338  0.00  0.00     0.016 C 
ATOM      3  C   LIG d   1      -0.021  85.176 111.325  0.00  0.00     0.038 C 
ATOM      4  C   LIG d   1       1.172  85.740 110.849  0.00  0.00     0.028 C 
ATOM      5  C   LIG d   1       2.379  84.822 111.001  0.00  0.00    -0.047 C 
ATOM      6  C   LIG d   1       2.039  83.441 110.395  0.00  0.00     0.091 C 
ENDROOT
BRANCH   1   7
ATOM      7  O   LIG d   1       0.221  81.814 110.172  0.00  0.00    -0.368 OA
BRANCH   7   8
ATOM      8  C   LIG d   1       0.407  80.449 110.621  0.00  0.00     0.119 C 
BRANCH   8   9
ATOM      9  C   LIG d   1       0.455  79.553 109.369  0.00  0.00     0.028 C 
ATOM     10  C   LIG d   1       1.892  79.170 108.976  0.00  0.00     0.006 C 
ENDBRANCH   8   9
BRANCH   8  11
ATOM     11  C   LIG d   1      -0.801  79.958 111.425  0.00  0.00     0.028 C 
ATOM     12  C   LIG d   1      -1.293  78.573 110.974  0.00  0.00     0.006 C 
ENDBRANCH   8  11
ENDBRANCH   7   8
ENDBRANCH   1   7
BRANCH   6  13
ATOM     13  N   LIG d   1       3.137  82.456 110.577  0.00  0.00    -0.311 N 
ATOM     14  C   LIG d   1       4.069  82.219 109.656  0.00  0.00     0.210 C 
ATOM     15  C   LIG d   1       5.098  81.150 110.038  0.00  0.00     0.109 C 
ATOM     16  O   LIG d   1       4.161  82.814 108.572  0.00  0.00    -0.276 OA
ATOM     17  H   LIG d   1       3.157  81.950 111.441  0.00  0.00     0.149 HD
ENDBRANCH   6  13
BRANCH   5  18
ATOM     18  N   LIG d   1       3.524  85.478 110.341  0.00  0.00     0.381 N 
ATOM     19  H   LIG d   1       3.222  86.324 109.901  0.00  0.00    -0.090 HD
ATOM     20  H   LIG d   1       3.885  84.864 109.631  0.00  0.00    -0.090 HD
ATOM     21  H   LIG d   1       4.235  85.678 111.010  0.00  0.00    -0.090 HD
ENDBRANCH   5  18
BRANCH   3  22
ATOM     22  C   LIG d   1      -0.995  86.024 111.831  0.00  0.00     0.382 C 
ATOM     23  O   LIG d   1      -1.582  86.829 111.069  0.00  0.00    -0.241 OA
ATOM     24  O   LIG d   1      -1.261  86.025 113.048  0.00  0.00    -0.241 OA
ENDBRANCH   3  22
TORSDOF 7
ENDMDL
MODEL 5
REMARK VINA RESULT:      -6.0      2.469      4.178
REMARK  7 active torsions:
REMARK  status: ('A' for Active; 'I' for Inactive)
REMARK    1  A    between atoms: C_2  and  C_3 
REMARK    2  A    between atoms: C_3  and  O_6 
REMARK    3  A    between atoms: C_3  and  C_4 
REMARK    4  A    between atoms: C_7  and  O_6 
REMARK    5  A    between atoms: C_9  and  C_10 
REMARK    6  A    between atoms: N_15  and  C_14 
REMARK    7  A    between atoms: N_20  and  C_19 
REMARK       I    between atoms: C_22  and  N_20 
ROOT
ATOM      1  C   LIG d   1       2.026  82.936 112.198  0.00  0.00     0.161 C 
ATOM      2  C   LIG d   1       0.930  82.061 112.290  0.00  0.00     0.016 C 
ATOM      3  C   LIG d   1      -0.416  82.493 112.251  0.00  0.00     0.038 C 
ATOM      4  C   LIG d   1      -0.760  83.822 111.963  0.00  0.00     0.028 C 
ATOM      5  C   LIG d   1       0.315  84.826 112.365  0.00  0.00    -0.047 C 
ATOM      6  C   LIG d   1       1.670  84.375 111.772  0.00  0.00     0.091 C 
ENDROOT
BRANCH   1   7
ATOM      7  O   LIG d   1       3.019  82.382 111.312  0.00  0.00    -0.368 OA
BRANCH   7   8
ATOM      8  C   LIG d   1       2.810  82.612 109.897  0.00  0.00     0.119 C 
BRANCH   8   9
ATOM      9  C   LIG d   1       2.413  81.265 109.263  0.00  0.00     0.028 C 
ATOM     10  C   LIG d   1       0.905  81.175 108.972  0.00  0.00     0.006 C 
ENDBRANCH   8   9
BRANCH   8  11
ATOM     11  C   LIG d   1       4.112  83.020 109.200  0.00  0.00     0.028 C 
ATOM     12  C   LIG d   1       5.194  81.931 109.275  0.00  0.00     0.006 C 
ENDBRANCH   8  11
ENDBRANCH   7   8
ENDBRANCH   1   7
BRANCH   6  13
ATOM     13  N   LIG d   1       2.792  85.257 112.187  0.00  0.00    -0.311 N 
ATOM     14  C   LIG d   1       3.152  86.350 111.515  0.00  0.00     0.210 C 
ATOM     15  C   LIG d   1       4.348  87.105 112.104  0.00  0.00     0.109 C 
ATOM     16  O   LIG d   1       2.575  86.783 110.507  0.00  0.00    -0.276 OA
ATOM     17  H   LIG d   1       3.295  84.998 113.012  0.00  0.00     0.149 HD
ENDBRANCH   6  13
BRANCH   5  18
ATOM     18  N   LIG d   1      -0.113  86.154 111.884  0.00  0.00     0.381 N 
ATOM     19  H   LIG d   1      -1.102  86.253 111.999  0.00  0.00    -0.090 HD
ATOM     20  H   LIG d   1       0.099  86.229 110.905  0.00  0.00    -0.090 HD
ATOM     21  H   LIG d   1       0.361  86.869 112.390  0.00  0.00    -0.090 HD
ENDBRANCH   5  18
BRANCH   3  22
ATOM     22  C   LIG d   1      -1.433  81.597 112.541  0.00  0.00     0.382 C 
ATOM     23  O   LIG d   1      -1.253  80.367 112.374  0.00  0.00    -0.241 OA
ATOM     24  O   LIG d   1      -2.545  82.007 112.927  0.00  0.00    -0.241 OA
ENDBRANCH   3  22
TORSDOF 7
ENDMDL
MODEL 6
REMARK VINA RESULT:      -5.8      1.747      5.069
REMARK  7 active torsions:
REMARK  status: ('A' for Active; 'I' for Inactive)
REMARK    1  A    between atoms: C_2  and  C_3 
REMARK    2  A    between atoms: C_3  and  O_6 
REMARK    3  A    between atoms: C_3  and  C_4 
REMARK    4  A    between atoms: C_7  and  O_6 
REMARK    5  A    between atoms: C_9  and  C_10 
REMARK    6  A    between atoms: N_15  and  C_14 
REMARK    7  A    between atoms: N_20  and  C_19 
REMARK       I    between atoms: C_22  and  N_20 
ROOT
ATOM      1  C   LIG d   1       1.920  81.764 111.565  0.00  0.00     0.161 C 
ATOM      2  C   LIG d   1       3.136  81.980 110.896  0.00  0.00     0.016 C 
ATOM      3  C   LIG d   1       3.319  81.737 109.515  0.00  0.00     0.038 C 
ATOM      4  C   LIG d   1       2.248  81.403 108.673  0.00  0.00     0.028 C 
ATOM      5  C   LIG d   1       1.112  80.685 109.394  0.00  0.00    -0.047 C 
ATOM      6  C   LIG d   1       0.711  81.506 110.641  0.00  0.00     0.091 C 
ENDROOT
BRANCH   1   7
ATOM      7  O   LIG d   1       1.647  82.867 112.451  0.00  0.00    -0.368 OA
BRANCH   7   8
ATOM      8  C   LIG d   1       2.111  84.167 112.012  0.00  0.00     0.119 C 
BRANCH   8   9
ATOM      9  C   LIG d   1       2.351  85.023 113.271  0.00  0.00     0.028 C 
ATOM     10  C   LIG d   1       1.872  84.325 114.555  0.00  0.00     0.006 C 
ENDBRANCH   8   9
BRANCH   8  11
ATOM     11  C   LIG d   1       1.029  84.907 111.220  0.00  0.00     0.028 C 
ATOM     12  C   LIG d   1       1.466  85.243 109.785  0.00  0.00     0.006 C 
ENDBRANCH   8  11
ENDBRANCH   7   8
ENDBRANCH   1   7
BRANCH   6  13
ATOM     13  N   LIG d   1      -0.338  80.831 111.451  0.00  0.00    -0.311 N 
ATOM     14  C   LIG d   1      -1.358  81.477 112.013  0.00  0.00     0.210 C 
ATOM     15  C   LIG d   1      -2.314  80.595 112.822  0.00  0.00     0.109 C 
ATOM     16  O   LIG d   1      -1.580  82.691 111.892  0.00  0.00    -0.276 OA
ATOM     17  H   LIG d   1      -0.253  79.842 111.574  0.00  0.00     0.149 HD
ENDBRANCH   6  13
BRANCH   5  18
ATOM     18  N   LIG d   1       0.007  80.520 108.431  0.00  0.00     0.381 N 
ATOM     19  H   LIG d   1       0.177  79.721 107.853  0.00  0.00    -0.090 HD
ATOM     20  H   LIG d   1      -0.034  81.333 107.841  0.00  0.00    -0.090 HD
ATOM     21  H   LIG d   1      -0.856  80.410 108.917  0.00  0.00    -0.090 HD
ENDBRANCH   5  18
BRANCH   3  22
ATOM     22  C   LIG d   1       4.593  81.789 108.971  0.00  0.00     0.382 C 
ATOM     23  O   LIG d   1       4.765  82.263 107.822  0.00  0.00    -0.241 OA
ATOM     24  O   LIG d   1       5.566  81.328 109.597  0.00  0.00    -0.241 OA
ENDBRANCH   3  22
TORSDOF 7
ENDMDL
MODEL 7
REMARK VINA RESULT:      -5.7      3.171      6.086
REMARK  7 active torsions:
REMARK  status: ('A' for Active; 'I' for Inactive)
REMARK    1  A    between atoms: C_2  and  C_3 
REMARK    2  A    between atoms: C_3  and  O_6 
REMARK    3  A    between atoms: C_3  and  C_4 
REMARK    4  A    between atoms: C_7  and  O_6 
REMARK    5  A    between atoms: C_9  and  C_10 
REMARK    6  A    between atoms: N_15  and  C_14 
REMARK    7  A    between atoms: N_20  and  C_19 
REMARK       I    between atoms: C_22  and  N_20 
ROOT
ATOM      1  C   LIG d   1       3.062  85.317 111.327  0.00  0.00     0.161 C 
ATOM      2  C   LIG d   1       3.227  86.600 111.876  0.00  0.00     0.016 C 
ATOM      3  C   LIG d   1       2.187  87.555 111.948  0.00  0.00     0.038 C 
ATOM      4  C   LIG d   1       0.863  87.237 111.610  0.00  0.00     0.028 C 
ATOM      5  C   LIG d   1       0.753  86.118 110.580  0.00  0.00    -0.047 C 
ATOM      6  C   LIG d   1       1.597  84.914 111.055  0.00  0.00     0.091 C 
ENDROOT
BRANCH   1   7
ATOM      7  O   LIG d   1       3.703  84.339 112.169  0.00  0.00    -0.368 OA
BRANCH   7   8
ATOM      8  C   LIG d   1       3.643  82.966 111.710  0.00  0.00     0.119 C 
BRANCH   8   9
ATOM      9  C   LIG d   1       3.224  82.095 112.911  0.00  0.00     0.028 C 
ATOM     10  C   LIG d   1       3.616  82.725 114.258  0.00  0.00     0.006 C 
ENDBRANCH   8   9
BRANCH   8  11
ATOM     11  C   LIG d   1       5.027  82.454 111.301  0.00  0.00     0.028 C 
ATOM     12  C   LIG d   1       4.972  81.456 110.134  0.00  0.00     0.006 C 
ENDBRANCH   8  11
ENDBRANCH   7   8
ENDBRANCH   1   7
BRANCH   6  13
ATOM     13  N   LIG d   1       1.612  83.806 110.065  0.00  0.00    -0.311 N 
ATOM     14  C   LIG d   1       0.686  82.851 110.019  0.00  0.00     0.210 C 
ATOM     15  C   LIG d   1       0.901  81.793 108.932  0.00  0.00     0.109 C 
ATOM     16  O   LIG d   1      -0.312  82.797 110.754  0.00  0.00    -0.276 OA
ATOM     17  H   LIG d   1       2.370  83.790 109.410  0.00  0.00     0.149 HD
ENDBRANCH   6  13
BRANCH   5  18
ATOM     18  N   LIG d   1      -0.678  85.796 110.424  0.00  0.00     0.381 N 
ATOM     19  H   LIG d   1      -1.227  86.408 110.993  0.00  0.00    -0.090 HD
ATOM     20  H   LIG d   1      -0.834  84.853 110.733  0.00  0.00    -0.090 HD
ATOM     21  H   LIG d   1      -0.946  85.889 109.469  0.00  0.00    -0.090 HD
ENDBRANCH   5  18
BRANCH   3  22
ATOM     22  C   LIG d   1       2.476  88.858 112.324  0.00  0.00     0.382 C 
ATOM     23  O   LIG d   1       1.571  89.727 112.320  0.00  0.00    -0.241 OA
ATOM     24  O   LIG d   1       3.639  89.186 112.625  0.00  0.00    -0.241 OA
ENDBRANCH   3  22
TORSDOF 7
ENDMDL
MODEL 8
REMARK VINA RESULT:      -5.6      2.355      4.596
REMARK  7 active torsions:
REMARK  status: ('A' for Active; 'I' for Inactive)
REMARK    1  A    between atoms: C_2  and  C_3 
REMARK    2  A    between atoms: C_3  and  O_6 
REMARK    3  A    between atoms: C_3  and  C_4 
REMARK    4  A    between atoms: C_7  and  O_6 
REMARK    5  A    between atoms: C_9  and  C_10 
REMARK    6  A    between atoms: N_15  and  C_14 
REMARK    7  A    between atoms: N_20  and  C_19 
REMARK       I    between atoms: C_22  and  N_20 
ROOT
ATOM      1  C   LIG d   1       1.457  82.972 111.152  0.00  0.00     0.161 C 
ATOM      2  C   LIG d   1       0.646  83.823 111.922  0.00  0.00     0.016 C 
ATOM      3  C   LIG d   1      -0.062  84.921 111.382  0.00  0.00     0.038 C 
ATOM      4  C   LIG d   1      -0.127  85.154 110.000  0.00  0.00     0.028 C 
ATOM      5  C   LIG d   1       1.082  84.623 109.238  0.00  0.00    -0.047 C 
ATOM      6  C   LIG d   1       1.309  83.144 109.626  0.00  0.00     0.091 C 
ENDROOT
BRANCH   1   7
ATOM      7  O   LIG d   1       1.220  81.600 111.527  0.00  0.00    -0.368 OA
BRANCH   7   8
ATOM      8  C   LIG d   1      -0.007  81.008 111.035  0.00  0.00     0.119 C 
BRANCH   8   9
ATOM      9  C   LIG d   1      -0.845  80.594 112.259  0.00  0.00     0.028 C 
ATOM     10  C   LIG d   1      -1.588  79.265 112.040  0.00  0.00     0.006 C 
ENDBRANCH   8   9
BRANCH   8  11
ATOM     11  C   LIG d   1       0.269  79.707 110.274  0.00  0.00     0.028 C 
ATOM     12  C   LIG d   1       0.112  79.862 108.753  0.00  0.00     0.006 C 
ENDBRANCH   8  11
ENDBRANCH   7   8
ENDBRANCH   1   7
BRANCH   6  13
ATOM     13  N   LIG d   1       2.524  82.570 108.989  0.00  0.00    -0.311 N 
ATOM     14  C   LIG d   1       3.740  83.095 109.126  0.00  0.00     0.210 C 
ATOM     15  C   LIG d   1       4.851  82.359 108.370  0.00  0.00     0.109 C 
ATOM     16  O   LIG d   1       4.010  84.080 109.829  0.00  0.00    -0.276 OA
ATOM     17  H   LIG d   1       2.400  81.752 108.426  0.00  0.00     0.149 HD
ENDBRANCH   6  13
BRANCH   5  18
ATOM     18  N   LIG d   1       0.819  84.809 107.798  0.00  0.00     0.381 N 
ATOM     19  H   LIG d   1      -0.152  84.662 107.610  0.00  0.00    -0.090 HD
ATOM     20  H   LIG d   1       1.348  84.129 107.281  0.00  0.00    -0.090 HD
ATOM     21  H   LIG d   1       1.084  85.728 107.520  0.00  0.00    -0.090 HD
ENDBRANCH   5  18
BRANCH   3  22
ATOM     22  C   LIG d   1      -0.682  85.824 112.232  0.00  0.00     0.382 C 
ATOM     23  O   LIG d   1      -1.664  86.492 111.829  0.00  0.00    -0.241 OA
ATOM     24  O   LIG d   1      -0.243  86.012 113.382  0.00  0.00    -0.241 OA
ENDBRANCH   3  22
TORSDOF 7
ENDMDL
MODEL 9
REMARK VINA RESULT:      -5.6      2.460      4.519
REMARK  7 active torsions:
REMARK  status: ('A' for Active; 'I' for Inactive)
REMARK    1  A    between atoms: C_2  and  C_3 
REMARK    2  A    between atoms: C_3  and  O_6 
REMARK    3  A    between atoms: C_3  and  C_4 
REMARK    4  A    between atoms: C_7  and  O_6 
REMARK    5  A    between atoms: C_9  and  C_10 
REMARK    6  A    between atoms: N_15  and  C_14 
REMARK    7  A    between atoms: N_20  and  C_19 
REMARK       I    between atoms: C_22  and  N_20 
ROOT
ATOM      1  C   LIG d   1       1.707  83.477 110.853  0.00  0.00     0.161 C 
ATOM      2  C   LIG d   1       1.280  84.813 110.938  0.00  0.00     0.016 C 
ATOM      3  C   LIG d   1       0.080  85.207 111.574  0.00  0.00     0.038 C 
ATOM      4  C   LIG d   1      -0.704  84.302 112.304  0.00  0.00     0.028 C 
ATOM      5  C   LIG d   1      -0.577  82.862 111.818  0.00  0.00    -0.047 C 
ATOM      6  C   LIG d   1       0.921  82.489 111.740  0.00  0.00     0.091 C 
ENDROOT
BRANCH   1   7
ATOM      7  O   LIG d   1       3.117  83.396 111.140  0.00  0.00    -0.368 OA
BRANCH   7   8
ATOM      8  C   LIG d   1       3.857  82.379 110.421  0.00  0.00     0.119 C 
BRANCH   8   9
ATOM      9  C   LIG d   1       5.054  81.968 111.300  0.00  0.00     0.028 C 
ATOM     10  C   LIG d   1       4.806  82.241 112.793  0.00  0.00     0.006 C 
ENDBRANCH   8   9
BRANCH   8  11
ATOM     11  C   LIG d   1       4.472  82.940 109.136  0.00  0.00     0.028 C 
ATOM     12  C   LIG d   1       4.136  82.096 107.896  0.00  0.00     0.006 C 
ENDBRANCH   8  11
ENDBRANCH   7   8
ENDBRANCH   1   7
BRANCH   6  13
ATOM     13  N   LIG d   1       1.138  81.124 111.193  0.00  0.00    -0.311 N 
ATOM     14  C   LIG d   1       0.777  80.761 109.963  0.00  0.00     0.210 C 
ATOM     15  C   LIG d   1       1.074  79.301 109.607  0.00  0.00     0.109 C 
ATOM     16  O   LIG d   1       0.269  81.518 109.123  0.00  0.00    -0.276 OA
ATOM     17  H   LIG d   1       1.573  80.454 111.797  0.00  0.00     0.149 HD
ENDBRANCH   6  13
BRANCH   5  18
ATOM     18  N   LIG d   1      -1.337  82.008 112.751  0.00  0.00     0.381 N 
ATOM     19  H   LIG d   1      -1.944  82.574 113.310  0.00  0.00    -0.090 HD
ATOM     20  H   LIG d   1      -0.691  81.540 113.362  0.00  0.00    -0.090 HD
ATOM     21  H   LIG d   1      -1.870  81.338 112.243  0.00  0.00    -0.090 HD
ENDBRANCH   5  18
BRANCH   3  22
ATOM     22  C   LIG d   1      -0.367  86.514 111.448  0.00  0.00     0.382 C 
ATOM     23  O   LIG d   1      -1.531  86.741 111.040  0.00  0.00    -0.241 OA
ATOM     24  O   LIG d   1       0.394  87.468 111.696  0.00  0.00    -0.241 OA
ENDBRANCH   3  22
TORSDOF 7
ENDMDL
