MODEL 1
REMARK VINA RESULT:      -6.6      0.000      0.000
REMARK  7 active torsions:
REMARK  status: ('A' for Active; 'I' for Inactive)
REMARK    1  A    between atoms: C_2  and  C_3 
REMARK    2  A    between atoms: C_3  and  O_6 
REMARK    3  A    between atoms: C_3  and  C_4 
REMARK    4  A    between atoms: C_7  and  O_6 
REMARK    5  A    between atoms: C_9  and  C_10 
REMARK    6  A    between atoms: N_15  and  C_14 
REMARK    7  A    between atoms: N_20  and  C_19 
REMARK       I    between atoms: C_22  and  N_20 
ROOT
ATOM      1  C   LIG d   1       1.557  83.460 111.406  0.00  0.00     0.161 C 
ATOM      2  C   LIG d   1       2.428  83.238 110.327  0.00  0.00     0.016 C 
ATOM      3  C   LIG d   1       2.388  82.078 109.520  0.00  0.00     0.038 C 
ATOM      4  C   LIG d   1       1.368  81.123 109.645  0.00  0.00     0.028 C 
ATOM      5  C   LIG d   1       0.770  81.056 111.046  0.00  0.00    -0.047 C 
ATOM      6  C   LIG d   1       0.367  82.481 111.488  0.00  0.00     0.091 C 
ENDROOT
BRANCH   1   7
ATOM      7  O   LIG d   1       1.085  84.821 111.381  0.00  0.00    -0.368 OA
BRANCH   7   8
ATOM      8  C   LIG d   1       1.814  85.734 110.524  0.00  0.00     0.119 C 
BRANCH   8   9
ATOM      9  C   LIG d   1       2.469  86.795 111.429  0.00  0.00     0.028 C 
ATOM     10  C   LIG d   1       3.989  86.600 111.557  0.00  0.00     0.006 C 
ENDBRANCH   8   9
BRANCH   8  11
ATOM     11  C   LIG d   1       0.868  86.511 109.605  0.00  0.00     0.028 C 
ATOM     12  C   LIG d   1      -0.591  86.040 109.714  0.00  0.00     0.006 C 
ENDBRANCH   8  11
ENDBRANCH   7   8
ENDBRANCH   1   7
BRANCH   6  13
ATOM     13  N   LIG d   1      -0.150  82.517 112.881  0.00  0.00    -0.311 N 
ATOM     14  C   LIG d   1      -1.445  82.437 113.185  0.00  0.00     0.210 C 
ATOM     15  C   LIG d   1      -1.763  82.514 114.681  0.00  0.00     0.109 C 
ATOM     16  O   LIG d   1      -2.356  82.276 112.360  0.00  0.00    -0.276 OA
ATOM     17  H   LIG d   1       0.523  82.614 113.615  0.00  0.00     0.149 HD
ENDBRANCH   6  13
BRANCH   5  18
ATOM     18  N   LIG d   1      -0.370  80.121 110.999  0.00  0.00     0.381 N 
ATOM     19  H   LIG d   1      -0.169  79.313 111.555  0.00  0.00    -0.090 HD
ATOM     20  H   LIG d   1      -0.508  79.823 110.050  0.00  0.00    -0.090 HD
ATOM     21  H   LIG d   1      -1.193  80.569 111.337  0.00  0.00    -0.090 HD
ENDBRANCH   5  18
BRANCH   3  22
ATOM     22  C   LIG d   1       3.400  81.845 108.601  0.00  0.00     0.382 C 
ATOM     23  O   LIG d   1       3.404  82.455 107.505  0.00  0.00    -0.241 OA
ATOM     24  O   LIG d   1       4.284  80.999 108.836  0.00  0.00    -0.241 OA
ENDBRANCH   3  22
TORSDOF 7
ENDMDL
MODEL 2
REMARK VINA RESULT:      -6.6      1.632      4.901
REMARK  7 active torsions:
REMARK  status: ('A' for Active; 'I' for Inactive)
REMARK    1  A    between atoms: C_2  and  C_3 
REMARK    2  A    between atoms: C_3  and  O_6 
REMARK    3  A    between atoms: C_3  and  C_4 
REMARK    4  A    between atoms: C_7  and  O_6 
REMARK    5  A    between atoms: C_9  and  C_10 
REMARK    6  A    between atoms: N_15  and  C_14 
REMARK    7  A    between atoms: N_20  and  C_19 
REMARK       I    between atoms: C_22  and  N_20 
ROOT
ATOM      1  C   LIG d   1       0.164  83.167 111.350  0.00  0.00     0.161 C 
ATOM      2  C   LIG d   1      -0.959  82.902 112.152  0.00  0.00     0.016 C 
ATOM      3  C   LIG d   1      -1.443  81.598 112.405  0.00  0.00     0.038 C 
ATOM      4  C   LIG d   1      -0.743  80.454 111.994  0.00  0.00     0.028 C 
ATOM      5  C   LIG d   1       0.117  80.683 110.756  0.00  0.00    -0.047 C 
ATOM      6  C   LIG d   1       1.005  81.927 110.984  0.00  0.00     0.091 C 
ENDROOT
BRANCH   1   7
ATOM      7  O   LIG d   1       0.990  84.165 111.981  0.00  0.00    -0.368 OA
BRANCH   7   8
ATOM      8  C   LIG d   1       0.990  85.476 111.365  0.00  0.00     0.119 C 
BRANCH   8   9
ATOM      9  C   LIG d   1      -0.179  85.516 110.361  0.00  0.00     0.028 C 
ATOM     10  C   LIG d   1       0.235  86.104 109.001  0.00  0.00     0.006 C 
ENDBRANCH   8   9
BRANCH   8  11
ATOM     11  C   LIG d   1       2.252  85.698 110.526  0.00  0.00     0.028 C 
ATOM     12  C   LIG d   1       3.531  85.226 111.238  0.00  0.00     0.006 C 
ENDBRANCH   8  11
ENDBRANCH   7   8
ENDBRANCH   1   7
BRANCH   6  13
ATOM     13  N   LIG d   1       1.818  82.271 109.788  0.00  0.00    -0.311 N 
ATOM     14  C   LIG d   1       3.075  81.867 109.615  0.00  0.00     0.210 C 
ATOM     15  C   LIG d   1       3.737  82.350 108.321  0.00  0.00     0.109 C 
ATOM     16  O   LIG d   1       3.694  81.128 110.395  0.00  0.00    -0.276 OA
ATOM     17  H   LIG d   1       1.383  82.842 109.090  0.00  0.00     0.149 HD
ENDBRANCH   6  13
BRANCH   5  18
ATOM     18  N   LIG d   1       0.895  79.452 110.520  0.00  0.00     0.381 N 
ATOM     19  H   LIG d   1       1.857  79.683 110.369  0.00  0.00    -0.090 HD
ATOM     20  H   LIG d   1       0.546  78.999 109.694  0.00  0.00    -0.090 HD
ATOM     21  H   LIG d   1       0.812  78.841 111.303  0.00  0.00    -0.090 HD
ENDBRANCH   5  18
BRANCH   3  22
ATOM     22  C   LIG d   1      -2.662  81.430 113.044  0.00  0.00     0.382 C 
ATOM     23  O   LIG d   1      -3.685  82.009 112.604  0.00  0.00    -0.241 OA
ATOM     24  O   LIG d   1      -2.744  80.743 114.079  0.00  0.00    -0.241 OA
ENDBRANCH   3  22
TORSDOF 7
ENDMDL
MODEL 3
REMARK VINA RESULT:      -6.1      2.456      5.557
REMARK  7 active torsions:
REMARK  status: ('A' for Active; 'I' for Inactive)
REMARK    1  A    between atoms: C_2  and  C_3 
REMARK    2  A    between atoms: C_3  and  O_6 
REMARK    3  A    between atoms: C_3  and  C_4 
REMARK    4  A    between atoms: C_7  and  O_6 
REMARK    5  A    between atoms: C_9  and  C_10 
REMARK    6  A    between atoms: N_15  and  C_14 
REMARK    7  A    between atoms: N_20  and  C_19 
REMARK       I    between atoms: C_22  and  N_20 
ROOT
ATOM      1  C   LIG d   1       0.307  83.326 111.842  0.00  0.00     0.161 C 
ATOM      2  C   LIG d   1      -0.031  84.670 112.074  0.00  0.00     0.016 C 
ATOM      3  C   LIG d   1       0.032  85.670 111.077  0.00  0.00     0.038 C 
ATOM      4  C   LIG d   1       0.294  85.363 109.733  0.00  0.00     0.028 C 
ATOM      5  C   LIG d   1       1.134  84.103 109.553  0.00  0.00    -0.047 C 
ATOM      6  C   LIG d   1       0.488  82.951 110.357  0.00  0.00     0.091 C 
ENDROOT
BRANCH   1   7
ATOM      7  O   LIG d   1      -0.668  82.463 112.461  0.00  0.00    -0.368 OA
BRANCH   7   8
ATOM      8  C   LIG d   1      -0.274  81.851 113.713  0.00  0.00     0.119 C 
BRANCH   8   9
ATOM      9  C   LIG d   1      -0.876  80.432 113.744  0.00  0.00     0.028 C 
ATOM     10  C   LIG d   1      -1.517  80.038 112.404  0.00  0.00     0.006 C 
ENDBRANCH   8   9
BRANCH   8  11
ATOM     11  C   LIG d   1      -0.894  82.580 114.910  0.00  0.00     0.028 C 
ATOM     12  C   LIG d   1      -2.417  82.738 114.787  0.00  0.00     0.006 C 
ENDBRANCH   8  11
ENDBRANCH   7   8
ENDBRANCH   1   7
BRANCH   6  13
ATOM     13  N   LIG d   1       1.293  81.702 110.303  0.00  0.00    -0.311 N 
ATOM     14  C   LIG d   1       0.869  80.582 109.720  0.00  0.00     0.210 C 
ATOM     15  C   LIG d   1       1.847  79.405 109.795  0.00  0.00     0.109 C 
ATOM     16  O   LIG d   1      -0.209  80.461 109.120  0.00  0.00    -0.276 OA
ATOM     17  H   LIG d   1       2.194  81.721 110.738  0.00  0.00     0.149 HD
ENDBRANCH   6  13
BRANCH   5  18
ATOM     18  N   LIG d   1       1.215  83.825 108.107  0.00  0.00     0.381 N 
ATOM     19  H   LIG d   1       1.772  83.009 107.950  0.00  0.00    -0.090 HD
ATOM     20  H   LIG d   1       1.659  84.602 107.650  0.00  0.00    -0.090 HD
ATOM     21  H   LIG d   1       0.301  83.689 107.734  0.00  0.00    -0.090 HD
ENDBRANCH   5  18
BRANCH   3  22
ATOM     22  C   LIG d   1      -0.130  87.002 111.429  0.00  0.00     0.382 C 
ATOM     23  O   LIG d   1      -1.260  87.541 111.340  0.00  0.00    -0.241 OA
ATOM     24  O   LIG d   1       0.847  87.683 111.791  0.00  0.00    -0.241 OA
ENDBRANCH   3  22
TORSDOF 7
ENDMDL
MODEL 4
REMARK VINA RESULT:      -6.0      2.424      4.816
REMARK  7 active torsions:
REMARK  status: ('A' for Active; 'I' for Inactive)
REMARK    1  A    between atoms: C_2  and  C_3 
REMARK    2  A    between atoms: C_3  and  O_6 
REMARK    3  A    between atoms: C_3  and  C_4 
REMARK    4  A    between atoms: C_7  and  O_6 
REMARK    5  A    between atoms: C_9  and  C_10 
REMARK    6  A    between atoms: N_15  and  C_14 
REMARK    7  A    between atoms: N_20  and  C_19 
REMARK       I    between atoms: C_22  and  N_20 
ROOT
ATOM      1  C   LIG d   1       2.736  83.404 111.961  0.00  0.00     0.161 C 
ATOM      2  C   LIG d   1       2.899  84.782 112.178  0.00  0.00     0.016 C 
ATOM      3  C   LIG d   1       2.540  85.767 111.230  0.00  0.00     0.038 C 
ATOM      4  C   LIG d   1       1.848  85.445 110.053  0.00  0.00     0.028 C 
ATOM      5  C   LIG d   1       2.115  84.026 109.562  0.00  0.00    -0.047 C 
ATOM      6  C   LIG d   1       1.882  83.040 110.729  0.00  0.00     0.091 C 
ENDROOT
BRANCH   1   7
ATOM      7  O   LIG d   1       2.198  82.783 113.145  0.00  0.00    -0.368 OA
BRANCH   7   8
ATOM      8  C   LIG d   1       0.755  82.796 113.272  0.00  0.00     0.119 C 
BRANCH   8   9
ATOM      9  C   LIG d   1       0.409  83.606 114.536  0.00  0.00     0.028 C 
ATOM     10  C   LIG d   1      -0.202  84.978 114.205  0.00  0.00     0.006 C 
ENDBRANCH   8   9
BRANCH   8  11
ATOM     11  C   LIG d   1       0.206  81.389 113.529  0.00  0.00     0.028 C 
ATOM     12  C   LIG d   1      -1.266  81.239 113.112  0.00  0.00     0.006 C 
ENDBRANCH   8  11
ENDBRANCH   7   8
ENDBRANCH   1   7
BRANCH   6  13
ATOM     13  N   LIG d   1       2.202  81.637 110.358  0.00  0.00    -0.311 N 
ATOM     14  C   LIG d   1       1.284  80.752 109.974  0.00  0.00     0.210 C 
ATOM     15  C   LIG d   1       1.825  79.354 109.656  0.00  0.00     0.109 C 
ATOM     16  O   LIG d   1       0.077  81.000 109.836  0.00  0.00    -0.276 OA
ATOM     17  H   LIG d   1       3.163  81.359 110.412  0.00  0.00     0.149 HD
ENDBRANCH   6  13
BRANCH   5  18
ATOM     18  N   LIG d   1       1.228  83.778 108.410  0.00  0.00     0.381 N 
ATOM     19  H   LIG d   1       1.776  83.600 107.592  0.00  0.00    -0.090 HD
ATOM     20  H   LIG d   1       0.673  84.600 108.244  0.00  0.00    -0.090 HD
ATOM     21  H   LIG d   1       0.635  83.000 108.597  0.00  0.00    -0.090 HD
ENDBRANCH   5  18
BRANCH   3  22
ATOM     22  C   LIG d   1       2.908  87.088 111.437  0.00  0.00     0.382 C 
ATOM     23  O   LIG d   1       2.033  87.987 111.457  0.00  0.00    -0.241 OA
ATOM     24  O   LIG d   1       4.108  87.397 111.561  0.00  0.00    -0.241 OA
ENDBRANCH   3  22
TORSDOF 7
ENDMDL
MODEL 5
REMARK VINA RESULT:      -5.8      2.850      5.439
REMARK  7 active torsions:
REMARK  status: ('A' for Active; 'I' for Inactive)
REMARK    1  A    between atoms: C_2  and  C_3 
REMARK    2  A    between atoms: C_3  and  O_6 
REMARK    3  A    between atoms: C_3  and  C_4 
REMARK    4  A    between atoms: C_7  and  O_6 
REMARK    5  A    between atoms: C_9  and  C_10 
REMARK    6  A    between atoms: N_15  and  C_14 
REMARK    7  A    between atoms: N_20  and  C_19 
REMARK       I    between atoms: C_22  and  N_20 
ROOT
ATOM      1  C   LIG d   1       2.078  84.544 112.135  0.00  0.00     0.161 C 
ATOM      2  C   LIG d   1       1.051  83.586 112.185  0.00  0.00     0.016 C 
ATOM      3  C   LIG d   1      -0.070  83.691 113.040  0.00  0.00     0.038 C 
ATOM      4  C   LIG d   1      -0.317  84.844 113.800  0.00  0.00     0.028 C 
ATOM      5  C   LIG d   1       0.948  85.614 114.162  0.00  0.00    -0.047 C 
ATOM      6  C   LIG d   1       1.770  85.862 112.876  0.00  0.00     0.091 C 
ENDROOT
BRANCH   1   7
ATOM      7  O   LIG d   1       2.431  84.810 110.764  0.00  0.00    -0.368 OA
BRANCH   7   8
ATOM      8  C   LIG d   1       2.105  83.771 109.808  0.00  0.00     0.119 C 
BRANCH   8   9
ATOM      9  C   LIG d   1       3.426  83.295 109.174  0.00  0.00     0.028 C 
ATOM     10  C   LIG d   1       3.962  82.011 109.828  0.00  0.00     0.006 C 
ENDBRANCH   8   9
BRANCH   8  11
ATOM     11  C   LIG d   1       1.274  84.324 108.646  0.00  0.00     0.028 C 
ATOM     12  C   LIG d   1       0.520  85.612 109.013  0.00  0.00     0.006 C 
ENDBRANCH   8  11
ENDBRANCH   7   8
ENDBRANCH   1   7
BRANCH   6  13
ATOM     13  N   LIG d   1       3.065  86.536 113.152  0.00  0.00    -0.311 N 
ATOM     14  C   LIG d   1       3.350  87.772 112.743  0.00  0.00     0.210 C 
ATOM     15  C   LIG d   1       4.750  88.269 113.117  0.00  0.00     0.109 C 
ATOM     16  O   LIG d   1       2.564  88.514 112.136  0.00  0.00    -0.276 OA
ATOM     17  H   LIG d   1       3.749  86.017 113.667  0.00  0.00     0.149 HD
ENDBRANCH   6  13
BRANCH   5  18
ATOM     18  N   LIG d   1       0.535  86.861 114.833  0.00  0.00     0.381 N 
ATOM     19  H   LIG d   1       0.769  86.817 115.804  0.00  0.00    -0.090 HD
ATOM     20  H   LIG d   1      -0.462  86.958 114.753  0.00  0.00    -0.090 HD
ATOM     21  H   LIG d   1       0.987  87.642 114.410  0.00  0.00    -0.090 HD
ENDBRANCH   5  18
BRANCH   3  22
ATOM     22  C   LIG d   1      -0.938  82.618 113.171  0.00  0.00     0.382 C 
ATOM     23  O   LIG d   1      -1.944  82.530 112.427  0.00  0.00    -0.241 OA
ATOM     24  O   LIG d   1      -0.751  81.759 114.054  0.00  0.00    -0.241 OA
ENDBRANCH   3  22
TORSDOF 7
ENDMDL
MODEL 6
REMARK VINA RESULT:      -5.7      2.191      4.776
REMARK  7 active torsions:
REMARK  status: ('A' for Active; 'I' for Inactive)
REMARK    1  A    between atoms: C_2  and  C_3 
REMARK    2  A    between atoms: C_3  and  O_6 
REMARK    3  A    between atoms: C_3  and  C_4 
REMARK    4  A    between atoms: C_7  and  O_6 
REMARK    5  A    between atoms: C_9  and  C_10 
REMARK    6  A    between atoms: N_15  and  C_14 
REMARK    7  A    between atoms: N_20  and  C_19 
REMARK       I    between atoms: C_22  and  N_20 
ROOT
ATOM      1  C   LIG d   1       2.542  84.479 110.961  0.00  0.00     0.161 C 
ATOM      2  C   LIG d   1       1.653  85.565 110.891  0.00  0.00     0.016 C 
ATOM      3  C   LIG d   1       0.266  85.420 110.662  0.00  0.00     0.038 C 
ATOM      4  C   LIG d   1      -0.355  84.162 110.637  0.00  0.00     0.028 C 
ATOM      5  C   LIG d   1       0.576  83.036 110.200  0.00  0.00    -0.047 C 
ATOM      6  C   LIG d   1       1.867  83.095 111.047  0.00  0.00     0.091 C 
ENDROOT
BRANCH   1   7
ATOM      7  O   LIG d   1       3.452  84.663 112.064  0.00  0.00    -0.368 OA
BRANCH   7   8
ATOM      8  C   LIG d   1       2.978  85.498 113.148  0.00  0.00     0.119 C 
BRANCH   8   9
ATOM      9  C   LIG d   1       4.133  86.436 113.550  0.00  0.00     0.028 C 
ATOM     10  C   LIG d   1       4.384  87.537 112.507  0.00  0.00     0.006 C 
ENDBRANCH   8   9
BRANCH   8  11
ATOM     11  C   LIG d   1       2.675  84.669 114.400  0.00  0.00     0.028 C 
ATOM     12  C   LIG d   1       1.169  84.515 114.663  0.00  0.00     0.006 C 
ENDBRANCH   8  11
ENDBRANCH   7   8
ENDBRANCH   1   7
BRANCH   6  13
ATOM     13  N   LIG d   1       2.867  82.079 110.627  0.00  0.00    -0.311 N 
ATOM     14  C   LIG d   1       3.306  81.957 109.375  0.00  0.00     0.210 C 
ATOM     15  C   LIG d   1       4.322  80.832 109.153  0.00  0.00     0.109 C 
ATOM     16  O   LIG d   1       2.974  82.693 108.434  0.00  0.00    -0.276 OA
ATOM     17  H   LIG d   1       3.213  81.460 111.333  0.00  0.00     0.149 HD
ENDBRANCH   6  13
BRANCH   5  18
ATOM     18  N   LIG d   1      -0.159  81.766 110.352  0.00  0.00     0.381 N 
ATOM     19  H   LIG d   1       0.004  81.388 111.264  0.00  0.00    -0.090 HD
ATOM     20  H   LIG d   1       0.182  81.110 109.672  0.00  0.00    -0.090 HD
ATOM     21  H   LIG d   1      -1.135  81.919 110.218  0.00  0.00    -0.090 HD
ENDBRANCH   5  18
BRANCH   3  22
ATOM     22  C   LIG d   1      -0.510  86.542 110.414  0.00  0.00     0.382 C 
ATOM     23  O   LIG d   1      -0.536  87.483 111.244  0.00  0.00    -0.241 OA
ATOM     24  O   LIG d   1      -1.220  86.607 109.392  0.00  0.00    -0.241 OA
ENDBRANCH   3  22
TORSDOF 7
ENDMDL
MODEL 7
REMARK VINA RESULT:      -5.5      2.964      5.436
REMARK  7 active torsions:
REMARK  status: ('A' for Active; 'I' for Inactive)
REMARK    1  A    between atoms: C_2  and  C_3 
REMARK    2  A    between atoms: C_3  and  O_6 
REMARK    3  A    between atoms: C_3  and  C_4 
REMARK    4  A    between atoms: C_7  and  O_6 
REMARK    5  A    between atoms: C_9  and  C_10 
REMARK    6  A    between atoms: N_15  and  C_14 
REMARK    7  A    between atoms: N_20  and  C_19 
REMARK       I    between atoms: C_22  and  N_20 
ROOT
ATOM      1  C   LIG d   1       3.328  83.852 112.096  0.00  0.00     0.161 C 
ATOM      2  C   LIG d   1       3.508  85.201 112.444  0.00  0.00     0.016 C 
ATOM      3  C   LIG d   1       2.982  86.275 111.690  0.00  0.00     0.038 C 
ATOM      4  C   LIG d   1       2.107  86.067 110.613  0.00  0.00     0.028 C 
ATOM      5  C   LIG d   1       2.306  84.722 109.922  0.00  0.00    -0.047 C 
ATOM      6  C   LIG d   1       2.284  83.603 110.988  0.00  0.00     0.091 C 
ENDROOT
BRANCH   1   7
ATOM      7  O   LIG d   1       3.004  83.084 113.272  0.00  0.00    -0.368 OA
BRANCH   7   8
ATOM      8  C   LIG d   1       2.467  83.829 114.392  0.00  0.00     0.119 C 
BRANCH   8   9
ATOM      9  C   LIG d   1       3.172  83.323 115.666  0.00  0.00     0.028 C 
ATOM     10  C   LIG d   1       4.379  84.193 116.053  0.00  0.00     0.006 C 
ENDBRANCH   8   9
BRANCH   8  11
ATOM     11  C   LIG d   1       0.981  83.524 114.603  0.00  0.00     0.028 C 
ATOM     12  C   LIG d   1       0.064  84.640 114.077  0.00  0.00     0.006 C 
ENDBRANCH   8  11
ENDBRANCH   7   8
ENDBRANCH   1   7
BRANCH   6  13
ATOM     13  N   LIG d   1       2.556  82.262 110.407  0.00  0.00    -0.311 N 
ATOM     14  C   LIG d   1       3.689  81.950 109.782  0.00  0.00     0.210 C 
ATOM     15  C   LIG d   1       3.757  80.518 109.241  0.00  0.00     0.109 C 
ATOM     16  O   LIG d   1       4.659  82.713 109.652  0.00  0.00    -0.276 OA
ATOM     17  H   LIG d   1       1.835  81.572 110.495  0.00  0.00     0.149 HD
ENDBRANCH   6  13
BRANCH   5  18
ATOM     18  N   LIG d   1       1.242  84.579 108.911  0.00  0.00     0.381 N 
ATOM     19  H   LIG d   1       0.558  83.921 109.230  0.00  0.00    -0.090 HD
ATOM     20  H   LIG d   1       1.646  84.226 108.061  0.00  0.00    -0.090 HD
ATOM     21  H   LIG d   1       0.811  85.461 108.742  0.00  0.00    -0.090 HD
ENDBRANCH   5  18
BRANCH   3  22
ATOM     22  C   LIG d   1       3.363  87.575 111.987  0.00  0.00     0.382 C 
ATOM     23  O   LIG d   1       4.576  87.851 112.148  0.00  0.00    -0.241 OA
ATOM     24  O   LIG d   1       2.505  88.466 112.139  0.00  0.00    -0.241 OA
ENDBRANCH   3  22
TORSDOF 7
ENDMDL
MODEL 8
REMARK VINA RESULT:      -5.4      2.379      4.625
REMARK  7 active torsions:
REMARK  status: ('A' for Active; 'I' for Inactive)
REMARK    1  A    between atoms: C_2  and  C_3 
REMARK    2  A    between atoms: C_3  and  O_6 
REMARK    3  A    between atoms: C_3  and  C_4 
REMARK    4  A    between atoms: C_7  and  O_6 
REMARK    5  A    between atoms: C_9  and  C_10 
REMARK    6  A    between atoms: N_15  and  C_14 
REMARK    7  A    between atoms: N_20  and  C_19 
REMARK       I    between atoms: C_22  and  N_20 
ROOT
ATOM      1  C   LIG d   1       2.041  84.422 111.204  0.00  0.00     0.161 C 
ATOM      2  C   LIG d   1       2.796  85.606 111.240  0.00  0.00     0.016 C 
ATOM      3  C   LIG d   1       2.889  86.435 112.382  0.00  0.00     0.038 C 
ATOM      4  C   LIG d   1       2.351  86.055 113.620  0.00  0.00     0.028 C 
ATOM      5  C   LIG d   1       1.155  85.116 113.499  0.00  0.00    -0.047 C 
ATOM      6  C   LIG d   1       1.537  83.934 112.579  0.00  0.00     0.091 C 
ENDROOT
BRANCH   1   7
ATOM      7  O   LIG d   1       2.793  83.382 110.548  0.00  0.00    -0.368 OA
BRANCH   7   8
ATOM      8  C   LIG d   1       2.166  82.775 109.392  0.00  0.00     0.119 C 
BRANCH   8   9
ATOM      9  C   LIG d   1       3.290  82.241 108.483  0.00  0.00     0.028 C 
ATOM     10  C   LIG d   1       4.681  82.727 108.923  0.00  0.00     0.006 C 
ENDBRANCH   8   9
BRANCH   8  11
ATOM     11  C   LIG d   1       1.422  83.815 108.550  0.00  0.00     0.028 C 
ATOM     12  C   LIG d   1       1.546  83.559 107.040  0.00  0.00     0.006 C 
ENDBRANCH   8  11
ENDBRANCH   7   8
ENDBRANCH   1   7
BRANCH   6  13
ATOM     13  N   LIG d   1       0.398  83.011 112.339  0.00  0.00    -0.311 N 
ATOM     14  C   LIG d   1       0.206  81.888 113.028  0.00  0.00     0.210 C 
ATOM     15  C   LIG d   1      -1.020  81.071 112.607  0.00  0.00     0.109 C 
ATOM     16  O   LIG d   1       0.916  81.506 113.971  0.00  0.00    -0.276 OA
ATOM     17  H   LIG d   1      -0.246  83.260 111.613  0.00  0.00     0.149 HD
ENDBRANCH   6  13
BRANCH   5  18
ATOM     18  N   LIG d   1       0.782  84.691 114.861  0.00  0.00     0.381 N 
ATOM     19  H   LIG d   1       1.579  84.304 115.326  0.00  0.00    -0.090 HD
ATOM     20  H   LIG d   1       0.077  83.978 114.797  0.00  0.00    -0.090 HD
ATOM     21  H   LIG d   1       0.433  85.469 115.377  0.00  0.00    -0.090 HD
ENDBRANCH   5  18
BRANCH   3  22
ATOM     22  C   LIG d   1       3.492  87.680 112.280  0.00  0.00     0.382 C 
ATOM     23  O   LIG d   1       2.802  88.722 112.387  0.00  0.00    -0.241 OA
ATOM     24  O   LIG d   1       4.710  87.773 112.038  0.00  0.00    -0.241 OA
ENDBRANCH   3  22
TORSDOF 7
ENDMDL
MODEL 9
REMARK VINA RESULT:      -5.2      2.490      5.036
REMARK  7 active torsions:
REMARK  status: ('A' for Active; 'I' for Inactive)
REMARK    1  A    between atoms: C_2  and  C_3 
REMARK    2  A    between atoms: C_3  and  O_6 
REMARK    3  A    between atoms: C_3  and  C_4 
REMARK    4  A    between atoms: C_7  and  O_6 
REMARK    5  A    between atoms: C_9  and  C_10 
REMARK    6  A    between atoms: N_15  and  C_14 
REMARK    7  A    between atoms: N_20  and  C_19 
REMARK       I    between atoms: C_22  and  N_20 
ROOT
ATOM      1  C   LIG d   1      -0.191  81.440 111.837  0.00  0.00     0.161 C 
ATOM      2  C   LIG d   1      -0.872  80.213 111.757  0.00  0.00     0.016 C 
ATOM      3  C   LIG d   1      -1.952  79.867 112.601  0.00  0.00     0.038 C 
ATOM      4  C   LIG d   1      -2.527  80.790 113.487  0.00  0.00     0.028 C 
ATOM      5  C   LIG d   1      -1.553  81.866 113.957  0.00  0.00    -0.047 C 
ATOM      6  C   LIG d   1      -0.875  82.503 112.722  0.00  0.00     0.091 C 
ENDROOT
BRANCH   1   7
ATOM      7  O   LIG d   1       0.034  81.961 110.512  0.00  0.00    -0.368 OA
BRANCH   7   8
ATOM      8  C   LIG d   1       1.292  81.600 109.891  0.00  0.00     0.119 C 
BRANCH   8   9
ATOM      9  C   LIG d   1       2.412  81.904 110.904  0.00  0.00     0.028 C 
ATOM     10  C   LIG d   1       3.782  81.381 110.439  0.00  0.00     0.006 C 
ENDBRANCH   8   9
BRANCH   8  11
ATOM     11  C   LIG d   1       1.589  82.488 108.679  0.00  0.00     0.028 C 
ATOM     12  C   LIG d   1       1.481  83.988 108.998  0.00  0.00     0.006 C 
ENDBRANCH   8  11
ENDBRANCH   7   8
ENDBRANCH   1   7
BRANCH   6  13
ATOM     13  N   LIG d   1       0.155  83.507 113.096  0.00  0.00    -0.311 N 
ATOM     14  C   LIG d   1       0.266  84.697 112.509  0.00  0.00     0.210 C 
ATOM     15  C   LIG d   1       1.409  85.572 113.032  0.00  0.00     0.109 C 
ATOM     16  O   LIG d   1      -0.494  85.124 111.627  0.00  0.00    -0.276 OA
ATOM     17  H   LIG d   1       0.794  83.255 113.825  0.00  0.00     0.149 HD
ENDBRANCH   6  13
BRANCH   5  18
ATOM     18  N   LIG d   1      -2.317  82.837 114.763  0.00  0.00     0.381 N 
ATOM     19  H   LIG d   1      -2.638  83.583 114.179  0.00  0.00    -0.090 HD
ATOM     20  H   LIG d   1      -1.711  83.224 115.465  0.00  0.00    -0.090 HD
ATOM     21  H   LIG d   1      -3.092  82.386 115.196  0.00  0.00    -0.090 HD
ENDBRANCH   5  18
BRANCH   3  22
ATOM     22  C   LIG d   1      -2.444  78.570 112.591  0.00  0.00     0.382 C 
ATOM     23  O   LIG d   1      -1.769  77.640 113.094  0.00  0.00    -0.241 OA
ATOM     24  O   LIG d   1      -3.533  78.312 112.045  0.00  0.00    -0.241 OA
ENDBRANCH   3  22
TORSDOF 7
ENDMDL
