MODEL 1
REMARK VINA RESULT:      -6.4      0.000      0.000
REMARK  7 active torsions:
REMARK  status: ('A' for Active; 'I' for Inactive)
REMARK    1  A    between atoms: C_2  and  C_3 
REMARK    2  A    between atoms: C_3  and  O_6 
REMARK    3  A    between atoms: C_3  and  C_4 
REMARK    4  A    between atoms: C_7  and  O_6 
REMARK    5  A    between atoms: C_9  and  C_10 
REMARK    6  A    between atoms: N_15  and  C_14 
REMARK    7  A    between atoms: N_20  and  C_19 
REMARK       I    between atoms: C_22  and  N_20 
ROOT
ATOM      1  C   LIG d   1       0.308  83.500 110.752  0.00  0.00     0.161 C 
ATOM      2  C   LIG d   1       1.109  83.410 109.602  0.00  0.00     0.016 C 
ATOM      3  C   LIG d   1       1.500  82.182 109.020  0.00  0.00     0.038 C 
ATOM      4  C   LIG d   1       0.987  80.954 109.464  0.00  0.00     0.028 C 
ATOM      5  C   LIG d   1       0.576  80.965 110.932  0.00  0.00    -0.047 C 
ATOM      6  C   LIG d   1      -0.353  82.174 111.185  0.00  0.00     0.091 C 
ENDROOT
BRANCH   1   7
ATOM      7  O   LIG d   1      -0.692  84.522 110.572  0.00  0.00    -0.368 OA
BRANCH   7   8
ATOM      8  C   LIG d   1      -0.500  85.742 111.330  0.00  0.00     0.119 C 
BRANCH   8   9
ATOM      9  C   LIG d   1       0.080  86.798 110.369  0.00  0.00     0.028 C 
ATOM     10  C   LIG d   1       1.596  86.982 110.546  0.00  0.00     0.006 C 
ENDBRANCH   8   9
BRANCH   8  11
ATOM     11  C   LIG d   1       0.560  85.559 112.420  0.00  0.00     0.028 C 
ATOM     12  C   LIG d   1      -0.016  85.686 113.839  0.00  0.00     0.006 C 
ENDBRANCH   8  11
ENDBRANCH   7   8
ENDBRANCH   1   7
BRANCH   6  13
ATOM     13  N   LIG d   1      -0.734  82.307 112.615  0.00  0.00    -0.311 N 
ATOM     14  C   LIG d   1      -1.995  82.294 113.042  0.00  0.00     0.210 C 
ATOM     15  C   LIG d   1      -2.167  82.466 114.555  0.00  0.00     0.109 C 
ATOM     16  O   LIG d   1      -2.986  82.124 112.316  0.00  0.00    -0.276 OA
ATOM     17  H   LIG d   1       0.010  82.418 113.277  0.00  0.00     0.149 HD
ENDBRANCH   6  13
BRANCH   5  18
ATOM     18  N   LIG d   1      -0.067  79.670 111.225  0.00  0.00     0.381 N 
ATOM     19  H   LIG d   1      -1.000  79.822 111.553  0.00  0.00    -0.090 HD
ATOM     20  H   LIG d   1       0.451  79.206 111.950  0.00  0.00    -0.090 HD
ATOM     21  H   LIG d   1      -0.083  79.105 110.405  0.00  0.00    -0.090 HD
ENDBRANCH   5  18
BRANCH   3  22
ATOM     22  C   LIG d   1       2.446  82.173 108.006  0.00  0.00     0.382 C 
ATOM     23  O   LIG d   1       2.231  82.803 106.943  0.00  0.00    -0.241 OA
ATOM     24  O   LIG d   1       3.491  81.505 108.123  0.00  0.00    -0.241 OA
ENDBRANCH   3  22
TORSDOF 7
ENDMDL
MODEL 2
REMARK VINA RESULT:      -6.2      2.039      4.795
REMARK  7 active torsions:
REMARK  status: ('A' for Active; 'I' for Inactive)
REMARK    1  A    between atoms: C_2  and  C_3 
REMARK    2  A    between atoms: C_3  and  O_6 
REMARK    3  A    between atoms: C_3  and  C_4 
REMARK    4  A    between atoms: C_7  and  O_6 
REMARK    5  A    between atoms: C_9  and  C_10 
REMARK    6  A    between atoms: N_15  and  C_14 
REMARK    7  A    between atoms: N_20  and  C_19 
REMARK       I    between atoms: C_22  and  N_20 
ROOT
ATOM      1  C   LIG d   1       0.394  83.208 111.003  0.00  0.00     0.161 C 
ATOM      2  C   LIG d   1      -0.740  83.014 111.810  0.00  0.00     0.016 C 
ATOM      3  C   LIG d   1      -1.265  81.739 112.121  0.00  0.00     0.038 C 
ATOM      4  C   LIG d   1      -0.597  80.557 111.769  0.00  0.00     0.028 C 
ATOM      5  C   LIG d   1       0.275  80.701 110.526  0.00  0.00    -0.047 C 
ATOM      6  C   LIG d   1       1.199  81.927 110.701  0.00  0.00     0.091 C 
ENDROOT
BRANCH   1   7
ATOM      7  O   LIG d   1       1.247  84.209 111.591  0.00  0.00    -0.368 OA
BRANCH   7   8
ATOM      8  C   LIG d   1       1.310  85.480 110.899  0.00  0.00     0.119 C 
BRANCH   8   9
ATOM      9  C   LIG d   1       0.324  85.413 109.716  0.00  0.00     0.028 C 
ATOM     10  C   LIG d   1      -0.798  86.458 109.828  0.00  0.00     0.006 C 
ENDBRANCH   8   9
BRANCH   8  11
ATOM     11  C   LIG d   1       2.687  85.703 110.267  0.00  0.00     0.028 C 
ATOM     12  C   LIG d   1       3.843  85.314 111.203  0.00  0.00     0.006 C 
ENDBRANCH   8  11
ENDBRANCH   7   8
ENDBRANCH   1   7
BRANCH   6  13
ATOM     13  N   LIG d   1       2.027  82.190 109.495  0.00  0.00    -0.311 N 
ATOM     14  C   LIG d   1       3.356  82.110 109.486  0.00  0.00     0.210 C 
ATOM     15  C   LIG d   1       4.015  82.440 108.143  0.00  0.00     0.109 C 
ATOM     16  O   LIG d   1       4.050  81.766 110.455  0.00  0.00    -0.276 OA
ATOM     17  H   LIG d   1       1.543  82.445 108.656  0.00  0.00     0.149 HD
ENDBRANCH   6  13
BRANCH   5  18
ATOM     18  N   LIG d   1       1.016  79.437 110.353  0.00  0.00     0.381 N 
ATOM     19  H   LIG d   1       0.465  78.672 110.688  0.00  0.00    -0.090 HD
ATOM     20  H   LIG d   1       1.861  79.479 110.896  0.00  0.00    -0.090 HD
ATOM     21  H   LIG d   1       1.238  79.301 109.391  0.00  0.00    -0.090 HD
ENDBRANCH   5  18
BRANCH   3  22
ATOM     22  C   LIG d   1      -2.491  81.638 112.759  0.00  0.00     0.382 C 
ATOM     23  O   LIG d   1      -3.019  82.656 113.268  0.00  0.00    -0.241 OA
ATOM     24  O   LIG d   1      -3.056  80.533 112.872  0.00  0.00    -0.241 OA
ENDBRANCH   3  22
TORSDOF 7
ENDMDL
MODEL 3
REMARK VINA RESULT:      -5.9      2.312      5.720
REMARK  7 active torsions:
REMARK  status: ('A' for Active; 'I' for Inactive)
REMARK    1  A    between atoms: C_2  and  C_3 
REMARK    2  A    between atoms: C_3  and  O_6 
REMARK    3  A    between atoms: C_3  and  C_4 
REMARK    4  A    between atoms: C_7  and  O_6 
REMARK    5  A    between atoms: C_9  and  C_10 
REMARK    6  A    between atoms: N_15  and  C_14 
REMARK    7  A    between atoms: N_20  and  C_19 
REMARK       I    between atoms: C_22  and  N_20 
ROOT
ATOM      1  C   LIG d   1       1.158  83.046 110.989  0.00  0.00     0.161 C 
ATOM      2  C   LIG d   1       0.006  82.313 111.318  0.00  0.00     0.016 C 
ATOM      3  C   LIG d   1      -0.940  82.739 112.279  0.00  0.00     0.038 C 
ATOM      4  C   LIG d   1      -0.875  84.010 112.870  0.00  0.00     0.028 C 
ATOM      5  C   LIG d   1       0.541  84.572 112.943  0.00  0.00    -0.047 C 
ATOM      6  C   LIG d   1       1.187  84.487 111.542  0.00  0.00     0.091 C 
ENDROOT
BRANCH   1   7
ATOM      7  O   LIG d   1       1.339  83.055 109.559  0.00  0.00    -0.368 OA
BRANCH   7   8
ATOM      8  C   LIG d   1       2.170  82.000 109.015  0.00  0.00     0.119 C 
BRANCH   8   9
ATOM      9  C   LIG d   1       3.432  81.906 109.894  0.00  0.00     0.028 C 
ATOM     10  C   LIG d   1       4.592  82.756 109.348  0.00  0.00     0.006 C 
ENDBRANCH   8   9
BRANCH   8  11
ATOM     11  C   LIG d   1       2.677  82.357 107.614  0.00  0.00     0.028 C 
ATOM     12  C   LIG d   1       1.729  83.303 106.861  0.00  0.00     0.006 C 
ENDBRANCH   8  11
ENDBRANCH   7   8
ENDBRANCH   1   7
BRANCH   6  13
ATOM     13  N   LIG d   1       2.603  84.939 111.543  0.00  0.00    -0.311 N 
ATOM     14  C   LIG d   1       3.050  85.952 110.801  0.00  0.00     0.210 C 
ATOM     15  C   LIG d   1       4.548  86.240 110.936  0.00  0.00     0.109 C 
ATOM     16  O   LIG d   1       2.341  86.658 110.069  0.00  0.00    -0.276 OA
ATOM     17  H   LIG d   1       3.241  84.441 112.132  0.00  0.00     0.149 HD
ENDBRANCH   6  13
BRANCH   5  18
ATOM     18  N   LIG d   1       0.445  85.953 113.453  0.00  0.00     0.381 N 
ATOM     19  H   LIG d   1       0.753  86.596 112.750  0.00  0.00    -0.090 HD
ATOM     20  H   LIG d   1       1.048  86.047 114.251  0.00  0.00    -0.090 HD
ATOM     21  H   LIG d   1      -0.495  86.158 113.711  0.00  0.00    -0.090 HD
ENDBRANCH   5  18
BRANCH   3  22
ATOM     22  C   LIG d   1      -1.943  81.873 112.687  0.00  0.00     0.382 C 
ATOM     23  O   LIG d   1      -3.134  82.095 112.361  0.00  0.00    -0.241 OA
ATOM     24  O   LIG d   1      -1.678  80.897 113.414  0.00  0.00    -0.241 OA
ENDBRANCH   3  22
TORSDOF 7
ENDMDL
MODEL 4
REMARK VINA RESULT:      -5.8      3.066      4.396
REMARK  7 active torsions:
REMARK  status: ('A' for Active; 'I' for Inactive)
REMARK    1  A    between atoms: C_2  and  C_3 
REMARK    2  A    between atoms: C_3  and  O_6 
REMARK    3  A    between atoms: C_3  and  C_4 
REMARK    4  A    between atoms: C_7  and  O_6 
REMARK    5  A    between atoms: C_9  and  C_10 
REMARK    6  A    between atoms: N_15  and  C_14 
REMARK    7  A    between atoms: N_20  and  C_19 
REMARK       I    between atoms: C_22  and  N_20 
ROOT
ATOM      1  C   LIG d   1       1.507  82.638 111.131  0.00  0.00     0.161 C 
ATOM      2  C   LIG d   1       2.223  81.433 111.037  0.00  0.00     0.016 C 
ATOM      3  C   LIG d   1       2.645  80.873 109.809  0.00  0.00     0.038 C 
ATOM      4  C   LIG d   1       2.509  81.562 108.595  0.00  0.00     0.028 C 
ATOM      5  C   LIG d   1       1.345  82.546 108.583  0.00  0.00    -0.047 C 
ATOM      6  C   LIG d   1       1.447  83.459 109.826  0.00  0.00     0.091 C 
ENDROOT
BRANCH   1   7
ATOM      7  O   LIG d   1       2.039  83.441 112.204  0.00  0.00    -0.368 OA
BRANCH   7   8
ATOM      8  C   LIG d   1       3.447  83.771 112.114  0.00  0.00     0.119 C 
BRANCH   8   9
ATOM      9  C   LIG d   1       4.072  83.517 113.500  0.00  0.00     0.028 C 
ATOM     10  C   LIG d   1       3.597  82.193 114.124  0.00  0.00     0.006 C 
ENDBRANCH   8   9
BRANCH   8  11
ATOM     11  C   LIG d   1       3.654  85.264 111.844  0.00  0.00     0.028 C 
ATOM     12  C   LIG d   1       4.358  85.536 110.505  0.00  0.00     0.006 C 
ENDBRANCH   8  11
ENDBRANCH   7   8
ENDBRANCH   1   7
BRANCH   6  13
ATOM     13  N   LIG d   1       0.299  84.397 109.937  0.00  0.00    -0.311 N 
ATOM     14  C   LIG d   1       0.344  85.662 109.524  0.00  0.00     0.210 C 
ATOM     15  C   LIG d   1      -0.943  86.462 109.749  0.00  0.00     0.109 C 
ATOM     16  O   LIG d   1       1.317  86.189 108.963  0.00  0.00    -0.276 OA
ATOM     17  H   LIG d   1      -0.541  84.043 110.351  0.00  0.00     0.149 HD
ENDBRANCH   6  13
BRANCH   5  18
ATOM     18  N   LIG d   1       1.404  83.292 107.312  0.00  0.00     0.381 N 
ATOM     19  H   LIG d   1       1.117  82.700 106.558  0.00  0.00    -0.090 HD
ATOM     20  H   LIG d   1       2.354  83.576 107.145  0.00  0.00    -0.090 HD
ATOM     21  H   LIG d   1       0.814  84.093 107.358  0.00  0.00    -0.090 HD
ENDBRANCH   5  18
BRANCH   3  22
ATOM     22  C   LIG d   1       3.174  79.592 109.785  0.00  0.00     0.382 C 
ATOM     23  O   LIG d   1       4.370  79.401 110.111  0.00  0.00    -0.241 OA
ATOM     24  O   LIG d   1       2.483  78.630 109.398  0.00  0.00    -0.241 OA
ENDBRANCH   3  22
TORSDOF 7
ENDMDL
MODEL 5
REMARK VINA RESULT:      -5.8      2.334      4.819
REMARK  7 active torsions:
REMARK  status: ('A' for Active; 'I' for Inactive)
REMARK    1  A    between atoms: C_2  and  C_3 
REMARK    2  A    between atoms: C_3  and  O_6 
REMARK    3  A    between atoms: C_3  and  C_4 
REMARK    4  A    between atoms: C_7  and  O_6 
REMARK    5  A    between atoms: C_9  and  C_10 
REMARK    6  A    between atoms: N_15  and  C_14 
REMARK    7  A    between atoms: N_20  and  C_19 
REMARK       I    between atoms: C_22  and  N_20 
ROOT
ATOM      1  C   LIG d   1       0.714  82.884 111.564  0.00  0.00     0.161 C 
ATOM      2  C   LIG d   1      -0.520  82.710 112.213  0.00  0.00     0.016 C 
ATOM      3  C   LIG d   1      -1.233  81.489 112.213  0.00  0.00     0.038 C 
ATOM      4  C   LIG d   1      -0.684  80.310 111.688  0.00  0.00     0.028 C 
ATOM      5  C   LIG d   1       0.335  80.556 110.581  0.00  0.00    -0.047 C 
ATOM      6  C   LIG d   1       1.381  81.580 111.081  0.00  0.00     0.091 C 
ENDROOT
BRANCH   1   7
ATOM      7  O   LIG d   1       1.614  83.621 112.416  0.00  0.00    -0.368 OA
BRANCH   7   8
ATOM      8  C   LIG d   1       2.079  84.894 111.902  0.00  0.00     0.119 C 
BRANCH   8   9
ATOM      9  C   LIG d   1       3.602  84.782 111.699  0.00  0.00     0.028 C 
ATOM     10  C   LIG d   1       4.065  85.415 110.376  0.00  0.00     0.006 C 
ENDBRANCH   8   9
BRANCH   8  11
ATOM     11  C   LIG d   1       1.888  86.013 112.930  0.00  0.00     0.028 C 
ATOM     12  C   LIG d   1       0.653  85.800 113.820  0.00  0.00     0.006 C 
ENDBRANCH   8  11
ENDBRANCH   7   8
ENDBRANCH   1   7
BRANCH   6  13
ATOM     13  N   LIG d   1       2.367  81.941 110.030  0.00  0.00    -0.311 N 
ATOM     14  C   LIG d   1       3.555  81.352 109.906  0.00  0.00     0.210 C 
ATOM     15  C   LIG d   1       4.428  81.890 108.767  0.00  0.00     0.109 C 
ATOM     16  O   LIG d   1       3.957  80.414 110.611  0.00  0.00    -0.276 OA
ATOM     17  H   LIG d   1       2.110  82.672 109.395  0.00  0.00     0.149 HD
ENDBRANCH   6  13
BRANCH   5  18
ATOM     18  N   LIG d   1       0.927  79.254 110.222  0.00  0.00     0.381 N 
ATOM     19  H   LIG d   1       1.917  79.281 110.363  0.00  0.00    -0.090 HD
ATOM     20  H   LIG d   1       0.751  79.074 109.249  0.00  0.00    -0.090 HD
ATOM     21  H   LIG d   1       0.525  78.532 110.778  0.00  0.00    -0.090 HD
ENDBRANCH   5  18
BRANCH   3  22
ATOM     22  C   LIG d   1      -2.528  81.450 112.708  0.00  0.00     0.382 C 
ATOM     23  O   LIG d   1      -3.145  80.359 112.765  0.00  0.00    -0.241 OA
ATOM     24  O   LIG d   1      -3.103  82.498 113.058  0.00  0.00    -0.241 OA
ENDBRANCH   3  22
TORSDOF 7
ENDMDL
MODEL 6
REMARK VINA RESULT:      -5.6      3.016      5.517
REMARK  7 active torsions:
REMARK  status: ('A' for Active; 'I' for Inactive)
REMARK    1  A    between atoms: C_2  and  C_3 
REMARK    2  A    between atoms: C_3  and  O_6 
REMARK    3  A    between atoms: C_3  and  C_4 
REMARK    4  A    between atoms: C_7  and  O_6 
REMARK    5  A    between atoms: C_9  and  C_10 
REMARK    6  A    between atoms: N_15  and  C_14 
REMARK    7  A    between atoms: N_20  and  C_19 
REMARK       I    between atoms: C_22  and  N_20 
ROOT
ATOM      1  C   LIG d   1       3.239  83.901 110.583  0.00  0.00     0.161 C 
ATOM      2  C   LIG d   1       3.810  85.086 111.077  0.00  0.00     0.016 C 
ATOM      3  C   LIG d   1       3.085  86.052 111.811  0.00  0.00     0.038 C 
ATOM      4  C   LIG d   1       1.766  85.826 112.233  0.00  0.00     0.028 C 
ATOM      5  C   LIG d   1       0.996  84.870 111.329  0.00  0.00    -0.047 C 
ATOM      6  C   LIG d   1       1.831  83.585 111.130  0.00  0.00     0.091 C 
ENDROOT
BRANCH   1   7
ATOM      7  O   LIG d   1       4.130  82.793 110.823  0.00  0.00    -0.368 OA
BRANCH   7   8
ATOM      8  C   LIG d   1       4.785  82.238 109.656  0.00  0.00     0.119 C 
BRANCH   8   9
ATOM      9  C   LIG d   1       4.511  83.190 108.475  0.00  0.00     0.028 C 
ATOM     10  C   LIG d   1       3.451  82.636 107.508  0.00  0.00     0.006 C 
ENDBRANCH   8   9
BRANCH   8  11
ATOM     11  C   LIG d   1       4.161  80.900 109.250  0.00  0.00     0.028 C 
ATOM     12  C   LIG d   1       4.265  79.835 110.354  0.00  0.00     0.006 C 
ENDBRANCH   8  11
ENDBRANCH   7   8
ENDBRANCH   1   7
BRANCH   6  13
ATOM     13  N   LIG d   1       1.188  82.631 110.189  0.00  0.00    -0.311 N 
ATOM     14  C   LIG d   1       0.890  81.373 110.511  0.00  0.00     0.210 C 
ATOM     15  C   LIG d   1       0.248  80.553 109.387  0.00  0.00     0.109 C 
ATOM     16  O   LIG d   1       1.066  80.869 111.630  0.00  0.00    -0.276 OA
ATOM     17  H   LIG d   1       0.981  82.967 109.269  0.00  0.00     0.149 HD
ENDBRANCH   6  13
BRANCH   5  18
ATOM     18  N   LIG d   1      -0.313  84.617 111.960  0.00  0.00     0.381 N 
ATOM     19  H   LIG d   1      -0.845  85.464 111.989  0.00  0.00    -0.090 HD
ATOM     20  H   LIG d   1      -0.164  84.305 112.904  0.00  0.00    -0.090 HD
ATOM     21  H   LIG d   1      -0.810  83.922 111.448  0.00  0.00    -0.090 HD
ENDBRANCH   5  18
BRANCH   3  22
ATOM     22  C   LIG d   1       3.666  87.279 112.096  0.00  0.00     0.382 C 
ATOM     23  O   LIG d   1       2.943  88.267 112.367  0.00  0.00    -0.241 OA
ATOM     24  O   LIG d   1       4.902  87.419 112.040  0.00  0.00    -0.241 OA
ENDBRANCH   3  22
TORSDOF 7
ENDMDL
MODEL 7
REMARK VINA RESULT:      -5.5      2.247      4.348
REMARK  7 active torsions:
REMARK  status: ('A' for Active; 'I' for Inactive)
REMARK    1  A    between atoms: C_2  and  C_3 
REMARK    2  A    between atoms: C_3  and  O_6 
REMARK    3  A    between atoms: C_3  and  C_4 
REMARK    4  A    between atoms: C_7  and  O_6 
REMARK    5  A    between atoms: C_9  and  C_10 
REMARK    6  A    between atoms: N_15  and  C_14 
REMARK    7  A    between atoms: N_20  and  C_19 
REMARK       I    between atoms: C_22  and  N_20 
ROOT
ATOM      1  C   LIG d   1       0.540  83.757 110.387  0.00  0.00     0.161 C 
ATOM      2  C   LIG d   1       1.439  84.826 110.237  0.00  0.00     0.016 C 
ATOM      3  C   LIG d   1       1.861  85.645 111.310  0.00  0.00     0.038 C 
ATOM      4  C   LIG d   1       1.526  85.354 112.641  0.00  0.00     0.028 C 
ATOM      5  C   LIG d   1       0.214  84.588 112.781  0.00  0.00    -0.047 C 
ATOM      6  C   LIG d   1       0.250  83.356 111.848  0.00  0.00     0.091 C 
ENDROOT
BRANCH   1   7
ATOM      7  O   LIG d   1       1.006  82.618 109.637  0.00  0.00    -0.368 OA
BRANCH   7   8
ATOM      8  C   LIG d   1       2.435  82.543 109.414  0.00  0.00     0.119 C 
BRANCH   8   9
ATOM      9  C   LIG d   1       2.653  82.139 107.943  0.00  0.00     0.028 C 
ATOM     10  C   LIG d   1       1.910  83.063 106.964  0.00  0.00     0.006 C 
ENDBRANCH   8   9
BRANCH   8  11
ATOM     11  C   LIG d   1       3.070  81.421 110.241  0.00  0.00     0.028 C 
ATOM     12  C   LIG d   1       3.721  81.932 111.537  0.00  0.00     0.006 C 
ENDBRANCH   8  11
ENDBRANCH   7   8
ENDBRANCH   1   7
BRANCH   6  13
ATOM     13  N   LIG d   1      -1.028  82.597 111.862  0.00  0.00    -0.311 N 
ATOM     14  C   LIG d   1      -1.253  81.554 112.658  0.00  0.00     0.210 C 
ATOM     15  C   LIG d   1      -2.630  80.903 112.498  0.00  0.00     0.109 C 
ATOM     16  O   LIG d   1      -0.454  81.126 113.505  0.00  0.00    -0.276 OA
ATOM     17  H   LIG d   1      -1.742  82.897 111.228  0.00  0.00     0.149 HD
ENDBRANCH   6  13
BRANCH   5  18
ATOM     18  N   LIG d   1       0.057  84.231 114.204  0.00  0.00     0.381 N 
ATOM     19  H   LIG d   1       0.743  83.549 114.460  0.00  0.00    -0.090 HD
ATOM     20  H   LIG d   1      -0.854  83.829 114.340  0.00  0.00    -0.090 HD
ATOM     21  H   LIG d   1       0.158  85.043 114.772  0.00  0.00    -0.090 HD
ENDBRANCH   5  18
BRANCH   3  22
ATOM     22  C   LIG d   1       2.594  86.793 111.052  0.00  0.00     0.382 C 
ATOM     23  O   LIG d   1       2.029  87.913 111.059  0.00  0.00    -0.241 OA
ATOM     24  O   LIG d   1       3.805  86.718 110.767  0.00  0.00    -0.241 OA
ENDBRANCH   3  22
TORSDOF 7
ENDMDL
MODEL 8
REMARK VINA RESULT:      -5.5      2.629      4.206
REMARK  7 active torsions:
REMARK  status: ('A' for Active; 'I' for Inactive)
REMARK    1  A    between atoms: C_2  and  C_3 
REMARK    2  A    between atoms: C_3  and  O_6 
REMARK    3  A    between atoms: C_3  and  C_4 
REMARK    4  A    between atoms: C_7  and  O_6 
REMARK    5  A    between atoms: C_9  and  C_10 
REMARK    6  A    between atoms: N_15  and  C_14 
REMARK    7  A    between atoms: N_20  and  C_19 
REMARK       I    between atoms: C_22  and  N_20 
ROOT
ATOM      1  C   LIG d   1       1.029  83.112 110.737  0.00  0.00     0.161 C 
ATOM      2  C   LIG d   1       1.547  82.732 109.488  0.00  0.00     0.016 C 
ATOM      3  C   LIG d   1       1.614  83.602 108.376  0.00  0.00     0.038 C 
ATOM      4  C   LIG d   1       1.305  84.967 108.482  0.00  0.00     0.028 C 
ATOM      5  C   LIG d   1       0.302  85.276 109.589  0.00  0.00    -0.047 C 
ATOM      6  C   LIG d   1       0.790  84.628 110.904  0.00  0.00     0.091 C 
ENDROOT
BRANCH   1   7
ATOM      7  O   LIG d   1       1.882  82.621 111.790  0.00  0.00    -0.368 OA
BRANCH   7   8
ATOM      8  C   LIG d   1       3.285  82.477 111.458  0.00  0.00     0.119 C 
BRANCH   8   9
ATOM      9  C   LIG d   1       3.716  81.057 111.873  0.00  0.00     0.028 C 
ATOM     10  C   LIG d   1       3.829  80.104 110.672  0.00  0.00     0.006 C 
ENDBRANCH   8   9
BRANCH   8  11
ATOM     11  C   LIG d   1       4.154  83.424 112.291  0.00  0.00     0.028 C 
ATOM     12  C   LIG d   1       4.265  84.828 111.676  0.00  0.00     0.006 C 
ENDBRANCH   8  11
ENDBRANCH   7   8
ENDBRANCH   1   7
BRANCH   6  13
ATOM     13  N   LIG d   1      -0.176  84.811 112.019  0.00  0.00    -0.311 N 
ATOM     14  C   LIG d   1       0.066  85.578 113.080  0.00  0.00     0.210 C 
ATOM     15  C   LIG d   1      -1.055  85.612 114.123  0.00  0.00     0.109 C 
ATOM     16  O   LIG d   1       1.089  86.260 113.241  0.00  0.00    -0.276 OA
ATOM     17  H   LIG d   1      -1.045  84.318 111.955  0.00  0.00     0.149 HD
ENDBRANCH   6  13
BRANCH   5  18
ATOM     18  N   LIG d   1       0.176  86.743 109.679  0.00  0.00     0.381 N 
ATOM     19  H   LIG d   1       0.980  87.177 109.273  0.00  0.00    -0.090 HD
ATOM     20  H   LIG d   1       0.130  87.006 110.648  0.00  0.00    -0.090 HD
ATOM     21  H   LIG d   1      -0.648  87.044 109.206  0.00  0.00    -0.090 HD
ENDBRANCH   5  18
BRANCH   3  22
ATOM     22  C   LIG d   1       1.956  83.100 107.130  0.00  0.00     0.382 C 
ATOM     23  O   LIG d   1       1.398  83.547 106.099  0.00  0.00    -0.241 OA
ATOM     24  O   LIG d   1       2.784  82.175 107.027  0.00  0.00    -0.241 OA
ENDBRANCH   3  22
TORSDOF 7
ENDMDL
MODEL 9
REMARK VINA RESULT:      -5.2      2.703      5.265
REMARK  7 active torsions:
REMARK  status: ('A' for Active; 'I' for Inactive)
REMARK    1  A    between atoms: C_2  and  C_3 
REMARK    2  A    between atoms: C_3  and  O_6 
REMARK    3  A    between atoms: C_3  and  C_4 
REMARK    4  A    between atoms: C_7  and  O_6 
REMARK    5  A    between atoms: C_9  and  C_10 
REMARK    6  A    between atoms: N_15  and  C_14 
REMARK    7  A    between atoms: N_20  and  C_19 
REMARK       I    between atoms: C_22  and  N_20 
ROOT
ATOM      1  C   LIG d   1       2.226  83.678 110.977  0.00  0.00     0.161 C 
ATOM      2  C   LIG d   1       2.857  84.933 110.998  0.00  0.00     0.016 C 
ATOM      3  C   LIG d   1       2.555  85.940 111.942  0.00  0.00     0.038 C 
ATOM      4  C   LIG d   1       1.702  85.705 113.031  0.00  0.00     0.028 C 
ATOM      5  C   LIG d   1       0.660  84.625 112.760  0.00  0.00    -0.047 C 
ATOM      6  C   LIG d   1       1.372  83.363 112.223  0.00  0.00     0.091 C 
ENDROOT
BRANCH   1   7
ATOM      7  O   LIG d   1       3.204  82.642 110.764  0.00  0.00    -0.368 OA
BRANCH   7   8
ATOM      8  C   LIG d   1       3.116  81.930 109.505  0.00  0.00     0.119 C 
BRANCH   8   9
ATOM      9  C   LIG d   1       4.252  80.890 109.481  0.00  0.00     0.028 C 
ATOM     10  C   LIG d   1       3.879  79.595 110.222  0.00  0.00     0.006 C 
ENDBRANCH   8   9
BRANCH   8  11
ATOM     11  C   LIG d   1       3.391  82.859 108.319  0.00  0.00     0.028 C 
ATOM     12  C   LIG d   1       2.211  82.937 107.338  0.00  0.00     0.006 C 
ENDBRANCH   8  11
ENDBRANCH   7   8
ENDBRANCH   1   7
BRANCH   6  13
ATOM     13  N   LIG d   1       0.417  82.286 111.854  0.00  0.00    -0.311 N 
ATOM     14  C   LIG d   1       0.333  81.126 112.503  0.00  0.00     0.210 C 
ATOM     15  C   LIG d   1      -0.706  80.147 111.946  0.00  0.00     0.109 C 
ATOM     16  O   LIG d   1       0.996  80.828 113.507  0.00  0.00    -0.276 OA
ATOM     17  H   LIG d   1      -0.182  82.457 111.070  0.00  0.00     0.149 HD
ENDBRANCH   6  13
BRANCH   5  18
ATOM     18  N   LIG d   1      -0.070  84.385 114.020  0.00  0.00     0.381 N 
ATOM     19  H   LIG d   1      -1.050  84.524 113.875  0.00  0.00    -0.090 HD
ATOM     20  H   LIG d   1       0.243  85.046 114.708  0.00  0.00    -0.090 HD
ATOM     21  H   LIG d   1       0.097  83.456 114.339  0.00  0.00    -0.090 HD
ENDBRANCH   5  18
BRANCH   3  22
ATOM     22  C   LIG d   1       3.079  87.214 111.780  0.00  0.00     0.382 C 
ATOM     23  O   LIG d   1       2.311  88.204 111.717  0.00  0.00    -0.241 OA
ATOM     24  O   LIG d   1       4.306  87.380 111.650  0.00  0.00    -0.241 OA
ENDBRANCH   3  22
TORSDOF 7
ENDMDL
