MODEL 1
REMARK VINA RESULT:      -6.5      0.000      0.000
REMARK  7 active torsions:
REMARK  status: ('A' for Active; 'I' for Inactive)
REMARK    1  A    between atoms: C_2  and  C_3 
REMARK    2  A    between atoms: C_3  and  O_6 
REMARK    3  A    between atoms: C_3  and  C_4 
REMARK    4  A    between atoms: C_7  and  O_6 
REMARK    5  A    between atoms: C_9  and  C_10 
REMARK    6  A    between atoms: N_15  and  C_14 
REMARK    7  A    between atoms: N_20  and  C_19 
REMARK       I    between atoms: C_22  and  N_20 
ROOT
ATOM      1  C   LIG d   1       0.203  82.085 111.061  0.00  0.00     0.161 C 
ATOM      2  C   LIG d   1      -0.956  81.915 111.837  0.00  0.00     0.016 C 
ATOM      3  C   LIG d   1      -1.565  80.659 112.061  0.00  0.00     0.038 C 
ATOM      4  C   LIG d   1      -0.966  79.460 111.646  0.00  0.00     0.028 C 
ATOM      5  C   LIG d   1      -0.063  79.624 110.428  0.00  0.00    -0.047 C 
ATOM      6  C   LIG d   1       0.933  80.777 110.693  0.00  0.00     0.091 C 
ENDROOT
BRANCH   1   7
ATOM      7  O   LIG d   1       1.106  82.993 111.724  0.00  0.00    -0.368 OA
BRANCH   7   8
ATOM      8  C   LIG d   1       0.993  84.389 111.353  0.00  0.00     0.119 C 
BRANCH   8   9
ATOM      9  C   LIG d   1       0.911  84.454 109.815  0.00  0.00     0.028 C 
ATOM     10  C   LIG d   1       0.191  85.718 109.319  0.00  0.00     0.006 C 
ENDBRANCH   8   9
BRANCH   8  11
ATOM     11  C   LIG d   1       2.257  85.168 111.725  0.00  0.00     0.028 C 
ATOM     12  C   LIG d   1       3.437  84.875 110.785  0.00  0.00     0.006 C 
ENDBRANCH   8  11
ENDBRANCH   7   8
ENDBRANCH   1   7
BRANCH   6  13
ATOM     13  N   LIG d   1       1.798  81.059 109.518  0.00  0.00    -0.311 N 
ATOM     14  C   LIG d   1       3.097  81.336 109.615  0.00  0.00     0.210 C 
ATOM     15  C   LIG d   1       3.799  81.617 108.282  0.00  0.00     0.109 C 
ATOM     16  O   LIG d   1       3.742  81.345 110.674  0.00  0.00    -0.276 OA
ATOM     17  H   LIG d   1       1.363  81.043 108.617  0.00  0.00     0.149 HD
ENDBRANCH   6  13
BRANCH   5  18
ATOM     18  N   LIG d   1       0.602  78.329 110.188  0.00  0.00     0.381 N 
ATOM     19  H   LIG d   1       0.297  77.661 110.868  0.00  0.00    -0.090 HD
ATOM     20  H   LIG d   1       1.594  78.450 110.288  0.00  0.00    -0.090 HD
ATOM     21  H   LIG d   1       0.391  78.002 109.272  0.00  0.00    -0.090 HD
ENDBRANCH   5  18
BRANCH   3  22
ATOM     22  C   LIG d   1      -2.808  80.597 112.673  0.00  0.00     0.382 C 
ATOM     23  O   LIG d   1      -3.539  81.615 112.710  0.00  0.00    -0.241 OA
ATOM     24  O   LIG d   1      -3.188  79.548 113.226  0.00  0.00    -0.241 OA
ENDBRANCH   3  22
TORSDOF 7
ENDMDL
MODEL 2
REMARK VINA RESULT:      -6.3      2.438      4.981
REMARK  7 active torsions:
REMARK  status: ('A' for Active; 'I' for Inactive)
REMARK    1  A    between atoms: C_2  and  C_3 
REMARK    2  A    between atoms: C_3  and  O_6 
REMARK    3  A    between atoms: C_3  and  C_4 
REMARK    4  A    between atoms: C_7  and  O_6 
REMARK    5  A    between atoms: C_9  and  C_10 
REMARK    6  A    between atoms: N_15  and  C_14 
REMARK    7  A    between atoms: N_20  and  C_19 
REMARK       I    between atoms: C_22  and  N_20 
ROOT
ATOM      1  C   LIG d   1       1.766  83.644 109.429  0.00  0.00     0.161 C 
ATOM      2  C   LIG d   1       1.872  84.974 109.868  0.00  0.00     0.016 C 
ATOM      3  C   LIG d   1       1.031  85.537 110.856  0.00  0.00     0.038 C 
ATOM      4  C   LIG d   1       0.121  84.759 111.585  0.00  0.00     0.028 C 
ATOM      5  C   LIG d   1      -0.370  83.531 110.827  0.00  0.00    -0.047 C 
ATOM      6  C   LIG d   1       0.852  82.749 110.293  0.00  0.00     0.091 C 
ENDROOT
BRANCH   1   7
ATOM      7  O   LIG d   1       3.079  83.060 109.319  0.00  0.00    -0.368 OA
BRANCH   7   8
ATOM      8  C   LIG d   1       3.630  82.497 110.534  0.00  0.00     0.119 C 
BRANCH   8   9
ATOM      9  C   LIG d   1       4.764  83.429 111.003  0.00  0.00     0.028 C 
ATOM     10  C   LIG d   1       4.473  84.064 112.374  0.00  0.00     0.006 C 
ENDBRANCH   8   9
BRANCH   8  11
ATOM     11  C   LIG d   1       4.300  81.145 110.268  0.00  0.00     0.028 C 
ATOM     12  C   LIG d   1       3.866  80.517 108.935  0.00  0.00     0.006 C 
ENDBRANCH   8  11
ENDBRANCH   7   8
ENDBRANCH   1   7
BRANCH   6  13
ATOM     13  N   LIG d   1       0.459  81.578 109.467  0.00  0.00    -0.311 N 
ATOM     14  C   LIG d   1       0.322  80.347 109.958  0.00  0.00     0.210 C 
ATOM     15  C   LIG d   1      -0.070  79.281 108.930  0.00  0.00     0.109 C 
ATOM     16  O   LIG d   1       0.458  80.044 111.152  0.00  0.00    -0.276 OA
ATOM     17  H   LIG d   1       0.299  81.740 108.492  0.00  0.00     0.149 HD
ENDBRANCH   6  13
BRANCH   5  18
ATOM     18  N   LIG d   1      -1.203  82.739 111.752  0.00  0.00     0.381 N 
ATOM     19  H   LIG d   1      -0.651  82.019 112.173  0.00  0.00    -0.090 HD
ATOM     20  H   LIG d   1      -1.944  82.304 111.231  0.00  0.00    -0.090 HD
ATOM     21  H   LIG d   1      -1.585  83.330 112.457  0.00  0.00    -0.090 HD
ENDBRANCH   5  18
BRANCH   3  22
ATOM     22  C   LIG d   1       1.070  86.903 111.094  0.00  0.00     0.382 C 
ATOM     23  O   LIG d   1       0.002  87.555 111.180  0.00  0.00    -0.241 OA
ATOM     24  O   LIG d   1       2.161  87.498 111.180  0.00  0.00    -0.241 OA
ENDBRANCH   3  22
TORSDOF 7
ENDMDL
MODEL 3
REMARK VINA RESULT:      -6.2      2.434      4.195
REMARK  7 active torsions:
REMARK  status: ('A' for Active; 'I' for Inactive)
REMARK    1  A    between atoms: C_2  and  C_3 
REMARK    2  A    between atoms: C_3  and  O_6 
REMARK    3  A    between atoms: C_3  and  C_4 
REMARK    4  A    between atoms: C_7  and  O_6 
REMARK    5  A    between atoms: C_9  and  C_10 
REMARK    6  A    between atoms: N_15  and  C_14 
REMARK    7  A    between atoms: N_20  and  C_19 
REMARK       I    between atoms: C_22  and  N_20 
ROOT
ATOM      1  C   LIG d   1       1.400  81.964 111.202  0.00  0.00     0.161 C 
ATOM      2  C   LIG d   1       1.726  80.857 110.401  0.00  0.00     0.016 C 
ATOM      3  C   LIG d   1       0.898  79.718 110.274  0.00  0.00     0.038 C 
ATOM      4  C   LIG d   1      -0.392  79.673 110.824  0.00  0.00     0.028 C 
ATOM      5  C   LIG d   1      -0.556  80.558 112.055  0.00  0.00    -0.047 C 
ATOM      6  C   LIG d   1      -0.053  81.981 111.721  0.00  0.00     0.091 C 
ENDROOT
BRANCH   1   7
ATOM      7  O   LIG d   1       1.692  83.184 110.492  0.00  0.00    -0.368 OA
BRANCH   7   8
ATOM      8  C   LIG d   1       2.816  83.955 110.984  0.00  0.00     0.119 C 
BRANCH   8   9
ATOM      9  C   LIG d   1       2.388  85.435 111.005  0.00  0.00     0.028 C 
ATOM     10  C   LIG d   1       1.323  85.753 109.942  0.00  0.00     0.006 C 
ENDBRANCH   8   9
BRANCH   8  11
ATOM     11  C   LIG d   1       4.003  83.889 110.019  0.00  0.00     0.028 C 
ATOM     12  C   LIG d   1       4.931  82.696 110.297  0.00  0.00     0.006 C 
ENDBRANCH   8  11
ENDBRANCH   7   8
ENDBRANCH   1   7
BRANCH   6  13
ATOM     13  N   LIG d   1      -0.100  82.889 112.897  0.00  0.00    -0.311 N 
ATOM     14  C   LIG d   1      -0.642  84.105 112.863  0.00  0.00     0.210 C 
ATOM     15  C   LIG d   1      -0.567  84.884 114.180  0.00  0.00     0.109 C 
ATOM     16  O   LIG d   1      -1.206  84.601 111.876  0.00  0.00    -0.276 OA
ATOM     17  H   LIG d   1       0.308  82.555 113.748  0.00  0.00     0.149 HD
ENDBRANCH   6  13
BRANCH   5  18
ATOM     18  N   LIG d   1      -1.978  80.523 112.443  0.00  0.00     0.381 N 
ATOM     19  H   LIG d   1      -2.333  81.456 112.513  0.00  0.00    -0.090 HD
ATOM     20  H   LIG d   1      -2.059  80.086 113.344  0.00  0.00    -0.090 HD
ATOM     21  H   LIG d   1      -2.503  80.011 111.769  0.00  0.00    -0.090 HD
ENDBRANCH   5  18
BRANCH   3  22
ATOM     22  C   LIG d   1       1.375  78.591 109.622  0.00  0.00     0.382 C 
ATOM     23  O   LIG d   1       1.332  77.473 110.190  0.00  0.00    -0.241 OA
ATOM     24  O   LIG d   1       1.890  78.685 108.491  0.00  0.00    -0.241 OA
ENDBRANCH   3  22
TORSDOF 7
ENDMDL
MODEL 4
REMARK VINA RESULT:      -6.1      2.413      4.818
REMARK  7 active torsions:
REMARK  status: ('A' for Active; 'I' for Inactive)
REMARK    1  A    between atoms: C_2  and  C_3 
REMARK    2  A    between atoms: C_3  and  O_6 
REMARK    3  A    between atoms: C_3  and  C_4 
REMARK    4  A    between atoms: C_7  and  O_6 
REMARK    5  A    between atoms: C_9  and  C_10 
REMARK    6  A    between atoms: N_15  and  C_14 
REMARK    7  A    between atoms: N_20  and  C_19 
REMARK       I    between atoms: C_22  and  N_20 
ROOT
ATOM      1  C   LIG d   1       1.464  83.474 110.651  0.00  0.00     0.161 C 
ATOM      2  C   LIG d   1       2.033  82.571 109.737  0.00  0.00     0.016 C 
ATOM      3  C   LIG d   1       2.003  81.168 109.909  0.00  0.00     0.038 C 
ATOM      4  C   LIG d   1       1.266  80.562 110.936  0.00  0.00     0.028 C 
ATOM      5  C   LIG d   1       1.098  81.448 112.166  0.00  0.00    -0.047 C 
ATOM      6  C   LIG d   1       0.559  82.827 111.721  0.00  0.00     0.091 C 
ENDROOT
BRANCH   1   7
ATOM      7  O   LIG d   1       0.744  84.501 109.941  0.00  0.00    -0.368 OA
BRANCH   7   8
ATOM      8  C   LIG d   1       1.299  85.837 110.017  0.00  0.00     0.119 C 
BRANCH   8   9
ATOM      9  C   LIG d   1       2.587  85.756 110.859  0.00  0.00     0.028 C 
ATOM     10  C   LIG d   1       2.653  86.850 111.937  0.00  0.00     0.006 C 
ENDBRANCH   8   9
BRANCH   8  11
ATOM     11  C   LIG d   1       0.371  86.783 110.785  0.00  0.00     0.028 C 
ATOM     12  C   LIG d   1      -1.113  86.411 110.637  0.00  0.00     0.006 C 
ENDBRANCH   8  11
ENDBRANCH   7   8
ENDBRANCH   1   7
BRANCH   6  13
ATOM     13  N   LIG d   1       0.446  83.784 112.852  0.00  0.00    -0.311 N 
ATOM     14  C   LIG d   1      -0.693  84.019 113.502  0.00  0.00     0.210 C 
ATOM     15  C   LIG d   1      -0.594  85.057 114.624  0.00  0.00     0.109 C 
ATOM     16  O   LIG d   1      -1.768  83.443 113.277  0.00  0.00    -0.276 OA
ATOM     17  H   LIG d   1       1.277  84.272 113.122  0.00  0.00     0.149 HD
ENDBRANCH   6  13
BRANCH   5  18
ATOM     18  N   LIG d   1       0.197  80.749 113.100  0.00  0.00     0.381 N 
ATOM     19  H   LIG d   1       0.729  80.336 113.840  0.00  0.00    -0.090 HD
ATOM     20  H   LIG d   1      -0.278  80.014 112.605  0.00  0.00    -0.090 HD
ATOM     21  H   LIG d   1      -0.468  81.389 113.477  0.00  0.00    -0.090 HD
ENDBRANCH   5  18
BRANCH   3  22
ATOM     22  C   LIG d   1       2.751  80.357 109.068  0.00  0.00     0.382 C 
ATOM     23  O   LIG d   1       3.531  80.872 108.231  0.00  0.00    -0.241 OA
ATOM     24  O   LIG d   1       2.622  79.119 109.105  0.00  0.00    -0.241 OA
ENDBRANCH   3  22
TORSDOF 7
ENDMDL
MODEL 5
REMARK VINA RESULT:      -6.1      1.455      2.224
REMARK  7 active torsions:
REMARK  status: ('A' for Active; 'I' for Inactive)
REMARK    1  A    between atoms: C_2  and  C_3 
REMARK    2  A    between atoms: C_3  and  O_6 
REMARK    3  A    between atoms: C_3  and  C_4 
REMARK    4  A    between atoms: C_7  and  O_6 
REMARK    5  A    between atoms: C_9  and  C_10 
REMARK    6  A    between atoms: N_15  and  C_14 
REMARK    7  A    between atoms: N_20  and  C_19 
REMARK       I    between atoms: C_22  and  N_20 
ROOT
ATOM      1  C   LIG d   1      -0.085  81.337 111.182  0.00  0.00     0.161 C 
ATOM      2  C   LIG d   1      -1.008  80.568 111.911  0.00  0.00     0.016 C 
ATOM      3  C   LIG d   1      -1.344  79.235 111.579  0.00  0.00     0.038 C 
ATOM      4  C   LIG d   1      -0.663  78.526 110.579  0.00  0.00     0.028 C 
ATOM      5  C   LIG d   1      -0.081  79.421 109.491  0.00  0.00    -0.047 C 
ATOM      6  C   LIG d   1       0.750  80.543 110.155  0.00  0.00     0.091 C 
ENDROOT
BRANCH   1   7
ATOM      7  O   LIG d   1       0.780  82.050 112.087  0.00  0.00    -0.368 OA
BRANCH   7   8
ATOM      8  C   LIG d   1       0.784  83.493 111.961  0.00  0.00     0.119 C 
BRANCH   8   9
ATOM      9  C   LIG d   1       0.629  84.082 113.377  0.00  0.00     0.028 C 
ATOM     10  C   LIG d   1      -0.830  84.435 113.709  0.00  0.00     0.006 C 
ENDBRANCH   8   9
BRANCH   8  11
ATOM     11  C   LIG d   1      -0.436  83.988 111.180  0.00  0.00     0.028 C 
ATOM     12  C   LIG d   1      -0.067  84.969 110.056  0.00  0.00     0.006 C 
ENDBRANCH   8  11
ENDBRANCH   7   8
ENDBRANCH   1   7
BRANCH   6  13
ATOM     13  N   LIG d   1       1.286  81.513 109.165  0.00  0.00    -0.311 N 
ATOM     14  C   LIG d   1       2.577  81.598 108.847  0.00  0.00     0.210 C 
ATOM     15  C   LIG d   1       2.919  82.680 107.819  0.00  0.00     0.109 C 
ATOM     16  O   LIG d   1       3.466  80.858 109.295  0.00  0.00    -0.276 OA
ATOM     17  H   LIG d   1       0.629  82.131 108.730  0.00  0.00     0.149 HD
ENDBRANCH   6  13
BRANCH   5  18
ATOM     18  N   LIG d   1       0.717  78.567 108.591  0.00  0.00     0.381 N 
ATOM     19  H   LIG d   1       0.154  77.814 108.251  0.00  0.00    -0.090 HD
ATOM     20  H   LIG d   1       1.485  78.177 109.109  0.00  0.00    -0.090 HD
ATOM     21  H   LIG d   1       1.061  79.105 107.826  0.00  0.00    -0.090 HD
ENDBRANCH   5  18
BRANCH   3  22
ATOM     22  C   LIG d   1      -2.401  78.612 112.226  0.00  0.00     0.382 C 
ATOM     23  O   LIG d   1      -2.705  77.430 111.934  0.00  0.00    -0.241 OA
ATOM     24  O   LIG d   1      -3.081  79.231 113.066  0.00  0.00    -0.241 OA
ENDBRANCH   3  22
TORSDOF 7
ENDMDL
MODEL 6
REMARK VINA RESULT:      -6.0      1.678      2.238
REMARK  7 active torsions:
REMARK  status: ('A' for Active; 'I' for Inactive)
REMARK    1  A    between atoms: C_2  and  C_3 
REMARK    2  A    between atoms: C_3  and  O_6 
REMARK    3  A    between atoms: C_3  and  C_4 
REMARK    4  A    between atoms: C_7  and  O_6 
REMARK    5  A    between atoms: C_9  and  C_10 
REMARK    6  A    between atoms: N_15  and  C_14 
REMARK    7  A    between atoms: N_20  and  C_19 
REMARK       I    between atoms: C_22  and  N_20 
ROOT
ATOM      1  C   LIG d   1       0.300  81.140 111.511  0.00  0.00     0.161 C 
ATOM      2  C   LIG d   1      -0.740  80.420 112.122  0.00  0.00     0.016 C 
ATOM      3  C   LIG d   1      -1.245  79.201 111.615  0.00  0.00     0.038 C 
ATOM      4  C   LIG d   1      -0.638  78.537 110.539  0.00  0.00     0.028 C 
ATOM      5  C   LIG d   1       0.092  79.475 109.583  0.00  0.00    -0.047 C 
ATOM      6  C   LIG d   1       1.048  80.376 110.398  0.00  0.00     0.091 C 
ENDROOT
BRANCH   1   7
ATOM      7  O   LIG d   1       1.228  81.603 112.511  0.00  0.00    -0.368 OA
BRANCH   7   8
ATOM      8  C   LIG d   1       1.282  83.037 112.715  0.00  0.00     0.119 C 
BRANCH   8   9
ATOM      9  C   LIG d   1       2.684  83.512 112.286  0.00  0.00     0.028 C 
ATOM     10  C   LIG d   1       2.628  84.584 111.184  0.00  0.00     0.006 C 
ENDBRANCH   8   9
BRANCH   8  11
ATOM     11  C   LIG d   1       1.170  83.393 114.200  0.00  0.00     0.028 C 
ATOM     12  C   LIG d   1       1.342  82.174 115.120  0.00  0.00     0.006 C 
ENDBRANCH   8  11
ENDBRANCH   7   8
ENDBRANCH   1   7
BRANCH   6  13
ATOM     13  N   LIG d   1       1.741  81.381 109.550  0.00  0.00    -0.311 N 
ATOM     14  C   LIG d   1       2.991  81.235 109.113  0.00  0.00     0.210 C 
ATOM     15  C   LIG d   1       3.520  82.398 108.269  0.00  0.00     0.109 C 
ATOM     16  O   LIG d   1       3.699  80.238 109.318  0.00  0.00    -0.276 OA
ATOM     17  H   LIG d   1       1.228  82.206 109.310  0.00  0.00     0.149 HD
ENDBRANCH   6  13
BRANCH   5  18
ATOM     18  N   LIG d   1       0.792  78.641 108.588  0.00  0.00     0.381 N 
ATOM     19  H   LIG d   1       0.921  79.159 107.742  0.00  0.00    -0.090 HD
ATOM     20  H   LIG d   1       0.225  77.837 108.382  0.00  0.00    -0.090 HD
ATOM     21  H   LIG d   1       1.675  78.350 108.947  0.00  0.00    -0.090 HD
ENDBRANCH   5  18
BRANCH   3  22
ATOM     22  C   LIG d   1      -2.395  78.653 112.163  0.00  0.00     0.382 C 
ATOM     23  O   LIG d   1      -3.052  79.298 113.015  0.00  0.00    -0.241 OA
ATOM     24  O   LIG d   1      -2.759  77.503 111.849  0.00  0.00    -0.241 OA
ENDBRANCH   3  22
TORSDOF 7
ENDMDL
MODEL 7
REMARK VINA RESULT:      -6.0      1.821      5.055
REMARK  7 active torsions:
REMARK  status: ('A' for Active; 'I' for Inactive)
REMARK    1  A    between atoms: C_2  and  C_3 
REMARK    2  A    between atoms: C_3  and  O_6 
REMARK    3  A    between atoms: C_3  and  C_4 
REMARK    4  A    between atoms: C_7  and  O_6 
REMARK    5  A    between atoms: C_9  and  C_10 
REMARK    6  A    between atoms: N_15  and  C_14 
REMARK    7  A    between atoms: N_20  and  C_19 
REMARK       I    between atoms: C_22  and  N_20 
ROOT
ATOM      1  C   LIG d   1       1.429  81.362 111.812  0.00  0.00     0.161 C 
ATOM      2  C   LIG d   1       2.476  82.065 111.195  0.00  0.00     0.016 C 
ATOM      3  C   LIG d   1       2.651  82.128 109.793  0.00  0.00     0.038 C 
ATOM      4  C   LIG d   1       1.698  81.613 108.903  0.00  0.00     0.028 C 
ATOM      5  C   LIG d   1       0.888  80.458 109.484  0.00  0.00    -0.047 C 
ATOM      6  C   LIG d   1       0.316  80.886 110.855  0.00  0.00     0.091 C 
ENDROOT
BRANCH   1   7
ATOM      7  O   LIG d   1       0.869  82.155 112.877  0.00  0.00    -0.368 OA
BRANCH   7   8
ATOM      8  C   LIG d   1       0.953  83.592 112.714  0.00  0.00     0.119 C 
BRANCH   8   9
ATOM      9  C   LIG d   1       1.264  84.197 114.097  0.00  0.00     0.028 C 
ATOM     10  C   LIG d   1       1.715  85.665 114.007  0.00  0.00     0.006 C 
ENDBRANCH   8   9
BRANCH   8  11
ATOM     11  C   LIG d   1      -0.398  84.186 112.305  0.00  0.00     0.028 C 
ATOM     12  C   LIG d   1      -0.490  84.475 110.799  0.00  0.00     0.006 C 
ENDBRANCH   8  11
ENDBRANCH   7   8
ENDBRANCH   1   7
BRANCH   6  13
ATOM     13  N   LIG d   1      -0.419  79.786 111.531  0.00  0.00    -0.311 N 
ATOM     14  C   LIG d   1      -1.631  79.933 112.064  0.00  0.00     0.210 C 
ATOM     15  C   LIG d   1      -2.200  78.677 112.731  0.00  0.00     0.109 C 
ATOM     16  O   LIG d   1      -2.301  80.976 112.021  0.00  0.00    -0.276 OA
ATOM     17  H   LIG d   1       0.038  78.897 111.584  0.00  0.00     0.149 HD
ENDBRANCH   6  13
BRANCH   5  18
ATOM     18  N   LIG d   1      -0.158  80.110 108.504  0.00  0.00     0.381 N 
ATOM     19  H   LIG d   1      -0.898  79.616 108.961  0.00  0.00    -0.090 HD
ATOM     20  H   LIG d   1       0.239  79.507 107.805  0.00  0.00    -0.090 HD
ATOM     21  H   LIG d   1      -0.514  80.937 108.077  0.00  0.00    -0.090 HD
ENDBRANCH   5  18
BRANCH   3  22
ATOM     22  C   LIG d   1       3.812  82.677 109.270  0.00  0.00     0.382 C 
ATOM     23  O   LIG d   1       4.328  82.186 108.237  0.00  0.00    -0.241 OA
ATOM     24  O   LIG d   1       4.374  83.630 109.842  0.00  0.00    -0.241 OA
ENDBRANCH   3  22
TORSDOF 7
ENDMDL
MODEL 8
REMARK VINA RESULT:      -5.9      2.347      3.747
REMARK  7 active torsions:
REMARK  status: ('A' for Active; 'I' for Inactive)
REMARK    1  A    between atoms: C_2  and  C_3 
REMARK    2  A    between atoms: C_3  and  O_6 
REMARK    3  A    between atoms: C_3  and  C_4 
REMARK    4  A    between atoms: C_7  and  O_6 
REMARK    5  A    between atoms: C_9  and  C_10 
REMARK    6  A    between atoms: N_15  and  C_14 
REMARK    7  A    between atoms: N_20  and  C_19 
REMARK       I    between atoms: C_22  and  N_20 
ROOT
ATOM      1  C   LIG d   1       0.791  83.214 111.124  0.00  0.00     0.161 C 
ATOM      2  C   LIG d   1       0.614  84.162 112.145  0.00  0.00     0.016 C 
ATOM      3  C   LIG d   1      -0.355  84.035 113.166  0.00  0.00     0.038 C 
ATOM      4  C   LIG d   1      -1.118  82.868 113.323  0.00  0.00     0.028 C 
ATOM      5  C   LIG d   1      -1.327  82.102 112.021  0.00  0.00    -0.047 C 
ATOM      6  C   LIG d   1       0.044  81.882 111.342  0.00  0.00     0.091 C 
ENDROOT
BRANCH   1   7
ATOM      7  O   LIG d   1       2.197  82.972 110.920  0.00  0.00    -0.368 OA
BRANCH   7   8
ATOM      8  C   LIG d   1       2.784  83.579 109.742  0.00  0.00     0.119 C 
BRANCH   8   9
ATOM      9  C   LIG d   1       3.212  82.438 108.798  0.00  0.00     0.028 C 
ATOM     10  C   LIG d   1       4.316  81.557 109.405  0.00  0.00     0.006 C 
ENDBRANCH   8   9
BRANCH   8  11
ATOM     11  C   LIG d   1       4.075  84.327 110.086  0.00  0.00     0.028 C 
ATOM     12  C   LIG d   1       3.881  85.374 111.193  0.00  0.00     0.006 C 
ENDBRANCH   8  11
ENDBRANCH   7   8
ENDBRANCH   1   7
BRANCH   6  13
ATOM     13  N   LIG d   1      -0.079  81.213 110.021  0.00  0.00    -0.311 N 
ATOM     14  C   LIG d   1       0.057  79.899 109.849  0.00  0.00     0.210 C 
ATOM     15  C   LIG d   1      -0.087  79.418 108.402  0.00  0.00     0.109 C 
ATOM     16  O   LIG d   1       0.252  79.082 110.762  0.00  0.00    -0.276 OA
ATOM     17  H   LIG d   1      -0.267  81.797 109.230  0.00  0.00     0.149 HD
ENDBRANCH   6  13
BRANCH   5  18
ATOM     18  N   LIG d   1      -2.018  80.841 112.352  0.00  0.00     0.381 N 
ATOM     19  H   LIG d   1      -2.811  81.031 112.932  0.00  0.00    -0.090 HD
ATOM     20  H   LIG d   1      -1.387  80.250 112.864  0.00  0.00    -0.090 HD
ATOM     21  H   LIG d   1      -2.310  80.383 111.517  0.00  0.00    -0.090 HD
ENDBRANCH   5  18
BRANCH   3  22
ATOM     22  C   LIG d   1      -0.597  85.100 114.020  0.00  0.00     0.382 C 
ATOM     23  O   LIG d   1      -1.776  85.453 114.264  0.00  0.00    -0.241 OA
ATOM     24  O   LIG d   1       0.349  85.740 114.516  0.00  0.00    -0.241 OA
ENDBRANCH   3  22
TORSDOF 7
ENDMDL
MODEL 9
REMARK VINA RESULT:      -5.6      2.427      4.136
REMARK  7 active torsions:
REMARK  status: ('A' for Active; 'I' for Inactive)
REMARK    1  A    between atoms: C_2  and  C_3 
REMARK    2  A    between atoms: C_3  and  O_6 
REMARK    3  A    between atoms: C_3  and  C_4 
REMARK    4  A    between atoms: C_7  and  O_6 
REMARK    5  A    between atoms: C_9  and  C_10 
REMARK    6  A    between atoms: N_15  and  C_14 
REMARK    7  A    between atoms: N_20  and  C_19 
REMARK       I    between atoms: C_22  and  N_20 
ROOT
ATOM      1  C   LIG d   1       1.920  82.256 112.093  0.00  0.00     0.161 C 
ATOM      2  C   LIG d   1       0.770  81.451 112.042  0.00  0.00     0.016 C 
ATOM      3  C   LIG d   1      -0.544  81.972 112.018  0.00  0.00     0.038 C 
ATOM      4  C   LIG d   1      -0.795  83.346 111.888  0.00  0.00     0.028 C 
ATOM      5  C   LIG d   1       0.324  84.221 112.444  0.00  0.00    -0.047 C 
ATOM      6  C   LIG d   1       1.670  83.758 111.840  0.00  0.00     0.091 C 
ENDROOT
BRANCH   1   7
ATOM      7  O   LIG d   1       2.910  81.752 111.174  0.00  0.00    -0.368 OA
BRANCH   7   8
ATOM      8  C   LIG d   1       2.483  81.596 109.799  0.00  0.00     0.119 C 
BRANCH   8   9
ATOM      9  C   LIG d   1       2.860  80.169 109.356  0.00  0.00     0.028 C 
ATOM     10  C   LIG d   1       1.632  79.252 109.224  0.00  0.00     0.006 C 
ENDBRANCH   8   9
BRANCH   8  11
ATOM     11  C   LIG d   1       3.260  82.529 108.865  0.00  0.00     0.028 C 
ATOM     12  C   LIG d   1       4.544  83.080 109.506  0.00  0.00     0.006 C 
ENDBRANCH   8  11
ENDBRANCH   7   8
ENDBRANCH   1   7
BRANCH   6  13
ATOM     13  N   LIG d   1       2.828  84.506 112.395  0.00  0.00    -0.311 N 
ATOM     14  C   LIG d   1       3.296  85.633 111.861  0.00  0.00     0.210 C 
ATOM     15  C   LIG d   1       4.510  86.233 112.578  0.00  0.00     0.109 C 
ATOM     16  O   LIG d   1       2.802  86.210 110.881  0.00  0.00    -0.276 OA
ATOM     17  H   LIG d   1       3.269  84.126 113.209  0.00  0.00     0.149 HD
ENDBRANCH   6  13
BRANCH   5  18
ATOM     18  N   LIG d   1      -0.003  85.622 112.120  0.00  0.00     0.381 N 
ATOM     19  H   LIG d   1      -0.615  85.653 111.329  0.00  0.00    -0.090 HD
ATOM     20  H   LIG d   1       0.844  86.107 111.882  0.00  0.00    -0.090 HD
ATOM     21  H   LIG d   1      -0.437  86.061 112.902  0.00  0.00    -0.090 HD
ENDBRANCH   5  18
BRANCH   3  22
ATOM     22  C   LIG d   1      -1.625  81.116 112.163  0.00  0.00     0.382 C 
ATOM     23  O   LIG d   1      -2.642  81.492 112.795  0.00  0.00    -0.241 OA
ATOM     24  O   LIG d   1      -1.580  79.957 111.709  0.00  0.00    -0.241 OA
ENDBRANCH   3  22
TORSDOF 7
ENDMDL
