MODEL 1
REMARK VINA RESULT:      -6.6      0.000      0.000
REMARK  7 active torsions:
REMARK  status: ('A' for Active; 'I' for Inactive)
REMARK    1  A    between atoms: C_2  and  C_3 
REMARK    2  A    between atoms: C_3  and  O_6 
REMARK    3  A    between atoms: C_3  and  C_4 
REMARK    4  A    between atoms: C_7  and  O_6 
REMARK    5  A    between atoms: C_9  and  C_10 
REMARK    6  A    between atoms: N_15  and  C_14 
REMARK    7  A    between atoms: N_20  and  C_19 
REMARK       I    between atoms: C_22  and  N_20 
ROOT
ATOM      1  C   LIG d   1       1.094  84.081 109.564  0.00  0.00     0.161 C 
ATOM      2  C   LIG d   1       0.866  85.394 110.009  0.00  0.00     0.016 C 
ATOM      3  C   LIG d   1       0.062  85.707 111.129  0.00  0.00     0.038 C 
ATOM      4  C   LIG d   1      -0.450  84.712 111.976  0.00  0.00     0.028 C 
ATOM      5  C   LIG d   1      -0.665  83.374 111.277  0.00  0.00    -0.047 C 
ATOM      6  C   LIG d   1       0.635  82.978 110.540  0.00  0.00     0.091 C 
ENDROOT
BRANCH   1   7
ATOM      7  O   LIG d   1       2.487  83.912 109.235  0.00  0.00    -0.368 OA
BRANCH   7   8
ATOM      8  C   LIG d   1       3.395  83.785 110.357  0.00  0.00     0.119 C 
BRANCH   8   9
ATOM      9  C   LIG d   1       4.061  85.159 110.571  0.00  0.00     0.028 C 
ATOM     10  C   LIG d   1       3.970  85.634 112.030  0.00  0.00     0.006 C 
ENDBRANCH   8   9
BRANCH   8  11
ATOM     11  C   LIG d   1       4.544  82.823 110.038  0.00  0.00     0.028 C 
ATOM     12  C   LIG d   1       4.478  82.271 108.605  0.00  0.00     0.006 C 
ENDBRANCH   8  11
ENDBRANCH   7   8
ENDBRANCH   1   7
BRANCH   6  13
ATOM     13  N   LIG d   1       0.485  81.721 109.760  0.00  0.00    -0.311 N 
ATOM     14  C   LIG d   1       1.213  80.629 109.983  0.00  0.00     0.210 C 
ATOM     15  C   LIG d   1       0.911  79.450 109.052  0.00  0.00     0.109 C 
ATOM     16  O   LIG d   1       2.057  80.513 110.884  0.00  0.00    -0.276 OA
ATOM     17  H   LIG d   1      -0.200  81.717 109.030  0.00  0.00     0.149 HD
ENDBRANCH   6  13
BRANCH   5  18
ATOM     18  N   LIG d   1      -1.069  82.394 112.304  0.00  0.00     0.381 N 
ATOM     19  H   LIG d   1      -2.023  82.548 112.561  0.00  0.00    -0.090 HD
ATOM     20  H   LIG d   1      -0.497  82.525 113.120  0.00  0.00    -0.090 HD
ATOM     21  H   LIG d   1      -0.956  81.468 111.955  0.00  0.00    -0.090 HD
ENDBRANCH   5  18
BRANCH   3  22
ATOM     22  C   LIG d   1      -0.271  87.027 111.389  0.00  0.00     0.382 C 
ATOM     23  O   LIG d   1       0.608  87.829 111.788  0.00  0.00    -0.241 OA
ATOM     24  O   LIG d   1      -1.448  87.417 111.271  0.00  0.00    -0.241 OA
ENDBRANCH   3  22
TORSDOF 7
ENDMDL
MODEL 2
REMARK VINA RESULT:      -6.2      2.644      4.793
REMARK  7 active torsions:
REMARK  status: ('A' for Active; 'I' for Inactive)
REMARK    1  A    between atoms: C_2  and  C_3 
REMARK    2  A    between atoms: C_3  and  O_6 
REMARK    3  A    between atoms: C_3  and  C_4 
REMARK    4  A    between atoms: C_7  and  O_6 
REMARK    5  A    between atoms: C_9  and  C_10 
REMARK    6  A    between atoms: N_15  and  C_14 
REMARK    7  A    between atoms: N_20  and  C_19 
REMARK       I    between atoms: C_22  and  N_20 
ROOT
ATOM      1  C   LIG d   1       2.527  83.773 111.408  0.00  0.00     0.161 C 
ATOM      2  C   LIG d   1       1.465  82.854 111.356  0.00  0.00     0.016 C 
ATOM      3  C   LIG d   1       0.150  83.160 111.778  0.00  0.00     0.038 C 
ATOM      4  C   LIG d   1      -0.228  84.461 112.142  0.00  0.00     0.028 C 
ATOM      5  C   LIG d   1       0.925  85.296 112.689  0.00  0.00    -0.047 C 
ATOM      6  C   LIG d   1       2.108  85.229 111.697  0.00  0.00     0.091 C 
ENDROOT
BRANCH   1   7
ATOM      7  O   LIG d   1       3.292  83.704 110.188  0.00  0.00    -0.368 OA
BRANCH   7   8
ATOM      8  C   LIG d   1       3.519  82.377 109.652  0.00  0.00     0.119 C 
BRANCH   8   9
ATOM      9  C   LIG d   1       4.998  82.025 109.899  0.00  0.00     0.028 C 
ATOM     10  C   LIG d   1       5.230  80.508 110.004  0.00  0.00     0.006 C 
ENDBRANCH   8   9
BRANCH   8  11
ATOM     11  C   LIG d   1       3.345  82.354 108.130  0.00  0.00     0.028 C 
ATOM     12  C   LIG d   1       2.061  83.060 107.666  0.00  0.00     0.006 C 
ENDBRANCH   8  11
ENDBRANCH   7   8
ENDBRANCH   1   7
BRANCH   6  13
ATOM     13  N   LIG d   1       3.308  85.951 112.196  0.00  0.00    -0.311 N 
ATOM     14  C   LIG d   1       3.567  87.226 111.911  0.00  0.00     0.210 C 
ATOM     15  C   LIG d   1       4.868  87.771 112.511  0.00  0.00     0.109 C 
ATOM     16  O   LIG d   1       2.828  87.967 111.246  0.00  0.00    -0.276 OA
ATOM     17  H   LIG d   1       3.945  85.434 112.769  0.00  0.00     0.149 HD
ENDBRANCH   6  13
BRANCH   5  18
ATOM     18  N   LIG d   1       0.422  86.667 112.898  0.00  0.00     0.381 N 
ATOM     19  H   LIG d   1      -0.306  86.864 112.240  0.00  0.00    -0.090 HD
ATOM     20  H   LIG d   1       1.173  87.316 112.741  0.00  0.00    -0.090 HD
ATOM     21  H   LIG d   1       0.076  86.766 113.827  0.00  0.00    -0.090 HD
ENDBRANCH   5  18
BRANCH   3  22
ATOM     22  C   LIG d   1      -0.792  82.148 111.877  0.00  0.00     0.382 C 
ATOM     23  O   LIG d   1      -1.937  82.399 112.325  0.00  0.00    -0.241 OA
ATOM     24  O   LIG d   1      -0.498  80.978 111.566  0.00  0.00    -0.241 OA
ENDBRANCH   3  22
TORSDOF 7
ENDMDL
MODEL 3
REMARK VINA RESULT:      -6.1      2.673      4.748
REMARK  7 active torsions:
REMARK  status: ('A' for Active; 'I' for Inactive)
REMARK    1  A    between atoms: C_2  and  C_3 
REMARK    2  A    between atoms: C_3  and  O_6 
REMARK    3  A    between atoms: C_3  and  C_4 
REMARK    4  A    between atoms: C_7  and  O_6 
REMARK    5  A    between atoms: C_9  and  C_10 
REMARK    6  A    between atoms: N_15  and  C_14 
REMARK    7  A    between atoms: N_20  and  C_19 
REMARK       I    between atoms: C_22  and  N_20 
ROOT
ATOM      1  C   LIG d   1       1.635  81.287 111.807  0.00  0.00     0.161 C 
ATOM      2  C   LIG d   1       2.640  82.029 111.165  0.00  0.00     0.016 C 
ATOM      3  C   LIG d   1       2.745  82.145 109.760  0.00  0.00     0.038 C 
ATOM      4  C   LIG d   1       1.756  81.647 108.899  0.00  0.00     0.028 C 
ATOM      5  C   LIG d   1       0.993  80.459 109.476  0.00  0.00    -0.047 C 
ATOM      6  C   LIG d   1       0.483  80.828 110.887  0.00  0.00     0.091 C 
ENDROOT
BRANCH   1   7
ATOM      7  O   LIG d   1       1.116  82.032 112.926  0.00  0.00    -0.368 OA
BRANCH   7   8
ATOM      8  C   LIG d   1       1.125  83.474 112.791  0.00  0.00     0.119 C 
BRANCH   8   9
ATOM      9  C   LIG d   1       1.492  84.066 114.165  0.00  0.00     0.028 C 
ATOM     10  C   LIG d   1       1.475  85.604 114.166  0.00  0.00     0.006 C 
ENDBRANCH   8   9
BRANCH   8  11
ATOM     11  C   LIG d   1      -0.274  84.013 112.477  0.00  0.00     0.028 C 
ATOM     12  C   LIG d   1      -0.440  84.418 111.004  0.00  0.00     0.006 C 
ENDBRANCH   8  11
ENDBRANCH   7   8
ENDBRANCH   1   7
BRANCH   6  13
ATOM     13  N   LIG d   1      -0.202  79.692 111.558  0.00  0.00    -0.311 N 
ATOM     14  C   LIG d   1      -1.330  79.824 112.254  0.00  0.00     0.210 C 
ATOM     15  C   LIG d   1      -1.858  78.530 112.880  0.00  0.00     0.109 C 
ATOM     16  O   LIG d   1      -1.960  80.884 112.386  0.00  0.00    -0.276 OA
ATOM     17  H   LIG d   1       0.224  78.790 111.476  0.00  0.00     0.149 HD
ENDBRANCH   6  13
BRANCH   5  18
ATOM     18  N   LIG d   1      -0.095  80.129 108.536  0.00  0.00     0.381 N 
ATOM     19  H   LIG d   1       0.274  79.626 107.754  0.00  0.00    -0.090 HD
ATOM     20  H   LIG d   1      -0.502  80.983 108.197  0.00  0.00    -0.090 HD
ATOM     21  H   LIG d   1      -0.788  79.581 108.996  0.00  0.00    -0.090 HD
ENDBRANCH   5  18
BRANCH   3  22
ATOM     22  C   LIG d   1       3.871  82.731 109.201  0.00  0.00     0.382 C 
ATOM     23  O   LIG d   1       4.570  82.090 108.380  0.00  0.00    -0.241 OA
ATOM     24  O   LIG d   1       4.221  83.877 109.541  0.00  0.00    -0.241 OA
ENDBRANCH   3  22
TORSDOF 7
ENDMDL
MODEL 4
REMARK VINA RESULT:      -6.0      2.222      3.212
REMARK  7 active torsions:
REMARK  status: ('A' for Active; 'I' for Inactive)
REMARK    1  A    between atoms: C_2  and  C_3 
REMARK    2  A    between atoms: C_3  and  O_6 
REMARK    3  A    between atoms: C_3  and  C_4 
REMARK    4  A    between atoms: C_7  and  O_6 
REMARK    5  A    between atoms: C_9  and  C_10 
REMARK    6  A    between atoms: N_15  and  C_14 
REMARK    7  A    between atoms: N_20  and  C_19 
REMARK       I    between atoms: C_22  and  N_20 
ROOT
ATOM      1  C   LIG d   1       3.096  84.337 111.075  0.00  0.00     0.161 C 
ATOM      2  C   LIG d   1       3.480  85.588 111.585  0.00  0.00     0.016 C 
ATOM      3  C   LIG d   1       2.634  86.721 111.586  0.00  0.00     0.038 C 
ATOM      4  C   LIG d   1       1.285  86.639 111.211  0.00  0.00     0.028 C 
ATOM      5  C   LIG d   1       0.999  85.519 110.216  0.00  0.00    -0.047 C 
ATOM      6  C   LIG d   1       1.591  84.200 110.763  0.00  0.00     0.091 C 
ENDROOT
BRANCH   1   7
ATOM      7  O   LIG d   1       3.519  83.292 111.973  0.00  0.00    -0.368 OA
BRANCH   7   8
ATOM      8  C   LIG d   1       4.860  82.782 111.770  0.00  0.00     0.119 C 
BRANCH   8   9
ATOM      9  C   LIG d   1       4.978  82.363 110.292  0.00  0.00     0.028 C 
ATOM     10  C   LIG d   1       4.900  80.838 110.107  0.00  0.00     0.006 C 
ENDBRANCH   8   9
BRANCH   8  11
ATOM     11  C   LIG d   1       5.097  81.501 112.576  0.00  0.00     0.028 C 
ATOM     12  C   LIG d   1       4.432  81.537 113.961  0.00  0.00     0.006 C 
ENDBRANCH   8  11
ENDBRANCH   7   8
ENDBRANCH   1   7
BRANCH   6  13
ATOM     13  N   LIG d   1       1.430  83.069 109.812  0.00  0.00    -0.311 N 
ATOM     14  C   LIG d   1       1.058  81.845 110.184  0.00  0.00     0.210 C 
ATOM     15  C   LIG d   1       0.973  80.822 109.048  0.00  0.00     0.109 C 
ATOM     16  O   LIG d   1       0.760  81.519 111.343  0.00  0.00    -0.276 OA
ATOM     17  H   LIG d   1       1.622  83.254 108.847  0.00  0.00     0.149 HD
ENDBRANCH   6  13
BRANCH   5  18
ATOM     18  N   LIG d   1      -0.461  85.460 110.018  0.00  0.00     0.381 N 
ATOM     19  H   LIG d   1      -0.924  85.940 110.764  0.00  0.00    -0.090 HD
ATOM     20  H   LIG d   1      -0.752  84.498 110.034  0.00  0.00    -0.090 HD
ATOM     21  H   LIG d   1      -0.704  85.874 109.145  0.00  0.00    -0.090 HD
ENDBRANCH   5  18
BRANCH   3  22
ATOM     22  C   LIG d   1       3.148  87.963 111.928  0.00  0.00     0.382 C 
ATOM     23  O   LIG d   1       2.381  88.950 112.040  0.00  0.00    -0.241 OA
ATOM     24  O   LIG d   1       4.374  88.118 112.082  0.00  0.00    -0.241 OA
ENDBRANCH   3  22
TORSDOF 7
ENDMDL
MODEL 5
REMARK VINA RESULT:      -5.8      1.526      2.058
REMARK  7 active torsions:
REMARK  status: ('A' for Active; 'I' for Inactive)
REMARK    1  A    between atoms: C_2  and  C_3 
REMARK    2  A    between atoms: C_3  and  O_6 
REMARK    3  A    between atoms: C_3  and  C_4 
REMARK    4  A    between atoms: C_7  and  O_6 
REMARK    5  A    between atoms: C_9  and  C_10 
REMARK    6  A    between atoms: N_15  and  C_14 
REMARK    7  A    between atoms: N_20  and  C_19 
REMARK       I    between atoms: C_22  and  N_20 
ROOT
ATOM      1  C   LIG d   1       1.688  83.501 110.884  0.00  0.00     0.161 C 
ATOM      2  C   LIG d   1       1.651  84.754 111.517  0.00  0.00     0.016 C 
ATOM      3  C   LIG d   1       0.561  85.197 112.301  0.00  0.00     0.038 C 
ATOM      4  C   LIG d   1      -0.507  84.351 112.632  0.00  0.00     0.028 C 
ATOM      5  C   LIG d   1      -0.752  83.253 111.602  0.00  0.00    -0.047 C 
ATOM      6  C   LIG d   1       0.581  82.520 111.324  0.00  0.00     0.091 C 
ENDROOT
BRANCH   1   7
ATOM      7  O   LIG d   1       2.987  82.902 111.061  0.00  0.00    -0.368 OA
BRANCH   7   8
ATOM      8  C   LIG d   1       3.799  82.775 109.868  0.00  0.00     0.119 C 
BRANCH   8   9
ATOM      9  C   LIG d   1       3.041  83.464 108.717  0.00  0.00     0.028 C 
ATOM     10  C   LIG d   1       2.497  82.459 107.688  0.00  0.00     0.006 C 
ENDBRANCH   8   9
BRANCH   8  11
ATOM     11  C   LIG d   1       3.938  81.310 109.442  0.00  0.00     0.028 C 
ATOM     12  C   LIG d   1       5.181  80.632 110.040  0.00  0.00     0.006 C 
ENDBRANCH   8  11
ENDBRANCH   7   8
ENDBRANCH   1   7
BRANCH   6  13
ATOM     13  N   LIG d   1       0.449  81.486 110.265  0.00  0.00    -0.311 N 
ATOM     14  C   LIG d   1       0.165  80.210 110.518  0.00  0.00     0.210 C 
ATOM     15  C   LIG d   1       0.094  79.306 109.284  0.00  0.00     0.109 C 
ATOM     16  O   LIG d   1      -0.067  79.747 111.645  0.00  0.00    -0.276 OA
ATOM     17  H   LIG d   1       0.590  81.781 109.319  0.00  0.00     0.149 HD
ENDBRANCH   6  13
BRANCH   5  18
ATOM     18  N   LIG d   1      -1.799  82.364 112.138  0.00  0.00     0.381 N 
ATOM     19  H   LIG d   1      -2.604  82.393 111.545  0.00  0.00    -0.090 HD
ATOM     20  H   LIG d   1      -2.068  82.690 113.050  0.00  0.00    -0.090 HD
ATOM     21  H   LIG d   1      -1.456  81.431 112.199  0.00  0.00    -0.090 HD
ENDBRANCH   5  18
BRANCH   3  22
ATOM     22  C   LIG d   1       0.515  86.515 112.731  0.00  0.00     0.382 C 
ATOM     23  O   LIG d   1       0.593  87.449 111.898  0.00  0.00    -0.241 OA
ATOM     24  O   LIG d   1       0.440  86.781 113.946  0.00  0.00    -0.241 OA
ENDBRANCH   3  22
TORSDOF 7
ENDMDL
MODEL 6
REMARK VINA RESULT:      -5.6      3.194      5.430
REMARK  7 active torsions:
REMARK  status: ('A' for Active; 'I' for Inactive)
REMARK    1  A    between atoms: C_2  and  C_3 
REMARK    2  A    between atoms: C_3  and  O_6 
REMARK    3  A    between atoms: C_3  and  C_4 
REMARK    4  A    between atoms: C_7  and  O_6 
REMARK    5  A    between atoms: C_9  and  C_10 
REMARK    6  A    between atoms: N_15  and  C_14 
REMARK    7  A    between atoms: N_20  and  C_19 
REMARK       I    between atoms: C_22  and  N_20 
ROOT
ATOM      1  C   LIG d   1       0.812  80.946 111.231  0.00  0.00     0.161 C 
ATOM      2  C   LIG d   1      -0.289  80.268 111.778  0.00  0.00     0.016 C 
ATOM      3  C   LIG d   1      -0.884  79.135 111.175  0.00  0.00     0.038 C 
ATOM      4  C   LIG d   1      -0.318  78.509 110.055  0.00  0.00     0.028 C 
ATOM      5  C   LIG d   1       0.497  79.455 109.180  0.00  0.00    -0.047 C 
ATOM      6  C   LIG d   1       1.511  80.212 110.068  0.00  0.00     0.091 C 
ENDROOT
BRANCH   1   7
ATOM      7  O   LIG d   1       1.761  81.256 112.270  0.00  0.00    -0.368 OA
BRANCH   7   8
ATOM      8  C   LIG d   1       2.216  82.630 112.329  0.00  0.00     0.119 C 
BRANCH   8   9
ATOM      9  C   LIG d   1       3.689  82.611 112.783  0.00  0.00     0.028 C 
ATOM     10  C   LIG d   1       4.231  84.021 113.074  0.00  0.00     0.006 C 
ENDBRANCH   8   9
BRANCH   8  11
ATOM     11  C   LIG d   1       1.469  83.419 113.409  0.00  0.00     0.028 C 
ATOM     12  C   LIG d   1       0.372  84.327 112.831  0.00  0.00     0.006 C 
ENDBRANCH   8  11
ENDBRANCH   7   8
ENDBRANCH   1   7
BRANCH   6  13
ATOM     13  N   LIG d   1       2.293  81.219 109.304  0.00  0.00    -0.311 N 
ATOM     14  C   LIG d   1       3.623  81.280 109.318  0.00  0.00     0.210 C 
ATOM     15  C   LIG d   1       4.228  82.408 108.477  0.00  0.00     0.109 C 
ATOM     16  O   LIG d   1       4.361  80.487 109.923  0.00  0.00    -0.276 OA
ATOM     17  H   LIG d   1       1.775  81.882 108.761  0.00  0.00     0.149 HD
ENDBRANCH   6  13
BRANCH   5  18
ATOM     18  N   LIG d   1       1.141  78.646 108.128  0.00  0.00     0.381 N 
ATOM     19  H   LIG d   1       1.028  79.093 107.240  0.00  0.00    -0.090 HD
ATOM     20  H   LIG d   1       0.692  77.748 108.088  0.00  0.00    -0.090 HD
ATOM     21  H   LIG d   1       2.110  78.532 108.330  0.00  0.00    -0.090 HD
ENDBRANCH   5  18
BRANCH   3  22
ATOM     22  C   LIG d   1      -2.080  78.641 111.672  0.00  0.00     0.382 C 
ATOM     23  O   LIG d   1      -2.490  77.512 111.311  0.00  0.00    -0.241 OA
ATOM     24  O   LIG d   1      -2.778  79.330 112.441  0.00  0.00    -0.241 OA
ENDBRANCH   3  22
TORSDOF 7
ENDMDL
MODEL 7
REMARK VINA RESULT:      -5.5      2.135      4.276
REMARK  7 active torsions:
REMARK  status: ('A' for Active; 'I' for Inactive)
REMARK    1  A    between atoms: C_2  and  C_3 
REMARK    2  A    between atoms: C_3  and  O_6 
REMARK    3  A    between atoms: C_3  and  C_4 
REMARK    4  A    between atoms: C_7  and  O_6 
REMARK    5  A    between atoms: C_9  and  C_10 
REMARK    6  A    between atoms: N_15  and  C_14 
REMARK    7  A    between atoms: N_20  and  C_19 
REMARK       I    between atoms: C_22  and  N_20 
ROOT
ATOM      1  C   LIG d   1       0.866  82.866 111.289  0.00  0.00     0.161 C 
ATOM      2  C   LIG d   1      -0.010  83.921 111.591  0.00  0.00     0.016 C 
ATOM      3  C   LIG d   1       0.333  85.285 111.440  0.00  0.00     0.038 C 
ATOM      4  C   LIG d   1       1.531  85.685 110.829  0.00  0.00     0.028 C 
ATOM      5  C   LIG d   1       2.654  84.664 110.973  0.00  0.00    -0.047 C 
ATOM      6  C   LIG d   1       2.137  83.280 110.517  0.00  0.00     0.091 C 
ENDROOT
BRANCH   1   7
ATOM      7  O   LIG d   1       0.160  81.834 110.573  0.00  0.00    -0.368 OA
BRANCH   7   8
ATOM      8  C   LIG d   1       0.341  80.481 111.060  0.00  0.00     0.119 C 
BRANCH   8   9
ATOM      9  C   LIG d   1       0.667  79.591 109.845  0.00  0.00     0.028 C 
ATOM     10  C   LIG d   1      -0.527  78.721 109.418  0.00  0.00     0.006 C 
ENDBRANCH   8   9
BRANCH   8  11
ATOM     11  C   LIG d   1      -0.962  79.918 111.637  0.00  0.00     0.028 C 
ATOM     12  C   LIG d   1      -0.816  79.455 113.095  0.00  0.00     0.006 C 
ENDBRANCH   8  11
ENDBRANCH   7   8
ENDBRANCH   1   7
BRANCH   6  13
ATOM     13  N   LIG d   1       3.147  82.207 110.705  0.00  0.00    -0.311 N 
ATOM     14  C   LIG d   1       3.822  81.651 109.700  0.00  0.00     0.210 C 
ATOM     15  C   LIG d   1       4.802  80.548 110.111  0.00  0.00     0.109 C 
ATOM     16  O   LIG d   1       3.725  81.989 108.511  0.00  0.00    -0.276 OA
ATOM     17  H   LIG d   1       3.312  81.894 111.642  0.00  0.00     0.149 HD
ENDBRANCH   6  13
BRANCH   5  18
ATOM     18  N   LIG d   1       3.799  85.144 110.176  0.00  0.00     0.381 N 
ATOM     19  H   LIG d   1       4.284  85.860 110.678  0.00  0.00    -0.090 HD
ATOM     20  H   LIG d   1       3.454  85.538 109.318  0.00  0.00    -0.090 HD
ATOM     21  H   LIG d   1       4.418  84.389 109.978  0.00  0.00    -0.090 HD
ENDBRANCH   5  18
BRANCH   3  22
ATOM     22  C   LIG d   1      -0.511  86.265 111.938  0.00  0.00     0.382 C 
ATOM     23  O   LIG d   1      -0.399  87.450 111.542  0.00  0.00    -0.241 OA
ATOM     24  O   LIG d   1      -1.354  85.988 112.813  0.00  0.00    -0.241 OA
ENDBRANCH   3  22
TORSDOF 7
ENDMDL
MODEL 8
REMARK VINA RESULT:      -5.4      2.002      2.903
REMARK  7 active torsions:
REMARK  status: ('A' for Active; 'I' for Inactive)
REMARK    1  A    between atoms: C_2  and  C_3 
REMARK    2  A    between atoms: C_3  and  O_6 
REMARK    3  A    between atoms: C_3  and  C_4 
REMARK    4  A    between atoms: C_7  and  O_6 
REMARK    5  A    between atoms: C_9  and  C_10 
REMARK    6  A    between atoms: N_15  and  C_14 
REMARK    7  A    between atoms: N_20  and  C_19 
REMARK       I    between atoms: C_22  and  N_20 
ROOT
ATOM      1  C   LIG d   1       2.999  84.605 110.801  0.00  0.00     0.161 C 
ATOM      2  C   LIG d   1       3.510  85.879 111.099  0.00  0.00     0.016 C 
ATOM      3  C   LIG d   1       2.886  86.779 111.993  0.00  0.00     0.038 C 
ATOM      4  C   LIG d   1       1.781  86.403 112.772  0.00  0.00     0.028 C 
ATOM      5  C   LIG d   1       0.934  85.308 112.133  0.00  0.00    -0.047 C 
ATOM      6  C   LIG d   1       1.855  84.135 111.725  0.00  0.00     0.091 C 
ENDROOT
BRANCH   1   7
ATOM      7  O   LIG d   1       4.068  83.638 110.796  0.00  0.00    -0.368 OA
BRANCH   7   8
ATOM      8  C   LIG d   1       4.496  83.168 109.494  0.00  0.00     0.119 C 
BRANCH   8   9
ATOM      9  C   LIG d   1       3.358  83.463 108.498  0.00  0.00     0.028 C 
ATOM     10  C   LIG d   1       2.728  82.181 107.929  0.00  0.00     0.006 C 
ENDBRANCH   8   9
BRANCH   8  11
ATOM     11  C   LIG d   1       4.663  81.646 109.479  0.00  0.00     0.028 C 
ATOM     12  C   LIG d   1       5.161  81.088 110.821  0.00  0.00     0.006 C 
ENDBRANCH   8  11
ENDBRANCH   7   8
ENDBRANCH   1   7
BRANCH   6  13
ATOM     13  N   LIG d   1       1.119  83.056 111.016  0.00  0.00    -0.311 N 
ATOM     14  C   LIG d   1       1.248  81.764 111.312  0.00  0.00     0.210 C 
ATOM     15  C   LIG d   1       0.413  80.816 110.446  0.00  0.00     0.109 C 
ATOM     16  O   LIG d   1       1.950  81.316 112.231  0.00  0.00    -0.276 OA
ATOM     17  H   LIG d   1       0.503  83.334 110.277  0.00  0.00     0.149 HD
ENDBRANCH   6  13
BRANCH   5  18
ATOM     18  N   LIG d   1      -0.100  84.918 113.110  0.00  0.00     0.381 N 
ATOM     19  H   LIG d   1      -0.921  84.610 112.629  0.00  0.00    -0.090 HD
ATOM     20  H   LIG d   1      -0.342  85.720 113.665  0.00  0.00    -0.090 HD
ATOM     21  H   LIG d   1       0.243  84.190 113.697  0.00  0.00    -0.090 HD
ENDBRANCH   5  18
BRANCH   3  22
ATOM     22  C   LIG d   1       3.345  88.084 112.086  0.00  0.00     0.382 C 
ATOM     23  O   LIG d   1       4.573  88.310 112.203  0.00  0.00    -0.241 OA
ATOM     24  O   LIG d   1       2.542  89.036 112.099  0.00  0.00    -0.241 OA
ENDBRANCH   3  22
TORSDOF 7
ENDMDL
MODEL 9
REMARK VINA RESULT:      -5.3      2.891      4.029
REMARK  7 active torsions:
REMARK  status: ('A' for Active; 'I' for Inactive)
REMARK    1  A    between atoms: C_2  and  C_3 
REMARK    2  A    between atoms: C_3  and  O_6 
REMARK    3  A    between atoms: C_3  and  C_4 
REMARK    4  A    between atoms: C_7  and  O_6 
REMARK    5  A    between atoms: C_9  and  C_10 
REMARK    6  A    between atoms: N_15  and  C_14 
REMARK    7  A    between atoms: N_20  and  C_19 
REMARK       I    between atoms: C_22  and  N_20 
ROOT
ATOM      1  C   LIG d   1       3.026  85.917 111.279  0.00  0.00     0.161 C 
ATOM      2  C   LIG d   1       3.903  86.976 111.568  0.00  0.00     0.016 C 
ATOM      3  C   LIG d   1       3.746  87.835 112.680  0.00  0.00     0.038 C 
ATOM      4  C   LIG d   1       2.780  87.597 113.669  0.00  0.00     0.028 C 
ATOM      5  C   LIG d   1       1.559  86.842 113.155  0.00  0.00    -0.047 C 
ATOM      6  C   LIG d   1       2.032  85.574 112.407  0.00  0.00     0.091 C 
ENDROOT
BRANCH   1   7
ATOM      7  O   LIG d   1       3.780  84.748 110.902  0.00  0.00    -0.368 OA
BRANCH   7   8
ATOM      8  C   LIG d   1       3.854  83.692 111.891  0.00  0.00     0.119 C 
BRANCH   8   9
ATOM      9  C   LIG d   1       5.217  83.814 112.599  0.00  0.00     0.028 C 
ATOM     10  C   LIG d   1       5.103  84.473 113.984  0.00  0.00     0.006 C 
ENDBRANCH   8   9
BRANCH   8  11
ATOM     11  C   LIG d   1       3.862  82.310 111.231  0.00  0.00     0.028 C 
ATOM     12  C   LIG d   1       5.218  81.961 110.597  0.00  0.00     0.006 C 
ENDBRANCH   8  11
ENDBRANCH   7   8
ENDBRANCH   1   7
BRANCH   6  13
ATOM     13  N   LIG d   1       0.904  84.821 111.800  0.00  0.00    -0.311 N 
ATOM     14  C   LIG d   1       0.331  83.767 112.377  0.00  0.00     0.210 C 
ATOM     15  C   LIG d   1      -0.802  83.124 111.571  0.00  0.00     0.109 C 
ATOM     16  O   LIG d   1       0.632  83.322 113.495  0.00  0.00    -0.276 OA
ATOM     17  H   LIG d   1       0.575  85.133 110.907  0.00  0.00     0.149 HD
ENDBRANCH   6  13
BRANCH   5  18
ATOM     18  N   LIG d   1       0.700  86.542 114.316  0.00  0.00     0.381 N 
ATOM     19  H   LIG d   1       0.655  87.339 114.919  0.00  0.00    -0.090 HD
ATOM     20  H   LIG d   1       1.103  85.779 114.831  0.00  0.00    -0.090 HD
ATOM     21  H   LIG d   1      -0.216  86.297 114.008  0.00  0.00    -0.090 HD
ENDBRANCH   5  18
BRANCH   3  22
ATOM     22  C   LIG d   1       4.536  88.969 112.789  0.00  0.00     0.382 C 
ATOM     23  O   LIG d   1       4.000  90.097 112.909  0.00  0.00    -0.241 OA
ATOM     24  O   LIG d   1       5.777  88.884 112.726  0.00  0.00    -0.241 OA
ENDBRANCH   3  22
TORSDOF 7
ENDMDL
