MODEL 1
REMARK VINA RESULT:      -6.8      0.000      0.000
REMARK  7 active torsions:
REMARK  status: ('A' for Active; 'I' for Inactive)
REMARK    1  A    between atoms: C_2  and  C_3 
REMARK    2  A    between atoms: C_3  and  O_6 
REMARK    3  A    between atoms: C_3  and  C_4 
REMARK    4  A    between atoms: C_7  and  O_6 
REMARK    5  A    between atoms: C_9  and  C_10 
REMARK    6  A    between atoms: N_15  and  C_14 
REMARK    7  A    between atoms: N_20  and  C_19 
REMARK       I    between atoms: C_22  and  N_20 
ROOT
ATOM      1  C   LIG d   1       0.953  83.595 109.429  0.00  0.00     0.161 C 
ATOM      2  C   LIG d   1       0.619  84.878 109.894  0.00  0.00     0.016 C 
ATOM      3  C   LIG d   1      -0.100  85.110 111.089  0.00  0.00     0.038 C 
ATOM      4  C   LIG d   1      -0.403  84.073 111.985  0.00  0.00     0.028 C 
ATOM      5  C   LIG d   1      -0.529  82.710 111.313  0.00  0.00    -0.047 C 
ATOM      6  C   LIG d   1       0.728  82.459 110.448  0.00  0.00     0.091 C 
ENDROOT
BRANCH   1   7
ATOM      7  O   LIG d   1       2.317  83.586 108.961  0.00  0.00    -0.368 OA
BRANCH   7   8
ATOM      8  C   LIG d   1       3.335  83.365 109.968  0.00  0.00     0.119 C 
BRANCH   8   9
ATOM      9  C   LIG d   1       3.946  84.736 110.317  0.00  0.00     0.028 C 
ATOM     10  C   LIG d   1       3.815  85.074 111.812  0.00  0.00     0.006 C 
ENDBRANCH   8   9
BRANCH   8  11
ATOM     11  C   LIG d   1       4.495  82.533 109.415  0.00  0.00     0.028 C 
ATOM     12  C   LIG d   1       4.153  81.845 108.084  0.00  0.00     0.006 C 
ENDBRANCH   8  11
ENDBRANCH   7   8
ENDBRANCH   1   7
BRANCH   6  13
ATOM     13  N   LIG d   1       0.649  81.184 109.689  0.00  0.00    -0.311 N 
ATOM     14  C   LIG d   1       1.444  80.141 109.922  0.00  0.00     0.210 C 
ATOM     15  C   LIG d   1       1.208  78.932 109.012  0.00  0.00     0.109 C 
ATOM     16  O   LIG d   1       2.302  80.092 110.817  0.00  0.00    -0.276 OA
ATOM     17  H   LIG d   1      -0.041  81.126 108.965  0.00  0.00     0.149 HD
ENDBRANCH   6  13
BRANCH   5  18
ATOM     18  N   LIG d   1      -0.709  81.704 112.376  0.00  0.00     0.381 N 
ATOM     19  H   LIG d   1      -1.683  81.595 112.578  0.00  0.00    -0.090 HD
ATOM     20  H   LIG d   1      -0.248  82.025 113.209  0.00  0.00    -0.090 HD
ATOM     21  H   LIG d   1      -0.323  80.831 112.089  0.00  0.00    -0.090 HD
ENDBRANCH   5  18
BRANCH   3  22
ATOM     22  C   LIG d   1      -0.558  86.386 111.380  0.00  0.00     0.382 C 
ATOM     23  O   LIG d   1       0.247  87.268 111.765  0.00  0.00    -0.241 OA
ATOM     24  O   LIG d   1      -1.772  86.654 111.304  0.00  0.00    -0.241 OA
ENDBRANCH   3  22
TORSDOF 7
ENDMDL
MODEL 2
REMARK VINA RESULT:      -6.2      2.583      4.747
REMARK  7 active torsions:
REMARK  status: ('A' for Active; 'I' for Inactive)
REMARK    1  A    between atoms: C_2  and  C_3 
REMARK    2  A    between atoms: C_3  and  O_6 
REMARK    3  A    between atoms: C_3  and  C_4 
REMARK    4  A    between atoms: C_7  and  O_6 
REMARK    5  A    between atoms: C_9  and  C_10 
REMARK    6  A    between atoms: N_15  and  C_14 
REMARK    7  A    between atoms: N_20  and  C_19 
REMARK       I    between atoms: C_22  and  N_20 
ROOT
ATOM      1  C   LIG d   1       2.148  82.880 111.910  0.00  0.00     0.161 C 
ATOM      2  C   LIG d   1       1.102  81.944 111.858  0.00  0.00     0.016 C 
ATOM      3  C   LIG d   1      -0.264  82.306 111.808  0.00  0.00     0.038 C 
ATOM      4  C   LIG d   1      -0.672  83.639 111.651  0.00  0.00     0.028 C 
ATOM      5  C   LIG d   1       0.328  84.648 112.206  0.00  0.00    -0.047 C 
ATOM      6  C   LIG d   1       1.727  84.337 111.628  0.00  0.00     0.091 C 
ENDROOT
BRANCH   1   7
ATOM      7  O   LIG d   1       3.204  82.482 111.013  0.00  0.00    -0.368 OA
BRANCH   7   8
ATOM      8  C   LIG d   1       2.797  81.738 109.838  0.00  0.00     0.119 C 
BRANCH   8   9
ATOM      9  C   LIG d   1       3.815  80.599 109.635  0.00  0.00     0.028 C 
ATOM     10  C   LIG d   1       3.283  79.242 110.126  0.00  0.00     0.006 C 
ENDBRANCH   8   9
BRANCH   8  11
ATOM     11  C   LIG d   1       2.892  82.598 108.574  0.00  0.00     0.028 C 
ATOM     12  C   LIG d   1       1.518  83.063 108.065  0.00  0.00     0.006 C 
ENDBRANCH   8  11
ENDBRANCH   7   8
ENDBRANCH   1   7
BRANCH   6  13
ATOM     13  N   LIG d   1       2.780  85.226 112.184  0.00  0.00    -0.311 N 
ATOM     14  C   LIG d   1       3.095  86.409 111.659  0.00  0.00     0.210 C 
ATOM     15  C   LIG d   1       4.224  87.155 112.376  0.00  0.00     0.109 C 
ATOM     16  O   LIG d   1       2.524  86.925 110.686  0.00  0.00    -0.276 OA
ATOM     17  H   LIG d   1       3.273  84.899 112.993  0.00  0.00     0.149 HD
ENDBRANCH   6  13
BRANCH   5  18
ATOM     18  N   LIG d   1      -0.157  85.996 111.854  0.00  0.00     0.381 N 
ATOM     19  H   LIG d   1      -0.509  85.995 110.917  0.00  0.00    -0.090 HD
ATOM     20  H   LIG d   1       0.612  86.641 111.902  0.00  0.00    -0.090 HD
ATOM     21  H   LIG d   1      -0.875  86.276 112.485  0.00  0.00    -0.090 HD
ENDBRANCH   5  18
BRANCH   3  22
ATOM     22  C   LIG d   1      -1.239  81.331 111.954  0.00  0.00     0.382 C 
ATOM     23  O   LIG d   1      -2.360  81.632 112.432  0.00  0.00    -0.241 OA
ATOM     24  O   LIG d   1      -0.997  80.146 111.656  0.00  0.00    -0.241 OA
ENDBRANCH   3  22
TORSDOF 7
ENDMDL
MODEL 3
REMARK VINA RESULT:      -6.1      2.549      4.141
REMARK  7 active torsions:
REMARK  status: ('A' for Active; 'I' for Inactive)
REMARK    1  A    between atoms: C_2  and  C_3 
REMARK    2  A    between atoms: C_3  and  O_6 
REMARK    3  A    between atoms: C_3  and  C_4 
REMARK    4  A    between atoms: C_7  and  O_6 
REMARK    5  A    between atoms: C_9  and  C_10 
REMARK    6  A    between atoms: N_15  and  C_14 
REMARK    7  A    between atoms: N_20  and  C_19 
REMARK       I    between atoms: C_22  and  N_20 
ROOT
ATOM      1  C   LIG d   1       0.237  82.241 111.165  0.00  0.00     0.161 C 
ATOM      2  C   LIG d   1      -0.869  82.025 112.004  0.00  0.00     0.016 C 
ATOM      3  C   LIG d   1      -1.425  80.748 112.244  0.00  0.00     0.038 C 
ATOM      4  C   LIG d   1      -0.816  79.574 111.777  0.00  0.00     0.028 C 
ATOM      5  C   LIG d   1       0.009  79.782 110.511  0.00  0.00    -0.047 C 
ATOM      6  C   LIG d   1       0.983  80.961 110.735  0.00  0.00     0.091 C 
ENDROOT
BRANCH   1   7
ATOM      7  O   LIG d   1       1.149  83.167 111.788  0.00  0.00    -0.368 OA
BRANCH   7   8
ATOM      8  C   LIG d   1       1.189  84.501 111.222  0.00  0.00     0.119 C 
BRANCH   8   9
ATOM      9  C   LIG d   1       0.216  84.526 110.027  0.00  0.00     0.028 C 
ATOM     10  C   LIG d   1      -0.831  85.646 110.147  0.00  0.00     0.006 C 
ENDBRANCH   8   9
BRANCH   8  11
ATOM     11  C   LIG d   1       2.566  84.814 110.629  0.00  0.00     0.028 C 
ATOM     12  C   LIG d   1       3.722  84.373 111.542  0.00  0.00     0.006 C 
ENDBRANCH   8  11
ENDBRANCH   7   8
ENDBRANCH   1   7
BRANCH   6  13
ATOM     13  N   LIG d   1       1.770  81.286 109.517  0.00  0.00    -0.311 N 
ATOM     14  C   LIG d   1       3.101  81.316 109.490  0.00  0.00     0.210 C 
ATOM     15  C   LIG d   1       3.712  81.694 108.137  0.00  0.00     0.109 C 
ATOM     16  O   LIG d   1       3.834  81.036 110.450  0.00  0.00    -0.276 OA
ATOM     17  H   LIG d   1       1.255  81.496 108.684  0.00  0.00     0.149 HD
ENDBRANCH   6  13
BRANCH   5  18
ATOM     18  N   LIG d   1       0.698  78.511 110.214  0.00  0.00     0.381 N 
ATOM     19  H   LIG d   1       1.059  78.532 109.281  0.00  0.00    -0.090 HD
ATOM     20  H   LIG d   1       0.035  77.759 110.279  0.00  0.00    -0.090 HD
ATOM     21  H   LIG d   1       1.440  78.366 110.862  0.00  0.00    -0.090 HD
ENDBRANCH   5  18
BRANCH   3  22
ATOM     22  C   LIG d   1      -2.628  80.639 112.925  0.00  0.00     0.382 C 
ATOM     23  O   LIG d   1      -3.516  81.511 112.772  0.00  0.00    -0.241 OA
ATOM     24  O   LIG d   1      -2.818  79.704 113.726  0.00  0.00    -0.241 OA
ENDBRANCH   3  22
TORSDOF 7
ENDMDL
MODEL 4
REMARK VINA RESULT:      -6.1      1.625      2.511
REMARK  7 active torsions:
REMARK  status: ('A' for Active; 'I' for Inactive)
REMARK    1  A    between atoms: C_2  and  C_3 
REMARK    2  A    between atoms: C_3  and  O_6 
REMARK    3  A    between atoms: C_3  and  C_4 
REMARK    4  A    between atoms: C_7  and  O_6 
REMARK    5  A    between atoms: C_9  and  C_10 
REMARK    6  A    between atoms: N_15  and  C_14 
REMARK    7  A    between atoms: N_20  and  C_19 
REMARK       I    between atoms: C_22  and  N_20 
ROOT
ATOM      1  C   LIG d   1       1.459  82.635 110.078  0.00  0.00     0.161 C 
ATOM      2  C   LIG d   1       1.702  84.000 110.305  0.00  0.00     0.016 C 
ATOM      3  C   LIG d   1       0.886  84.809 111.127  0.00  0.00     0.038 C 
ATOM      4  C   LIG d   1      -0.150  84.270 111.905  0.00  0.00     0.028 C 
ATOM      5  C   LIG d   1      -0.745  82.994 111.320  0.00  0.00    -0.047 C 
ATOM      6  C   LIG d   1       0.400  82.004 111.006  0.00  0.00     0.091 C 
ENDROOT
BRANCH   1   7
ATOM      7  O   LIG d   1       2.696  81.899 110.157  0.00  0.00    -0.368 OA
BRANCH   7   8
ATOM      8  C   LIG d   1       3.052  81.123 108.986  0.00  0.00     0.119 C 
BRANCH   8   9
ATOM      9  C   LIG d   1       3.848  79.895 109.468  0.00  0.00     0.028 C 
ATOM     10  C   LIG d   1       2.933  78.732 109.889  0.00  0.00     0.006 C 
ENDBRANCH   8   9
BRANCH   8  11
ATOM     11  C   LIG d   1       4.011  81.897 108.076  0.00  0.00     0.028 C 
ATOM     12  C   LIG d   1       4.911  82.873 108.852  0.00  0.00     0.006 C 
ENDBRANCH   8  11
ENDBRANCH   7   8
ENDBRANCH   1   7
BRANCH   6  13
ATOM     13  N   LIG d   1      -0.088  80.762 110.352  0.00  0.00    -0.311 N 
ATOM     14  C   LIG d   1      -0.479  79.682 111.028  0.00  0.00     0.210 C 
ATOM     15  C   LIG d   1      -0.927  78.503 110.159  0.00  0.00     0.109 C 
ATOM     16  O   LIG d   1      -0.528  79.601 112.265  0.00  0.00    -0.276 OA
ATOM     17  H   LIG d   1      -0.111  80.752 109.352  0.00  0.00     0.149 HD
ENDBRANCH   6  13
BRANCH   5  18
ATOM     18  N   LIG d   1      -1.715  82.465 112.298  0.00  0.00     0.381 N 
ATOM     19  H   LIG d   1      -2.599  82.318 111.853  0.00  0.00    -0.090 HD
ATOM     20  H   LIG d   1      -1.839  83.142 113.030  0.00  0.00    -0.090 HD
ATOM     21  H   LIG d   1      -1.381  81.608 112.680  0.00  0.00    -0.090 HD
ENDBRANCH   5  18
BRANCH   3  22
ATOM     22  C   LIG d   1       1.077  86.183 111.146  0.00  0.00     0.382 C 
ATOM     23  O   LIG d   1       2.121  86.677 110.656  0.00  0.00    -0.241 OA
ATOM     24  O   LIG d   1       0.240  86.930 111.687  0.00  0.00    -0.241 OA
ENDBRANCH   3  22
TORSDOF 7
ENDMDL
MODEL 5
REMARK VINA RESULT:      -5.8      2.525      4.776
REMARK  7 active torsions:
REMARK  status: ('A' for Active; 'I' for Inactive)
REMARK    1  A    between atoms: C_2  and  C_3 
REMARK    2  A    between atoms: C_3  and  O_6 
REMARK    3  A    between atoms: C_3  and  C_4 
REMARK    4  A    between atoms: C_7  and  O_6 
REMARK    5  A    between atoms: C_9  and  C_10 
REMARK    6  A    between atoms: N_15  and  C_14 
REMARK    7  A    between atoms: N_20  and  C_19 
REMARK       I    between atoms: C_22  and  N_20 
ROOT
ATOM      1  C   LIG d   1       1.389  81.214 111.853  0.00  0.00     0.161 C 
ATOM      2  C   LIG d   1       2.391  81.859 111.110  0.00  0.00     0.016 C 
ATOM      3  C   LIG d   1       2.458  81.823 109.698  0.00  0.00     0.038 C 
ATOM      4  C   LIG d   1       1.433  81.262 108.921  0.00  0.00     0.028 C 
ATOM      5  C   LIG d   1       0.661  80.161 109.642  0.00  0.00    -0.047 C 
ATOM      6  C   LIG d   1       0.201  80.690 111.019  0.00  0.00     0.091 C 
ENDROOT
BRANCH   1   7
ATOM      7  O   LIG d   1       0.920  82.086 112.900  0.00  0.00    -0.368 OA
BRANCH   7   8
ATOM      8  C   LIG d   1       0.988  83.507 112.625  0.00  0.00     0.119 C 
BRANCH   8   9
ATOM      9  C   LIG d   1       1.417  84.211 113.927  0.00  0.00     0.028 C 
ATOM     10  C   LIG d   1       1.381  85.743 113.805  0.00  0.00     0.006 C 
ENDBRANCH   8   9
BRANCH   8  11
ATOM     11  C   LIG d   1      -0.395  84.076 112.293  0.00  0.00     0.028 C 
ATOM     12  C   LIG d   1      -0.569  84.383 110.797  0.00  0.00     0.006 C 
ENDBRANCH   8  11
ENDBRANCH   7   8
ENDBRANCH   1   7
BRANCH   6  13
ATOM     13  N   LIG d   1      -0.489  79.649 111.824  0.00  0.00    -0.311 N 
ATOM     14  C   LIG d   1      -1.613  79.872 112.503  0.00  0.00     0.210 C 
ATOM     15  C   LIG d   1      -2.147  78.667 113.283  0.00  0.00     0.109 C 
ATOM     16  O   LIG d   1      -2.236  80.944 112.506  0.00  0.00    -0.276 OA
ATOM     17  H   LIG d   1      -0.069  78.740 111.852  0.00  0.00     0.149 HD
ENDBRANCH   6  13
BRANCH   5  18
ATOM     18  N   LIG d   1      -0.461  79.761 108.772  0.00  0.00     0.381 N 
ATOM     19  H   LIG d   1      -0.161  79.747 107.817  0.00  0.00    -0.090 HD
ATOM     20  H   LIG d   1      -1.198  80.437 108.861  0.00  0.00    -0.090 HD
ATOM     21  H   LIG d   1      -0.792  78.859 109.036  0.00  0.00    -0.090 HD
ENDBRANCH   5  18
BRANCH   3  22
ATOM     22  C   LIG d   1       3.579  82.319 109.050  0.00  0.00     0.382 C 
ATOM     23  O   LIG d   1       3.810  81.995 107.860  0.00  0.00    -0.241 OA
ATOM     24  O   LIG d   1       4.386  83.051 109.654  0.00  0.00    -0.241 OA
ENDBRANCH   3  22
TORSDOF 7
ENDMDL
MODEL 6
REMARK VINA RESULT:      -5.7      1.648      4.872
REMARK  7 active torsions:
REMARK  status: ('A' for Active; 'I' for Inactive)
REMARK    1  A    between atoms: C_2  and  C_3 
REMARK    2  A    between atoms: C_3  and  O_6 
REMARK    3  A    between atoms: C_3  and  C_4 
REMARK    4  A    between atoms: C_7  and  O_6 
REMARK    5  A    between atoms: C_9  and  C_10 
REMARK    6  A    between atoms: N_15  and  C_14 
REMARK    7  A    between atoms: N_20  and  C_19 
REMARK       I    between atoms: C_22  and  N_20 
ROOT
ATOM      1  C   LIG d   1       1.894  81.715 110.859  0.00  0.00     0.161 C 
ATOM      2  C   LIG d   1       1.897  80.407 110.347  0.00  0.00     0.016 C 
ATOM      3  C   LIG d   1       0.794  79.528 110.452  0.00  0.00     0.038 C 
ATOM      4  C   LIG d   1      -0.448  79.952 110.947  0.00  0.00     0.028 C 
ATOM      5  C   LIG d   1      -0.343  81.109 111.935  0.00  0.00    -0.047 C 
ATOM      6  C   LIG d   1       0.510  82.233 111.303  0.00  0.00     0.091 C 
ENDROOT
BRANCH   1   7
ATOM      7  O   LIG d   1       2.482  82.616 109.900  0.00  0.00    -0.368 OA
BRANCH   7   8
ATOM      8  C   LIG d   1       3.831  83.061 110.187  0.00  0.00     0.119 C 
BRANCH   8   9
ATOM      9  C   LIG d   1       3.800  84.599 110.287  0.00  0.00     0.028 C 
ATOM     10  C   LIG d   1       4.053  85.099 111.719  0.00  0.00     0.006 C 
ENDBRANCH   8   9
BRANCH   8  11
ATOM     11  C   LIG d   1       4.780  82.749 109.026  0.00  0.00     0.028 C 
ATOM     12  C   LIG d   1       4.101  81.955 107.899  0.00  0.00     0.006 C 
ENDBRANCH   8  11
ENDBRANCH   7   8
ENDBRANCH   1   7
BRANCH   6  13
ATOM     13  N   LIG d   1       0.733  83.368 112.236  0.00  0.00    -0.311 N 
ATOM     14  C   LIG d   1       0.275  84.599 112.015  0.00  0.00     0.210 C 
ATOM     15  C   LIG d   1       0.634  85.626 113.094  0.00  0.00     0.109 C 
ATOM     16  O   LIG d   1      -0.422  84.931 111.045  0.00  0.00    -0.276 OA
ATOM     17  H   LIG d   1       1.262  83.180 113.065  0.00  0.00     0.149 HD
ENDBRANCH   6  13
BRANCH   5  18
ATOM     18  N   LIG d   1      -1.715  81.540 112.264  0.00  0.00     0.381 N 
ATOM     19  H   LIG d   1      -2.339  80.761 112.200  0.00  0.00    -0.090 HD
ATOM     20  H   LIG d   1      -2.007  82.233 111.597  0.00  0.00    -0.090 HD
ATOM     21  H   LIG d   1      -1.741  81.923 113.183  0.00  0.00    -0.090 HD
ENDBRANCH   5  18
BRANCH   3  22
ATOM     22  C   LIG d   1       0.941  78.196 110.096  0.00  0.00     0.382 C 
ATOM     23  O   LIG d   1       1.951  77.828 109.448  0.00  0.00    -0.241 OA
ATOM     24  O   LIG d   1       0.056  77.366 110.376  0.00  0.00    -0.241 OA
ENDBRANCH   3  22
TORSDOF 7
ENDMDL
MODEL 7
REMARK VINA RESULT:      -5.6      2.136      2.846
REMARK  7 active torsions:
REMARK  status: ('A' for Active; 'I' for Inactive)
REMARK    1  A    between atoms: C_2  and  C_3 
REMARK    2  A    between atoms: C_3  and  O_6 
REMARK    3  A    between atoms: C_3  and  C_4 
REMARK    4  A    between atoms: C_7  and  O_6 
REMARK    5  A    between atoms: C_9  and  C_10 
REMARK    6  A    between atoms: N_15  and  C_14 
REMARK    7  A    between atoms: N_20  and  C_19 
REMARK       I    between atoms: C_22  and  N_20 
ROOT
ATOM      1  C   LIG d   1       1.136  82.622 110.701  0.00  0.00     0.161 C 
ATOM      2  C   LIG d   1       1.354  83.997 110.515  0.00  0.00     0.016 C 
ATOM      3  C   LIG d   1       1.570  84.902 111.580  0.00  0.00     0.038 C 
ATOM      4  C   LIG d   1       1.735  84.464 112.902  0.00  0.00     0.028 C 
ATOM      5  C   LIG d   1       1.022  83.149 113.198  0.00  0.00    -0.047 C 
ATOM      6  C   LIG d   1       1.422  82.109 112.127  0.00  0.00     0.091 C 
ENDROOT
BRANCH   1   7
ATOM      7  O   LIG d   1       1.899  81.872 109.735  0.00  0.00    -0.368 OA
BRANCH   7   8
ATOM      8  C   LIG d   1       3.226  81.464 110.150  0.00  0.00     0.119 C 
BRANCH   8   9
ATOM      9  C   LIG d   1       4.240  82.315 109.361  0.00  0.00     0.028 C 
ATOM     10  C   LIG d   1       4.203  82.022 107.851  0.00  0.00     0.006 C 
ENDBRANCH   8   9
BRANCH   8  11
ATOM     11  C   LIG d   1       3.515  80.014 109.749  0.00  0.00     0.028 C 
ATOM     12  C   LIG d   1       2.237  79.209 109.467  0.00  0.00     0.006 C 
ENDBRANCH   8  11
ENDBRANCH   7   8
ENDBRANCH   1   7
BRANCH   6  13
ATOM     13  N   LIG d   1       0.704  80.818 112.294  0.00  0.00    -0.311 N 
ATOM     14  C   LIG d   1      -0.622  80.708 112.259  0.00  0.00     0.210 C 
ATOM     15  C   LIG d   1      -1.159  79.289 112.473  0.00  0.00     0.109 C 
ATOM     16  O   LIG d   1      -1.405  81.645 112.041  0.00  0.00    -0.276 OA
ATOM     17  H   LIG d   1       1.263  80.001 112.444  0.00  0.00     0.149 HD
ENDBRANCH   6  13
BRANCH   5  18
ATOM     18  N   LIG d   1       1.390  82.740 114.567  0.00  0.00     0.381 N 
ATOM     19  H   LIG d   1       1.917  81.890 114.537  0.00  0.00    -0.090 HD
ATOM     20  H   LIG d   1       0.550  82.572 115.093  0.00  0.00    -0.090 HD
ATOM     21  H   LIG d   1       1.926  83.457 115.004  0.00  0.00    -0.090 HD
ENDBRANCH   5  18
BRANCH   3  22
ATOM     22  C   LIG d   1       1.584  86.266 111.331  0.00  0.00     0.382 C 
ATOM     23  O   LIG d   1       2.540  86.778 110.700  0.00  0.00    -0.241 OA
ATOM     24  O   LIG d   1       0.675  86.997 111.768  0.00  0.00    -0.241 OA
ENDBRANCH   3  22
TORSDOF 7
ENDMDL
MODEL 8
REMARK VINA RESULT:      -5.5      2.731      3.790
REMARK  7 active torsions:
REMARK  status: ('A' for Active; 'I' for Inactive)
REMARK    1  A    between atoms: C_2  and  C_3 
REMARK    2  A    between atoms: C_3  and  O_6 
REMARK    3  A    between atoms: C_3  and  C_4 
REMARK    4  A    between atoms: C_7  and  O_6 
REMARK    5  A    between atoms: C_9  and  C_10 
REMARK    6  A    between atoms: N_15  and  C_14 
REMARK    7  A    between atoms: N_20  and  C_19 
REMARK       I    between atoms: C_22  and  N_20 
ROOT
ATOM      1  C   LIG d   1       3.010  84.431 111.262  0.00  0.00     0.161 C 
ATOM      2  C   LIG d   1       3.628  85.691 111.304  0.00  0.00     0.016 C 
ATOM      3  C   LIG d   1       3.618  86.525 112.446  0.00  0.00     0.038 C 
ATOM      4  C   LIG d   1       3.116  86.086 113.680  0.00  0.00     0.028 C 
ATOM      5  C   LIG d   1       2.034  85.019 113.548  0.00  0.00    -0.047 C 
ATOM      6  C   LIG d   1       2.553  83.888 112.632  0.00  0.00     0.091 C 
ENDROOT
BRANCH   1   7
ATOM      7  O   LIG d   1       3.879  83.482 110.612  0.00  0.00    -0.368 OA
BRANCH   7   8
ATOM      8  C   LIG d   1       3.566  83.172 109.232  0.00  0.00     0.119 C 
BRANCH   8   9
ATOM      9  C   LIG d   1       2.063  83.446 109.025  0.00  0.00     0.028 C 
ATOM     10  C   LIG d   1       1.581  83.045 107.621  0.00  0.00     0.006 C 
ENDBRANCH   8   9
BRANCH   8  11
ATOM     11  C   LIG d   1       3.750  81.679 108.940  0.00  0.00     0.028 C 
ATOM     12  C   LIG d   1       3.533  80.799 110.181  0.00  0.00     0.006 C 
ENDBRANCH   8  11
ENDBRANCH   7   8
ENDBRANCH   1   7
BRANCH   6  13
ATOM     13  N   LIG d   1       1.525  82.844 112.382  0.00  0.00    -0.311 N 
ATOM     14  C   LIG d   1       1.417  81.733 113.109  0.00  0.00     0.210 C 
ATOM     15  C   LIG d   1       0.301  80.780 112.669  0.00  0.00     0.109 C 
ATOM     16  O   LIG d   1       2.118  81.462 114.095  0.00  0.00    -0.276 OA
ATOM     17  H   LIG d   1       0.894  82.998 111.620  0.00  0.00     0.149 HD
ENDBRANCH   6  13
BRANCH   5  18
ATOM     18  N   LIG d   1       1.698  84.554 114.907  0.00  0.00     0.381 N 
ATOM     19  H   LIG d   1       1.619  83.557 114.914  0.00  0.00    -0.090 HD
ATOM     20  H   LIG d   1       0.811  84.943 115.174  0.00  0.00    -0.090 HD
ATOM     21  H   LIG d   1       2.403  84.843 115.550  0.00  0.00    -0.090 HD
ENDBRANCH   5  18
BRANCH   3  22
ATOM     22  C   LIG d   1       4.080  87.828 112.349  0.00  0.00     0.382 C 
ATOM     23  O   LIG d   1       5.303  88.049 112.171  0.00  0.00    -0.241 OA
ATOM     24  O   LIG d   1       3.297  88.788 112.482  0.00  0.00    -0.241 OA
ENDBRANCH   3  22
TORSDOF 7
ENDMDL
MODEL 9
REMARK VINA RESULT:      -5.3      2.930      4.479
REMARK  7 active torsions:
REMARK  status: ('A' for Active; 'I' for Inactive)
REMARK    1  A    between atoms: C_2  and  C_3 
REMARK    2  A    between atoms: C_3  and  O_6 
REMARK    3  A    between atoms: C_3  and  C_4 
REMARK    4  A    between atoms: C_7  and  O_6 
REMARK    5  A    between atoms: C_9  and  C_10 
REMARK    6  A    between atoms: N_15  and  C_14 
REMARK    7  A    between atoms: N_20  and  C_19 
REMARK       I    between atoms: C_22  and  N_20 
ROOT
ATOM      1  C   LIG d   1       2.200  85.948 111.903  0.00  0.00     0.161 C 
ATOM      2  C   LIG d   1       2.751  87.233 112.049  0.00  0.00     0.016 C 
ATOM      3  C   LIG d   1       3.539  87.621 113.157  0.00  0.00     0.038 C 
ATOM      4  C   LIG d   1       3.958  86.699 114.127  0.00  0.00     0.028 C 
ATOM      5  C   LIG d   1       3.011  85.515 114.287  0.00  0.00    -0.047 C 
ATOM      6  C   LIG d   1       2.739  84.898 112.896  0.00  0.00     0.091 C 
ENDROOT
BRANCH   1   7
ATOM      7  O   LIG d   1       2.376  85.492 110.547  0.00  0.00    -0.368 OA
BRANCH   7   8
ATOM      8  C   LIG d   1       1.187  85.484 109.719  0.00  0.00     0.119 C 
BRANCH   8   9
ATOM      9  C   LIG d   1      -0.004  85.876 110.614  0.00  0.00     0.028 C 
ATOM     10  C   LIG d   1      -1.000  84.720 110.807  0.00  0.00     0.006 C 
ENDBRANCH   8   9
BRANCH   8  11
ATOM     11  C   LIG d   1       0.869  84.073 109.216  0.00  0.00     0.028 C 
ATOM     12  C   LIG d   1       2.110  83.333 108.692  0.00  0.00     0.006 C 
ENDBRANCH   8  11
ENDBRANCH   7   8
ENDBRANCH   1   7
BRANCH   6  13
ATOM     13  N   LIG d   1       1.755  83.785 112.952  0.00  0.00    -0.311 N 
ATOM     14  C   LIG d   1       1.955  82.600 112.377  0.00  0.00     0.210 C 
ATOM     15  C   LIG d   1       0.805  81.601 112.538  0.00  0.00     0.109 C 
ATOM     16  O   LIG d   1       2.989  82.271 111.776  0.00  0.00    -0.276 OA
ATOM     17  H   LIG d   1       0.901  83.956 113.446  0.00  0.00     0.149 HD
ENDBRANCH   6  13
BRANCH   5  18
ATOM     18  N   LIG d   1       3.637  84.567 115.228  0.00  0.00     0.381 N 
ATOM     19  H   LIG d   1       4.474  84.965 115.604  0.00  0.00    -0.090 HD
ATOM     20  H   LIG d   1       3.882  83.729 114.730  0.00  0.00    -0.090 HD
ATOM     21  H   LIG d   1       3.004  84.350 115.966  0.00  0.00    -0.090 HD
ENDBRANCH   5  18
BRANCH   3  22
ATOM     22  C   LIG d   1       3.882  88.954 113.322  0.00  0.00     0.382 C 
ATOM     23  O   LIG d   1       3.344  89.631 114.231  0.00  0.00    -0.241 OA
ATOM     24  O   LIG d   1       4.690  89.499 112.547  0.00  0.00    -0.241 OA
ENDBRANCH   3  22
TORSDOF 7
ENDMDL
