MODEL 1
REMARK VINA RESULT:      -6.6      0.000      0.000
REMARK  7 active torsions:
REMARK  status: ('A' for Active; 'I' for Inactive)
REMARK    1  A    between atoms: C_2  and  C_3 
REMARK    2  A    between atoms: C_3  and  O_6 
REMARK    3  A    between atoms: C_3  and  C_4 
REMARK    4  A    between atoms: C_7  and  O_6 
REMARK    5  A    between atoms: C_9  and  C_10 
REMARK    6  A    between atoms: N_15  and  C_14 
REMARK    7  A    between atoms: N_20  and  C_19 
REMARK       I    between atoms: C_22  and  N_20 
ROOT
ATOM      1  C   LIG d   1       1.333  81.601 111.978  0.00  0.00     0.161 C 
ATOM      2  C   LIG d   1       2.444  82.185 111.347  0.00  0.00     0.016 C 
ATOM      3  C   LIG d   1       2.687  82.095 109.957  0.00  0.00     0.038 C 
ATOM      4  C   LIG d   1       1.748  81.539 109.075  0.00  0.00     0.028 C 
ATOM      5  C   LIG d   1       0.850  80.492 109.727  0.00  0.00    -0.047 C 
ATOM      6  C   LIG d   1       0.241  81.087 111.017  0.00  0.00     0.091 C 
ENDROOT
BRANCH   1   7
ATOM      7  O   LIG d   1       0.769  82.526 112.928  0.00  0.00    -0.368 OA
BRANCH   7   8
ATOM      8  C   LIG d   1       0.946  83.933 112.631  0.00  0.00     0.119 C 
BRANCH   8   9
ATOM      9  C   LIG d   1       1.363  84.634 113.938  0.00  0.00     0.028 C 
ATOM     10  C   LIG d   1       0.862  86.086 114.011  0.00  0.00     0.006 C 
ENDBRANCH   8   9
BRANCH   8  11
ATOM     11  C   LIG d   1      -0.378  84.588 112.224  0.00  0.00     0.028 C 
ATOM     12  C   LIG d   1      -0.462  84.873 110.716  0.00  0.00     0.006 C 
ENDBRANCH   8  11
ENDBRANCH   7   8
ENDBRANCH   1   7
BRANCH   6  13
ATOM     13  N   LIG d   1      -0.584  80.100 111.761  0.00  0.00    -0.311 N 
ATOM     14  C   LIG d   1      -1.729  80.410 112.367  0.00  0.00     0.210 C 
ATOM     15  C   LIG d   1      -2.411  79.247 113.095  0.00  0.00     0.109 C 
ATOM     16  O   LIG d   1      -2.261  81.530 112.345  0.00  0.00    -0.276 OA
ATOM     17  H   LIG d   1      -0.243  79.159 111.803  0.00  0.00     0.149 HD
ENDBRANCH   6  13
BRANCH   5  18
ATOM     18  N   LIG d   1      -0.168  80.098 108.735  0.00  0.00     0.381 N 
ATOM     19  H   LIG d   1      -0.454  80.898 108.207  0.00  0.00    -0.090 HD
ATOM     20  H   LIG d   1      -0.970  79.736 109.219  0.00  0.00    -0.090 HD
ATOM     21  H   LIG d   1       0.203  79.404 108.124  0.00  0.00    -0.090 HD
ENDBRANCH   5  18
BRANCH   3  22
ATOM     22  C   LIG d   1       3.898  82.528 109.441  0.00  0.00     0.382 C 
ATOM     23  O   LIG d   1       4.754  83.044 110.200  0.00  0.00    -0.241 OA
ATOM     24  O   LIG d   1       4.129  82.451 108.220  0.00  0.00    -0.241 OA
ENDBRANCH   3  22
TORSDOF 7
ENDMDL
MODEL 2
REMARK VINA RESULT:      -6.6      1.756      4.987
REMARK  7 active torsions:
REMARK  status: ('A' for Active; 'I' for Inactive)
REMARK    1  A    between atoms: C_2  and  C_3 
REMARK    2  A    between atoms: C_3  and  O_6 
REMARK    3  A    between atoms: C_3  and  C_4 
REMARK    4  A    between atoms: C_7  and  O_6 
REMARK    5  A    between atoms: C_9  and  C_10 
REMARK    6  A    between atoms: N_15  and  C_14 
REMARK    7  A    between atoms: N_20  and  C_19 
REMARK       I    between atoms: C_22  and  N_20 
ROOT
ATOM      1  C   LIG d   1       0.325  82.831 111.178  0.00  0.00     0.161 C 
ATOM      2  C   LIG d   1      -0.777  82.459 111.965  0.00  0.00     0.016 C 
ATOM      3  C   LIG d   1      -1.255  81.131 112.057  0.00  0.00     0.038 C 
ATOM      4  C   LIG d   1      -0.565  80.053 111.483  0.00  0.00     0.028 C 
ATOM      5  C   LIG d   1       0.264  80.445 110.265  0.00  0.00    -0.047 C 
ATOM      6  C   LIG d   1       1.158  81.651 110.633  0.00  0.00     0.091 C 
ENDROOT
BRANCH   1   7
ATOM      7  O   LIG d   1       1.167  83.740 111.915  0.00  0.00    -0.368 OA
BRANCH   7   8
ATOM      8  C   LIG d   1       1.257  85.089 111.394  0.00  0.00     0.119 C 
BRANCH   8   9
ATOM      9  C   LIG d   1       0.360  85.163 110.143  0.00  0.00     0.028 C 
ATOM     10  C   LIG d   1      -0.804  86.153 110.314  0.00  0.00     0.006 C 
ENDBRANCH   8   9
BRANCH   8  11
ATOM     11  C   LIG d   1       2.672  85.401 110.897  0.00  0.00     0.028 C 
ATOM     12  C   LIG d   1       3.763  84.728 111.746  0.00  0.00     0.006 C 
ENDBRANCH   8  11
ENDBRANCH   7   8
ENDBRANCH   1   7
BRANCH   6  13
ATOM     13  N   LIG d   1       1.941  82.152 109.473  0.00  0.00    -0.311 N 
ATOM     14  C   LIG d   1       3.256  81.985 109.349  0.00  0.00     0.210 C 
ATOM     15  C   LIG d   1       3.870  82.596 108.086  0.00  0.00     0.109 C 
ATOM     16  O   LIG d   1       3.968  81.360 110.150  0.00  0.00    -0.276 OA
ATOM     17  H   LIG d   1       1.437  82.643 108.760  0.00  0.00     0.149 HD
ENDBRANCH   6  13
BRANCH   5  18
ATOM     18  N   LIG d   1       1.037  79.258 109.851  0.00  0.00     0.381 N 
ATOM     19  H   LIG d   1       1.540  79.458 109.010  0.00  0.00    -0.090 HD
ATOM     20  H   LIG d   1       0.399  78.504 109.665  0.00  0.00    -0.090 HD
ATOM     21  H   LIG d   1       1.671  78.996 110.573  0.00  0.00    -0.090 HD
ENDBRANCH   5  18
BRANCH   3  22
ATOM     22  C   LIG d   1      -2.459  80.877 112.697  0.00  0.00     0.382 C 
ATOM     23  O   LIG d   1      -2.530  79.970 113.561  0.00  0.00    -0.241 OA
ATOM     24  O   LIG d   1      -3.485  81.513 112.389  0.00  0.00    -0.241 OA
ENDBRANCH   3  22
TORSDOF 7
ENDMDL
MODEL 3
REMARK VINA RESULT:      -6.4      2.874      5.950
REMARK  7 active torsions:
REMARK  status: ('A' for Active; 'I' for Inactive)
REMARK    1  A    between atoms: C_2  and  C_3 
REMARK    2  A    between atoms: C_3  and  O_6 
REMARK    3  A    between atoms: C_3  and  C_4 
REMARK    4  A    between atoms: C_7  and  O_6 
REMARK    5  A    between atoms: C_9  and  C_10 
REMARK    6  A    between atoms: N_15  and  C_14 
REMARK    7  A    between atoms: N_20  and  C_19 
REMARK       I    between atoms: C_22  and  N_20 
ROOT
ATOM      1  C   LIG d   1       2.132  83.424 112.218  0.00  0.00     0.161 C 
ATOM      2  C   LIG d   1       1.135  82.447 112.058  0.00  0.00     0.016 C 
ATOM      3  C   LIG d   1      -0.242  82.750 111.953  0.00  0.00     0.038 C 
ATOM      4  C   LIG d   1      -0.705  84.070 111.849  0.00  0.00     0.028 C 
ATOM      5  C   LIG d   1       0.216  85.089 112.512  0.00  0.00    -0.047 C 
ATOM      6  C   LIG d   1       1.657  84.875 111.994  0.00  0.00     0.091 C 
ENDROOT
BRANCH   1   7
ATOM      7  O   LIG d   1       3.251  83.125 111.359  0.00  0.00    -0.368 OA
BRANCH   7   8
ATOM      8  C   LIG d   1       2.950  82.374 110.158  0.00  0.00     0.119 C 
BRANCH   8   9
ATOM      9  C   LIG d   1       4.046  81.304 109.994  0.00  0.00     0.028 C 
ATOM     10  C   LIG d   1       3.555  80.077 109.207  0.00  0.00     0.006 C 
ENDBRANCH   8   9
BRANCH   8  11
ATOM     11  C   LIG d   1       3.053  83.255 108.909  0.00  0.00     0.028 C 
ATOM     12  C   LIG d   1       1.694  83.816 108.461  0.00  0.00     0.006 C 
ENDBRANCH   8  11
ENDBRANCH   7   8
ENDBRANCH   1   7
BRANCH   6  13
ATOM     13  N   LIG d   1       2.636  85.776 112.656  0.00  0.00    -0.311 N 
ATOM     14  C   LIG d   1       2.925  86.998 112.211  0.00  0.00     0.210 C 
ATOM     15  C   LIG d   1       3.978  87.751 113.029  0.00  0.00     0.109 C 
ATOM     16  O   LIG d   1       2.386  87.541 111.235  0.00  0.00    -0.276 OA
ATOM     17  H   LIG d   1       3.098  85.427 113.473  0.00  0.00     0.149 HD
ENDBRANCH   6  13
BRANCH   5  18
ATOM     18  N   LIG d   1      -0.314  86.432 112.209  0.00  0.00     0.381 N 
ATOM     19  H   LIG d   1      -1.274  86.487 112.484  0.00  0.00    -0.090 HD
ATOM     20  H   LIG d   1      -0.261  86.586 111.217  0.00  0.00    -0.090 HD
ATOM     21  H   LIG d   1       0.218  87.124 112.688  0.00  0.00    -0.090 HD
ENDBRANCH   5  18
BRANCH   3  22
ATOM     22  C   LIG d   1      -1.176  81.726 111.992  0.00  0.00     0.382 C 
ATOM     23  O   LIG d   1      -0.867  80.580 111.583  0.00  0.00    -0.241 OA
ATOM     24  O   LIG d   1      -2.336  81.943 112.390  0.00  0.00    -0.241 OA
ENDBRANCH   3  22
TORSDOF 7
ENDMDL
MODEL 4
REMARK VINA RESULT:      -6.4      2.450      4.858
REMARK  7 active torsions:
REMARK  status: ('A' for Active; 'I' for Inactive)
REMARK    1  A    between atoms: C_2  and  C_3 
REMARK    2  A    between atoms: C_3  and  O_6 
REMARK    3  A    between atoms: C_3  and  C_4 
REMARK    4  A    between atoms: C_7  and  O_6 
REMARK    5  A    between atoms: C_9  and  C_10 
REMARK    6  A    between atoms: N_15  and  C_14 
REMARK    7  A    between atoms: N_20  and  C_19 
REMARK       I    between atoms: C_22  and  N_20 
ROOT
ATOM      1  C   LIG d   1       0.963  83.975 109.818  0.00  0.00     0.161 C 
ATOM      2  C   LIG d   1       0.492  85.116 110.488  0.00  0.00     0.016 C 
ATOM      3  C   LIG d   1      -0.268  85.061 111.679  0.00  0.00     0.038 C 
ATOM      4  C   LIG d   1      -0.481  83.858 112.368  0.00  0.00     0.028 C 
ATOM      5  C   LIG d   1      -0.456  82.630 111.463  0.00  0.00    -0.047 C 
ATOM      6  C   LIG d   1       0.835  82.659 110.614  0.00  0.00     0.091 C 
ENDROOT
BRANCH   1   7
ATOM      7  O   LIG d   1       2.328  84.179 109.405  0.00  0.00    -0.368 OA
BRANCH   7   8
ATOM      8  C   LIG d   1       3.347  83.829 110.373  0.00  0.00     0.119 C 
BRANCH   8   9
ATOM      9  C   LIG d   1       3.951  85.142 110.906  0.00  0.00     0.028 C 
ATOM     10  C   LIG d   1       3.679  85.348 112.405  0.00  0.00     0.006 C 
ENDBRANCH   8   9
BRANCH   8  11
ATOM     11  C   LIG d   1       4.511  83.085 109.713  0.00  0.00     0.028 C 
ATOM     12  C   LIG d   1       4.164  82.558 108.311  0.00  0.00     0.006 C 
ENDBRANCH   8  11
ENDBRANCH   7   8
ENDBRANCH   1   7
BRANCH   6  13
ATOM     13  N   LIG d   1       0.898  81.537 109.641  0.00  0.00    -0.311 N 
ATOM     14  C   LIG d   1       1.773  80.537 109.731  0.00  0.00     0.210 C 
ATOM     15  C   LIG d   1       1.681  79.494 108.613  0.00  0.00     0.109 C 
ATOM     16  O   LIG d   1       2.596  80.398 110.649  0.00  0.00    -0.276 OA
ATOM     17  H   LIG d   1       0.246  81.554 108.882  0.00  0.00     0.149 HD
ENDBRANCH   6  13
BRANCH   5  18
ATOM     18  N   LIG d   1      -0.553  81.438 112.327  0.00  0.00     0.381 N 
ATOM     19  H   LIG d   1      -1.501  81.309 112.621  0.00  0.00    -0.090 HD
ATOM     20  H   LIG d   1       0.014  81.582 113.144  0.00  0.00    -0.090 HD
ATOM     21  H   LIG d   1      -0.238  80.632 111.833  0.00  0.00    -0.090 HD
ENDBRANCH   5  18
BRANCH   3  22
ATOM     22  C   LIG d   1      -0.858  86.215 112.172  0.00  0.00     0.382 C 
ATOM     23  O   LIG d   1      -1.463  86.991 111.394  0.00  0.00    -0.241 OA
ATOM     24  O   LIG d   1      -0.754  86.513 113.377  0.00  0.00    -0.241 OA
ENDBRANCH   3  22
TORSDOF 7
ENDMDL
MODEL 5
REMARK VINA RESULT:      -5.7      2.592      4.662
REMARK  7 active torsions:
REMARK  status: ('A' for Active; 'I' for Inactive)
REMARK    1  A    between atoms: C_2  and  C_3 
REMARK    2  A    between atoms: C_3  and  O_6 
REMARK    3  A    between atoms: C_3  and  C_4 
REMARK    4  A    between atoms: C_7  and  O_6 
REMARK    5  A    between atoms: C_9  and  C_10 
REMARK    6  A    between atoms: N_15  and  C_14 
REMARK    7  A    between atoms: N_20  and  C_19 
REMARK       I    between atoms: C_22  and  N_20 
ROOT
ATOM      1  C   LIG d   1       0.933  84.351 110.584  0.00  0.00     0.161 C 
ATOM      2  C   LIG d   1       1.689  85.533 110.641  0.00  0.00     0.016 C 
ATOM      3  C   LIG d   1       2.275  86.025 111.831  0.00  0.00     0.038 C 
ATOM      4  C   LIG d   1       2.271  85.283 113.021  0.00  0.00     0.028 C 
ATOM      5  C   LIG d   1       1.089  84.326 113.134  0.00  0.00    -0.047 C 
ATOM      6  C   LIG d   1       1.011  83.471 111.849  0.00  0.00     0.091 C 
ENDROOT
BRANCH   1   7
ATOM      7  O   LIG d   1       1.306  83.588 109.419  0.00  0.00    -0.368 OA
BRANCH   7   8
ATOM      8  C   LIG d   1       2.147  82.432 109.656  0.00  0.00     0.119 C 
BRANCH   8   9
ATOM      9  C   LIG d   1       3.504  82.700 108.978  0.00  0.00     0.028 C 
ATOM     10  C   LIG d   1       4.580  83.158 109.977  0.00  0.00     0.006 C 
ENDBRANCH   8   9
BRANCH   8  11
ATOM     11  C   LIG d   1       1.587  81.185 108.965  0.00  0.00     0.028 C 
ATOM     12  C   LIG d   1       2.282  79.891 109.418  0.00  0.00     0.006 C 
ENDBRANCH   8  11
ENDBRANCH   7   8
ENDBRANCH   1   7
BRANCH   6  13
ATOM     13  N   LIG d   1      -0.168  82.566 111.840  0.00  0.00    -0.311 N 
ATOM     14  C   LIG d   1      -0.164  81.352 112.390  0.00  0.00     0.210 C 
ATOM     15  C   LIG d   1      -1.478  80.576 112.252  0.00  0.00     0.109 C 
ATOM     16  O   LIG d   1       0.791  80.858 113.006  0.00  0.00    -0.276 OA
ATOM     17  H   LIG d   1      -0.996  82.900 111.389  0.00  0.00     0.149 HD
ENDBRANCH   6  13
BRANCH   5  18
ATOM     18  N   LIG d   1       1.284  83.519 114.354  0.00  0.00     0.381 N 
ATOM     19  H   LIG d   1       2.182  83.714 114.749  0.00  0.00    -0.090 HD
ATOM     20  H   LIG d   1       1.251  82.545 114.108  0.00  0.00    -0.090 HD
ATOM     21  H   LIG d   1       0.569  83.726 115.017  0.00  0.00    -0.090 HD
ENDBRANCH   5  18
BRANCH   3  22
ATOM     22  C   LIG d   1       2.840  87.291 111.846  0.00  0.00     0.382 C 
ATOM     23  O   LIG d   1       4.087  87.422 111.804  0.00  0.00    -0.241 OA
ATOM     24  O   LIG d   1       2.120  88.303 111.946  0.00  0.00    -0.241 OA
ENDBRANCH   3  22
TORSDOF 7
ENDMDL
MODEL 6
REMARK VINA RESULT:      -4.8      2.333      4.447
REMARK  7 active torsions:
REMARK  status: ('A' for Active; 'I' for Inactive)
REMARK    1  A    between atoms: C_2  and  C_3 
REMARK    2  A    between atoms: C_3  and  O_6 
REMARK    3  A    between atoms: C_3  and  C_4 
REMARK    4  A    between atoms: C_7  and  O_6 
REMARK    5  A    between atoms: C_9  and  C_10 
REMARK    6  A    between atoms: N_15  and  C_14 
REMARK    7  A    between atoms: N_20  and  C_19 
REMARK       I    between atoms: C_22  and  N_20 
ROOT
ATOM      1  C   LIG d   1       0.760  82.007 110.873  0.00  0.00     0.161 C 
ATOM      2  C   LIG d   1       0.922  83.246 110.230  0.00  0.00     0.016 C 
ATOM      3  C   LIG d   1       1.221  84.446 110.917  0.00  0.00     0.038 C 
ATOM      4  C   LIG d   1       1.530  84.459 112.285  0.00  0.00     0.028 C 
ATOM      5  C   LIG d   1       0.885  83.317 113.063  0.00  0.00    -0.047 C 
ATOM      6  C   LIG d   1       1.203  81.983 112.351  0.00  0.00     0.091 C 
ENDROOT
BRANCH   1   7
ATOM      7  O   LIG d   1       1.442  80.979 110.128  0.00  0.00    -0.368 OA
BRANCH   7   8
ATOM      8  C   LIG d   1       2.577  81.409 109.338  0.00  0.00     0.119 C 
BRANCH   8   9
ATOM      9  C   LIG d   1       3.068  80.192 108.530  0.00  0.00     0.028 C 
ATOM     10  C   LIG d   1       2.052  79.037 108.535  0.00  0.00     0.006 C 
ENDBRANCH   8   9
BRANCH   8  11
ATOM     11  C   LIG d   1       3.758  81.807 110.230  0.00  0.00     0.028 C 
ATOM     12  C   LIG d   1       4.467  83.082 109.746  0.00  0.00     0.006 C 
ENDBRANCH   8  11
ENDBRANCH   7   8
ENDBRANCH   1   7
BRANCH   6  13
ATOM     13  N   LIG d   1       0.539  80.822 112.999  0.00  0.00    -0.311 N 
ATOM     14  C   LIG d   1      -0.762  80.564 112.886  0.00  0.00     0.210 C 
ATOM     15  C   LIG d   1      -1.246  79.328 113.652  0.00  0.00     0.109 C 
ATOM     16  O   LIG d   1      -1.557  81.223 112.199  0.00  0.00    -0.276 OA
ATOM     17  H   LIG d   1       1.116  80.217 113.551  0.00  0.00     0.149 HD
ENDBRANCH   6  13
BRANCH   5  18
ATOM     18  N   LIG d   1       1.401  83.372 114.444  0.00  0.00     0.381 N 
ATOM     19  H   LIG d   1       0.718  83.003 115.076  0.00  0.00    -0.090 HD
ATOM     20  H   LIG d   1       1.571  84.331 114.690  0.00  0.00    -0.090 HD
ATOM     21  H   LIG d   1       2.245  82.848 114.514  0.00  0.00    -0.090 HD
ENDBRANCH   5  18
BRANCH   3  22
ATOM     22  C   LIG d   1       1.174  85.655 110.240  0.00  0.00     0.382 C 
ATOM     23  O   LIG d   1       1.985  86.568 110.530  0.00  0.00    -0.241 OA
ATOM     24  O   LIG d   1       0.303  85.861 109.374  0.00  0.00    -0.241 OA
ENDBRANCH   3  22
TORSDOF 7
ENDMDL
MODEL 7
REMARK VINA RESULT:      -4.1     28.139     30.590
REMARK  7 active torsions:
REMARK  status: ('A' for Active; 'I' for Inactive)
REMARK    1  A    between atoms: C_2  and  C_3 
REMARK    2  A    between atoms: C_3  and  O_6 
REMARK    3  A    between atoms: C_3  and  C_4 
REMARK    4  A    between atoms: C_7  and  O_6 
REMARK    5  A    between atoms: C_9  and  C_10 
REMARK    6  A    between atoms: N_15  and  C_14 
REMARK    7  A    between atoms: N_20  and  C_19 
REMARK       I    between atoms: C_22  and  N_20 
ROOT
ATOM      1  C   LIG d   1     -13.999  55.970 110.214  0.00  0.00     0.161 C 
ATOM      2  C   LIG d   1     -12.955  56.307 111.091  0.00  0.00     0.016 C 
ATOM      3  C   LIG d   1     -13.147  57.037 112.286  0.00  0.00     0.038 C 
ATOM      4  C   LIG d   1     -14.428  57.352 112.765  0.00  0.00     0.028 C 
ATOM      5  C   LIG d   1     -15.474  57.473 111.661  0.00  0.00    -0.047 C 
ATOM      6  C   LIG d   1     -15.417  56.208 110.775  0.00  0.00     0.091 C 
ENDROOT
BRANCH   1   7
ATOM      7  O   LIG d   1     -13.854  54.602 109.783  0.00  0.00    -0.368 OA
BRANCH   7   8
ATOM      8  C   LIG d   1     -13.478  54.407 108.398  0.00  0.00     0.119 C 
BRANCH   8   9
ATOM      9  C   LIG d   1     -12.022  53.902 108.380  0.00  0.00     0.028 C 
ATOM     10  C   LIG d   1     -11.108  54.776 107.505  0.00  0.00     0.006 C 
ENDBRANCH   8   9
BRANCH   8  11
ATOM     11  C   LIG d   1     -13.456  55.734 107.633  0.00  0.00     0.028 C 
ATOM     12  C   LIG d   1     -14.525  55.804 106.531  0.00  0.00     0.006 C 
ENDBRANCH   8  11
ENDBRANCH   7   8
ENDBRANCH   1   7
BRANCH   6  13
ATOM     13  N   LIG d   1     -16.351  56.283 109.621  0.00  0.00    -0.311 N 
ATOM     14  C   LIG d   1     -17.195  55.305 109.297  0.00  0.00     0.210 C 
ATOM     15  C   LIG d   1     -18.056  55.577 108.059  0.00  0.00     0.109 C 
ATOM     16  O   LIG d   1     -17.337  54.252 109.937  0.00  0.00    -0.276 OA
ATOM     17  H   LIG d   1     -16.324  57.116 109.066  0.00  0.00     0.149 HD
ENDBRANCH   6  13
BRANCH   5  18
ATOM     18  N   LIG d   1     -16.785  57.666 112.310  0.00  0.00     0.381 N 
ATOM     19  H   LIG d   1     -16.904  58.630 112.552  0.00  0.00    -0.090 HD
ATOM     20  H   LIG d   1     -16.813  57.123 113.154  0.00  0.00    -0.090 HD
ATOM     21  H   LIG d   1     -17.515  57.378 111.696  0.00  0.00    -0.090 HD
ENDBRANCH   5  18
BRANCH   3  22
ATOM     22  C   LIG d   1     -12.048  57.495 112.996  0.00  0.00     0.382 C 
ATOM     23  O   LIG d   1     -11.485  58.565 112.659  0.00  0.00    -0.241 OA
ATOM     24  O   LIG d   1     -11.585  56.830 113.942  0.00  0.00    -0.241 OA
ENDBRANCH   3  22
TORSDOF 7
ENDMDL
MODEL 8
REMARK VINA RESULT:      -3.8     28.045     29.704
REMARK  7 active torsions:
REMARK  status: ('A' for Active; 'I' for Inactive)
REMARK    1  A    between atoms: C_2  and  C_3 
REMARK    2  A    between atoms: C_3  and  O_6 
REMARK    3  A    between atoms: C_3  and  C_4 
REMARK    4  A    between atoms: C_7  and  O_6 
REMARK    5  A    between atoms: C_9  and  C_10 
REMARK    6  A    between atoms: N_15  and  C_14 
REMARK    7  A    between atoms: N_20  and  C_19 
REMARK       I    between atoms: C_22  and  N_20 
ROOT
ATOM      1  C   LIG d   1     -27.944  72.500 111.304  0.00  0.00     0.161 C 
ATOM      2  C   LIG d   1     -27.841  71.194 110.797  0.00  0.00     0.016 C 
ATOM      3  C   LIG d   1     -26.955  70.829 109.758  0.00  0.00     0.038 C 
ATOM      4  C   LIG d   1     -25.996  71.721 109.254  0.00  0.00     0.028 C 
ATOM      5  C   LIG d   1     -26.404  73.185 109.383  0.00  0.00    -0.047 C 
ATOM      6  C   LIG d   1     -26.828  73.461 110.843  0.00  0.00     0.091 C 
ENDROOT
BRANCH   1   7
ATOM      7  O   LIG d   1     -28.010  72.463 112.743  0.00  0.00    -0.368 OA
BRANCH   7   8
ATOM      8  C   LIG d   1     -26.740  72.459 113.440  0.00  0.00     0.119 C 
BRANCH   8   9
ATOM      9  C   LIG d   1     -26.693  71.189 114.311  0.00  0.00     0.028 C 
ATOM     10  C   LIG d   1     -25.989  70.018 113.605  0.00  0.00     0.006 C 
ENDBRANCH   8   9
BRANCH   8  11
ATOM     11  C   LIG d   1     -26.640  73.629 114.423  0.00  0.00     0.028 C 
ATOM     12  C   LIG d   1     -27.957  74.410 114.555  0.00  0.00     0.006 C 
ENDBRANCH   8  11
ENDBRANCH   7   8
ENDBRANCH   1   7
BRANCH   6  13
ATOM     13  N   LIG d   1     -27.322  74.850 111.037  0.00  0.00    -0.311 N 
ATOM     14  C   LIG d   1     -26.550  75.851 111.457  0.00  0.00     0.210 C 
ATOM     15  C   LIG d   1     -27.263  77.198 111.608  0.00  0.00     0.109 C 
ATOM     16  O   LIG d   1     -25.335  75.758 111.688  0.00  0.00    -0.276 OA
ATOM     17  H   LIG d   1     -28.289  75.021 110.843  0.00  0.00     0.149 HD
ENDBRANCH   6  13
BRANCH   5  18
ATOM     18  N   LIG d   1     -25.259  74.006 108.947  0.00  0.00     0.381 N 
ATOM     19  H   LIG d   1     -25.525  74.572 108.167  0.00  0.00    -0.090 HD
ATOM     20  H   LIG d   1     -24.514  73.398 108.656  0.00  0.00    -0.090 HD
ATOM     21  H   LIG d   1     -24.950  74.585 109.697  0.00  0.00    -0.090 HD
ENDBRANCH   5  18
BRANCH   3  22
ATOM     22  C   LIG d   1     -27.049  69.571 109.184  0.00  0.00     0.382 C 
ATOM     23  O   LIG d   1     -26.441  69.321 108.116  0.00  0.00    -0.241 OA
ATOM     24  O   LIG d   1     -27.772  68.695 109.697  0.00  0.00    -0.241 OA
ENDBRANCH   3  22
TORSDOF 7
ENDMDL
MODEL 9
REMARK VINA RESULT:      -3.8     19.854     21.534
REMARK  7 active torsions:
REMARK  status: ('A' for Active; 'I' for Inactive)
REMARK    1  A    between atoms: C_2  and  C_3 
REMARK    2  A    between atoms: C_3  and  O_6 
REMARK    3  A    between atoms: C_3  and  C_4 
REMARK    4  A    between atoms: C_7  and  O_6 
REMARK    5  A    between atoms: C_9  and  C_10 
REMARK    6  A    between atoms: N_15  and  C_14 
REMARK    7  A    between atoms: N_20  and  C_19 
REMARK       I    between atoms: C_22  and  N_20 
ROOT
ATOM      1  C   LIG d   1      11.812  65.464 108.297  0.00  0.00     0.161 C 
ATOM      2  C   LIG d   1      12.258  64.761 109.429  0.00  0.00     0.016 C 
ATOM      3  C   LIG d   1      12.004  63.387 109.642  0.00  0.00     0.038 C 
ATOM      4  C   LIG d   1      11.410  62.581 108.658  0.00  0.00     0.028 C 
ATOM      5  C   LIG d   1      10.494  63.353 107.715  0.00  0.00    -0.047 C 
ATOM      6  C   LIG d   1      11.260  64.577 107.161  0.00  0.00     0.091 C 
ENDROOT
BRANCH   1   7
ATOM      7  O   LIG d   1      12.866  66.313 107.802  0.00  0.00    -0.368 OA
BRANCH   7   8
ATOM      8  C   LIG d   1      13.865  65.670 106.972  0.00  0.00     0.119 C 
BRANCH   8   9
ATOM      9  C   LIG d   1      15.231  65.862 107.659  0.00  0.00     0.028 C 
ATOM     10  C   LIG d   1      15.209  66.992 108.703  0.00  0.00     0.006 C 
ENDBRANCH   8   9
BRANCH   8  11
ATOM     11  C   LIG d   1      13.993  66.367 105.614  0.00  0.00     0.028 C 
ATOM     12  C   LIG d   1      13.206  67.685 105.544  0.00  0.00     0.006 C 
ENDBRANCH   8  11
ENDBRANCH   7   8
ENDBRANCH   1   7
BRANCH   6  13
ATOM     13  N   LIG d   1      10.409  65.433 106.295  0.00  0.00    -0.311 N 
ATOM     14  C   LIG d   1      10.384  65.337 104.967  0.00  0.00     0.210 C 
ATOM     15  C   LIG d   1       9.451  66.329 104.264  0.00  0.00     0.109 C 
ATOM     16  O   LIG d   1      11.020  64.503 104.306  0.00  0.00    -0.276 OA
ATOM     17  H   LIG d   1       9.836  66.117 106.751  0.00  0.00     0.149 HD
ENDBRANCH   6  13
BRANCH   5  18
ATOM     18  N   LIG d   1      10.054  62.421 106.660  0.00  0.00     0.381 N 
ATOM     19  H   LIG d   1       9.950  62.913 105.795  0.00  0.00    -0.090 HD
ATOM     20  H   LIG d   1       9.160  62.040 106.916  0.00  0.00    -0.090 HD
ATOM     21  H   LIG d   1      10.718  61.686 106.555  0.00  0.00    -0.090 HD
ENDBRANCH   5  18
BRANCH   3  22
ATOM     22  C   LIG d   1      12.308  62.814 110.867  0.00  0.00     0.382 C 
ATOM     23  O   LIG d   1      12.776  61.651 110.916  0.00  0.00    -0.241 OA
ATOM     24  O   LIG d   1      12.079  63.428 111.926  0.00  0.00    -0.241 OA
ENDBRANCH   3  22
TORSDOF 7
ENDMDL
