MODEL 1
REMARK VINA RESULT:      -6.9      0.000      0.000
REMARK  7 active torsions:
REMARK  status: ('A' for Active; 'I' for Inactive)
REMARK    1  A    between atoms: C_2  and  C_3 
REMARK    2  A    between atoms: C_3  and  O_6 
REMARK    3  A    between atoms: C_3  and  C_4 
REMARK    4  A    between atoms: C_7  and  O_6 
REMARK    5  A    between atoms: C_9  and  C_10 
REMARK    6  A    between atoms: N_15  and  C_14 
REMARK    7  A    between atoms: N_20  and  C_19 
REMARK       I    between atoms: C_22  and  N_20 
ROOT
ATOM      1  C   LIG d   1       0.744  84.057 109.569  0.00  0.00     0.161 C 
ATOM      2  C   LIG d   1       0.424  85.347 110.025  0.00  0.00     0.016 C 
ATOM      3  C   LIG d   1      -0.411  85.594 111.139  0.00  0.00     0.038 C 
ATOM      4  C   LIG d   1      -0.864  84.559 111.970  0.00  0.00     0.028 C 
ATOM      5  C   LIG d   1      -0.983  83.217 111.255  0.00  0.00    -0.047 C 
ATOM      6  C   LIG d   1       0.348  82.916 110.529  0.00  0.00     0.091 C 
ENDROOT
BRANCH   1   7
ATOM      7  O   LIG d   1       2.148  83.984 109.255  0.00  0.00    -0.368 OA
BRANCH   7   8
ATOM      8  C   LIG d   1       3.032  83.662 110.357  0.00  0.00     0.119 C 
BRANCH   8   9
ATOM      9  C   LIG d   1       3.632  84.986 110.871  0.00  0.00     0.028 C 
ATOM     10  C   LIG d   1       3.357  85.213 112.367  0.00  0.00     0.006 C 
ENDBRANCH   8   9
BRANCH   8  11
ATOM     11  C   LIG d   1       4.229  82.830 109.887  0.00  0.00     0.028 C 
ATOM     12  C   LIG d   1       3.995  82.170 108.519  0.00  0.00     0.006 C 
ENDBRANCH   8  11
ENDBRANCH   7   8
ENDBRANCH   1   7
BRANCH   6  13
ATOM     13  N   LIG d   1       0.290  81.661 109.736  0.00  0.00    -0.311 N 
ATOM     14  C   LIG d   1       1.018  80.581 110.016  0.00  0.00     0.210 C 
ATOM     15  C   LIG d   1       0.820  79.401 109.059  0.00  0.00     0.109 C 
ATOM     16  O   LIG d   1       1.784  80.477 110.986  0.00  0.00    -0.276 OA
ATOM     17  H   LIG d   1      -0.329  81.647 108.949  0.00  0.00     0.149 HD
ENDBRANCH   6  13
BRANCH   5  18
ATOM     18  N   LIG d   1      -1.331  82.202 112.268  0.00  0.00     0.381 N 
ATOM     19  H   LIG d   1      -0.662  81.459 112.247  0.00  0.00    -0.090 HD
ATOM     20  H   LIG d   1      -2.234  81.820 112.047  0.00  0.00    -0.090 HD
ATOM     21  H   LIG d   1      -1.350  82.616 113.173  0.00  0.00    -0.090 HD
ENDBRANCH   5  18
BRANCH   3  22
ATOM     22  C   LIG d   1      -0.833  86.887 111.408  0.00  0.00     0.382 C 
ATOM     23  O   LIG d   1      -2.043  87.192 111.275  0.00  0.00    -0.241 OA
ATOM     24  O   LIG d   1      -0.012  87.764 111.739  0.00  0.00    -0.241 OA
ENDBRANCH   3  22
TORSDOF 7
ENDMDL
MODEL 2
REMARK VINA RESULT:      -6.4      2.603      4.322
REMARK  7 active torsions:
REMARK  status: ('A' for Active; 'I' for Inactive)
REMARK    1  A    between atoms: C_2  and  C_3 
REMARK    2  A    between atoms: C_3  and  O_6 
REMARK    3  A    between atoms: C_3  and  C_4 
REMARK    4  A    between atoms: C_7  and  O_6 
REMARK    5  A    between atoms: C_9  and  C_10 
REMARK    6  A    between atoms: N_15  and  C_14 
REMARK    7  A    between atoms: N_20  and  C_19 
REMARK       I    between atoms: C_22  and  N_20 
ROOT
ATOM      1  C   LIG d   1       0.056  82.557 111.398  0.00  0.00     0.161 C 
ATOM      2  C   LIG d   1      -1.065  82.298 112.203  0.00  0.00     0.016 C 
ATOM      3  C   LIG d   1      -1.616  81.008 112.377  0.00  0.00     0.038 C 
ATOM      4  C   LIG d   1      -0.988  79.859 111.874  0.00  0.00     0.028 C 
ATOM      5  C   LIG d   1      -0.139  80.126 110.636  0.00  0.00    -0.047 C 
ATOM      6  C   LIG d   1       0.821  81.301 110.930  0.00  0.00     0.091 C 
ENDROOT
BRANCH   1   7
ATOM      7  O   LIG d   1       0.948  83.463 112.078  0.00  0.00    -0.368 OA
BRANCH   7   8
ATOM      8  C   LIG d   1       1.001  84.815 111.560  0.00  0.00     0.119 C 
BRANCH   8   9
ATOM      9  C   LIG d   1       0.349  85.738 112.608  0.00  0.00     0.028 C 
ATOM     10  C   LIG d   1      -1.113  86.071 112.268  0.00  0.00     0.006 C 
ENDBRANCH   8   9
BRANCH   8  11
ATOM     11  C   LIG d   1       0.143  84.963 110.300  0.00  0.00     0.028 C 
ATOM     12  C   LIG d   1       0.976  85.254 109.042  0.00  0.00     0.006 C 
ENDBRANCH   8  11
ENDBRANCH   7   8
ENDBRANCH   1   7
BRANCH   6  13
ATOM     13  N   LIG d   1       1.630  81.683 109.743  0.00  0.00    -0.311 N 
ATOM     14  C   LIG d   1       2.955  81.821 109.772  0.00  0.00     0.210 C 
ATOM     15  C   LIG d   1       3.590  82.240 108.443  0.00  0.00     0.109 C 
ATOM     16  O   LIG d   1       3.667  81.604 110.764  0.00  0.00    -0.276 OA
ATOM     17  H   LIG d   1       1.136  81.848 108.888  0.00  0.00     0.149 HD
ENDBRANCH   6  13
BRANCH   5  18
ATOM     18  N   LIG d   1       0.566  78.874 110.301  0.00  0.00     0.381 N 
ATOM     19  H   LIG d   1      -0.015  78.090 110.518  0.00  0.00    -0.090 HD
ATOM     20  H   LIG d   1       1.401  78.812 110.856  0.00  0.00    -0.090 HD
ATOM     21  H   LIG d   1       0.801  78.864 109.332  0.00  0.00    -0.090 HD
ENDBRANCH   5  18
BRANCH   3  22
ATOM     22  C   LIG d   1      -2.832  80.862 113.029  0.00  0.00     0.382 C 
ATOM     23  O   LIG d   1      -3.786  81.630 112.754  0.00  0.00    -0.241 OA
ATOM     24  O   LIG d   1      -2.973  80.002 113.918  0.00  0.00    -0.241 OA
ENDBRANCH   3  22
TORSDOF 7
ENDMDL
MODEL 3
REMARK VINA RESULT:      -6.4      2.429      4.307
REMARK  7 active torsions:
REMARK  status: ('A' for Active; 'I' for Inactive)
REMARK    1  A    between atoms: C_2  and  C_3 
REMARK    2  A    between atoms: C_3  and  O_6 
REMARK    3  A    between atoms: C_3  and  C_4 
REMARK    4  A    between atoms: C_7  and  O_6 
REMARK    5  A    between atoms: C_9  and  C_10 
REMARK    6  A    between atoms: N_15  and  C_14 
REMARK    7  A    between atoms: N_20  and  C_19 
REMARK       I    between atoms: C_22  and  N_20 
ROOT
ATOM      1  C   LIG d   1      -0.060  83.016 111.093  0.00  0.00     0.161 C 
ATOM      2  C   LIG d   1      -1.100  82.698 111.983  0.00  0.00     0.016 C 
ATOM      3  C   LIG d   1      -1.454  81.372 112.323  0.00  0.00     0.038 C 
ATOM      4  C   LIG d   1      -0.689  80.271 111.910  0.00  0.00     0.028 C 
ATOM      5  C   LIG d   1       0.063  80.511 110.605  0.00  0.00    -0.047 C 
ATOM      6  C   LIG d   1       0.857  81.833 110.719  0.00  0.00     0.091 C 
ENDROOT
BRANCH   1   7
ATOM      7  O   LIG d   1       0.719  84.107 111.623  0.00  0.00    -0.368 OA
BRANCH   7   8
ATOM      8  C   LIG d   1       0.539  85.392 110.978  0.00  0.00     0.119 C 
BRANCH   8   9
ATOM      9  C   LIG d   1       1.935  86.017 110.795  0.00  0.00     0.028 C 
ATOM     10  C   LIG d   1       3.068  85.046 111.167  0.00  0.00     0.006 C 
ENDBRANCH   8   9
BRANCH   8  11
ATOM     11  C   LIG d   1      -0.226  86.365 111.879  0.00  0.00     0.028 C 
ATOM     12  C   LIG d   1      -1.578  86.791 111.284  0.00  0.00     0.006 C 
ENDBRANCH   8  11
ENDBRANCH   7   8
ENDBRANCH   1   7
BRANCH   6  13
ATOM     13  N   LIG d   1       1.554  82.186 109.456  0.00  0.00    -0.311 N 
ATOM     14  C   LIG d   1       2.825  81.873 109.208  0.00  0.00     0.210 C 
ATOM     15  C   LIG d   1       3.356  82.349 107.852  0.00  0.00     0.109 C 
ATOM     16  O   LIG d   1       3.554  81.219 109.969  0.00  0.00    -0.276 OA
ATOM     17  H   LIG d   1       1.028  82.690 108.769  0.00  0.00     0.149 HD
ENDBRANCH   6  13
BRANCH   5  18
ATOM     18  N   LIG d   1       0.925  79.338 110.366  0.00  0.00     0.381 N 
ATOM     19  H   LIG d   1       1.256  79.349 109.422  0.00  0.00    -0.090 HD
ATOM     20  H   LIG d   1       0.383  78.503 110.501  0.00  0.00    -0.090 HD
ATOM     21  H   LIG d   1       1.697  79.348 110.996  0.00  0.00    -0.090 HD
ENDBRANCH   5  18
BRANCH   3  22
ATOM     22  C   LIG d   1      -2.609  81.135 113.052  0.00  0.00     0.382 C 
ATOM     23  O   LIG d   1      -3.702  81.616 112.669  0.00  0.00    -0.241 OA
ATOM     24  O   LIG d   1      -2.564  80.483 114.113  0.00  0.00    -0.241 OA
ENDBRANCH   3  22
TORSDOF 7
ENDMDL
MODEL 4
REMARK VINA RESULT:      -6.3      2.423      5.070
REMARK  7 active torsions:
REMARK  status: ('A' for Active; 'I' for Inactive)
REMARK    1  A    between atoms: C_2  and  C_3 
REMARK    2  A    between atoms: C_3  and  O_6 
REMARK    3  A    between atoms: C_3  and  C_4 
REMARK    4  A    between atoms: C_7  and  O_6 
REMARK    5  A    between atoms: C_9  and  C_10 
REMARK    6  A    between atoms: N_15  and  C_14 
REMARK    7  A    between atoms: N_20  and  C_19 
REMARK       I    between atoms: C_22  and  N_20 
ROOT
ATOM      1  C   LIG d   1       1.168  81.532 111.962  0.00  0.00     0.161 C 
ATOM      2  C   LIG d   1       2.178  81.773 111.016  0.00  0.00     0.016 C 
ATOM      3  C   LIG d   1       2.179  81.210 109.719  0.00  0.00     0.038 C 
ATOM      4  C   LIG d   1       1.085  80.483 109.225  0.00  0.00     0.028 C 
ATOM      5  C   LIG d   1       0.274  79.794 110.317  0.00  0.00    -0.047 C 
ATOM      6  C   LIG d   1      -0.088  80.832 111.404  0.00  0.00     0.091 C 
ENDROOT
BRANCH   1   7
ATOM      7  O   LIG d   1       0.806  82.766 112.615  0.00  0.00    -0.368 OA
BRANCH   7   8
ATOM      8  C   LIG d   1       0.622  83.914 111.751  0.00  0.00     0.119 C 
BRANCH   8   9
ATOM      9  C   LIG d   1       1.516  85.047 112.291  0.00  0.00     0.028 C 
ATOM     10  C   LIG d   1       2.600  85.470 111.285  0.00  0.00     0.006 C 
ENDBRANCH   8   9
BRANCH   8  11
ATOM     11  C   LIG d   1      -0.810  84.451 111.835  0.00  0.00     0.028 C 
ATOM     12  C   LIG d   1      -1.090  85.563 110.811  0.00  0.00     0.006 C 
ENDBRANCH   8  11
ENDBRANCH   7   8
ENDBRANCH   1   7
BRANCH   6  13
ATOM     13  N   LIG d   1      -0.811  80.223 112.551  0.00  0.00    -0.311 N 
ATOM     14  C   LIG d   1      -2.004  80.640 112.971  0.00  0.00     0.210 C 
ATOM     15  C   LIG d   1      -2.563  79.887 114.182  0.00  0.00     0.109 C 
ATOM     16  O   LIG d   1      -2.667  81.540 112.434  0.00  0.00    -0.276 OA
ATOM     17  H   LIG d   1      -0.359  79.465 113.025  0.00  0.00     0.149 HD
ENDBRANCH   6  13
BRANCH   5  18
ATOM     18  N   LIG d   1      -0.910  79.189 109.678  0.00  0.00     0.381 N 
ATOM     19  H   LIG d   1      -1.736  79.676 109.965  0.00  0.00    -0.090 HD
ATOM     20  H   LIG d   1      -0.988  78.233 109.977  0.00  0.00    -0.090 HD
ATOM     21  H   LIG d   1      -0.820  79.229 108.687  0.00  0.00    -0.090 HD
ENDBRANCH   5  18
BRANCH   3  22
ATOM     22  C   LIG d   1       3.301  81.339 108.915  0.00  0.00     0.382 C 
ATOM     23  O   LIG d   1       4.332  80.670 109.166  0.00  0.00    -0.241 OA
ATOM     24  O   LIG d   1       3.311  82.148 107.968  0.00  0.00    -0.241 OA
ENDBRANCH   3  22
TORSDOF 7
ENDMDL
MODEL 5
REMARK VINA RESULT:      -5.9      2.744      5.176
REMARK  7 active torsions:
REMARK  status: ('A' for Active; 'I' for Inactive)
REMARK    1  A    between atoms: C_2  and  C_3 
REMARK    2  A    between atoms: C_3  and  O_6 
REMARK    3  A    between atoms: C_3  and  C_4 
REMARK    4  A    between atoms: C_7  and  O_6 
REMARK    5  A    between atoms: C_9  and  C_10 
REMARK    6  A    between atoms: N_15  and  C_14 
REMARK    7  A    between atoms: N_20  and  C_19 
REMARK       I    between atoms: C_22  and  N_20 
ROOT
ATOM      1  C   LIG d   1       0.289  81.172 110.998  0.00  0.00     0.161 C 
ATOM      2  C   LIG d   1      -0.721  80.455 111.661  0.00  0.00     0.016 C 
ATOM      3  C   LIG d   1      -1.205  79.203 111.219  0.00  0.00     0.038 C 
ATOM      4  C   LIG d   1      -0.601  78.506 110.161  0.00  0.00     0.028 C 
ATOM      5  C   LIG d   1       0.088  79.417 109.152  0.00  0.00    -0.047 C 
ATOM      6  C   LIG d   1       1.036  80.377 109.907  0.00  0.00     0.091 C 
ENDROOT
BRANCH   1   7
ATOM      7  O   LIG d   1       1.223  81.702 111.960  0.00  0.00    -0.368 OA
BRANCH   7   8
ATOM      8  C   LIG d   1       1.237  83.143 112.107  0.00  0.00     0.119 C 
BRANCH   8   9
ATOM      9  C   LIG d   1       0.095  83.708 111.240  0.00  0.00     0.028 C 
ATOM     10  C   LIG d   1      -0.928  84.507 112.064  0.00  0.00     0.006 C 
ENDBRANCH   8   9
BRANCH   8  11
ATOM     11  C   LIG d   1       2.521  83.750 111.534  0.00  0.00     0.028 C 
ATOM     12  C   LIG d   1       2.249  84.798 110.443  0.00  0.00     0.006 C 
ENDBRANCH   8  11
ENDBRANCH   7   8
ENDBRANCH   1   7
BRANCH   6  13
ATOM     13  N   LIG d   1       1.688  81.359 109.002  0.00  0.00    -0.311 N 
ATOM     14  C   LIG d   1       2.999  81.387 108.772  0.00  0.00     0.210 C 
ATOM     15  C   LIG d   1       3.466  82.493 107.821  0.00  0.00     0.109 C 
ATOM     16  O   LIG d   1       3.817  80.580 109.241  0.00  0.00    -0.276 OA
ATOM     17  H   LIG d   1       1.095  82.031 108.555  0.00  0.00     0.149 HD
ENDBRANCH   6  13
BRANCH   5  18
ATOM     18  N   LIG d   1       0.790  78.556 108.181  0.00  0.00     0.381 N 
ATOM     19  H   LIG d   1       1.663  78.974 107.927  0.00  0.00    -0.090 HD
ATOM     20  H   LIG d   1       0.228  78.474 107.353  0.00  0.00    -0.090 HD
ATOM     21  H   LIG d   1       0.947  77.655 108.576  0.00  0.00    -0.090 HD
ENDBRANCH   5  18
BRANCH   3  22
ATOM     22  C   LIG d   1      -2.330  78.652 111.813  0.00  0.00     0.382 C 
ATOM     23  O   LIG d   1      -2.552  77.421 111.715  0.00  0.00    -0.241 OA
ATOM     24  O   LIG d   1      -3.150  79.378 112.407  0.00  0.00    -0.241 OA
ENDBRANCH   3  22
TORSDOF 7
ENDMDL
MODEL 6
REMARK VINA RESULT:      -5.8      1.578      2.640
REMARK  7 active torsions:
REMARK  status: ('A' for Active; 'I' for Inactive)
REMARK    1  A    between atoms: C_2  and  C_3 
REMARK    2  A    between atoms: C_3  and  O_6 
REMARK    3  A    between atoms: C_3  and  C_4 
REMARK    4  A    between atoms: C_7  and  O_6 
REMARK    5  A    between atoms: C_9  and  C_10 
REMARK    6  A    between atoms: N_15  and  C_14 
REMARK    7  A    between atoms: N_20  and  C_19 
REMARK       I    between atoms: C_22  and  N_20 
ROOT
ATOM      1  C   LIG d   1       1.103  82.791 110.143  0.00  0.00     0.161 C 
ATOM      2  C   LIG d   1       1.330  84.169 110.297  0.00  0.00     0.016 C 
ATOM      3  C   LIG d   1       0.549  84.997 111.135  0.00  0.00     0.038 C 
ATOM      4  C   LIG d   1      -0.425  84.472 111.998  0.00  0.00     0.028 C 
ATOM      5  C   LIG d   1      -1.028  83.161 111.504  0.00  0.00    -0.047 C 
ATOM      6  C   LIG d   1       0.117  82.180 111.160  0.00  0.00     0.091 C 
ENDROOT
BRANCH   1   7
ATOM      7  O   LIG d   1       2.358  82.083 110.174  0.00  0.00    -0.368 OA
BRANCH   7   8
ATOM      8  C   LIG d   1       2.759  81.442 108.938  0.00  0.00     0.119 C 
BRANCH   8   9
ATOM      9  C   LIG d   1       3.115  79.980 109.269  0.00  0.00     0.028 C 
ATOM     10  C   LIG d   1       1.973  79.006 108.933  0.00  0.00     0.006 C 
ENDBRANCH   8   9
BRANCH   8  11
ATOM     11  C   LIG d   1       4.047  82.058 108.383  0.00  0.00     0.028 C 
ATOM     12  C   LIG d   1       4.792  82.914 109.419  0.00  0.00     0.006 C 
ENDBRANCH   8  11
ENDBRANCH   7   8
ENDBRANCH   1   7
BRANCH   6  13
ATOM     13  N   LIG d   1      -0.384  80.902 110.589  0.00  0.00    -0.311 N 
ATOM     14  C   LIG d   1      -0.799  79.880 111.335  0.00  0.00     0.210 C 
ATOM     15  C   LIG d   1      -1.257  78.649 110.546  0.00  0.00     0.109 C 
ATOM     16  O   LIG d   1      -0.863  79.887 112.573  0.00  0.00    -0.276 OA
ATOM     17  H   LIG d   1      -0.396  80.822 109.591  0.00  0.00     0.149 HD
ENDBRANCH   6  13
BRANCH   5  18
ATOM     18  N   LIG d   1      -1.924  82.656 112.561  0.00  0.00     0.381 N 
ATOM     19  H   LIG d   1      -1.796  81.670 112.671  0.00  0.00    -0.090 HD
ATOM     20  H   LIG d   1      -2.876  82.822 112.286  0.00  0.00    -0.090 HD
ATOM     21  H   LIG d   1      -1.733  83.121 113.421  0.00  0.00    -0.090 HD
ENDBRANCH   5  18
BRANCH   3  22
ATOM     22  C   LIG d   1       0.711  86.373 111.086  0.00  0.00     0.382 C 
ATOM     23  O   LIG d   1      -0.255  87.129 111.349  0.00  0.00    -0.241 OA
ATOM     24  O   LIG d   1       1.800  86.869 110.738  0.00  0.00    -0.241 OA
ENDBRANCH   3  22
TORSDOF 7
ENDMDL
MODEL 7
REMARK VINA RESULT:      -5.7      1.398      2.303
REMARK  7 active torsions:
REMARK  status: ('A' for Active; 'I' for Inactive)
REMARK    1  A    between atoms: C_2  and  C_3 
REMARK    2  A    between atoms: C_3  and  O_6 
REMARK    3  A    between atoms: C_3  and  C_4 
REMARK    4  A    between atoms: C_7  and  O_6 
REMARK    5  A    between atoms: C_9  and  C_10 
REMARK    6  A    between atoms: N_15  and  C_14 
REMARK    7  A    between atoms: N_20  and  C_19 
REMARK       I    between atoms: C_22  and  N_20 
ROOT
ATOM      1  C   LIG d   1       1.098  82.459 110.459  0.00  0.00     0.161 C 
ATOM      2  C   LIG d   1       0.684  83.800 110.404  0.00  0.00     0.016 C 
ATOM      3  C   LIG d   1      -0.475  84.284 111.054  0.00  0.00     0.038 C 
ATOM      4  C   LIG d   1      -1.221  83.485 111.932  0.00  0.00     0.028 C 
ATOM      5  C   LIG d   1      -1.130  81.995 111.620  0.00  0.00    -0.047 C 
ATOM      6  C   LIG d   1       0.359  81.596 111.503  0.00  0.00     0.091 C 
ENDROOT
BRANCH   1   7
ATOM      7  O   LIG d   1       2.521  82.395 110.674  0.00  0.00    -0.368 OA
BRANCH   7   8
ATOM      8  C   LIG d   1       3.292  83.515 110.172  0.00  0.00     0.119 C 
BRANCH   8   9
ATOM      9  C   LIG d   1       4.458  82.941 109.344  0.00  0.00     0.028 C 
ATOM     10  C   LIG d   1       3.986  81.911 108.303  0.00  0.00     0.006 C 
ENDBRANCH   8   9
BRANCH   8  11
ATOM     11  C   LIG d   1       3.952  84.294 111.314  0.00  0.00     0.028 C 
ATOM     12  C   LIG d   1       3.440  85.738 111.424  0.00  0.00     0.006 C 
ENDBRANCH   8  11
ENDBRANCH   7   8
ENDBRANCH   1   7
BRANCH   6  13
ATOM     13  N   LIG d   1       0.535  80.172 111.116  0.00  0.00    -0.311 N 
ATOM     14  C   LIG d   1       0.117  79.671 109.955  0.00  0.00     0.210 C 
ATOM     15  C   LIG d   1       0.382  78.174 109.765  0.00  0.00     0.109 C 
ATOM     16  O   LIG d   1      -0.418  80.330 109.052  0.00  0.00    -0.276 OA
ATOM     17  H   LIG d   1       0.989  79.573 111.778  0.00  0.00     0.149 HD
ENDBRANCH   6  13
BRANCH   5  18
ATOM     18  N   LIG d   1      -1.840  81.271 112.692  0.00  0.00     0.381 N 
ATOM     19  H   LIG d   1      -2.828  81.346 112.555  0.00  0.00    -0.090 HD
ATOM     20  H   LIG d   1      -1.611  81.692 113.576  0.00  0.00    -0.090 HD
ATOM     21  H   LIG d   1      -1.569  80.312 112.694  0.00  0.00    -0.090 HD
ENDBRANCH   5  18
BRANCH   3  22
ATOM     22  C   LIG d   1      -0.921  85.571 110.795  0.00  0.00     0.382 C 
ATOM     23  O   LIG d   1      -1.920  86.023 111.405  0.00  0.00    -0.241 OA
ATOM     24  O   LIG d   1      -0.364  86.271 109.927  0.00  0.00    -0.241 OA
ENDBRANCH   3  22
TORSDOF 7
ENDMDL
MODEL 8
REMARK VINA RESULT:      -5.2      2.733      4.507
REMARK  7 active torsions:
REMARK  status: ('A' for Active; 'I' for Inactive)
REMARK    1  A    between atoms: C_2  and  C_3 
REMARK    2  A    between atoms: C_3  and  O_6 
REMARK    3  A    between atoms: C_3  and  C_4 
REMARK    4  A    between atoms: C_7  and  O_6 
REMARK    5  A    between atoms: C_9  and  C_10 
REMARK    6  A    between atoms: N_15  and  C_14 
REMARK    7  A    between atoms: N_20  and  C_19 
REMARK       I    between atoms: C_22  and  N_20 
ROOT
ATOM      1  C   LIG d   1       0.638  82.131 111.725  0.00  0.00     0.161 C 
ATOM      2  C   LIG d   1      -0.606  81.978 112.359  0.00  0.00     0.016 C 
ATOM      3  C   LIG d   1      -1.397  80.811 112.249  0.00  0.00     0.038 C 
ATOM      4  C   LIG d   1      -0.925  79.652 111.615  0.00  0.00     0.028 C 
ATOM      5  C   LIG d   1       0.111  79.933 110.532  0.00  0.00    -0.047 C 
ATOM      6  C   LIG d   1       1.220  80.836 111.120  0.00  0.00     0.091 C 
ENDROOT
BRANCH   1   7
ATOM      7  O   LIG d   1       1.582  82.726 112.637  0.00  0.00    -0.368 OA
BRANCH   7   8
ATOM      8  C   LIG d   1       1.603  84.174 112.678  0.00  0.00     0.119 C 
BRANCH   8   9
ATOM      9  C   LIG d   1       2.735  84.647 111.746  0.00  0.00     0.028 C 
ATOM     10  C   LIG d   1       2.224  85.551 110.612  0.00  0.00     0.006 C 
ENDBRANCH   8   9
BRANCH   8  11
ATOM     11  C   LIG d   1       1.982  84.687 114.070  0.00  0.00     0.028 C 
ATOM     12  C   LIG d   1       1.617  86.165 114.280  0.00  0.00     0.006 C 
ENDBRANCH   8  11
ENDBRANCH   7   8
ENDBRANCH   1   7
BRANCH   6  13
ATOM     13  N   LIG d   1       2.230  81.228 110.104  0.00  0.00    -0.311 N 
ATOM     14  C   LIG d   1       1.987  82.100 109.127  0.00  0.00     0.210 C 
ATOM     15  C   LIG d   1       3.161  82.348 108.174  0.00  0.00     0.109 C 
ATOM     16  O   LIG d   1       0.921  82.717 108.979  0.00  0.00    -0.276 OA
ATOM     17  H   LIG d   1       3.133  80.799 110.168  0.00  0.00     0.149 HD
ENDBRANCH   6  13
BRANCH   5  18
ATOM     18  N   LIG d   1       0.618  78.634 110.052  0.00  0.00     0.381 N 
ATOM     19  H   LIG d   1       0.449  78.547 109.070  0.00  0.00    -0.090 HD
ATOM     20  H   LIG d   1       0.122  77.897 110.523  0.00  0.00    -0.090 HD
ATOM     21  H   LIG d   1       1.594  78.559 110.237  0.00  0.00    -0.090 HD
ENDBRANCH   5  18
BRANCH   3  22
ATOM     22  C   LIG d   1      -2.693  80.810 112.743  0.00  0.00     0.382 C 
ATOM     23  O   LIG d   1      -3.360  81.873 112.754  0.00  0.00    -0.241 OA
ATOM     24  O   LIG d   1      -3.187  79.771 113.218  0.00  0.00    -0.241 OA
ENDBRANCH   3  22
TORSDOF 7
ENDMDL
MODEL 9
REMARK VINA RESULT:      -5.1      2.008      4.341
REMARK  7 active torsions:
REMARK  status: ('A' for Active; 'I' for Inactive)
REMARK    1  A    between atoms: C_2  and  C_3 
REMARK    2  A    between atoms: C_3  and  O_6 
REMARK    3  A    between atoms: C_3  and  C_4 
REMARK    4  A    between atoms: C_7  and  O_6 
REMARK    5  A    between atoms: C_9  and  C_10 
REMARK    6  A    between atoms: N_15  and  C_14 
REMARK    7  A    between atoms: N_20  and  C_19 
REMARK       I    between atoms: C_22  and  N_20 
ROOT
ATOM      1  C   LIG d   1       1.189  83.718 110.623  0.00  0.00     0.161 C 
ATOM      2  C   LIG d   1       2.005  84.601 111.349  0.00  0.00     0.016 C 
ATOM      3  C   LIG d   1       3.394  84.739 111.125  0.00  0.00     0.038 C 
ATOM      4  C   LIG d   1       4.038  84.110 110.049  0.00  0.00     0.028 C 
ATOM      5  C   LIG d   1       3.354  82.821 109.604  0.00  0.00    -0.047 C 
ATOM      6  C   LIG d   1       1.852  83.105 109.372  0.00  0.00     0.091 C 
ENDROOT
BRANCH   1   7
ATOM      7  O   LIG d   1      -0.044  84.374 110.265  0.00  0.00    -0.368 OA
BRANCH   7   8
ATOM      8  C   LIG d   1      -1.131  84.248 111.214  0.00  0.00     0.119 C 
BRANCH   8   9
ATOM      9  C   LIG d   1      -1.219  85.572 111.997  0.00  0.00     0.028 C 
ATOM     10  C   LIG d   1      -1.563  86.767 111.092  0.00  0.00     0.006 C 
ENDBRANCH   8   9
BRANCH   8  11
ATOM     11  C   LIG d   1      -0.832  83.175 112.266  0.00  0.00     0.028 C 
ATOM     12  C   LIG d   1      -1.753  81.951 112.146  0.00  0.00     0.006 C 
ENDBRANCH   8  11
ENDBRANCH   7   8
ENDBRANCH   1   7
BRANCH   6  13
ATOM     13  N   LIG d   1       1.093  81.878 109.015  0.00  0.00    -0.311 N 
ATOM     14  C   LIG d   1       0.995  80.818 109.815  0.00  0.00     0.210 C 
ATOM     15  C   LIG d   1       0.181  79.652 109.245  0.00  0.00     0.109 C 
ATOM     16  O   LIG d   1       1.477  80.745 110.955  0.00  0.00    -0.276 OA
ATOM     17  H   LIG d   1       0.643  81.864 108.120  0.00  0.00     0.149 HD
ENDBRANCH   6  13
BRANCH   5  18
ATOM     18  N   LIG d   1       4.047  82.345 108.392  0.00  0.00     0.381 N 
ATOM     19  H   LIG d   1       4.808  82.956 108.175  0.00  0.00    -0.090 HD
ATOM     20  H   LIG d   1       3.402  82.359 107.622  0.00  0.00    -0.090 HD
ATOM     21  H   LIG d   1       4.385  81.419 108.535  0.00  0.00    -0.090 HD
ENDBRANCH   5  18
BRANCH   3  22
ATOM     22  C   LIG d   1       4.162  85.484 112.007  0.00  0.00     0.382 C 
ATOM     23  O   LIG d   1       4.465  86.669 111.728  0.00  0.00    -0.241 OA
ATOM     24  O   LIG d   1       4.592  84.972 113.058  0.00  0.00    -0.241 OA
ENDBRANCH   3  22
TORSDOF 7
ENDMDL
