MODEL 1
REMARK VINA RESULT:      -6.7      0.000      0.000
REMARK  7 active torsions:
REMARK  status: ('A' for Active; 'I' for Inactive)
REMARK    1  A    between atoms: C_2  and  C_3 
REMARK    2  A    between atoms: C_3  and  O_6 
REMARK    3  A    between atoms: C_3  and  C_4 
REMARK    4  A    between atoms: C_7  and  O_6 
REMARK    5  A    between atoms: C_9  and  C_10 
REMARK    6  A    between atoms: N_15  and  C_14 
REMARK    7  A    between atoms: N_20  and  C_19 
REMARK       I    between atoms: C_22  and  N_20 
ROOT
ATOM      1  C   LIG d   1       0.040  82.718 111.163  0.00  0.00     0.161 C 
ATOM      2  C   LIG d   1      -1.061  82.448 111.992  0.00  0.00     0.016 C 
ATOM      3  C   LIG d   1      -1.514  81.141 112.285  0.00  0.00     0.038 C 
ATOM      4  C   LIG d   1      -0.797  80.003 111.888  0.00  0.00     0.028 C 
ATOM      5  C   LIG d   1       0.035  80.219 110.629  0.00  0.00    -0.047 C 
ATOM      6  C   LIG d   1       0.901  81.486 110.811  0.00  0.00     0.091 C 
ENDROOT
BRANCH   1   7
ATOM      7  O   LIG d   1       0.857  83.747 111.756  0.00  0.00    -0.368 OA
BRANCH   7   8
ATOM      8  C   LIG d   1       0.829  85.039 111.100  0.00  0.00     0.119 C 
BRANCH   8   9
ATOM      9  C   LIG d   1      -0.134  84.930 109.903  0.00  0.00     0.028 C 
ATOM     10  C   LIG d   1      -1.453  85.684 110.140  0.00  0.00     0.006 C 
ENDBRANCH   8   9
BRANCH   8  11
ATOM     11  C   LIG d   1       2.192  85.385 110.493  0.00  0.00     0.028 C 
ATOM     12  C   LIG d   1       3.361  85.093 111.448  0.00  0.00     0.006 C 
ENDBRANCH   8  11
ENDBRANCH   7   8
ENDBRANCH   1   7
BRANCH   6  13
ATOM     13  N   LIG d   1       1.684  81.819 109.592  0.00  0.00    -0.311 N 
ATOM     14  C   LIG d   1       3.014  81.886 109.571  0.00  0.00     0.210 C 
ATOM     15  C   LIG d   1       3.620  82.264 108.216  0.00  0.00     0.109 C 
ATOM     16  O   LIG d   1       3.750  81.636 110.537  0.00  0.00    -0.276 OA
ATOM     17  H   LIG d   1       1.167  82.005 108.755  0.00  0.00     0.149 HD
ENDBRANCH   6  13
BRANCH   5  18
ATOM     18  N   LIG d   1       0.835  78.999 110.407  0.00  0.00     0.381 N 
ATOM     19  H   LIG d   1       0.558  78.291 111.057  0.00  0.00    -0.090 HD
ATOM     20  H   LIG d   1       1.803  79.213 110.567  0.00  0.00    -0.090 HD
ATOM     21  H   LIG d   1       0.708  78.673 109.475  0.00  0.00    -0.090 HD
ENDBRANCH   5  18
BRANCH   3  22
ATOM     22  C   LIG d   1      -2.717  80.963 112.950  0.00  0.00     0.382 C 
ATOM     23  O   LIG d   1      -3.714  81.659 112.639  0.00  0.00    -0.241 OA
ATOM     24  O   LIG d   1      -2.807  80.147 113.886  0.00  0.00    -0.241 OA
ENDBRANCH   3  22
TORSDOF 7
ENDMDL
MODEL 2
REMARK VINA RESULT:      -6.5      1.597      4.945
REMARK  7 active torsions:
REMARK  status: ('A' for Active; 'I' for Inactive)
REMARK    1  A    between atoms: C_2  and  C_3 
REMARK    2  A    between atoms: C_3  and  O_6 
REMARK    3  A    between atoms: C_3  and  C_4 
REMARK    4  A    between atoms: C_7  and  O_6 
REMARK    5  A    between atoms: C_9  and  C_10 
REMARK    6  A    between atoms: N_15  and  C_14 
REMARK    7  A    between atoms: N_20  and  C_19 
REMARK       I    between atoms: C_22  and  N_20 
ROOT
ATOM      1  C   LIG d   1       1.514  82.205 111.577  0.00  0.00     0.161 C 
ATOM      2  C   LIG d   1       2.341  82.556 110.498  0.00  0.00     0.016 C 
ATOM      3  C   LIG d   1       2.526  81.737 109.360  0.00  0.00     0.038 C 
ATOM      4  C   LIG d   1       1.772  80.572 109.155  0.00  0.00     0.028 C 
ATOM      5  C   LIG d   1       1.299  79.921 110.451  0.00  0.00    -0.047 C 
ATOM      6  C   LIG d   1       0.598  80.989 111.321  0.00  0.00     0.091 C 
ENDROOT
BRANCH   1   7
ATOM      7  O   LIG d   1       0.731  83.345 111.985  0.00  0.00    -0.368 OA
BRANCH   7   8
ATOM      8  C   LIG d   1       0.489  84.348 110.968  0.00  0.00     0.119 C 
BRANCH   8   9
ATOM      9  C   LIG d   1       0.660  85.729 111.629  0.00  0.00     0.028 C 
ATOM     10  C   LIG d   1       2.025  86.365 111.315  0.00  0.00     0.006 C 
ENDBRANCH   8   9
BRANCH   8  11
ATOM     11  C   LIG d   1      -0.963  84.308 110.481  0.00  0.00     0.028 C 
ATOM     12  C   LIG d   1      -1.563  85.709 110.283  0.00  0.00     0.006 C 
ENDBRANCH   8  11
ENDBRANCH   7   8
ENDBRANCH   1   7
BRANCH   6  13
ATOM     13  N   LIG d   1       0.178  80.456 112.644  0.00  0.00    -0.311 N 
ATOM     14  C   LIG d   1      -1.050  80.008 112.897  0.00  0.00     0.210 C 
ATOM     15  C   LIG d   1      -1.277  79.521 114.331  0.00  0.00     0.109 C 
ATOM     16  O   LIG d   1      -1.963  79.938 112.061  0.00  0.00    -0.276 OA
ATOM     17  H   LIG d   1       0.866  80.447 113.371  0.00  0.00     0.149 HD
ENDBRANCH   6  13
BRANCH   5  18
ATOM     18  N   LIG d   1       0.413  78.799 110.088  0.00  0.00     0.381 N 
ATOM     19  H   LIG d   1       0.045  78.376 110.916  0.00  0.00    -0.090 HD
ATOM     20  H   LIG d   1       0.949  78.109 109.592  0.00  0.00    -0.090 HD
ATOM     21  H   LIG d   1      -0.333  79.126 109.514  0.00  0.00    -0.090 HD
ENDBRANCH   5  18
BRANCH   3  22
ATOM     22  C   LIG d   1       3.503  82.062 108.431  0.00  0.00     0.382 C 
ATOM     23  O   LIG d   1       3.230  82.831 107.477  0.00  0.00    -0.241 OA
ATOM     24  O   LIG d   1       4.640  81.561 108.509  0.00  0.00    -0.241 OA
ENDBRANCH   3  22
TORSDOF 7
ENDMDL
MODEL 3
REMARK VINA RESULT:      -6.3      1.869      5.005
REMARK  7 active torsions:
REMARK  status: ('A' for Active; 'I' for Inactive)
REMARK    1  A    between atoms: C_2  and  C_3 
REMARK    2  A    between atoms: C_3  and  O_6 
REMARK    3  A    between atoms: C_3  and  C_4 
REMARK    4  A    between atoms: C_7  and  O_6 
REMARK    5  A    between atoms: C_9  and  C_10 
REMARK    6  A    between atoms: N_15  and  C_14 
REMARK    7  A    between atoms: N_20  and  C_19 
REMARK       I    between atoms: C_22  and  N_20 
ROOT
ATOM      1  C   LIG d   1       0.541  81.184 112.028  0.00  0.00     0.161 C 
ATOM      2  C   LIG d   1       1.373  81.103 110.899  0.00  0.00     0.016 C 
ATOM      3  C   LIG d   1       1.123  80.237 109.809  0.00  0.00     0.038 C 
ATOM      4  C   LIG d   1      -0.065  79.499 109.706  0.00  0.00     0.028 C 
ATOM      5  C   LIG d   1      -0.692  79.169 111.056  0.00  0.00    -0.047 C 
ATOM      6  C   LIG d   1      -0.818  80.469 111.883  0.00  0.00     0.091 C 
ENDROOT
BRANCH   1   7
ATOM      7  O   LIG d   1       0.344  82.565 112.391  0.00  0.00    -0.368 OA
BRANCH   7   8
ATOM      8  C   LIG d   1       0.286  83.510 111.295  0.00  0.00     0.119 C 
BRANCH   8   9
ATOM      9  C   LIG d   1       1.457  84.496 111.471  0.00  0.00     0.028 C 
ATOM     10  C   LIG d   1       2.359  84.564 110.227  0.00  0.00     0.006 C 
ENDBRANCH   8   9
BRANCH   8  11
ATOM     11  C   LIG d   1      -0.981  84.368 111.365  0.00  0.00     0.028 C 
ATOM     12  C   LIG d   1      -1.241  85.154 110.070  0.00  0.00     0.006 C 
ENDBRANCH   8  11
ENDBRANCH   7   8
ENDBRANCH   1   7
BRANCH   6  13
ATOM     13  N   LIG d   1      -1.345  80.222 113.250  0.00  0.00    -0.311 N 
ATOM     14  C   LIG d   1      -2.642  80.249 113.552  0.00  0.00     0.210 C 
ATOM     15  C   LIG d   1      -2.969  79.987 115.026  0.00  0.00     0.109 C 
ATOM     16  O   LIG d   1      -3.555  80.433 112.733  0.00  0.00    -0.276 OA
ATOM     17  H   LIG d   1      -0.675  80.033 113.970  0.00  0.00     0.149 HD
ENDBRANCH   6  13
BRANCH   5  18
ATOM     18  N   LIG d   1      -1.992  78.520 110.797  0.00  0.00     0.381 N 
ATOM     19  H   LIG d   1      -2.048  77.660 111.304  0.00  0.00    -0.090 HD
ATOM     20  H   LIG d   1      -2.062  78.313 109.816  0.00  0.00    -0.090 HD
ATOM     21  H   LIG d   1      -2.735  79.124 111.070  0.00  0.00    -0.090 HD
ENDBRANCH   5  18
BRANCH   3  22
ATOM     22  C   LIG d   1       2.088  80.074 108.827  0.00  0.00     0.382 C 
ATOM     23  O   LIG d   1       2.077  79.050 108.102  0.00  0.00    -0.241 OA
ATOM     24  O   LIG d   1       2.995  80.916 108.685  0.00  0.00    -0.241 OA
ENDBRANCH   3  22
TORSDOF 7
ENDMDL
MODEL 4
REMARK VINA RESULT:      -6.0      3.269      5.666
REMARK  7 active torsions:
REMARK  status: ('A' for Active; 'I' for Inactive)
REMARK    1  A    between atoms: C_2  and  C_3 
REMARK    2  A    between atoms: C_3  and  O_6 
REMARK    3  A    between atoms: C_3  and  C_4 
REMARK    4  A    between atoms: C_7  and  O_6 
REMARK    5  A    between atoms: C_9  and  C_10 
REMARK    6  A    between atoms: N_15  and  C_14 
REMARK    7  A    between atoms: N_20  and  C_19 
REMARK       I    between atoms: C_22  and  N_20 
ROOT
ATOM      1  C   LIG d   1       3.752  84.897 111.919  0.00  0.00     0.161 C 
ATOM      2  C   LIG d   1       3.274  85.981 112.674  0.00  0.00     0.016 C 
ATOM      3  C   LIG d   1       2.137  86.740 112.313  0.00  0.00     0.038 C 
ATOM      4  C   LIG d   1       1.306  86.368 111.245  0.00  0.00     0.028 C 
ATOM      5  C   LIG d   1       2.032  85.583 110.158  0.00  0.00    -0.047 C 
ATOM      6  C   LIG d   1       2.795  84.408 110.812  0.00  0.00     0.091 C 
ENDROOT
BRANCH   1   7
ATOM      7  O   LIG d   1       4.102  83.808 112.796  0.00  0.00    -0.368 OA
BRANCH   7   8
ATOM      8  C   LIG d   1       3.003  83.170 113.491  0.00  0.00     0.119 C 
BRANCH   8   9
ATOM      9  C   LIG d   1       3.465  82.894 114.935  0.00  0.00     0.028 C 
ATOM     10  C   LIG d   1       4.054  84.143 115.611  0.00  0.00     0.006 C 
ENDBRANCH   8   9
BRANCH   8  11
ATOM     11  C   LIG d   1       2.690  81.794 112.895  0.00  0.00     0.028 C 
ATOM     12  C   LIG d   1       1.183  81.546 112.725  0.00  0.00     0.006 C 
ENDBRANCH   8  11
ENDBRANCH   7   8
ENDBRANCH   1   7
BRANCH   6  13
ATOM     13  N   LIG d   1       3.601  83.638 109.829  0.00  0.00    -0.311 N 
ATOM     14  C   LIG d   1       3.155  82.545 109.212  0.00  0.00     0.210 C 
ATOM     15  C   LIG d   1       4.154  81.892 108.251  0.00  0.00     0.109 C 
ATOM     16  O   LIG d   1       2.016  82.073 109.343  0.00  0.00    -0.276 OA
ATOM     17  H   LIG d   1       4.527  83.969 109.639  0.00  0.00     0.149 HD
ENDBRANCH   6  13
BRANCH   5  18
ATOM     18  N   LIG d   1       1.023  85.142 109.177  0.00  0.00     0.381 N 
ATOM     19  H   LIG d   1       0.691  85.928 108.656  0.00  0.00    -0.090 HD
ATOM     20  H   LIG d   1       0.245  84.739 109.670  0.00  0.00    -0.090 HD
ATOM     21  H   LIG d   1       1.419  84.468 108.559  0.00  0.00    -0.090 HD
ENDBRANCH   5  18
BRANCH   3  22
ATOM     22  C   LIG d   1       1.843  87.908 113.000  0.00  0.00     0.382 C 
ATOM     23  O   LIG d   1       0.652  88.193 113.271  0.00  0.00    -0.241 OA
ATOM     24  O   LIG d   1       2.750  88.701 113.313  0.00  0.00    -0.241 OA
ENDBRANCH   3  22
TORSDOF 7
ENDMDL
MODEL 5
REMARK VINA RESULT:      -5.9      3.613      6.151
REMARK  7 active torsions:
REMARK  status: ('A' for Active; 'I' for Inactive)
REMARK    1  A    between atoms: C_2  and  C_3 
REMARK    2  A    between atoms: C_3  and  O_6 
REMARK    3  A    between atoms: C_3  and  C_4 
REMARK    4  A    between atoms: C_7  and  O_6 
REMARK    5  A    between atoms: C_9  and  C_10 
REMARK    6  A    between atoms: N_15  and  C_14 
REMARK    7  A    between atoms: N_20  and  C_19 
REMARK       I    between atoms: C_22  and  N_20 
ROOT
ATOM      1  C   LIG d   1       2.372  85.955 111.928  0.00  0.00     0.161 C 
ATOM      2  C   LIG d   1       2.675  87.282 112.277  0.00  0.00     0.016 C 
ATOM      3  C   LIG d   1       3.462  87.632 113.398  0.00  0.00     0.038 C 
ATOM      4  C   LIG d   1       4.129  86.667 114.166  0.00  0.00     0.028 C 
ATOM      5  C   LIG d   1       3.445  85.304 114.154  0.00  0.00    -0.047 C 
ATOM      6  C   LIG d   1       3.184  84.886 112.689  0.00  0.00     0.091 C 
ENDROOT
BRANCH   1   7
ATOM      7  O   LIG d   1       2.520  85.778 110.506  0.00  0.00    -0.368 OA
BRANCH   7   8
ATOM      8  C   LIG d   1       1.307  85.488 109.770  0.00  0.00     0.119 C 
BRANCH   8   9
ATOM      9  C   LIG d   1       0.141  85.500 110.777  0.00  0.00     0.028 C 
ATOM     10  C   LIG d   1      -1.233  85.452 110.086  0.00  0.00     0.006 C 
ENDBRANCH   8   9
BRANCH   8  11
ATOM     11  C   LIG d   1       1.330  84.069 109.194  0.00  0.00     0.028 C 
ATOM     12  C   LIG d   1       1.077  84.036 107.678  0.00  0.00     0.006 C 
ENDBRANCH   8  11
ENDBRANCH   7   8
ENDBRANCH   1   7
BRANCH   6  13
ATOM     13  N   LIG d   1       2.441  83.603 112.590  0.00  0.00    -0.311 N 
ATOM     14  C   LIG d   1       2.907  82.534 111.945  0.00  0.00     0.210 C 
ATOM     15  C   LIG d   1       1.972  81.320 111.947  0.00  0.00     0.109 C 
ATOM     16  O   LIG d   1       4.018  82.466 111.400  0.00  0.00    -0.276 OA
ATOM     17  H   LIG d   1       1.543  83.560 113.031  0.00  0.00     0.149 HD
ENDBRANCH   6  13
BRANCH   5  18
ATOM     18  N   LIG d   1       4.317  84.360 114.878  0.00  0.00     0.381 N 
ATOM     19  H   LIG d   1       4.294  84.561 115.858  0.00  0.00    -0.090 HD
ATOM     20  H   LIG d   1       5.261  84.478 114.555  0.00  0.00    -0.090 HD
ATOM     21  H   LIG d   1       4.017  83.425 114.716  0.00  0.00    -0.090 HD
ENDBRANCH   5  18
BRANCH   3  22
ATOM     22  C   LIG d   1       3.554  88.961 113.785  0.00  0.00     0.382 C 
ATOM     23  O   LIG d   1       3.072  89.328 114.884  0.00  0.00    -0.241 OA
ATOM     24  O   LIG d   1       4.073  89.804 113.030  0.00  0.00    -0.241 OA
ENDBRANCH   3  22
TORSDOF 7
ENDMDL
MODEL 6
REMARK VINA RESULT:      -5.8      2.726      4.730
REMARK  7 active torsions:
REMARK  status: ('A' for Active; 'I' for Inactive)
REMARK    1  A    between atoms: C_2  and  C_3 
REMARK    2  A    between atoms: C_3  and  O_6 
REMARK    3  A    between atoms: C_3  and  C_4 
REMARK    4  A    between atoms: C_7  and  O_6 
REMARK    5  A    between atoms: C_9  and  C_10 
REMARK    6  A    between atoms: N_15  and  C_14 
REMARK    7  A    between atoms: N_20  and  C_19 
REMARK       I    between atoms: C_22  and  N_20 
ROOT
ATOM      1  C   LIG d   1       0.783  83.277 110.462  0.00  0.00     0.161 C 
ATOM      2  C   LIG d   1       1.403  84.522 110.653  0.00  0.00     0.016 C 
ATOM      3  C   LIG d   1       2.379  84.761 111.648  0.00  0.00     0.038 C 
ATOM      4  C   LIG d   1       2.914  83.723 112.425  0.00  0.00     0.028 C 
ATOM      5  C   LIG d   1       1.958  82.550 112.611  0.00  0.00    -0.047 C 
ATOM      6  C   LIG d   1       1.434  82.105 111.226  0.00  0.00     0.091 C 
ENDROOT
BRANCH   1   7
ATOM      7  O   LIG d   1       0.712  82.978 109.053  0.00  0.00    -0.368 OA
BRANCH   7   8
ATOM      8  C   LIG d   1       1.792  83.494 108.237  0.00  0.00     0.119 C 
BRANCH   8   9
ATOM      9  C   LIG d   1       1.203  83.840 106.856  0.00  0.00     0.028 C 
ATOM     10  C   LIG d   1       0.530  85.223 106.834  0.00  0.00     0.006 C 
ENDBRANCH   8   9
BRANCH   8  11
ATOM     11  C   LIG d   1       2.850  82.420 107.969  0.00  0.00     0.028 C 
ATOM     12  C   LIG d   1       4.150  82.655 108.755  0.00  0.00     0.006 C 
ENDBRANCH   8  11
ENDBRANCH   7   8
ENDBRANCH   1   7
BRANCH   6  13
ATOM     13  N   LIG d   1       0.427  81.017 111.324  0.00  0.00    -0.311 N 
ATOM     14  C   LIG d   1       0.432  79.941 110.539  0.00  0.00     0.210 C 
ATOM     15  C   LIG d   1      -0.708  78.949 110.793  0.00  0.00     0.109 C 
ATOM     16  O   LIG d   1       1.291  79.697 109.678  0.00  0.00    -0.276 OA
ATOM     17  H   LIG d   1      -0.289  81.118 112.017  0.00  0.00     0.149 HD
ENDBRANCH   6  13
BRANCH   5  18
ATOM     18  N   LIG d   1       2.691  81.485 113.321  0.00  0.00     0.381 N 
ATOM     19  H   LIG d   1       2.854  81.760 114.269  0.00  0.00    -0.090 HD
ATOM     20  H   LIG d   1       3.581  81.349 112.874  0.00  0.00    -0.090 HD
ATOM     21  H   LIG d   1       2.167  80.637 113.299  0.00  0.00    -0.090 HD
ENDBRANCH   5  18
BRANCH   3  22
ATOM     22  C   LIG d   1       2.801  86.057 111.900  0.00  0.00     0.382 C 
ATOM     23  O   LIG d   1       2.234  87.022 111.334  0.00  0.00    -0.241 OA
ATOM     24  O   LIG d   1       3.770  86.271 112.653  0.00  0.00    -0.241 OA
ENDBRANCH   3  22
TORSDOF 7
ENDMDL
MODEL 7
REMARK VINA RESULT:      -5.7      2.399      4.197
REMARK  7 active torsions:
REMARK  status: ('A' for Active; 'I' for Inactive)
REMARK    1  A    between atoms: C_2  and  C_3 
REMARK    2  A    between atoms: C_3  and  O_6 
REMARK    3  A    between atoms: C_3  and  C_4 
REMARK    4  A    between atoms: C_7  and  O_6 
REMARK    5  A    between atoms: C_9  and  C_10 
REMARK    6  A    between atoms: N_15  and  C_14 
REMARK    7  A    between atoms: N_20  and  C_19 
REMARK       I    between atoms: C_22  and  N_20 
ROOT
ATOM      1  C   LIG d   1       1.988  82.498 111.616  0.00  0.00     0.161 C 
ATOM      2  C   LIG d   1       1.294  81.286 111.461  0.00  0.00     0.016 C 
ATOM      3  C   LIG d   1      -0.117  81.196 111.433  0.00  0.00     0.038 C 
ATOM      4  C   LIG d   1      -0.933  82.337 111.408  0.00  0.00     0.028 C 
ATOM      5  C   LIG d   1      -0.294  83.553 112.071  0.00  0.00    -0.047 C 
ATOM      6  C   LIG d   1       1.117  83.764 111.479  0.00  0.00     0.091 C 
ENDROOT
BRANCH   1   7
ATOM      7  O   LIG d   1       3.095  82.548 110.695  0.00  0.00    -0.368 OA
BRANCH   7   8
ATOM      8  C   LIG d   1       2.825  82.087 109.348  0.00  0.00     0.119 C 
BRANCH   8   9
ATOM      9  C   LIG d   1       4.160  81.608 108.746  0.00  0.00     0.028 C 
ATOM     10  C   LIG d   1       5.097  82.775 108.392  0.00  0.00     0.006 C 
ENDBRANCH   8   9
BRANCH   8  11
ATOM     11  C   LIG d   1       2.364  83.237 108.447  0.00  0.00     0.028 C 
ATOM     12  C   LIG d   1       0.906  83.084 107.986  0.00  0.00     0.006 C 
ENDBRANCH   8  11
ENDBRANCH   7   8
ENDBRANCH   1   7
BRANCH   6  13
ATOM     13  N   LIG d   1       1.845  84.883 112.132  0.00  0.00    -0.311 N 
ATOM     14  C   LIG d   1       2.261  85.967 111.480  0.00  0.00     0.210 C 
ATOM     15  C   LIG d   1       3.009  86.991 112.340  0.00  0.00     0.109 C 
ATOM     16  O   LIG d   1       2.054  86.193 110.278  0.00  0.00    -0.276 OA
ATOM     17  H   LIG d   1       2.028  84.797 113.113  0.00  0.00     0.149 HD
ENDBRANCH   6  13
BRANCH   5  18
ATOM     18  N   LIG d   1      -1.192  84.703 111.852  0.00  0.00     0.381 N 
ATOM     19  H   LIG d   1      -0.723  85.551 112.101  0.00  0.00    -0.090 HD
ATOM     20  H   LIG d   1      -1.998  84.603 112.443  0.00  0.00    -0.090 HD
ATOM     21  H   LIG d   1      -1.473  84.738 110.897  0.00  0.00    -0.090 HD
ENDBRANCH   5  18
BRANCH   3  22
ATOM     22  C   LIG d   1      -0.727  79.951 111.471  0.00  0.00     0.382 C 
ATOM     23  O   LIG d   1      -1.073  79.456 112.571  0.00  0.00    -0.241 OA
ATOM     24  O   LIG d   1      -0.895  79.298 110.424  0.00  0.00    -0.241 OA
ENDBRANCH   3  22
TORSDOF 7
ENDMDL
MODEL 8
REMARK VINA RESULT:      -5.6      3.000      4.937
REMARK  7 active torsions:
REMARK  status: ('A' for Active; 'I' for Inactive)
REMARK    1  A    between atoms: C_2  and  C_3 
REMARK    2  A    between atoms: C_3  and  O_6 
REMARK    3  A    between atoms: C_3  and  C_4 
REMARK    4  A    between atoms: C_7  and  O_6 
REMARK    5  A    between atoms: C_9  and  C_10 
REMARK    6  A    between atoms: N_15  and  C_14 
REMARK    7  A    between atoms: N_20  and  C_19 
REMARK       I    between atoms: C_22  and  N_20 
ROOT
ATOM      1  C   LIG d   1       1.415  83.310 110.705  0.00  0.00     0.161 C 
ATOM      2  C   LIG d   1       2.091  82.079 110.670  0.00  0.00     0.016 C 
ATOM      3  C   LIG d   1       2.479  81.438 109.470  0.00  0.00     0.038 C 
ATOM      4  C   LIG d   1       2.349  82.063 108.221  0.00  0.00     0.028 C 
ATOM      5  C   LIG d   1       1.216  83.082 108.168  0.00  0.00    -0.047 C 
ATOM      6  C   LIG d   1       1.363  84.059 109.357  0.00  0.00     0.091 C 
ENDROOT
BRANCH   1   7
ATOM      7  O   LIG d   1       1.987  84.153 111.725  0.00  0.00    -0.368 OA
BRANCH   7   8
ATOM      8  C   LIG d   1       3.248  84.786 111.395  0.00  0.00     0.119 C 
BRANCH   8   9
ATOM      9  C   LIG d   1       4.300  84.276 112.399  0.00  0.00     0.028 C 
ATOM     10  C   LIG d   1       3.860  84.473 113.859  0.00  0.00     0.006 C 
ENDBRANCH   8   9
BRANCH   8  11
ATOM     11  C   LIG d   1       3.183  86.301 111.610  0.00  0.00     0.028 C 
ATOM     12  C   LIG d   1       1.757  86.803 111.890  0.00  0.00     0.006 C 
ENDBRANCH   8  11
ENDBRANCH   7   8
ENDBRANCH   1   7
BRANCH   6  13
ATOM     13  N   LIG d   1       0.247  85.038 109.429  0.00  0.00    -0.311 N 
ATOM     14  C   LIG d   1      -0.961  84.738 109.902  0.00  0.00     0.210 C 
ATOM     15  C   LIG d   1      -1.972  85.889 109.868  0.00  0.00     0.109 C 
ATOM     16  O   LIG d   1      -1.282  83.638 110.376  0.00  0.00    -0.276 OA
ATOM     17  H   LIG d   1       0.430  85.963 109.094  0.00  0.00     0.149 HD
ENDBRANCH   6  13
BRANCH   5  18
ATOM     18  N   LIG d   1       1.281  83.754 106.857  0.00  0.00     0.381 N 
ATOM     19  H   LIG d   1       1.441  83.077 106.137  0.00  0.00    -0.090 HD
ATOM     20  H   LIG d   1       2.052  84.398 106.860  0.00  0.00    -0.090 HD
ATOM     21  H   LIG d   1       0.431  84.242 106.681  0.00  0.00    -0.090 HD
ENDBRANCH   5  18
BRANCH   3  22
ATOM     22  C   LIG d   1       2.967  80.141 109.511  0.00  0.00     0.382 C 
ATOM     23  O   LIG d   1       2.180  79.171 109.392  0.00  0.00    -0.241 OA
ATOM     24  O   LIG d   1       4.178  79.928 109.709  0.00  0.00    -0.241 OA
ENDBRANCH   3  22
TORSDOF 7
ENDMDL
MODEL 9
REMARK VINA RESULT:      -5.5      2.436      5.347
REMARK  7 active torsions:
REMARK  status: ('A' for Active; 'I' for Inactive)
REMARK    1  A    between atoms: C_2  and  C_3 
REMARK    2  A    between atoms: C_3  and  O_6 
REMARK    3  A    between atoms: C_3  and  C_4 
REMARK    4  A    between atoms: C_7  and  O_6 
REMARK    5  A    between atoms: C_9  and  C_10 
REMARK    6  A    between atoms: N_15  and  C_14 
REMARK    7  A    between atoms: N_20  and  C_19 
REMARK       I    between atoms: C_22  and  N_20 
ROOT
ATOM      1  C   LIG d   1       0.318  81.472 111.632  0.00  0.00     0.161 C 
ATOM      2  C   LIG d   1       0.702  80.306 110.949  0.00  0.00     0.016 C 
ATOM      3  C   LIG d   1       1.696  80.285 109.943  0.00  0.00     0.038 C 
ATOM      4  C   LIG d   1       2.486  81.409 109.658  0.00  0.00     0.028 C 
ATOM      5  C   LIG d   1       1.791  82.731 109.967  0.00  0.00    -0.047 C 
ATOM      6  C   LIG d   1       1.246  82.685 111.412  0.00  0.00     0.091 C 
ENDROOT
BRANCH   1   7
ATOM      7  O   LIG d   1       0.185  81.191 113.040  0.00  0.00    -0.368 OA
BRANCH   7   8
ATOM      8  C   LIG d   1      -0.722  80.118 113.393  0.00  0.00     0.119 C 
BRANCH   8   9
ATOM      9  C   LIG d   1      -2.146  80.576 113.024  0.00  0.00     0.028 C 
ATOM     10  C   LIG d   1      -3.067  79.398 112.662  0.00  0.00     0.006 C 
ENDBRANCH   8   9
BRANCH   8  11
ATOM     11  C   LIG d   1      -0.750  79.888 114.907  0.00  0.00     0.028 C 
ATOM     12  C   LIG d   1       0.359  80.653 115.647  0.00  0.00     0.006 C 
ENDBRANCH   8  11
ENDBRANCH   7   8
ENDBRANCH   1   7
BRANCH   6  13
ATOM     13  N   LIG d   1       0.479  83.907 111.768  0.00  0.00    -0.311 N 
ATOM     14  C   LIG d   1      -0.720  84.193 111.263  0.00  0.00     0.210 C 
ATOM     15  C   LIG d   1      -1.328  85.514 111.747  0.00  0.00     0.109 C 
ATOM     16  O   LIG d   1      -1.352  83.463 110.485  0.00  0.00    -0.276 OA
ATOM     17  H   LIG d   1       0.904  84.540 112.417  0.00  0.00     0.149 HD
ENDBRANCH   6  13
BRANCH   5  18
ATOM     18  N   LIG d   1       2.774  83.810 109.754  0.00  0.00     0.381 N 
ATOM     19  H   LIG d   1       2.939  84.293 110.615  0.00  0.00    -0.090 HD
ATOM     20  H   LIG d   1       2.397  84.466 109.092  0.00  0.00    -0.090 HD
ATOM     21  H   LIG d   1       3.628  83.431 109.407  0.00  0.00    -0.090 HD
ENDBRANCH   5  18
BRANCH   3  22
ATOM     22  C   LIG d   1       1.881  79.140 109.184  0.00  0.00     0.382 C 
ATOM     23  O   LIG d   1       1.975  78.022 109.747  0.00  0.00    -0.241 OA
ATOM     24  O   LIG d   1       2.000  79.215 107.946  0.00  0.00    -0.241 OA
ENDBRANCH   3  22
TORSDOF 7
ENDMDL
