MODEL 1
REMARK VINA RESULT:      -6.6      0.000      0.000
REMARK  7 active torsions:
REMARK  status: ('A' for Active; 'I' for Inactive)
REMARK    1  A    between atoms: C_2  and  C_3 
REMARK    2  A    between atoms: C_3  and  O_6 
REMARK    3  A    between atoms: C_3  and  C_4 
REMARK    4  A    between atoms: C_7  and  O_6 
REMARK    5  A    between atoms: C_9  and  C_10 
REMARK    6  A    between atoms: N_15  and  C_14 
REMARK    7  A    between atoms: N_20  and  C_19 
REMARK       I    between atoms: C_22  and  N_20 
ROOT
ATOM      1  C   LIG d   1       0.202  82.536 111.100  0.00  0.00     0.161 C 
ATOM      2  C   LIG d   1      -0.899  82.176 111.893  0.00  0.00     0.016 C 
ATOM      3  C   LIG d   1      -1.329  80.840 112.068  0.00  0.00     0.038 C 
ATOM      4  C   LIG d   1      -0.588  79.753 111.579  0.00  0.00     0.028 C 
ATOM      5  C   LIG d   1       0.247  80.094 110.349  0.00  0.00    -0.047 C 
ATOM      6  C   LIG d   1       1.088  81.356 110.648  0.00  0.00     0.091 C 
ENDROOT
BRANCH   1   7
ATOM      7  O   LIG d   1       0.996  83.525 111.785  0.00  0.00    -0.368 OA
BRANCH   7   8
ATOM      8  C   LIG d   1       0.975  84.860 111.224  0.00  0.00     0.119 C 
BRANCH   8   9
ATOM      9  C   LIG d   1      -0.053  84.864 110.076  0.00  0.00     0.028 C 
ATOM     10  C   LIG d   1       0.557  85.327 108.743  0.00  0.00     0.006 C 
ENDBRANCH   8   9
BRANCH   8  11
ATOM     11  C   LIG d   1       2.315  85.211 110.570  0.00  0.00     0.028 C 
ATOM     12  C   LIG d   1       3.520  84.865 111.458  0.00  0.00     0.006 C 
ENDBRANCH   8  11
ENDBRANCH   7   8
ENDBRANCH   1   7
BRANCH   6  13
ATOM     13  N   LIG d   1       1.872  81.808 109.469  0.00  0.00    -0.311 N 
ATOM     14  C   LIG d   1       3.203  81.793 109.424  0.00  0.00     0.210 C 
ATOM     15  C   LIG d   1       3.811  82.320 108.120  0.00  0.00     0.109 C 
ATOM     16  O   LIG d   1       3.936  81.364 110.327  0.00  0.00    -0.276 OA
ATOM     17  H   LIG d   1       1.355  82.143 108.679  0.00  0.00     0.149 HD
ENDBRANCH   6  13
BRANCH   5  18
ATOM     18  N   LIG d   1       1.071  78.913 110.029  0.00  0.00     0.381 N 
ATOM     19  H   LIG d   1       1.201  78.358 110.851  0.00  0.00    -0.090 HD
ATOM     20  H   LIG d   1       1.972  79.222 109.710  0.00  0.00    -0.090 HD
ATOM     21  H   LIG d   1       0.628  78.371 109.320  0.00  0.00    -0.090 HD
ENDBRANCH   5  18
BRANCH   3  22
ATOM     22  C   LIG d   1      -2.533  80.583 112.706  0.00  0.00     0.382 C 
ATOM     23  O   LIG d   1      -2.602  79.680 113.574  0.00  0.00    -0.241 OA
ATOM     24  O   LIG d   1      -3.561  81.212 112.392  0.00  0.00    -0.241 OA
ENDBRANCH   3  22
TORSDOF 7
ENDMDL
MODEL 2
REMARK VINA RESULT:      -6.5      1.707      5.036
REMARK  7 active torsions:
REMARK  status: ('A' for Active; 'I' for Inactive)
REMARK    1  A    between atoms: C_2  and  C_3 
REMARK    2  A    between atoms: C_3  and  O_6 
REMARK    3  A    between atoms: C_3  and  C_4 
REMARK    4  A    between atoms: C_7  and  O_6 
REMARK    5  A    between atoms: C_9  and  C_10 
REMARK    6  A    between atoms: N_15  and  C_14 
REMARK    7  A    between atoms: N_20  and  C_19 
REMARK       I    between atoms: C_22  and  N_20 
ROOT
ATOM      1  C   LIG d   1       1.439  81.446 111.694  0.00  0.00     0.161 C 
ATOM      2  C   LIG d   1       2.448  82.010 110.896  0.00  0.00     0.016 C 
ATOM      3  C   LIG d   1       2.506  81.859 109.491  0.00  0.00     0.038 C 
ATOM      4  C   LIG d   1       1.468  81.255 108.767  0.00  0.00     0.028 C 
ATOM      5  C   LIG d   1       0.680  80.231 109.578  0.00  0.00    -0.047 C 
ATOM      6  C   LIG d   1       0.237  80.878 110.910  0.00  0.00     0.091 C 
ENDROOT
BRANCH   1   7
ATOM      7  O   LIG d   1       0.991  82.409 112.668  0.00  0.00    -0.368 OA
BRANCH   7   8
ATOM      8  C   LIG d   1       0.985  83.793 112.241  0.00  0.00     0.119 C 
BRANCH   8   9
ATOM      9  C   LIG d   1       1.417  84.652 113.445  0.00  0.00     0.028 C 
ATOM     10  C   LIG d   1       2.103  85.960 113.016  0.00  0.00     0.006 C 
ENDBRANCH   8   9
BRANCH   8  11
ATOM     11  C   LIG d   1      -0.432  84.263 111.896  0.00  0.00     0.028 C 
ATOM     12  C   LIG d   1      -0.600  84.605 110.407  0.00  0.00     0.006 C 
ENDBRANCH   8  11
ENDBRANCH   7   8
ENDBRANCH   1   7
BRANCH   6  13
ATOM     13  N   LIG d   1      -0.467  79.919 111.800  0.00  0.00    -0.311 N 
ATOM     14  C   LIG d   1      -1.651  80.169 112.356  0.00  0.00     0.210 C 
ATOM     15  C   LIG d   1      -2.191  79.053 113.256  0.00  0.00     0.109 C 
ATOM     16  O   LIG d   1      -2.320  81.195 112.165  0.00  0.00    -0.276 OA
ATOM     17  H   LIG d   1      -0.010  79.047 111.984  0.00  0.00     0.149 HD
ENDBRANCH   6  13
BRANCH   5  18
ATOM     18  N   LIG d   1      -0.454  79.782 108.748  0.00  0.00     0.381 N 
ATOM     19  H   LIG d   1      -0.113  79.375 107.900  0.00  0.00    -0.090 HD
ATOM     20  H   LIG d   1      -1.019  80.579 108.511  0.00  0.00    -0.090 HD
ATOM     21  H   LIG d   1      -1.000  79.115 109.248  0.00  0.00    -0.090 HD
ENDBRANCH   5  18
BRANCH   3  22
ATOM     22  C   LIG d   1       3.633  82.279 108.801  0.00  0.00     0.382 C 
ATOM     23  O   LIG d   1       3.627  82.301 107.546  0.00  0.00    -0.241 OA
ATOM     24  O   LIG d   1       4.669  82.595 109.415  0.00  0.00    -0.241 OA
ENDBRANCH   3  22
TORSDOF 7
ENDMDL
MODEL 3
REMARK VINA RESULT:      -6.2      2.378      4.382
REMARK  7 active torsions:
REMARK  status: ('A' for Active; 'I' for Inactive)
REMARK    1  A    between atoms: C_2  and  C_3 
REMARK    2  A    between atoms: C_3  and  O_6 
REMARK    3  A    between atoms: C_3  and  C_4 
REMARK    4  A    between atoms: C_7  and  O_6 
REMARK    5  A    between atoms: C_9  and  C_10 
REMARK    6  A    between atoms: N_15  and  C_14 
REMARK    7  A    between atoms: N_20  and  C_19 
REMARK       I    between atoms: C_22  and  N_20 
ROOT
ATOM      1  C   LIG d   1       2.249  82.796 111.775  0.00  0.00     0.161 C 
ATOM      2  C   LIG d   1       1.220  81.844 111.694  0.00  0.00     0.016 C 
ATOM      3  C   LIG d   1      -0.153  82.181 111.677  0.00  0.00     0.038 C 
ATOM      4  C   LIG d   1      -0.589  83.511 111.588  0.00  0.00     0.028 C 
ATOM      5  C   LIG d   1       0.399  84.513 112.176  0.00  0.00    -0.047 C 
ATOM      6  C   LIG d   1       1.796  84.257 111.566  0.00  0.00     0.091 C 
ENDROOT
BRANCH   1   7
ATOM      7  O   LIG d   1       3.300  82.461 110.847  0.00  0.00    -0.368 OA
BRANCH   7   8
ATOM      8  C   LIG d   1       2.898  81.721 109.668  0.00  0.00     0.119 C 
BRANCH   8   9
ATOM      9  C   LIG d   1       3.912  80.579 109.469  0.00  0.00     0.028 C 
ATOM     10  C   LIG d   1       3.229  79.213 109.283  0.00  0.00     0.006 C 
ENDBRANCH   8   9
BRANCH   8  11
ATOM     11  C   LIG d   1       3.005  82.583 108.407  0.00  0.00     0.028 C 
ATOM     12  C   LIG d   1       1.636  83.033 107.873  0.00  0.00     0.006 C 
ENDBRANCH   8  11
ENDBRANCH   7   8
ENDBRANCH   1   7
BRANCH   6  13
ATOM     13  N   LIG d   1       2.840  85.139 112.150  0.00  0.00    -0.311 N 
ATOM     14  C   LIG d   1       3.116  86.356 111.684  0.00  0.00     0.210 C 
ATOM     15  C   LIG d   1       4.242  87.090 112.418  0.00  0.00     0.109 C 
ATOM     16  O   LIG d   1       2.513  86.910 110.752  0.00  0.00    -0.276 OA
ATOM     17  H   LIG d   1       3.356  84.781 112.929  0.00  0.00     0.149 HD
ENDBRANCH   6  13
BRANCH   5  18
ATOM     18  N   LIG d   1      -0.116  85.866 111.893  0.00  0.00     0.381 N 
ATOM     19  H   LIG d   1      -0.601  86.218 112.694  0.00  0.00    -0.090 HD
ATOM     20  H   LIG d   1      -0.767  85.812 111.129  0.00  0.00    -0.090 HD
ATOM     21  H   LIG d   1       0.636  86.474 111.656  0.00  0.00    -0.090 HD
ENDBRANCH   5  18
BRANCH   3  22
ATOM     22  C   LIG d   1      -1.107  81.181 111.791  0.00  0.00     0.382 C 
ATOM     23  O   LIG d   1      -2.192  81.414 112.376  0.00  0.00    -0.241 OA
ATOM     24  O   LIG d   1      -0.879  80.037 111.354  0.00  0.00    -0.241 OA
ENDBRANCH   3  22
TORSDOF 7
ENDMDL
MODEL 4
REMARK VINA RESULT:      -6.0      1.887      4.712
REMARK  7 active torsions:
REMARK  status: ('A' for Active; 'I' for Inactive)
REMARK    1  A    between atoms: C_2  and  C_3 
REMARK    2  A    between atoms: C_3  and  O_6 
REMARK    3  A    between atoms: C_3  and  C_4 
REMARK    4  A    between atoms: C_7  and  O_6 
REMARK    5  A    between atoms: C_9  and  C_10 
REMARK    6  A    between atoms: N_15  and  C_14 
REMARK    7  A    between atoms: N_20  and  C_19 
REMARK       I    between atoms: C_22  and  N_20 
ROOT
ATOM      1  C   LIG d   1       0.570  82.510 110.755  0.00  0.00     0.161 C 
ATOM      2  C   LIG d   1       1.383  82.918 109.685  0.00  0.00     0.016 C 
ATOM      3  C   LIG d   1       2.000  82.016 108.788  0.00  0.00     0.038 C 
ATOM      4  C   LIG d   1       1.722  80.642 108.811  0.00  0.00     0.028 C 
ATOM      5  C   LIG d   1       1.306  80.130 110.186  0.00  0.00    -0.047 C 
ATOM      6  C   LIG d   1       0.165  81.021 110.728  0.00  0.00     0.091 C 
ENDROOT
BRANCH   1   7
ATOM      7  O   LIG d   1      -0.602  83.346 110.826  0.00  0.00    -0.368 OA
BRANCH   7   8
ATOM      8  C   LIG d   1      -0.635  84.307 111.910  0.00  0.00     0.119 C 
BRANCH   8   9
ATOM      9  C   LIG d   1      -0.601  85.714 111.282  0.00  0.00     0.028 C 
ATOM     10  C   LIG d   1      -1.038  85.709 109.807  0.00  0.00     0.006 C 
ENDBRANCH   8   9
BRANCH   8  11
ATOM     11  C   LIG d   1       0.628  84.218 112.772  0.00  0.00     0.028 C 
ATOM     12  C   LIG d   1       1.417  85.536 112.812  0.00  0.00     0.006 C 
ENDBRANCH   8  11
ENDBRANCH   7   8
ENDBRANCH   1   7
BRANCH   6  13
ATOM     13  N   LIG d   1      -0.244  80.641 112.106  0.00  0.00    -0.311 N 
ATOM     14  C   LIG d   1      -1.221  79.775 112.367  0.00  0.00     0.210 C 
ATOM     15  C   LIG d   1      -1.496  79.540 113.856  0.00  0.00     0.109 C 
ATOM     16  O   LIG d   1      -1.866  79.155 111.508  0.00  0.00    -0.276 OA
ATOM     17  H   LIG d   1       0.247  81.074 112.863  0.00  0.00     0.149 HD
ENDBRANCH   6  13
BRANCH   5  18
ATOM     18  N   LIG d   1       0.914  78.716 110.035  0.00  0.00     0.381 N 
ATOM     19  H   LIG d   1       0.550  78.562 109.116  0.00  0.00    -0.090 HD
ATOM     20  H   LIG d   1       0.190  78.507 110.700  0.00  0.00    -0.090 HD
ATOM     21  H   LIG d   1       1.700  78.125 110.192  0.00  0.00    -0.090 HD
ENDBRANCH   5  18
BRANCH   3  22
ATOM     22  C   LIG d   1       2.939  82.484 107.881  0.00  0.00     0.382 C 
ATOM     23  O   LIG d   1       4.157  82.480 108.180  0.00  0.00    -0.241 OA
ATOM     24  O   LIG d   1       2.578  82.951 106.783  0.00  0.00    -0.241 OA
ENDBRANCH   3  22
TORSDOF 7
ENDMDL
MODEL 5
REMARK VINA RESULT:      -5.9      2.714      5.391
REMARK  7 active torsions:
REMARK  status: ('A' for Active; 'I' for Inactive)
REMARK    1  A    between atoms: C_2  and  C_3 
REMARK    2  A    between atoms: C_3  and  O_6 
REMARK    3  A    between atoms: C_3  and  C_4 
REMARK    4  A    between atoms: C_7  and  O_6 
REMARK    5  A    between atoms: C_9  and  C_10 
REMARK    6  A    between atoms: N_15  and  C_14 
REMARK    7  A    between atoms: N_20  and  C_19 
REMARK       I    between atoms: C_22  and  N_20 
ROOT
ATOM      1  C   LIG d   1       0.248  84.693 110.916  0.00  0.00     0.161 C 
ATOM      2  C   LIG d   1       0.875  85.949 110.859  0.00  0.00     0.016 C 
ATOM      3  C   LIG d   1       1.727  86.440 111.875  0.00  0.00     0.038 C 
ATOM      4  C   LIG d   1       2.132  85.639 112.954  0.00  0.00     0.028 C 
ATOM      5  C   LIG d   1       1.127  84.549 113.311  0.00  0.00    -0.047 C 
ATOM      6  C   LIG d   1       0.766  83.761 112.031  0.00  0.00     0.091 C 
ENDROOT
BRANCH   1   7
ATOM      7  O   LIG d   1       0.343  84.041 109.633  0.00  0.00    -0.368 OA
BRANCH   7   8
ATOM      8  C   LIG d   1       1.600  84.200 108.930  0.00  0.00     0.119 C 
BRANCH   8   9
ATOM      9  C   LIG d   1       1.388  83.702 107.487  0.00  0.00     0.028 C 
ATOM     10  C   LIG d   1       2.396  82.610 107.090  0.00  0.00     0.006 C 
ENDBRANCH   8   9
BRANCH   8  11
ATOM     11  C   LIG d   1       2.685  83.293 109.517  0.00  0.00     0.028 C 
ATOM     12  C   LIG d   1       3.898  84.078 110.042  0.00  0.00     0.006 C 
ENDBRANCH   8  11
ENDBRANCH   7   8
ENDBRANCH   1   7
BRANCH   6  13
ATOM     13  N   LIG d   1      -0.276  82.730 112.275  0.00  0.00    -0.311 N 
ATOM     14  C   LIG d   1      -0.138  81.451 111.927  0.00  0.00     0.210 C 
ATOM     15  C   LIG d   1      -1.340  80.559 112.252  0.00  0.00     0.109 C 
ATOM     16  O   LIG d   1       0.878  80.965 111.408  0.00  0.00    -0.276 OA
ATOM     17  H   LIG d   1      -1.121  83.031 112.720  0.00  0.00     0.149 HD
ENDBRANCH   6  13
BRANCH   5  18
ATOM     18  N   LIG d   1       1.736  83.706 114.356  0.00  0.00     0.381 N 
ATOM     19  H   LIG d   1       1.154  82.912 114.533  0.00  0.00    -0.090 HD
ATOM     20  H   LIG d   1       1.807  84.241 115.205  0.00  0.00    -0.090 HD
ATOM     21  H   LIG d   1       2.641  83.406 114.068  0.00  0.00    -0.090 HD
ENDBRANCH   5  18
BRANCH   3  22
ATOM     22  C   LIG d   1       2.150  87.759 111.839  0.00  0.00     0.382 C 
ATOM     23  O   LIG d   1       3.368  88.023 111.687  0.00  0.00    -0.241 OA
ATOM     24  O   LIG d   1       1.337  88.689 112.000  0.00  0.00    -0.241 OA
ENDBRANCH   3  22
TORSDOF 7
ENDMDL
MODEL 6
REMARK VINA RESULT:      -5.4      3.253      4.750
REMARK  7 active torsions:
REMARK  status: ('A' for Active; 'I' for Inactive)
REMARK    1  A    between atoms: C_2  and  C_3 
REMARK    2  A    between atoms: C_3  and  O_6 
REMARK    3  A    between atoms: C_3  and  C_4 
REMARK    4  A    between atoms: C_7  and  O_6 
REMARK    5  A    between atoms: C_9  and  C_10 
REMARK    6  A    between atoms: N_15  and  C_14 
REMARK    7  A    between atoms: N_20  and  C_19 
REMARK       I    between atoms: C_22  and  N_20 
ROOT
ATOM      1  C   LIG d   1       2.581  83.233 110.738  0.00  0.00     0.161 C 
ATOM      2  C   LIG d   1       3.043  81.917 110.570  0.00  0.00     0.016 C 
ATOM      3  C   LIG d   1       2.860  81.174 109.380  0.00  0.00     0.038 C 
ATOM      4  C   LIG d   1       2.333  81.755 108.217  0.00  0.00     0.028 C 
ATOM      5  C   LIG d   1       1.394  82.924 108.496  0.00  0.00    -0.047 C 
ATOM      6  C   LIG d   1       2.101  83.921 109.442  0.00  0.00     0.091 C 
ENDROOT
BRANCH   1   7
ATOM      7  O   LIG d   1       3.596  84.029 111.381  0.00  0.00    -0.368 OA
BRANCH   7   8
ATOM      8  C   LIG d   1       3.390  84.309 112.788  0.00  0.00     0.119 C 
BRANCH   8   9
ATOM      9  C   LIG d   1       1.931  83.944 113.123  0.00  0.00     0.028 C 
ATOM     10  C   LIG d   1       1.140  85.140 113.680  0.00  0.00     0.006 C 
ENDBRANCH   8   9
BRANCH   8  11
ATOM     11  C   LIG d   1       3.511  85.807 113.082  0.00  0.00     0.028 C 
ATOM     12  C   LIG d   1       4.090  86.601 111.900  0.00  0.00     0.006 C 
ENDBRANCH   8  11
ENDBRANCH   7   8
ENDBRANCH   1   7
BRANCH   6  13
ATOM     13  N   LIG d   1       1.221  85.053 109.833  0.00  0.00    -0.311 N 
ATOM     14  C   LIG d   1      -0.033  84.896 110.252  0.00  0.00     0.210 C 
ATOM     15  C   LIG d   1      -0.771  86.196 110.585  0.00  0.00     0.109 C 
ATOM     16  O   LIG d   1      -0.594  83.801 110.411  0.00  0.00    -0.276 OA
ATOM     17  H   LIG d   1       1.607  85.975 109.764  0.00  0.00     0.149 HD
ENDBRANCH   6  13
BRANCH   5  18
ATOM     18  N   LIG d   1       1.027  83.520 107.197  0.00  0.00     0.381 N 
ATOM     19  H   LIG d   1       1.662  83.208 106.490  0.00  0.00    -0.090 HD
ATOM     20  H   LIG d   1       1.098  84.520 107.267  0.00  0.00    -0.090 HD
ATOM     21  H   LIG d   1       0.096  83.262 106.955  0.00  0.00    -0.090 HD
ENDBRANCH   5  18
BRANCH   3  22
ATOM     22  C   LIG d   1       3.172  79.823 109.360  0.00  0.00     0.382 C 
ATOM     23  O   LIG d   1       2.257  78.971 109.251  0.00  0.00    -0.241 OA
ATOM     24  O   LIG d   1       4.351  79.445 109.492  0.00  0.00    -0.241 OA
ENDBRANCH   3  22
TORSDOF 7
ENDMDL
MODEL 7
REMARK VINA RESULT:      -5.3      2.275      5.407
REMARK  7 active torsions:
REMARK  status: ('A' for Active; 'I' for Inactive)
REMARK    1  A    between atoms: C_2  and  C_3 
REMARK    2  A    between atoms: C_3  and  O_6 
REMARK    3  A    between atoms: C_3  and  C_4 
REMARK    4  A    between atoms: C_7  and  O_6 
REMARK    5  A    between atoms: C_9  and  C_10 
REMARK    6  A    between atoms: N_15  and  C_14 
REMARK    7  A    between atoms: N_20  and  C_19 
REMARK       I    between atoms: C_22  and  N_20 
ROOT
ATOM      1  C   LIG d   1       0.460  81.115 109.533  0.00  0.00     0.161 C 
ATOM      2  C   LIG d   1       1.329  80.015 109.436  0.00  0.00     0.016 C 
ATOM      3  C   LIG d   1       2.737  80.128 109.491  0.00  0.00     0.038 C 
ATOM      4  C   LIG d   1       3.372  81.340 109.801  0.00  0.00     0.028 C 
ATOM      5  C   LIG d   1       2.558  82.568 109.406  0.00  0.00    -0.047 C 
ATOM      6  C   LIG d   1       1.130  82.430 109.982  0.00  0.00     0.091 C 
ENDROOT
BRANCH   1   7
ATOM      7  O   LIG d   1      -0.642  80.791 110.403  0.00  0.00    -0.368 OA
BRANCH   7   8
ATOM      8  C   LIG d   1      -0.383  79.786 111.414  0.00  0.00     0.119 C 
BRANCH   8   9
ATOM      9  C   LIG d   1      -1.663  78.942 111.566  0.00  0.00     0.028 C 
ATOM     10  C   LIG d   1      -2.460  79.307 112.830  0.00  0.00     0.006 C 
ENDBRANCH   8   9
BRANCH   8  11
ATOM     11  C   LIG d   1      -0.152  80.424 112.787  0.00  0.00     0.028 C 
ATOM     12  C   LIG d   1       1.333  80.689 113.079  0.00  0.00     0.006 C 
ENDBRANCH   8  11
ENDBRANCH   7   8
ENDBRANCH   1   7
BRANCH   6  13
ATOM     13  N   LIG d   1       0.243  83.550 109.572  0.00  0.00    -0.311 N 
ATOM     14  C   LIG d   1       0.013  84.619 110.332  0.00  0.00     0.210 C 
ATOM     15  C   LIG d   1      -0.950  85.647 109.728  0.00  0.00     0.109 C 
ATOM     16  O   LIG d   1       0.539  84.830 111.434  0.00  0.00    -0.276 OA
ATOM     17  H   LIG d   1      -0.201  83.476 108.677  0.00  0.00     0.149 HD
ENDBRANCH   6  13
BRANCH   5  18
ATOM     18  N   LIG d   1       3.272  83.757 109.909  0.00  0.00     0.381 N 
ATOM     19  H   LIG d   1       2.796  84.587 109.618  0.00  0.00    -0.090 HD
ATOM     20  H   LIG d   1       4.197  83.770 109.518  0.00  0.00    -0.090 HD
ATOM     21  H   LIG d   1       3.325  83.727 110.904  0.00  0.00    -0.090 HD
ENDBRANCH   5  18
BRANCH   3  22
ATOM     22  C   LIG d   1       3.527  79.028 109.196  0.00  0.00     0.382 C 
ATOM     23  O   LIG d   1       2.993  77.913 108.978  0.00  0.00    -0.241 OA
ATOM     24  O   LIG d   1       4.769  79.125 109.188  0.00  0.00    -0.241 OA
ENDBRANCH   3  22
TORSDOF 7
ENDMDL
MODEL 8
REMARK VINA RESULT:      -5.2      2.466      5.045
REMARK  7 active torsions:
REMARK  status: ('A' for Active; 'I' for Inactive)
REMARK    1  A    between atoms: C_2  and  C_3 
REMARK    2  A    between atoms: C_3  and  O_6 
REMARK    3  A    between atoms: C_3  and  C_4 
REMARK    4  A    between atoms: C_7  and  O_6 
REMARK    5  A    between atoms: C_9  and  C_10 
REMARK    6  A    between atoms: N_15  and  C_14 
REMARK    7  A    between atoms: N_20  and  C_19 
REMARK       I    between atoms: C_22  and  N_20 
ROOT
ATOM      1  C   LIG d   1       0.651  83.630 110.657  0.00  0.00     0.161 C 
ATOM      2  C   LIG d   1       1.228  84.909 110.590  0.00  0.00     0.016 C 
ATOM      3  C   LIG d   1       1.972  85.483 111.646  0.00  0.00     0.038 C 
ATOM      4  C   LIG d   1       2.320  84.752 112.791  0.00  0.00     0.028 C 
ATOM      5  C   LIG d   1       1.334  83.635 113.119  0.00  0.00    -0.047 C 
ATOM      6  C   LIG d   1       1.113  82.774 111.855  0.00  0.00     0.091 C 
ENDROOT
BRANCH   1   7
ATOM      7  O   LIG d   1       0.878  82.925 109.421  0.00  0.00    -0.368 OA
BRANCH   7   8
ATOM      8  C   LIG d   1       1.911  83.466 108.560  0.00  0.00     0.119 C 
BRANCH   8   9
ATOM      9  C   LIG d   1       1.294  83.659 107.161  0.00  0.00     0.028 C 
ATOM     10  C   LIG d   1       0.792  85.095 106.934  0.00  0.00     0.006 C 
ENDBRANCH   8   9
BRANCH   8  11
ATOM     11  C   LIG d   1       3.054  82.465 108.365  0.00  0.00     0.028 C 
ATOM     12  C   LIG d   1       3.992  82.387 109.579  0.00  0.00     0.006 C 
ENDBRANCH   8  11
ENDBRANCH   7   8
ENDBRANCH   1   7
BRANCH   6  13
ATOM     13  N   LIG d   1       0.098  81.709 112.065  0.00  0.00    -0.311 N 
ATOM     14  C   LIG d   1       0.132  80.531 111.444  0.00  0.00     0.210 C 
ATOM     15  C   LIG d   1      -1.022  79.584 111.790  0.00  0.00     0.109 C 
ATOM     16  O   LIG d   1       1.026  80.168 110.665  0.00  0.00    -0.276 OA
ATOM     17  H   LIG d   1      -0.645  81.907 112.706  0.00  0.00     0.149 HD
ENDBRANCH   6  13
BRANCH   5  18
ATOM     18  N   LIG d   1       1.890  82.869 114.251  0.00  0.00     0.381 N 
ATOM     19  H   LIG d   1       2.764  83.266 114.532  0.00  0.00    -0.090 HD
ATOM     20  H   LIG d   1       2.054  81.923 113.954  0.00  0.00    -0.090 HD
ATOM     21  H   LIG d   1       1.251  82.879 115.016  0.00  0.00    -0.090 HD
ENDBRANCH   5  18
BRANCH   3  22
ATOM     22  C   LIG d   1       2.343  86.818 111.579  0.00  0.00     0.382 C 
ATOM     23  O   LIG d   1       1.558  87.708 111.987  0.00  0.00    -0.241 OA
ATOM     24  O   LIG d   1       3.433  87.146 111.074  0.00  0.00    -0.241 OA
ENDBRANCH   3  22
TORSDOF 7
ENDMDL
MODEL 9
REMARK VINA RESULT:      -5.2      2.363      4.057
REMARK  7 active torsions:
REMARK  status: ('A' for Active; 'I' for Inactive)
REMARK    1  A    between atoms: C_2  and  C_3 
REMARK    2  A    between atoms: C_3  and  O_6 
REMARK    3  A    between atoms: C_3  and  C_4 
REMARK    4  A    between atoms: C_7  and  O_6 
REMARK    5  A    between atoms: C_9  and  C_10 
REMARK    6  A    between atoms: N_15  and  C_14 
REMARK    7  A    between atoms: N_20  and  C_19 
REMARK       I    between atoms: C_22  and  N_20 
ROOT
ATOM      1  C   LIG d   1       1.821  81.798 112.281  0.00  0.00     0.161 C 
ATOM      2  C   LIG d   1       0.671  80.999 112.168  0.00  0.00     0.016 C 
ATOM      3  C   LIG d   1      -0.611  81.518 111.874  0.00  0.00     0.038 C 
ATOM      4  C   LIG d   1      -0.804  82.862 111.522  0.00  0.00     0.028 C 
ATOM      5  C   LIG d   1       0.242  83.800 112.115  0.00  0.00    -0.047 C 
ATOM      6  C   LIG d   1       1.650  83.251 111.791  0.00  0.00     0.091 C 
ENDROOT
BRANCH   1   7
ATOM      7  O   LIG d   1       2.924  81.166 111.601  0.00  0.00    -0.368 OA
BRANCH   7   8
ATOM      8  C   LIG d   1       2.910  81.244 110.155  0.00  0.00     0.119 C 
BRANCH   8   9
ATOM      9  C   LIG d   1       2.658  79.822 109.616  0.00  0.00     0.028 C 
ATOM     10  C   LIG d   1       1.346  79.719 108.822  0.00  0.00     0.006 C 
ENDBRANCH   8   9
BRANCH   8  11
ATOM     11  C   LIG d   1       4.280  81.649 109.605  0.00  0.00     0.028 C 
ATOM     12  C   LIG d   1       4.194  82.326 108.228  0.00  0.00     0.006 C 
ENDBRANCH   8  11
ENDBRANCH   7   8
ENDBRANCH   1   7
BRANCH   6  13
ATOM     13  N   LIG d   1       2.731  84.063 112.406  0.00  0.00    -0.311 N 
ATOM     14  C   LIG d   1       2.786  84.347 113.707  0.00  0.00     0.210 C 
ATOM     15  C   LIG d   1       3.974  85.216 114.130  0.00  0.00     0.109 C 
ATOM     16  O   LIG d   1       1.980  83.934 114.555  0.00  0.00    -0.276 OA
ATOM     17  H   LIG d   1       3.444  84.413 111.796  0.00  0.00     0.149 HD
ENDBRANCH   6  13
BRANCH   5  18
ATOM     18  N   LIG d   1       0.003  85.144 111.557  0.00  0.00     0.381 N 
ATOM     19  H   LIG d   1      -0.686  85.620 112.104  0.00  0.00    -0.090 HD
ATOM     20  H   LIG d   1      -0.348  85.049 110.620  0.00  0.00    -0.090 HD
ATOM     21  H   LIG d   1       0.851  85.666 111.550  0.00  0.00    -0.090 HD
ENDBRANCH   5  18
BRANCH   3  22
ATOM     22  C   LIG d   1      -1.723  80.696 111.971  0.00  0.00     0.382 C 
ATOM     23  O   LIG d   1      -1.617  79.467 111.740  0.00  0.00    -0.241 OA
ATOM     24  O   LIG d   1      -2.841  81.175 112.241  0.00  0.00    -0.241 OA
ENDBRANCH   3  22
TORSDOF 7
ENDMDL
