MODEL 1
REMARK VINA RESULT:      -6.7      0.000      0.000
REMARK  7 active torsions:
REMARK  status: ('A' for Active; 'I' for Inactive)
REMARK    1  A    between atoms: C_2  and  C_3 
REMARK    2  A    between atoms: C_3  and  O_6 
REMARK    3  A    between atoms: C_3  and  C_4 
REMARK    4  A    between atoms: C_7  and  O_6 
REMARK    5  A    between atoms: C_9  and  C_10 
REMARK    6  A    between atoms: N_15  and  C_14 
REMARK    7  A    between atoms: N_20  and  C_19 
REMARK       I    between atoms: C_22  and  N_20 
ROOT
ATOM      1  C   LIG d   1       0.194  82.895 111.203  0.00  0.00     0.161 C 
ATOM      2  C   LIG d   1      -0.941  82.539 111.950  0.00  0.00     0.016 C 
ATOM      3  C   LIG d   1      -1.381  81.205 112.110  0.00  0.00     0.038 C 
ATOM      4  C   LIG d   1      -0.623  80.115 111.655  0.00  0.00     0.028 C 
ATOM      5  C   LIG d   1       0.264  80.451 110.461  0.00  0.00    -0.047 C 
ATOM      6  C   LIG d   1       1.095  81.711 110.792  0.00  0.00     0.091 C 
ENDROOT
BRANCH   1   7
ATOM      7  O   LIG d   1       0.961  83.883 111.919  0.00  0.00    -0.368 OA
BRANCH   7   8
ATOM      8  C   LIG d   1       0.930  85.228 111.380  0.00  0.00     0.119 C 
BRANCH   8   9
ATOM      9  C   LIG d   1      -0.200  85.281 110.334  0.00  0.00     0.028 C 
ATOM     10  C   LIG d   1       0.315  85.650 108.933  0.00  0.00     0.006 C 
ENDBRANCH   8   9
BRANCH   8  11
ATOM     11  C   LIG d   1       2.213  85.549 110.608  0.00  0.00     0.028 C 
ATOM     12  C   LIG d   1       3.479  85.048 111.322  0.00  0.00     0.006 C 
ENDBRANCH   8  11
ENDBRANCH   7   8
ENDBRANCH   1   7
BRANCH   6  13
ATOM     13  N   LIG d   1       1.929  82.157 109.646  0.00  0.00    -0.311 N 
ATOM     14  C   LIG d   1       3.209  81.819 109.495  0.00  0.00     0.210 C 
ATOM     15  C   LIG d   1       3.889  82.403 108.253  0.00  0.00     0.109 C 
ATOM     16  O   LIG d   1       3.835  81.064 110.254  0.00  0.00    -0.276 OA
ATOM     17  H   LIG d   1       1.492  82.748 108.966  0.00  0.00     0.149 HD
ENDBRANCH   6  13
BRANCH   5  18
ATOM     18  N   LIG d   1       1.097  79.267 110.179  0.00  0.00     0.381 N 
ATOM     19  H   LIG d   1       0.634  78.441 110.504  0.00  0.00    -0.090 HD
ATOM     20  H   LIG d   1       1.967  79.356 110.674  0.00  0.00    -0.090 HD
ATOM     21  H   LIG d   1       1.269  79.196 109.200  0.00  0.00    -0.090 HD
ENDBRANCH   5  18
BRANCH   3  22
ATOM     22  C   LIG d   1      -2.611  80.953 112.697  0.00  0.00     0.382 C 
ATOM     23  O   LIG d   1      -2.713  80.077 113.589  0.00  0.00    -0.241 OA
ATOM     24  O   LIG d   1      -3.630  81.559 112.314  0.00  0.00    -0.241 OA
ENDBRANCH   3  22
TORSDOF 7
ENDMDL
MODEL 2
REMARK VINA RESULT:      -6.6      1.645      4.934
REMARK  7 active torsions:
REMARK  status: ('A' for Active; 'I' for Inactive)
REMARK    1  A    between atoms: C_2  and  C_3 
REMARK    2  A    between atoms: C_3  and  O_6 
REMARK    3  A    between atoms: C_3  and  C_4 
REMARK    4  A    between atoms: C_7  and  O_6 
REMARK    5  A    between atoms: C_9  and  C_10 
REMARK    6  A    between atoms: N_15  and  C_14 
REMARK    7  A    between atoms: N_20  and  C_19 
REMARK       I    between atoms: C_22  and  N_20 
ROOT
ATOM      1  C   LIG d   1       1.671  83.175 111.562  0.00  0.00     0.161 C 
ATOM      2  C   LIG d   1       2.596  83.073 110.509  0.00  0.00     0.016 C 
ATOM      3  C   LIG d   1       2.545  82.059 109.525  0.00  0.00     0.038 C 
ATOM      4  C   LIG d   1       1.470  81.162 109.439  0.00  0.00     0.028 C 
ATOM      5  C   LIG d   1       0.781  80.912 110.776  0.00  0.00    -0.047 C 
ATOM      6  C   LIG d   1       0.428  82.272 111.421  0.00  0.00     0.091 C 
ENDROOT
BRANCH   1   7
ATOM      7  O   LIG d   1       1.275  84.550 111.732  0.00  0.00    -0.368 OA
BRANCH   7   8
ATOM      8  C   LIG d   1       1.940  85.515 110.881  0.00  0.00     0.119 C 
BRANCH   8   9
ATOM      9  C   LIG d   1       2.670  86.516 111.798  0.00  0.00     0.028 C 
ATOM     10  C   LIG d   1       4.190  86.285 111.827  0.00  0.00     0.006 C 
ENDBRANCH   8   9
BRANCH   8  11
ATOM     11  C   LIG d   1       0.930  86.352 110.091  0.00  0.00     0.028 C 
ATOM     12  C   LIG d   1       0.219  85.547 108.992  0.00  0.00     0.006 C 
ENDBRANCH   8  11
ENDBRANCH   7   8
ENDBRANCH   1   7
BRANCH   6  13
ATOM     13  N   LIG d   1      -0.174  82.120 112.771  0.00  0.00    -0.311 N 
ATOM     14  C   LIG d   1      -1.484  82.003 112.981  0.00  0.00     0.210 C 
ATOM     15  C   LIG d   1      -1.894  81.877 114.452  0.00  0.00     0.109 C 
ATOM     16  O   LIG d   1      -2.342  81.959 112.087  0.00  0.00    -0.276 OA
ATOM     17  H   LIG d   1       0.453  82.114 113.552  0.00  0.00     0.149 HD
ENDBRANCH   6  13
BRANCH   5  18
ATOM     18  N   LIG d   1      -0.402  80.070 110.518  0.00  0.00     0.381 N 
ATOM     19  H   LIG d   1      -0.113  79.134 110.312  0.00  0.00    -0.090 HD
ATOM     20  H   LIG d   1      -0.890  80.432 109.718  0.00  0.00    -0.090 HD
ATOM     21  H   LIG d   1      -1.003  80.073 111.312  0.00  0.00    -0.090 HD
ENDBRANCH   5  18
BRANCH   3  22
ATOM     22  C   LIG d   1       3.599  81.911 108.636  0.00  0.00     0.382 C 
ATOM     23  O   LIG d   1       3.535  81.051 107.725  0.00  0.00    -0.241 OA
ATOM     24  O   LIG d   1       4.631  82.597 108.760  0.00  0.00    -0.241 OA
ENDBRANCH   3  22
TORSDOF 7
ENDMDL
MODEL 3
REMARK VINA RESULT:      -6.1      1.842      4.718
REMARK  7 active torsions:
REMARK  status: ('A' for Active; 'I' for Inactive)
REMARK    1  A    between atoms: C_2  and  C_3 
REMARK    2  A    between atoms: C_3  and  O_6 
REMARK    3  A    between atoms: C_3  and  C_4 
REMARK    4  A    between atoms: C_7  and  O_6 
REMARK    5  A    between atoms: C_9  and  C_10 
REMARK    6  A    between atoms: N_15  and  C_14 
REMARK    7  A    between atoms: N_20  and  C_19 
REMARK       I    between atoms: C_22  and  N_20 
ROOT
ATOM      1  C   LIG d   1       0.180  82.969 111.023  0.00  0.00     0.161 C 
ATOM      2  C   LIG d   1       1.074  82.735 109.964  0.00  0.00     0.016 C 
ATOM      3  C   LIG d   1       1.368  81.446 109.464  0.00  0.00     0.038 C 
ATOM      4  C   LIG d   1       0.668  80.307 109.891  0.00  0.00     0.028 C 
ATOM      5  C   LIG d   1       0.120  80.430 111.309  0.00  0.00    -0.047 C 
ATOM      6  C   LIG d   1      -0.676  81.750 111.427  0.00  0.00     0.091 C 
ENDROOT
BRANCH   1   7
ATOM      7  O   LIG d   1      -0.665  84.093 110.709  0.00  0.00    -0.368 OA
BRANCH   7   8
ATOM      8  C   LIG d   1      -0.402  85.313 111.445  0.00  0.00     0.119 C 
BRANCH   8   9
ATOM      9  C   LIG d   1       0.290  86.295 110.480  0.00  0.00     0.028 C 
ATOM     10  C   LIG d   1       0.147  85.872 109.009  0.00  0.00     0.006 C 
ENDBRANCH   8   9
BRANCH   8  11
ATOM     11  C   LIG d   1       0.605  85.076 112.575  0.00  0.00     0.028 C 
ATOM     12  C   LIG d   1       0.011  85.343 113.967  0.00  0.00     0.006 C 
ENDBRANCH   8  11
ENDBRANCH   7   8
ENDBRANCH   1   7
BRANCH   6  13
ATOM     13  N   LIG d   1      -1.175  81.989 112.806  0.00  0.00    -0.311 N 
ATOM     14  C   LIG d   1      -2.425  81.731 113.188  0.00  0.00     0.210 C 
ATOM     15  C   LIG d   1      -2.737  82.070 114.649  0.00  0.00     0.109 C 
ATOM     16  O   LIG d   1      -3.295  81.223 112.465  0.00  0.00    -0.276 OA
ATOM     17  H   LIG d   1      -0.527  82.371 113.467  0.00  0.00     0.149 HD
ENDBRANCH   6  13
BRANCH   5  18
ATOM     18  N   LIG d   1      -0.701  79.234 111.575  0.00  0.00     0.381 N 
ATOM     19  H   LIG d   1      -0.945  79.199 112.544  0.00  0.00    -0.090 HD
ATOM     20  H   LIG d   1      -0.162  78.414 111.356  0.00  0.00    -0.090 HD
ATOM     21  H   LIG d   1      -1.526  79.256 111.017  0.00  0.00    -0.090 HD
ENDBRANCH   5  18
BRANCH   3  22
ATOM     22  C   LIG d   1       2.400  81.281 108.553  0.00  0.00     0.382 C 
ATOM     23  O   LIG d   1       3.029  82.281 108.130  0.00  0.00    -0.241 OA
ATOM     24  O   LIG d   1       2.681  80.149 108.114  0.00  0.00    -0.241 OA
ENDBRANCH   3  22
TORSDOF 7
ENDMDL
MODEL 4
REMARK VINA RESULT:      -6.1      2.191      4.821
REMARK  7 active torsions:
REMARK  status: ('A' for Active; 'I' for Inactive)
REMARK    1  A    between atoms: C_2  and  C_3 
REMARK    2  A    between atoms: C_3  and  O_6 
REMARK    3  A    between atoms: C_3  and  C_4 
REMARK    4  A    between atoms: C_7  and  O_6 
REMARK    5  A    between atoms: C_9  and  C_10 
REMARK    6  A    between atoms: N_15  and  C_14 
REMARK    7  A    between atoms: N_20  and  C_19 
REMARK       I    between atoms: C_22  and  N_20 
ROOT
ATOM      1  C   LIG d   1       1.647  83.177 111.529  0.00  0.00     0.161 C 
ATOM      2  C   LIG d   1       1.237  84.512 111.682  0.00  0.00     0.016 C 
ATOM      3  C   LIG d   1       0.891  85.350 110.597  0.00  0.00     0.038 C 
ATOM      4  C   LIG d   1       0.785  84.860 109.287  0.00  0.00     0.028 C 
ATOM      5  C   LIG d   1       1.676  83.652 109.018  0.00  0.00    -0.047 C 
ATOM      6  C   LIG d   1       1.431  82.593 110.117  0.00  0.00     0.091 C 
ENDROOT
BRANCH   1   7
ATOM      7  O   LIG d   1       1.000  82.351 112.518  0.00  0.00    -0.368 OA
BRANCH   7   8
ATOM      8  C   LIG d   1      -0.415  82.586 112.718  0.00  0.00     0.119 C 
BRANCH   8   9
ATOM      9  C   LIG d   1      -0.662  82.661 114.237  0.00  0.00     0.028 C 
ATOM     10  C   LIG d   1      -0.934  84.096 114.717  0.00  0.00     0.006 C 
ENDBRANCH   8   9
BRANCH   8  11
ATOM     11  C   LIG d   1      -1.251  81.399 112.229  0.00  0.00     0.028 C 
ATOM     12  C   LIG d   1      -2.621  81.311 112.920  0.00  0.00     0.006 C 
ENDBRANCH   8  11
ENDBRANCH   7   8
ENDBRANCH   1   7
BRANCH   6  13
ATOM     13  N   LIG d   1       2.324  81.413 109.978  0.00  0.00    -0.311 N 
ATOM     14  C   LIG d   1       1.978  80.305 109.324  0.00  0.00     0.210 C 
ATOM     15  C   LIG d   1       3.040  79.201 109.317  0.00  0.00     0.109 C 
ATOM     16  O   LIG d   1       0.905  80.145 108.722  0.00  0.00    -0.276 OA
ATOM     17  H   LIG d   1       3.225  81.470 110.409  0.00  0.00     0.149 HD
ENDBRANCH   6  13
BRANCH   5  18
ATOM     18  N   LIG d   1       1.365  83.161 107.662  0.00  0.00     0.381 N 
ATOM     19  H   LIG d   1       1.927  82.359 107.455  0.00  0.00    -0.090 HD
ATOM     20  H   LIG d   1       1.585  83.881 106.997  0.00  0.00    -0.090 HD
ATOM     21  H   LIG d   1       0.399  82.924 107.599  0.00  0.00    -0.090 HD
ENDBRANCH   5  18
BRANCH   3  22
ATOM     22  C   LIG d   1       0.685  86.704 110.812  0.00  0.00     0.382 C 
ATOM     23  O   LIG d   1      -0.482  87.148 110.940  0.00  0.00    -0.241 OA
ATOM     24  O   LIG d   1       1.648  87.494 110.836  0.00  0.00    -0.241 OA
ENDBRANCH   3  22
TORSDOF 7
ENDMDL
MODEL 5
REMARK VINA RESULT:      -6.1      1.330      2.078
REMARK  7 active torsions:
REMARK  status: ('A' for Active; 'I' for Inactive)
REMARK    1  A    between atoms: C_2  and  C_3 
REMARK    2  A    between atoms: C_3  and  O_6 
REMARK    3  A    between atoms: C_3  and  C_4 
REMARK    4  A    between atoms: C_7  and  O_6 
REMARK    5  A    between atoms: C_9  and  C_10 
REMARK    6  A    between atoms: N_15  and  C_14 
REMARK    7  A    between atoms: N_20  and  C_19 
REMARK       I    between atoms: C_22  and  N_20 
ROOT
ATOM      1  C   LIG d   1       0.371  83.031 111.065  0.00  0.00     0.161 C 
ATOM      2  C   LIG d   1      -0.769  82.746 111.834  0.00  0.00     0.016 C 
ATOM      3  C   LIG d   1      -1.246  81.435 112.063  0.00  0.00     0.038 C 
ATOM      4  C   LIG d   1      -0.523  80.302 111.660  0.00  0.00     0.028 C 
ATOM      5  C   LIG d   1       0.367  80.552 110.447  0.00  0.00    -0.047 C 
ATOM      6  C   LIG d   1       1.235  81.803 110.710  0.00  0.00     0.091 C 
ENDROOT
BRANCH   1   7
ATOM      7  O   LIG d   1       1.170  84.032 111.727  0.00  0.00    -0.368 OA
BRANCH   7   8
ATOM      8  C   LIG d   1       2.262  83.539 112.542  0.00  0.00     0.119 C 
BRANCH   8   9
ATOM      9  C   LIG d   1       1.929  83.868 114.010  0.00  0.00     0.028 C 
ATOM     10  C   LIG d   1       1.702  82.606 114.858  0.00  0.00     0.006 C 
ENDBRANCH   8   9
BRANCH   8  11
ATOM     11  C   LIG d   1       3.563  84.289 112.243  0.00  0.00     0.028 C 
ATOM     12  C   LIG d   1       3.436  85.250 111.050  0.00  0.00     0.006 C 
ENDBRANCH   8  11
ENDBRANCH   7   8
ENDBRANCH   1   7
BRANCH   6  13
ATOM     13  N   LIG d   1       2.075  82.167 109.539  0.00  0.00    -0.311 N 
ATOM     14  C   LIG d   1       3.345  81.790 109.402  0.00  0.00     0.210 C 
ATOM     15  C   LIG d   1       4.034  82.291 108.128  0.00  0.00     0.109 C 
ATOM     16  O   LIG d   1       3.956  81.062 110.198  0.00  0.00    -0.276 OA
ATOM     17  H   LIG d   1       1.649  82.731 108.829  0.00  0.00     0.149 HD
ENDBRANCH   6  13
BRANCH   5  18
ATOM     18  N   LIG d   1       1.164  79.332 110.220  0.00  0.00     0.381 N 
ATOM     19  H   LIG d   1       0.798  78.828 109.438  0.00  0.00    -0.090 HD
ATOM     20  H   LIG d   1       1.098  78.745 111.033  0.00  0.00    -0.090 HD
ATOM     21  H   LIG d   1       2.116  79.573 110.053  0.00  0.00    -0.090 HD
ENDBRANCH   5  18
BRANCH   3  22
ATOM     22  C   LIG d   1      -2.480  81.248 112.667  0.00  0.00     0.382 C 
ATOM     23  O   LIG d   1      -3.027  82.195 113.282  0.00  0.00    -0.241 OA
ATOM     24  O   LIG d   1      -3.032  80.132 112.644  0.00  0.00    -0.241 OA
ENDBRANCH   3  22
TORSDOF 7
ENDMDL
MODEL 6
REMARK VINA RESULT:      -5.7      2.188      3.984
REMARK  7 active torsions:
REMARK  status: ('A' for Active; 'I' for Inactive)
REMARK    1  A    between atoms: C_2  and  C_3 
REMARK    2  A    between atoms: C_3  and  O_6 
REMARK    3  A    between atoms: C_3  and  C_4 
REMARK    4  A    between atoms: C_7  and  O_6 
REMARK    5  A    between atoms: C_9  and  C_10 
REMARK    6  A    between atoms: N_15  and  C_14 
REMARK    7  A    between atoms: N_20  and  C_19 
REMARK       I    between atoms: C_22  and  N_20 
ROOT
ATOM      1  C   LIG d   1       0.846  82.782 111.118  0.00  0.00     0.161 C 
ATOM      2  C   LIG d   1      -0.278  81.995 111.416  0.00  0.00     0.016 C 
ATOM      3  C   LIG d   1      -1.180  82.291 112.463  0.00  0.00     0.038 C 
ATOM      4  C   LIG d   1      -1.102  83.486 113.193  0.00  0.00     0.028 C 
ATOM      5  C   LIG d   1       0.308  84.063 113.262  0.00  0.00    -0.047 C 
ATOM      6  C   LIG d   1       0.885  84.150 111.831  0.00  0.00     0.091 C 
ENDROOT
BRANCH   1   7
ATOM      7  O   LIG d   1       0.956  82.958 109.691  0.00  0.00    -0.368 OA
BRANCH   7   8
ATOM      8  C   LIG d   1       1.879  82.073 109.009  0.00  0.00     0.119 C 
BRANCH   8   9
ATOM      9  C   LIG d   1       1.126  80.763 108.707  0.00  0.00     0.028 C 
ATOM     10  C   LIG d   1       2.003  79.740 107.966  0.00  0.00     0.006 C 
ENDBRANCH   8   9
BRANCH   8  11
ATOM     11  C   LIG d   1       3.042  81.671 109.921  0.00  0.00     0.028 C 
ATOM     12  C   LIG d   1       4.354  82.386 109.562  0.00  0.00     0.006 C 
ENDBRANCH   8  11
ENDBRANCH   7   8
ENDBRANCH   1   7
BRANCH   6  13
ATOM     13  N   LIG d   1       2.293  84.626 111.816  0.00  0.00    -0.311 N 
ATOM     14  C   LIG d   1       2.634  85.902 111.649  0.00  0.00     0.210 C 
ATOM     15  C   LIG d   1       4.142  86.174 111.645  0.00  0.00     0.109 C 
ATOM     16  O   LIG d   1       1.830  86.840 111.536  0.00  0.00    -0.276 OA
ATOM     17  H   LIG d   1       3.009  83.935 111.932  0.00  0.00     0.149 HD
ENDBRANCH   6  13
BRANCH   5  18
ATOM     18  N   LIG d   1       0.220  85.375 113.931  0.00  0.00     0.381 N 
ATOM     19  H   LIG d   1      -0.726  85.555 114.202  0.00  0.00    -0.090 HD
ATOM     20  H   LIG d   1       0.504  86.089 113.284  0.00  0.00    -0.090 HD
ATOM     21  H   LIG d   1       0.812  85.389 114.733  0.00  0.00    -0.090 HD
ENDBRANCH   5  18
BRANCH   3  22
ATOM     22  C   LIG d   1      -2.150  81.366 112.817  0.00  0.00     0.382 C 
ATOM     23  O   LIG d   1      -3.329  81.507 112.410  0.00  0.00    -0.241 OA
ATOM     24  O   LIG d   1      -1.872  80.416 113.573  0.00  0.00    -0.241 OA
ENDBRANCH   3  22
TORSDOF 7
ENDMDL
MODEL 7
REMARK VINA RESULT:      -5.6      3.182      6.095
REMARK  7 active torsions:
REMARK  status: ('A' for Active; 'I' for Inactive)
REMARK    1  A    between atoms: C_2  and  C_3 
REMARK    2  A    between atoms: C_3  and  O_6 
REMARK    3  A    between atoms: C_3  and  C_4 
REMARK    4  A    between atoms: C_7  and  O_6 
REMARK    5  A    between atoms: C_9  and  C_10 
REMARK    6  A    between atoms: N_15  and  C_14 
REMARK    7  A    between atoms: N_20  and  C_19 
REMARK       I    between atoms: C_22  and  N_20 
ROOT
ATOM      1  C   LIG d   1       2.539  84.062 113.017  0.00  0.00     0.161 C 
ATOM      2  C   LIG d   1       3.137  85.300 113.304  0.00  0.00     0.016 C 
ATOM      3  C   LIG d   1       3.071  86.416 112.439  0.00  0.00     0.038 C 
ATOM      4  C   LIG d   1       2.269  86.415 111.288  0.00  0.00     0.028 C 
ATOM      5  C   LIG d   1       2.054  85.025 110.700  0.00  0.00    -0.047 C 
ATOM      6  C   LIG d   1       1.566  84.076 111.819  0.00  0.00     0.091 C 
ENDROOT
BRANCH   1   7
ATOM      7  O   LIG d   1       1.878  83.554 114.193  0.00  0.00    -0.368 OA
BRANCH   7   8
ATOM      8  C   LIG d   1       1.198  84.534 115.015  0.00  0.00     0.119 C 
BRANCH   8   9
ATOM      9  C   LIG d   1       1.413  84.133 116.487  0.00  0.00     0.028 C 
ATOM     10  C   LIG d   1       0.104  83.717 117.180  0.00  0.00     0.006 C 
ENDBRANCH   8   9
BRANCH   8  11
ATOM     11  C   LIG d   1      -0.318  84.486 114.799  0.00  0.00     0.028 C 
ATOM     12  C   LIG d   1      -0.849  85.707 114.030  0.00  0.00     0.006 C 
ENDBRANCH   8  11
ENDBRANCH   7   8
ENDBRANCH   1   7
BRANCH   6  13
ATOM     13  N   LIG d   1       1.412  82.675 111.348  0.00  0.00    -0.311 N 
ATOM     14  C   LIG d   1       0.248  82.154 110.965  0.00  0.00     0.210 C 
ATOM     15  C   LIG d   1       0.307  80.685 110.534  0.00  0.00     0.109 C 
ATOM     16  O   LIG d   1      -0.822  82.778 110.911  0.00  0.00    -0.276 OA
ATOM     17  H   LIG d   1       2.237  82.107 111.330  0.00  0.00     0.149 HD
ENDBRANCH   6  13
BRANCH   5  18
ATOM     18  N   LIG d   1       1.091  85.153 109.590  0.00  0.00     0.381 N 
ATOM     19  H   LIG d   1       1.283  85.986 109.070  0.00  0.00    -0.090 HD
ATOM     20  H   LIG d   1       0.164  85.227 109.972  0.00  0.00    -0.090 HD
ATOM     21  H   LIG d   1       1.150  84.358 108.993  0.00  0.00    -0.090 HD
ENDBRANCH   5  18
BRANCH   3  22
ATOM     22  C   LIG d   1       3.846  87.536 112.701  0.00  0.00     0.382 C 
ATOM     23  O   LIG d   1       5.096  87.463 112.633  0.00  0.00    -0.241 OA
ATOM     24  O   LIG d   1       3.312  88.606 113.047  0.00  0.00    -0.241 OA
ENDBRANCH   3  22
TORSDOF 7
ENDMDL
MODEL 8
REMARK VINA RESULT:      -5.4      3.105      5.211
REMARK  7 active torsions:
REMARK  status: ('A' for Active; 'I' for Inactive)
REMARK    1  A    between atoms: C_2  and  C_3 
REMARK    2  A    between atoms: C_3  and  O_6 
REMARK    3  A    between atoms: C_3  and  C_4 
REMARK    4  A    between atoms: C_7  and  O_6 
REMARK    5  A    between atoms: C_9  and  C_10 
REMARK    6  A    between atoms: N_15  and  C_14 
REMARK    7  A    between atoms: N_20  and  C_19 
REMARK       I    between atoms: C_22  and  N_20 
ROOT
ATOM      1  C   LIG d   1       1.307  82.650 111.702  0.00  0.00     0.161 C 
ATOM      2  C   LIG d   1       0.920  83.474 110.632  0.00  0.00     0.016 C 
ATOM      3  C   LIG d   1       0.316  84.741 110.804  0.00  0.00     0.038 C 
ATOM      4  C   LIG d   1       0.195  85.339 112.067  0.00  0.00     0.028 C 
ATOM      5  C   LIG d   1       0.111  84.331 113.209  0.00  0.00    -0.047 C 
ATOM      6  C   LIG d   1       1.285  83.333 113.085  0.00  0.00     0.091 C 
ENDROOT
BRANCH   1   7
ATOM      7  O   LIG d   1       2.609  82.089 111.440  0.00  0.00    -0.368 OA
BRANCH   7   8
ATOM      8  C   LIG d   1       2.861  81.673 110.076  0.00  0.00     0.119 C 
BRANCH   8   9
ATOM      9  C   LIG d   1       2.699  80.142 110.021  0.00  0.00     0.028 C 
ATOM     10  C   LIG d   1       1.707  79.696 108.933  0.00  0.00     0.006 C 
ENDBRANCH   8   9
BRANCH   8  11
ATOM     11  C   LIG d   1       4.314  81.942 109.671  0.00  0.00     0.028 C 
ATOM     12  C   LIG d   1       4.497  82.056 108.149  0.00  0.00     0.006 C 
ENDBRANCH   8  11
ENDBRANCH   7   8
ENDBRANCH   1   7
BRANCH   6  13
ATOM     13  N   LIG d   1       1.230  82.263 114.114  0.00  0.00    -0.311 N 
ATOM     14  C   LIG d   1       2.224  82.013 114.966  0.00  0.00     0.210 C 
ATOM     15  C   LIG d   1       1.970  80.852 115.933  0.00  0.00     0.109 C 
ATOM     16  O   LIG d   1       3.278  82.662 115.033  0.00  0.00    -0.276 OA
ATOM     17  H   LIG d   1       0.398  81.707 114.151  0.00  0.00     0.149 HD
ENDBRANCH   6  13
BRANCH   5  18
ATOM     18  N   LIG d   1       0.128  85.089 114.474  0.00  0.00     0.381 N 
ATOM     19  H   LIG d   1      -0.166  84.499 115.227  0.00  0.00    -0.090 HD
ATOM     20  H   LIG d   1      -0.518  85.855 114.403  0.00  0.00    -0.090 HD
ATOM     21  H   LIG d   1       1.046  85.435 114.653  0.00  0.00    -0.090 HD
ENDBRANCH   5  18
BRANCH   3  22
ATOM     22  C   LIG d   1      -0.212  85.405 109.708  0.00  0.00     0.382 C 
ATOM     23  O   LIG d   1       0.406  85.401 108.615  0.00  0.00    -0.241 OA
ATOM     24  O   LIG d   1      -1.275  86.046 109.809  0.00  0.00    -0.241 OA
ENDBRANCH   3  22
TORSDOF 7
ENDMDL
MODEL 9
REMARK VINA RESULT:      -5.3      2.592      4.402
REMARK  7 active torsions:
REMARK  status: ('A' for Active; 'I' for Inactive)
REMARK    1  A    between atoms: C_2  and  C_3 
REMARK    2  A    between atoms: C_3  and  O_6 
REMARK    3  A    between atoms: C_3  and  C_4 
REMARK    4  A    between atoms: C_7  and  O_6 
REMARK    5  A    between atoms: C_9  and  C_10 
REMARK    6  A    between atoms: N_15  and  C_14 
REMARK    7  A    between atoms: N_20  and  C_19 
REMARK       I    between atoms: C_22  and  N_20 
ROOT
ATOM      1  C   LIG d   1      -0.196  81.033 111.696  0.00  0.00     0.161 C 
ATOM      2  C   LIG d   1      -0.939  79.847 111.572  0.00  0.00     0.016 C 
ATOM      3  C   LIG d   1      -2.034  79.524 112.406  0.00  0.00     0.038 C 
ATOM      4  C   LIG d   1      -2.558  80.440 113.330  0.00  0.00     0.028 C 
ATOM      5  C   LIG d   1      -1.528  81.444 113.838  0.00  0.00    -0.047 C 
ATOM      6  C   LIG d   1      -0.822  82.094 112.626  0.00  0.00     0.091 C 
ENDROOT
BRANCH   1   7
ATOM      7  O   LIG d   1       0.052  81.594 110.392  0.00  0.00    -0.368 OA
BRANCH   7   8
ATOM      8  C   LIG d   1       1.361  81.337 109.826  0.00  0.00     0.119 C 
BRANCH   8   9
ATOM      9  C   LIG d   1       1.927  82.685 109.339  0.00  0.00     0.028 C 
ATOM     10  C   LIG d   1       3.293  82.532 108.649  0.00  0.00     0.006 C 
ENDBRANCH   8   9
BRANCH   8  11
ATOM     11  C   LIG d   1       1.265  80.461 108.574  0.00  0.00     0.028 C 
ATOM     12  C   LIG d   1       1.854  79.057 108.782  0.00  0.00     0.006 C 
ENDBRANCH   8  11
ENDBRANCH   7   8
ENDBRANCH   1   7
BRANCH   6  13
ATOM     13  N   LIG d   1       0.260  83.028 113.034  0.00  0.00    -0.311 N 
ATOM     14  C   LIG d   1       0.084  84.343 113.159  0.00  0.00     0.210 C 
ATOM     15  C   LIG d   1       1.335  85.125 113.571  0.00  0.00     0.109 C 
ATOM     16  O   LIG d   1      -0.996  84.930 112.998  0.00  0.00    -0.276 OA
ATOM     17  H   LIG d   1       1.161  82.632 113.215  0.00  0.00     0.149 HD
ENDBRANCH   6  13
BRANCH   5  18
ATOM     18  N   LIG d   1      -2.239  82.421 114.685  0.00  0.00     0.381 N 
ATOM     19  H   LIG d   1      -2.694  83.101 114.109  0.00  0.00    -0.090 HD
ATOM     20  H   LIG d   1      -1.569  82.896 115.264  0.00  0.00    -0.090 HD
ATOM     21  H   LIG d   1      -2.910  81.954 115.254  0.00  0.00    -0.090 HD
ENDBRANCH   5  18
BRANCH   3  22
ATOM     22  C   LIG d   1      -2.591  78.256 112.347  0.00  0.00     0.382 C 
ATOM     23  O   LIG d   1      -3.787  78.112 111.996  0.00  0.00    -0.241 OA
ATOM     24  O   LIG d   1      -1.926  77.257 112.683  0.00  0.00    -0.241 OA
ENDBRANCH   3  22
TORSDOF 7
ENDMDL
