MODEL 1
REMARK VINA RESULT:      -6.8      0.000      0.000
REMARK  7 active torsions:
REMARK  status: ('A' for Active; 'I' for Inactive)
REMARK    1  A    between atoms: C_2  and  C_3 
REMARK    2  A    between atoms: C_3  and  O_6 
REMARK    3  A    between atoms: C_3  and  C_4 
REMARK    4  A    between atoms: C_7  and  O_6 
REMARK    5  A    between atoms: C_9  and  C_10 
REMARK    6  A    between atoms: N_15  and  C_14 
REMARK    7  A    between atoms: N_20  and  C_19 
REMARK       I    between atoms: C_22  and  N_20 
ROOT
ATOM      1  C   LIG d   1       2.032  83.360 111.338  0.00  0.00     0.161 C 
ATOM      2  C   LIG d   1       0.926  82.495 111.290  0.00  0.00     0.016 C 
ATOM      3  C   LIG d   1      -0.301  82.765 111.937  0.00  0.00     0.038 C 
ATOM      4  C   LIG d   1      -0.558  83.998 112.555  0.00  0.00     0.028 C 
ATOM      5  C   LIG d   1       0.700  84.695 113.062  0.00  0.00    -0.047 C 
ATOM      6  C   LIG d   1       1.734  84.760 111.915  0.00  0.00     0.091 C 
ENDROOT
BRANCH   1   7
ATOM      7  O   LIG d   1       2.622  83.472 110.028  0.00  0.00    -0.368 OA
BRANCH   7   8
ATOM      8  C   LIG d   1       1.919  82.801 108.953  0.00  0.00     0.119 C 
BRANCH   8   9
ATOM      9  C   LIG d   1       2.965  82.019 108.134  0.00  0.00     0.028 C 
ATOM     10  C   LIG d   1       4.398  82.241 108.647  0.00  0.00     0.006 C 
ENDBRANCH   8   9
BRANCH   8  11
ATOM     11  C   LIG d   1       1.307  83.807 107.974  0.00  0.00     0.028 C 
ATOM     12  C   LIG d   1       1.477  83.388 106.505  0.00  0.00     0.006 C 
ENDBRANCH   8  11
ENDBRANCH   7   8
ENDBRANCH   1   7
BRANCH   6  13
ATOM     13  N   LIG d   1       3.026  85.352 112.349  0.00  0.00    -0.311 N 
ATOM     14  C   LIG d   1       3.352  86.628 112.150  0.00  0.00     0.210 C 
ATOM     15  C   LIG d   1       4.740  87.028 112.658  0.00  0.00     0.109 C 
ATOM     16  O   LIG d   1       2.609  87.474 111.630  0.00  0.00    -0.276 OA
ATOM     17  H   LIG d   1       3.676  84.743 112.807  0.00  0.00     0.149 HD
ENDBRANCH   6  13
BRANCH   5  18
ATOM     18  N   LIG d   1       0.303  86.027 113.557  0.00  0.00     0.381 N 
ATOM     19  H   LIG d   1       0.954  86.338 114.250  0.00  0.00    -0.090 HD
ATOM     20  H   LIG d   1      -0.604  85.957 113.985  0.00  0.00    -0.090 HD
ATOM     21  H   LIG d   1       0.273  86.677 112.803  0.00  0.00    -0.090 HD
ENDBRANCH   5  18
BRANCH   3  22
ATOM     22  C   LIG d   1      -1.274  81.780 112.004  0.00  0.00     0.382 C 
ATOM     23  O   LIG d   1      -1.047  80.641 111.530  0.00  0.00    -0.241 OA
ATOM     24  O   LIG d   1      -2.393  82.028 112.493  0.00  0.00    -0.241 OA
ENDBRANCH   3  22
TORSDOF 7
ENDMDL
MODEL 2
REMARK VINA RESULT:      -6.7      2.982      4.881
REMARK  7 active torsions:
REMARK  status: ('A' for Active; 'I' for Inactive)
REMARK    1  A    between atoms: C_2  and  C_3 
REMARK    2  A    between atoms: C_3  and  O_6 
REMARK    3  A    between atoms: C_3  and  C_4 
REMARK    4  A    between atoms: C_7  and  O_6 
REMARK    5  A    between atoms: C_9  and  C_10 
REMARK    6  A    between atoms: N_15  and  C_14 
REMARK    7  A    between atoms: N_20  and  C_19 
REMARK       I    between atoms: C_22  and  N_20 
ROOT
ATOM      1  C   LIG d   1       0.095  82.170 110.780  0.00  0.00     0.161 C 
ATOM      2  C   LIG d   1      -0.414  81.397 111.837  0.00  0.00     0.016 C 
ATOM      3  C   LIG d   1      -0.624  80.002 111.749  0.00  0.00     0.038 C 
ATOM      4  C   LIG d   1      -0.196  79.255 110.641  0.00  0.00     0.028 C 
ATOM      5  C   LIG d   1      -0.140  80.065 109.351  0.00  0.00    -0.047 C 
ATOM      6  C   LIG d   1       0.671  81.357 109.603  0.00  0.00     0.091 C 
ENDROOT
BRANCH   1   7
ATOM      7  O   LIG d   1       1.081  83.094 111.281  0.00  0.00    -0.368 OA
BRANCH   7   8
ATOM      8  C   LIG d   1       0.706  84.494 111.269  0.00  0.00     0.119 C 
BRANCH   8   9
ATOM      9  C   LIG d   1      -0.692  84.594 110.630  0.00  0.00     0.028 C 
ATOM     10  C   LIG d   1      -0.835  85.825 109.720  0.00  0.00     0.006 C 
ENDBRANCH   8   9
BRANCH   8  11
ATOM     11  C   LIG d   1       1.628  85.309 110.358  0.00  0.00     0.028 C 
ATOM     12  C   LIG d   1       3.068  84.772 110.332  0.00  0.00     0.006 C 
ENDBRANCH   8  11
ENDBRANCH   7   8
ENDBRANCH   1   7
BRANCH   6  13
ATOM     13  N   LIG d   1       0.704  82.247 108.414  0.00  0.00    -0.311 N 
ATOM     14  C   LIG d   1       1.807  82.489 107.708  0.00  0.00     0.210 C 
ATOM     15  C   LIG d   1       1.625  83.453 106.532  0.00  0.00     0.109 C 
ATOM     16  O   LIG d   1       2.913  81.970 107.925  0.00  0.00    -0.276 OA
ATOM     17  H   LIG d   1      -0.157  82.685 108.148  0.00  0.00     0.149 HD
ENDBRANCH   6  13
BRANCH   5  18
ATOM     18  N   LIG d   1       0.452  79.205 108.309  0.00  0.00     0.381 N 
ATOM     19  H   LIG d   1       0.525  79.713 107.451  0.00  0.00    -0.090 HD
ATOM     20  H   LIG d   1      -0.152  78.416 108.158  0.00  0.00    -0.090 HD
ATOM     21  H   LIG d   1       1.353  78.892 108.597  0.00  0.00    -0.090 HD
ENDBRANCH   5  18
BRANCH   3  22
ATOM     22  C   LIG d   1      -1.306  79.344 112.762  0.00  0.00     0.382 C 
ATOM     23  O   LIG d   1      -2.209  78.521 112.478  0.00  0.00    -0.241 OA
ATOM     24  O   LIG d   1      -1.061  79.597 113.957  0.00  0.00    -0.241 OA
ENDBRANCH   3  22
TORSDOF 7
ENDMDL
MODEL 3
REMARK VINA RESULT:      -6.4      2.739      4.593
REMARK  7 active torsions:
REMARK  status: ('A' for Active; 'I' for Inactive)
REMARK    1  A    between atoms: C_2  and  C_3 
REMARK    2  A    between atoms: C_3  and  O_6 
REMARK    3  A    between atoms: C_3  and  C_4 
REMARK    4  A    between atoms: C_7  and  O_6 
REMARK    5  A    between atoms: C_9  and  C_10 
REMARK    6  A    between atoms: N_15  and  C_14 
REMARK    7  A    between atoms: N_20  and  C_19 
REMARK       I    between atoms: C_22  and  N_20 
ROOT
ATOM      1  C   LIG d   1       0.882  83.539 109.533  0.00  0.00     0.161 C 
ATOM      2  C   LIG d   1       0.364  84.730 110.068  0.00  0.00     0.016 C 
ATOM      3  C   LIG d   1      -0.394  84.783 111.260  0.00  0.00     0.038 C 
ATOM      4  C   LIG d   1      -0.559  83.660 112.085  0.00  0.00     0.028 C 
ATOM      5  C   LIG d   1      -0.483  82.338 111.329  0.00  0.00    -0.047 C 
ATOM      6  C   LIG d   1       0.807  82.320 110.477  0.00  0.00     0.091 C 
ENDROOT
BRANCH   1   7
ATOM      7  O   LIG d   1       2.239  83.749 109.094  0.00  0.00    -0.368 OA
BRANCH   7   8
ATOM      8  C   LIG d   1       3.267  83.596 110.103  0.00  0.00     0.119 C 
BRANCH   8   9
ATOM      9  C   LIG d   1       3.735  85.008 110.506  0.00  0.00     0.028 C 
ATOM     10  C   LIG d   1       4.098  85.103 111.997  0.00  0.00     0.006 C 
ENDBRANCH   8   9
BRANCH   8  11
ATOM     11  C   LIG d   1       4.508  82.904 109.533  0.00  0.00     0.028 C 
ATOM     12  C   LIG d   1       4.239  82.210 108.189  0.00  0.00     0.006 C 
ENDBRANCH   8  11
ENDBRANCH   7   8
ENDBRANCH   1   7
BRANCH   6  13
ATOM     13  N   LIG d   1       0.917  81.097 109.641  0.00  0.00    -0.311 N 
ATOM     14  C   LIG d   1       1.836  80.153 109.840  0.00  0.00     0.210 C 
ATOM     15  C   LIG d   1       1.786  78.983 108.852  0.00  0.00     0.109 C 
ATOM     16  O   LIG d   1       2.666  80.157 110.762  0.00  0.00    -0.276 OA
ATOM     17  H   LIG d   1       0.263  80.997 108.890  0.00  0.00     0.149 HD
ENDBRANCH   6  13
BRANCH   5  18
ATOM     18  N   LIG d   1      -0.532  81.252 112.326  0.00  0.00     0.381 N 
ATOM     19  H   LIG d   1      -1.295  80.638 112.120  0.00  0.00    -0.090 HD
ATOM     20  H   LIG d   1      -0.685  81.651 113.235  0.00  0.00    -0.090 HD
ATOM     21  H   LIG d   1       0.325  80.743 112.319  0.00  0.00    -0.090 HD
ENDBRANCH   5  18
BRANCH   3  22
ATOM     22  C   LIG d   1      -1.030  85.962 111.618  0.00  0.00     0.382 C 
ATOM     23  O   LIG d   1      -1.263  86.837 110.749  0.00  0.00    -0.241 OA
ATOM     24  O   LIG d   1      -1.335  86.180 112.806  0.00  0.00    -0.241 OA
ENDBRANCH   3  22
TORSDOF 7
ENDMDL
MODEL 4
REMARK VINA RESULT:      -6.1      2.910      4.792
REMARK  7 active torsions:
REMARK  status: ('A' for Active; 'I' for Inactive)
REMARK    1  A    between atoms: C_2  and  C_3 
REMARK    2  A    between atoms: C_3  and  O_6 
REMARK    3  A    between atoms: C_3  and  C_4 
REMARK    4  A    between atoms: C_7  and  O_6 
REMARK    5  A    between atoms: C_9  and  C_10 
REMARK    6  A    between atoms: N_15  and  C_14 
REMARK    7  A    between atoms: N_20  and  C_19 
REMARK       I    between atoms: C_22  and  N_20 
ROOT
ATOM      1  C   LIG d   1       0.277  81.965 111.337  0.00  0.00     0.161 C 
ATOM      2  C   LIG d   1      -0.901  81.845 112.092  0.00  0.00     0.016 C 
ATOM      3  C   LIG d   1      -1.617  80.633 112.228  0.00  0.00     0.038 C 
ATOM      4  C   LIG d   1      -1.118  79.418 111.738  0.00  0.00     0.028 C 
ATOM      5  C   LIG d   1      -0.189  79.583 110.540  0.00  0.00    -0.047 C 
ATOM      6  C   LIG d   1       0.897  80.626 110.887  0.00  0.00     0.091 C 
ENDROOT
BRANCH   1   7
ATOM      7  O   LIG d   1       1.246  82.747 112.064  0.00  0.00    -0.368 OA
BRANCH   7   8
ATOM      8  C   LIG d   1       1.539  84.060 111.527  0.00  0.00     0.119 C 
BRANCH   8   9
ATOM      9  C   LIG d   1       3.001  84.391 111.884  0.00  0.00     0.028 C 
ATOM     10  C   LIG d   1       3.847  84.726 110.644  0.00  0.00     0.006 C 
ENDBRANCH   8   9
BRANCH   8  11
ATOM     11  C   LIG d   1       0.699  85.142 112.211  0.00  0.00     0.028 C 
ATOM     12  C   LIG d   1       1.054  85.322 113.696  0.00  0.00     0.006 C 
ENDBRANCH   8  11
ENDBRANCH   7   8
ENDBRANCH   1   7
BRANCH   6  13
ATOM     13  N   LIG d   1       1.798  80.910 109.740  0.00  0.00    -0.311 N 
ATOM     14  C   LIG d   1       3.109  81.106 109.868  0.00  0.00     0.210 C 
ATOM     15  C   LIG d   1       3.849  81.404 108.560  0.00  0.00     0.109 C 
ATOM     16  O   LIG d   1       3.735  81.030 110.936  0.00  0.00    -0.276 OA
ATOM     17  H   LIG d   1       1.379  80.958 108.832  0.00  0.00     0.149 HD
ENDBRANCH   6  13
BRANCH   5  18
ATOM     18  N   LIG d   1       0.366  78.254 110.219  0.00  0.00     0.381 N 
ATOM     19  H   LIG d   1       0.487  78.168 109.230  0.00  0.00    -0.090 HD
ATOM     20  H   LIG d   1      -0.284  77.549 110.520  0.00  0.00    -0.090 HD
ATOM     21  H   LIG d   1       1.240  78.129 110.681  0.00  0.00    -0.090 HD
ENDBRANCH   5  18
BRANCH   3  22
ATOM     22  C   LIG d   1      -2.868  80.638 112.826  0.00  0.00     0.382 C 
ATOM     23  O   LIG d   1      -3.616  81.639 112.707  0.00  0.00    -0.241 OA
ATOM     24  O   LIG d   1      -3.241  79.673 113.520  0.00  0.00    -0.241 OA
ENDBRANCH   3  22
TORSDOF 7
ENDMDL
MODEL 5
REMARK VINA RESULT:      -6.1      2.040      4.879
REMARK  7 active torsions:
REMARK  status: ('A' for Active; 'I' for Inactive)
REMARK    1  A    between atoms: C_2  and  C_3 
REMARK    2  A    between atoms: C_3  and  O_6 
REMARK    3  A    between atoms: C_3  and  C_4 
REMARK    4  A    between atoms: C_7  and  O_6 
REMARK    5  A    between atoms: C_9  and  C_10 
REMARK    6  A    between atoms: N_15  and  C_14 
REMARK    7  A    between atoms: N_20  and  C_19 
REMARK       I    between atoms: C_22  and  N_20 
ROOT
ATOM      1  C   LIG d   1       2.190  82.693 110.924  0.00  0.00     0.161 C 
ATOM      2  C   LIG d   1       2.860  83.928 110.938  0.00  0.00     0.016 C 
ATOM      3  C   LIG d   1       2.325  85.097 111.526  0.00  0.00     0.038 C 
ATOM      4  C   LIG d   1       1.141  85.073 112.279  0.00  0.00     0.028 C 
ATOM      5  C   LIG d   1       0.181  83.964 111.863  0.00  0.00    -0.047 C 
ATOM      6  C   LIG d   1       0.947  82.621 111.836  0.00  0.00     0.091 C 
ENDROOT
BRANCH   1   7
ATOM      7  O   LIG d   1       3.111  81.633 111.248  0.00  0.00    -0.368 OA
BRANCH   7   8
ATOM      8  C   LIG d   1       3.533  80.796 110.144  0.00  0.00     0.119 C 
BRANCH   8   9
ATOM      9  C   LIG d   1       3.287  81.586 108.843  0.00  0.00     0.028 C 
ATOM     10  C   LIG d   1       4.590  82.122 108.227  0.00  0.00     0.006 C 
ENDBRANCH   8   9
BRANCH   8  11
ATOM     11  C   LIG d   1       2.660  79.543 110.029  0.00  0.00     0.028 C 
ATOM     12  C   LIG d   1       1.709  79.588 108.822  0.00  0.00     0.006 C 
ENDBRANCH   8  11
ENDBRANCH   7   8
ENDBRANCH   1   7
BRANCH   6  13
ATOM     13  N   LIG d   1       0.102  81.496 111.358  0.00  0.00    -0.311 N 
ATOM     14  C   LIG d   1      -0.280  80.485 112.136  0.00  0.00     0.210 C 
ATOM     15  C   LIG d   1      -1.132  79.419 111.438  0.00  0.00     0.109 C 
ATOM     16  O   LIG d   1      -0.022  80.385 113.345  0.00  0.00    -0.276 OA
ATOM     17  H   LIG d   1      -0.179  81.513 110.397  0.00  0.00     0.149 HD
ENDBRANCH   6  13
BRANCH   5  18
ATOM     18  N   LIG d   1      -0.945  83.968 112.816  0.00  0.00     0.381 N 
ATOM     19  H   LIG d   1      -0.974  84.843 113.301  0.00  0.00    -0.090 HD
ATOM     20  H   LIG d   1      -0.802  83.238 113.491  0.00  0.00    -0.090 HD
ATOM     21  H   LIG d   1      -1.802  83.820 112.331  0.00  0.00    -0.090 HD
ENDBRANCH   5  18
BRANCH   3  22
ATOM     22  C   LIG d   1       2.957  86.315 111.331  0.00  0.00     0.382 C 
ATOM     23  O   LIG d   1       4.210  86.379 111.332  0.00  0.00    -0.241 OA
ATOM     24  O   LIG d   1       2.290  87.359 111.198  0.00  0.00    -0.241 OA
ENDBRANCH   3  22
TORSDOF 7
ENDMDL
MODEL 6
REMARK VINA RESULT:      -5.9      2.461      5.086
REMARK  7 active torsions:
REMARK  status: ('A' for Active; 'I' for Inactive)
REMARK    1  A    between atoms: C_2  and  C_3 
REMARK    2  A    between atoms: C_3  and  O_6 
REMARK    3  A    between atoms: C_3  and  C_4 
REMARK    4  A    between atoms: C_7  and  O_6 
REMARK    5  A    between atoms: C_9  and  C_10 
REMARK    6  A    between atoms: N_15  and  C_14 
REMARK    7  A    between atoms: N_20  and  C_19 
REMARK       I    between atoms: C_22  and  N_20 
ROOT
ATOM      1  C   LIG d   1       0.528  82.714 110.039  0.00  0.00     0.161 C 
ATOM      2  C   LIG d   1       1.084  83.975 110.311  0.00  0.00     0.016 C 
ATOM      3  C   LIG d   1       1.630  84.330 111.567  0.00  0.00     0.038 C 
ATOM      4  C   LIG d   1       1.794  83.391 112.596  0.00  0.00     0.028 C 
ATOM      5  C   LIG d   1       0.788  82.246 112.537  0.00  0.00    -0.047 C 
ATOM      6  C   LIG d   1       0.798  81.642 111.115  0.00  0.00     0.091 C 
ENDROOT
BRANCH   1   7
ATOM      7  O   LIG d   1       0.972  82.253 108.748  0.00  0.00    -0.368 OA
BRANCH   7   8
ATOM      8  C   LIG d   1       2.041  83.013 108.133  0.00  0.00     0.119 C 
BRANCH   8   9
ATOM      9  C   LIG d   1       1.573  83.408 106.718  0.00  0.00     0.028 C 
ATOM     10  C   LIG d   1       1.031  84.846 106.660  0.00  0.00     0.006 C 
ENDBRANCH   8   9
BRANCH   8  11
ATOM     11  C   LIG d   1       3.289  82.150 107.921  0.00  0.00     0.028 C 
ATOM     12  C   LIG d   1       4.023  81.832 109.233  0.00  0.00     0.006 C 
ENDBRANCH   8  11
ENDBRANCH   7   8
ENDBRANCH   1   7
BRANCH   6  13
ATOM     13  N   LIG d   1      -0.218  80.570 110.947  0.00  0.00    -0.311 N 
ATOM     14  C   LIG d   1       0.056  79.375 110.426  0.00  0.00     0.210 C 
ATOM     15  C   LIG d   1      -1.141  78.424 110.325  0.00  0.00     0.109 C 
ATOM     16  O   LIG d   1       1.183  79.001 110.069  0.00  0.00    -0.276 OA
ATOM     17  H   LIG d   1      -1.152  80.778 111.240  0.00  0.00     0.149 HD
ENDBRANCH   6  13
BRANCH   5  18
ATOM     18  N   LIG d   1       1.160  81.273 113.582  0.00  0.00     0.381 N 
ATOM     19  H   LIG d   1       2.144  81.321 113.755  0.00  0.00    -0.090 HD
ATOM     20  H   LIG d   1       0.942  80.347 113.256  0.00  0.00    -0.090 HD
ATOM     21  H   LIG d   1       0.658  81.464 114.420  0.00  0.00    -0.090 HD
ENDBRANCH   5  18
BRANCH   3  22
ATOM     22  C   LIG d   1       1.982  85.648 111.815  0.00  0.00     0.382 C 
ATOM     23  O   LIG d   1       2.745  85.923 112.772  0.00  0.00    -0.241 OA
ATOM     24  O   LIG d   1       1.511  86.569 111.122  0.00  0.00    -0.241 OA
ENDBRANCH   3  22
TORSDOF 7
ENDMDL
MODEL 7
REMARK VINA RESULT:      -5.8      2.864      4.707
REMARK  7 active torsions:
REMARK  status: ('A' for Active; 'I' for Inactive)
REMARK    1  A    between atoms: C_2  and  C_3 
REMARK    2  A    between atoms: C_3  and  O_6 
REMARK    3  A    between atoms: C_3  and  C_4 
REMARK    4  A    between atoms: C_7  and  O_6 
REMARK    5  A    between atoms: C_9  and  C_10 
REMARK    6  A    between atoms: N_15  and  C_14 
REMARK    7  A    between atoms: N_20  and  C_19 
REMARK       I    between atoms: C_22  and  N_20 
ROOT
ATOM      1  C   LIG d   1       1.414  82.915 111.536  0.00  0.00     0.161 C 
ATOM      2  C   LIG d   1       0.434  83.741 112.111  0.00  0.00     0.016 C 
ATOM      3  C   LIG d   1      -0.219  84.780 111.408  0.00  0.00     0.038 C 
ATOM      4  C   LIG d   1      -0.044  84.965 110.029  0.00  0.00     0.028 C 
ATOM      5  C   LIG d   1       1.310  84.481 109.519  0.00  0.00    -0.047 C 
ATOM      6  C   LIG d   1       1.538  83.031 110.002  0.00  0.00     0.091 C 
ENDROOT
BRANCH   1   7
ATOM      7  O   LIG d   1       1.184  81.545 111.919  0.00  0.00    -0.368 OA
BRANCH   7   8
ATOM      8  C   LIG d   1       0.038  80.898 111.312  0.00  0.00     0.119 C 
BRANCH   8   9
ATOM      9  C   LIG d   1      -0.817  80.309 112.451  0.00  0.00     0.028 C 
ATOM     10  C   LIG d   1      -1.605  79.064 112.009  0.00  0.00     0.006 C 
ENDBRANCH   8   9
BRANCH   8  11
ATOM     11  C   LIG d   1       0.462  79.698 110.460  0.00  0.00     0.028 C 
ATOM     12  C   LIG d   1      -0.010  79.807 109.002  0.00  0.00     0.006 C 
ENDBRANCH   8  11
ENDBRANCH   7   8
ENDBRANCH   1   7
BRANCH   6  13
ATOM     13  N   LIG d   1       2.876  82.509 109.619  0.00  0.00    -0.311 N 
ATOM     14  C   LIG d   1       3.139  81.968 108.430  0.00  0.00     0.210 C 
ATOM     15  C   LIG d   1       4.578  81.476 108.248  0.00  0.00     0.109 C 
ATOM     16  O   LIG d   1       2.325  81.878 107.499  0.00  0.00    -0.276 OA
ATOM     17  H   LIG d   1       3.603  82.571 110.304  0.00  0.00     0.149 HD
ENDBRANCH   6  13
BRANCH   5  18
ATOM     18  N   LIG d   1       1.304  84.607 108.050  0.00  0.00     0.381 N 
ATOM     19  H   LIG d   1       1.129  83.714 107.634  0.00  0.00    -0.090 HD
ATOM     20  H   LIG d   1       2.208  84.924 107.747  0.00  0.00    -0.090 HD
ATOM     21  H   LIG d   1       0.604  85.257 107.766  0.00  0.00    -0.090 HD
ENDBRANCH   5  18
BRANCH   3  22
ATOM     22  C   LIG d   1      -1.029  85.671 112.095  0.00  0.00     0.382 C 
ATOM     23  O   LIG d   1      -1.237  85.512 113.322  0.00  0.00    -0.241 OA
ATOM     24  O   LIG d   1      -1.590  86.607 111.494  0.00  0.00    -0.241 OA
ENDBRANCH   3  22
TORSDOF 7
ENDMDL
MODEL 8
REMARK VINA RESULT:      -5.7      1.774      2.316
REMARK  7 active torsions:
REMARK  status: ('A' for Active; 'I' for Inactive)
REMARK    1  A    between atoms: C_2  and  C_3 
REMARK    2  A    between atoms: C_3  and  O_6 
REMARK    3  A    between atoms: C_3  and  C_4 
REMARK    4  A    between atoms: C_7  and  O_6 
REMARK    5  A    between atoms: C_9  and  C_10 
REMARK    6  A    between atoms: N_15  and  C_14 
REMARK    7  A    between atoms: N_20  and  C_19 
REMARK       I    between atoms: C_22  and  N_20 
ROOT
ATOM      1  C   LIG d   1       2.016  82.556 111.317  0.00  0.00     0.161 C 
ATOM      2  C   LIG d   1       0.914  81.803 111.757  0.00  0.00     0.016 C 
ATOM      3  C   LIG d   1      -0.415  82.284 111.737  0.00  0.00     0.038 C 
ATOM      4  C   LIG d   1      -0.753  83.504 111.131  0.00  0.00     0.028 C 
ATOM      5  C   LIG d   1       0.387  84.516 111.129  0.00  0.00    -0.047 C 
ATOM      6  C   LIG d   1       1.653  83.845 110.550  0.00  0.00     0.091 C 
ENDROOT
BRANCH   1   7
ATOM      7  O   LIG d   1       2.887  81.728 110.522  0.00  0.00    -0.368 OA
BRANCH   7   8
ATOM      8  C   LIG d   1       2.373  81.317 109.231  0.00  0.00     0.119 C 
BRANCH   8   9
ATOM      9  C   LIG d   1       2.401  79.776 109.191  0.00  0.00     0.028 C 
ATOM     10  C   LIG d   1       0.991  79.164 109.173  0.00  0.00     0.006 C 
ENDBRANCH   8   9
BRANCH   8  11
ATOM     11  C   LIG d   1       3.294  81.769 108.095  0.00  0.00     0.028 C 
ATOM     12  C   LIG d   1       4.659  82.267 108.596  0.00  0.00     0.006 C 
ENDBRANCH   8  11
ENDBRANCH   7   8
ENDBRANCH   1   7
BRANCH   6  13
ATOM     13  N   LIG d   1       2.839  84.741 110.590  0.00  0.00    -0.311 N 
ATOM     14  C   LIG d   1       3.507  85.023 111.707  0.00  0.00     0.210 C 
ATOM     15  C   LIG d   1       4.686  85.984 111.530  0.00  0.00     0.109 C 
ATOM     16  O   LIG d   1       3.254  84.543 112.823  0.00  0.00    -0.276 OA
ATOM     17  H   LIG d   1       3.132  85.149 109.724  0.00  0.00     0.149 HD
ENDBRANCH   6  13
BRANCH   5  18
ATOM     18  N   LIG d   1      -0.056  85.686 110.348  0.00  0.00     0.381 N 
ATOM     19  H   LIG d   1       0.733  86.126 109.919  0.00  0.00    -0.090 HD
ATOM     20  H   LIG d   1      -0.487  86.348 110.969  0.00  0.00    -0.090 HD
ATOM     21  H   LIG d   1      -0.708  85.402 109.649  0.00  0.00    -0.090 HD
ENDBRANCH   5  18
BRANCH   3  22
ATOM     22  C   LIG d   1      -1.418  81.560 112.364  0.00  0.00     0.382 C 
ATOM     23  O   LIG d   1      -2.556  82.066 112.514  0.00  0.00    -0.241 OA
ATOM     24  O   LIG d   1      -1.186  80.425 112.820  0.00  0.00    -0.241 OA
ENDBRANCH   3  22
TORSDOF 7
ENDMDL
MODEL 9
REMARK VINA RESULT:      -5.3      2.404      4.853
REMARK  7 active torsions:
REMARK  status: ('A' for Active; 'I' for Inactive)
REMARK    1  A    between atoms: C_2  and  C_3 
REMARK    2  A    between atoms: C_3  and  O_6 
REMARK    3  A    between atoms: C_3  and  C_4 
REMARK    4  A    between atoms: C_7  and  O_6 
REMARK    5  A    between atoms: C_9  and  C_10 
REMARK    6  A    between atoms: N_15  and  C_14 
REMARK    7  A    between atoms: N_20  and  C_19 
REMARK       I    between atoms: C_22  and  N_20 
ROOT
ATOM      1  C   LIG d   1       1.125  83.075 109.835  0.00  0.00     0.161 C 
ATOM      2  C   LIG d   1       2.221  82.421 109.248  0.00  0.00     0.016 C 
ATOM      3  C   LIG d   1       3.563  82.812 109.456  0.00  0.00     0.038 C 
ATOM      4  C   LIG d   1       3.912  83.796 110.393  0.00  0.00     0.028 C 
ATOM      5  C   LIG d   1       2.810  84.823 110.631  0.00  0.00    -0.047 C 
ATOM      6  C   LIG d   1       1.492  84.080 110.947  0.00  0.00     0.091 C 
ENDROOT
BRANCH   1   7
ATOM      7  O   LIG d   1       0.183  82.102 110.330  0.00  0.00    -0.368 OA
BRANCH   7   8
ATOM      8  C   LIG d   1       0.752  80.914 110.933  0.00  0.00     0.119 C 
BRANCH   8   9
ATOM      9  C   LIG d   1       0.146  79.694 110.212  0.00  0.00     0.028 C 
ATOM     10  C   LIG d   1       1.221  78.773 109.611  0.00  0.00     0.006 C 
ENDBRANCH   8   9
BRANCH   8  11
ATOM     11  C   LIG d   1       0.327  80.773 112.397  0.00  0.00     0.028 C 
ATOM     12  C   LIG d   1      -0.937  79.916 112.570  0.00  0.00     0.006 C 
ENDBRANCH   8  11
ENDBRANCH   7   8
ENDBRANCH   1   7
BRANCH   6  13
ATOM     13  N   LIG d   1       0.343  85.009 111.111  0.00  0.00    -0.311 N 
ATOM     14  C   LIG d   1      -0.135  85.764 110.124  0.00  0.00     0.210 C 
ATOM     15  C   LIG d   1      -1.312  86.666 110.512  0.00  0.00     0.109 C 
ATOM     16  O   LIG d   1       0.282  85.750 108.956  0.00  0.00    -0.276 OA
ATOM     17  H   LIG d   1      -0.076  85.060 112.019  0.00  0.00     0.149 HD
ENDBRANCH   6  13
BRANCH   5  18
ATOM     18  N   LIG d   1       3.253  85.706 111.727  0.00  0.00     0.381 N 
ATOM     19  H   LIG d   1       3.529  85.155 112.515  0.00  0.00    -0.090 HD
ATOM     20  H   LIG d   1       2.484  86.290 112.004  0.00  0.00    -0.090 HD
ATOM     21  H   LIG d   1       4.016  86.270 111.423  0.00  0.00    -0.090 HD
ENDBRANCH   5  18
BRANCH   3  22
ATOM     22  C   LIG d   1       4.571  82.243 108.693  0.00  0.00     0.382 C 
ATOM     23  O   LIG d   1       4.539  81.017 108.426  0.00  0.00    -0.241 OA
ATOM     24  O   LIG d   1       5.535  82.930 108.305  0.00  0.00    -0.241 OA
ENDBRANCH   3  22
TORSDOF 7
ENDMDL
