MODEL 1
REMARK VINA RESULT:      -6.3      0.000      0.000
REMARK  7 active torsions:
REMARK  status: ('A' for Active; 'I' for Inactive)
REMARK    1  A    between atoms: C_2  and  C_3 
REMARK    2  A    between atoms: C_3  and  O_6 
REMARK    3  A    between atoms: C_3  and  C_4 
REMARK    4  A    between atoms: C_7  and  O_6 
REMARK    5  A    between atoms: C_9  and  C_10 
REMARK    6  A    between atoms: N_15  and  C_14 
REMARK    7  A    between atoms: N_20  and  C_19 
REMARK       I    between atoms: C_22  and  N_20 
ROOT
ATOM      1  C   LIG d   1       0.314  82.567 111.275  0.00  0.00     0.161 C 
ATOM      2  C   LIG d   1      -0.838  82.249 112.014  0.00  0.00     0.016 C 
ATOM      3  C   LIG d   1      -1.361  80.939 112.114  0.00  0.00     0.038 C 
ATOM      4  C   LIG d   1      -0.677  79.827 111.602  0.00  0.00     0.028 C 
ATOM      5  C   LIG d   1       0.224  80.162 110.418  0.00  0.00    -0.047 C 
ATOM      6  C   LIG d   1       1.135  81.350 110.802  0.00  0.00     0.091 C 
ENDROOT
BRANCH   1   7
ATOM      7  O   LIG d   1       1.146  83.469 112.031  0.00  0.00    -0.368 OA
BRANCH   7   8
ATOM      8  C   LIG d   1       0.960  84.881 111.766  0.00  0.00     0.119 C 
BRANCH   8   9
ATOM      9  C   LIG d   1       0.755  85.044 110.247  0.00  0.00     0.028 C 
ATOM     10  C   LIG d   1      -0.593  85.699 109.904  0.00  0.00     0.006 C 
ENDBRANCH   8   9
BRANCH   8  11
ATOM     11  C   LIG d   1       2.225  85.681 112.092  0.00  0.00     0.028 C 
ATOM     12  C   LIG d   1       3.380  85.392 111.120  0.00  0.00     0.006 C 
ENDBRANCH   8  11
ENDBRANCH   7   8
ENDBRANCH   1   7
BRANCH   6  13
ATOM     13  N   LIG d   1       1.991  81.796 109.671  0.00  0.00    -0.311 N 
ATOM     14  C   LIG d   1       3.313  81.925 109.759  0.00  0.00     0.210 C 
ATOM     15  C   LIG d   1       4.001  82.419 108.482  0.00  0.00     0.109 C 
ATOM     16  O   LIG d   1       3.986  81.647 110.763  0.00  0.00    -0.276 OA
ATOM     17  H   LIG d   1       1.530  82.013 108.809  0.00  0.00     0.149 HD
ENDBRANCH   6  13
BRANCH   5  18
ATOM     18  N   LIG d   1       0.979  78.942 110.073  0.00  0.00     0.381 N 
ATOM     19  H   LIG d   1       1.278  78.481 110.909  0.00  0.00    -0.090 HD
ATOM     20  H   LIG d   1       1.794  79.202 109.547  0.00  0.00    -0.090 HD
ATOM     21  H   LIG d   1       0.408  78.329 109.533  0.00  0.00    -0.090 HD
ENDBRANCH   5  18
BRANCH   3  22
ATOM     22  C   LIG d   1      -2.602  80.738 112.698  0.00  0.00     0.382 C 
ATOM     23  O   LIG d   1      -3.266  81.718 113.114  0.00  0.00    -0.241 OA
ATOM     24  O   LIG d   1      -3.047  79.585 112.855  0.00  0.00    -0.241 OA
ENDBRANCH   3  22
TORSDOF 7
ENDMDL
MODEL 2
REMARK VINA RESULT:      -6.2      3.115      4.136
REMARK  7 active torsions:
REMARK  status: ('A' for Active; 'I' for Inactive)
REMARK    1  A    between atoms: C_2  and  C_3 
REMARK    2  A    between atoms: C_3  and  O_6 
REMARK    3  A    between atoms: C_3  and  C_4 
REMARK    4  A    between atoms: C_7  and  O_6 
REMARK    5  A    between atoms: C_9  and  C_10 
REMARK    6  A    between atoms: N_15  and  C_14 
REMARK    7  A    between atoms: N_20  and  C_19 
REMARK       I    between atoms: C_22  and  N_20 
ROOT
ATOM      1  C   LIG d   1       1.443  85.688 110.806  0.00  0.00     0.161 C 
ATOM      2  C   LIG d   1       1.020  86.027 112.103  0.00  0.00     0.016 C 
ATOM      3  C   LIG d   1       0.141  85.227 112.868  0.00  0.00     0.038 C 
ATOM      4  C   LIG d   1      -0.259  83.951 112.444  0.00  0.00     0.028 C 
ATOM      5  C   LIG d   1      -0.262  83.789 110.928  0.00  0.00    -0.047 C 
ATOM      6  C   LIG d   1       1.106  84.247 110.372  0.00  0.00     0.091 C 
ENDROOT
BRANCH   1   7
ATOM      7  O   LIG d   1       2.857  85.934 110.674  0.00  0.00    -0.368 OA
BRANCH   7   8
ATOM      8  C   LIG d   1       3.646  85.781 111.880  0.00  0.00     0.119 C 
BRANCH   8   9
ATOM      9  C   LIG d   1       4.710  86.895 111.881  0.00  0.00     0.028 C 
ATOM     10  C   LIG d   1       4.779  87.641 113.224  0.00  0.00     0.006 C 
ENDBRANCH   8   9
BRANCH   8  11
ATOM     11  C   LIG d   1       4.434  84.468 111.868  0.00  0.00     0.028 C 
ATOM     12  C   LIG d   1       4.614  83.894 110.454  0.00  0.00     0.006 C 
ENDBRANCH   8  11
ENDBRANCH   7   8
ENDBRANCH   1   7
BRANCH   6  13
ATOM     13  N   LIG d   1       1.158  84.201 108.887  0.00  0.00    -0.311 N 
ATOM     14  C   LIG d   1       1.679  83.184 108.203  0.00  0.00     0.210 C 
ATOM     15  C   LIG d   1       1.651  83.346 106.680  0.00  0.00     0.109 C 
ATOM     16  O   LIG d   1       2.133  82.148 108.712  0.00  0.00    -0.276 OA
ATOM     17  H   LIG d   1       0.783  84.987 108.393  0.00  0.00     0.149 HD
ENDBRANCH   6  13
BRANCH   5  18
ATOM     18  N   LIG d   1      -0.564  82.376 110.630  0.00  0.00     0.381 N 
ATOM     19  H   LIG d   1      -1.186  82.010 111.323  0.00  0.00    -0.090 HD
ATOM     20  H   LIG d   1       0.290  81.848 110.663  0.00  0.00    -0.090 HD
ATOM     21  H   LIG d   1      -0.977  82.298 109.727  0.00  0.00    -0.090 HD
ENDBRANCH   5  18
BRANCH   3  22
ATOM     22  C   LIG d   1      -0.380  85.720 114.055  0.00  0.00     0.382 C 
ATOM     23  O   LIG d   1      -1.623  85.787 114.214  0.00  0.00    -0.241 OA
ATOM     24  O   LIG d   1       0.377  86.140 114.950  0.00  0.00    -0.241 OA
ENDBRANCH   3  22
TORSDOF 7
ENDMDL
MODEL 3
REMARK VINA RESULT:      -6.2      2.377      4.376
REMARK  7 active torsions:
REMARK  status: ('A' for Active; 'I' for Inactive)
REMARK    1  A    between atoms: C_2  and  C_3 
REMARK    2  A    between atoms: C_3  and  O_6 
REMARK    3  A    between atoms: C_3  and  C_4 
REMARK    4  A    between atoms: C_7  and  O_6 
REMARK    5  A    between atoms: C_9  and  C_10 
REMARK    6  A    between atoms: N_15  and  C_14 
REMARK    7  A    between atoms: N_20  and  C_19 
REMARK       I    between atoms: C_22  and  N_20 
ROOT
ATOM      1  C   LIG d   1       1.845  83.031 111.236  0.00  0.00     0.161 C 
ATOM      2  C   LIG d   1       0.771  82.143 111.408  0.00  0.00     0.016 C 
ATOM      3  C   LIG d   1      -0.348  82.424 112.227  0.00  0.00     0.038 C 
ATOM      4  C   LIG d   1      -0.539  83.684 112.812  0.00  0.00     0.028 C 
ATOM      5  C   LIG d   1       0.762  84.434 113.076  0.00  0.00    -0.047 C 
ATOM      6  C   LIG d   1       1.601  84.455 111.778  0.00  0.00     0.091 C 
ENDROOT
BRANCH   1   7
ATOM      7  O   LIG d   1       2.218  83.082 109.844  0.00  0.00    -0.368 OA
BRANCH   7   8
ATOM      8  C   LIG d   1       2.725  81.850 109.274  0.00  0.00     0.119 C 
BRANCH   8   9
ATOM      9  C   LIG d   1       4.234  81.785 109.580  0.00  0.00     0.028 C 
ATOM     10  C   LIG d   1       4.906  83.167 109.514  0.00  0.00     0.006 C 
ENDBRANCH   8   9
BRANCH   8  11
ATOM     11  C   LIG d   1       2.620  81.858 107.747  0.00  0.00     0.028 C 
ATOM     12  C   LIG d   1       1.827  83.060 107.210  0.00  0.00     0.006 C 
ENDBRANCH   8  11
ENDBRANCH   7   8
ENDBRANCH   1   7
BRANCH   6  13
ATOM     13  N   LIG d   1       2.928  85.096 111.971  0.00  0.00    -0.311 N 
ATOM     14  C   LIG d   1       3.173  86.374 111.687  0.00  0.00     0.210 C 
ATOM     15  C   LIG d   1       4.613  86.829 111.941  0.00  0.00     0.109 C 
ATOM     16  O   LIG d   1       2.325  87.183 111.280  0.00  0.00    -0.276 OA
ATOM     17  H   LIG d   1       3.666  84.520 112.327  0.00  0.00     0.149 HD
ENDBRANCH   6  13
BRANCH   5  18
ATOM     18  N   LIG d   1       0.410  85.783 113.558  0.00  0.00     0.381 N 
ATOM     19  H   LIG d   1       0.024  85.723 114.480  0.00  0.00    -0.090 HD
ATOM     20  H   LIG d   1      -0.287  86.174 112.949  0.00  0.00    -0.090 HD
ATOM     21  H   LIG d   1       1.219  86.364 113.566  0.00  0.00    -0.090 HD
ENDBRANCH   5  18
BRANCH   3  22
ATOM     22  C   LIG d   1      -1.269  81.425 112.498  0.00  0.00     0.382 C 
ATOM     23  O   LIG d   1      -0.881  80.319 112.948  0.00  0.00    -0.241 OA
ATOM     24  O   LIG d   1      -2.479  81.598 112.257  0.00  0.00    -0.241 OA
ENDBRANCH   3  22
TORSDOF 7
ENDMDL
MODEL 4
REMARK VINA RESULT:      -6.2      1.986      4.782
REMARK  7 active torsions:
REMARK  status: ('A' for Active; 'I' for Inactive)
REMARK    1  A    between atoms: C_2  and  C_3 
REMARK    2  A    between atoms: C_3  and  O_6 
REMARK    3  A    between atoms: C_3  and  C_4 
REMARK    4  A    between atoms: C_7  and  O_6 
REMARK    5  A    between atoms: C_9  and  C_10 
REMARK    6  A    between atoms: N_15  and  C_14 
REMARK    7  A    between atoms: N_20  and  C_19 
REMARK       I    between atoms: C_22  and  N_20 
ROOT
ATOM      1  C   LIG d   1       0.534  83.036 110.928  0.00  0.00     0.161 C 
ATOM      2  C   LIG d   1       1.338  83.164 109.783  0.00  0.00     0.016 C 
ATOM      3  C   LIG d   1       1.731  82.067 108.982  0.00  0.00     0.038 C 
ATOM      4  C   LIG d   1       1.219  80.777 109.187  0.00  0.00     0.028 C 
ATOM      5  C   LIG d   1       0.807  80.512 110.631  0.00  0.00    -0.047 C 
ATOM      6  C   LIG d   1      -0.125  81.652 111.104  0.00  0.00     0.091 C 
ENDROOT
BRANCH   1   7
ATOM      7  O   LIG d   1      -0.467  84.073 110.941  0.00  0.00    -0.368 OA
BRANCH   7   8
ATOM      8  C   LIG d   1      -0.232  85.173 111.853  0.00  0.00     0.119 C 
BRANCH   8   9
ATOM      9  C   LIG d   1       0.318  86.351 111.026  0.00  0.00     0.028 C 
ATOM     10  C   LIG d   1       1.847  86.481 111.135  0.00  0.00     0.006 C 
ENDBRANCH   8   9
BRANCH   8  11
ATOM     11  C   LIG d   1       0.870  84.836 112.862  0.00  0.00     0.028 C 
ATOM     12  C   LIG d   1       0.341  84.695 114.298  0.00  0.00     0.006 C 
ENDBRANCH   8  11
ENDBRANCH   7   8
ENDBRANCH   1   7
BRANCH   6  13
ATOM     13  N   LIG d   1      -0.508  81.514 112.534  0.00  0.00    -0.311 N 
ATOM     14  C   LIG d   1      -1.771  81.446 112.951  0.00  0.00     0.210 C 
ATOM     15  C   LIG d   1      -1.945  81.326 114.468  0.00  0.00     0.109 C 
ATOM     16  O   LIG d   1      -2.762  81.441 112.206  0.00  0.00    -0.276 OA
ATOM     17  H   LIG d   1       0.236  81.479 113.203  0.00  0.00     0.149 HD
ENDBRANCH   6  13
BRANCH   5  18
ATOM     18  N   LIG d   1       0.165  79.185 110.675  0.00  0.00     0.381 N 
ATOM     19  H   LIG d   1      -0.658  79.225 111.241  0.00  0.00    -0.090 HD
ATOM     20  H   LIG d   1       0.803  78.529 111.091  0.00  0.00    -0.090 HD
ATOM     21  H   LIG d   1      -0.071  78.890 109.753  0.00  0.00    -0.090 HD
ENDBRANCH   5  18
BRANCH   3  22
ATOM     22  C   LIG d   1       2.679  82.249 107.986  0.00  0.00     0.382 C 
ATOM     23  O   LIG d   1       3.889  82.018 108.222  0.00  0.00    -0.241 OA
ATOM     24  O   LIG d   1       2.344  82.683 106.867  0.00  0.00    -0.241 OA
ENDBRANCH   3  22
TORSDOF 7
ENDMDL
MODEL 5
REMARK VINA RESULT:      -5.7      1.700      2.460
REMARK  7 active torsions:
REMARK  status: ('A' for Active; 'I' for Inactive)
REMARK    1  A    between atoms: C_2  and  C_3 
REMARK    2  A    between atoms: C_3  and  O_6 
REMARK    3  A    between atoms: C_3  and  C_4 
REMARK    4  A    between atoms: C_7  and  O_6 
REMARK    5  A    between atoms: C_9  and  C_10 
REMARK    6  A    between atoms: N_15  and  C_14 
REMARK    7  A    between atoms: N_20  and  C_19 
REMARK       I    between atoms: C_22  and  N_20 
ROOT
ATOM      1  C   LIG d   1       0.257  82.612 111.864  0.00  0.00     0.161 C 
ATOM      2  C   LIG d   1      -0.956  82.159 112.410  0.00  0.00     0.016 C 
ATOM      3  C   LIG d   1      -1.446  80.844 112.233  0.00  0.00     0.038 C 
ATOM      4  C   LIG d   1      -0.677  79.843 111.620  0.00  0.00     0.028 C 
ATOM      5  C   LIG d   1       0.333  80.385 110.614  0.00  0.00    -0.047 C 
ATOM      6  C   LIG d   1       1.161  81.503 111.287  0.00  0.00     0.091 C 
ENDROOT
BRANCH   1   7
ATOM      7  O   LIG d   1       0.975  83.384 112.846  0.00  0.00    -0.368 OA
BRANCH   7   8
ATOM      8  C   LIG d   1       0.284  83.628 114.096  0.00  0.00     0.119 C 
BRANCH   8   9
ATOM      9  C   LIG d   1       0.228  85.154 114.304  0.00  0.00     0.028 C 
ATOM     10  C   LIG d   1       1.459  85.871 113.724  0.00  0.00     0.006 C 
ENDBRANCH   8   9
BRANCH   8  11
ATOM     11  C   LIG d   1       1.079  83.086 115.287  0.00  0.00     0.028 C 
ATOM     12  C   LIG d   1       0.178  82.594 116.431  0.00  0.00     0.006 C 
ENDBRANCH   8  11
ENDBRANCH   7   8
ENDBRANCH   1   7
BRANCH   6  13
ATOM     13  N   LIG d   1       2.116  82.145 110.347  0.00  0.00    -0.311 N 
ATOM     14  C   LIG d   1       3.401  81.806 110.262  0.00  0.00     0.210 C 
ATOM     15  C   LIG d   1       4.215  82.607 109.241  0.00  0.00     0.109 C 
ATOM     16  O   LIG d   1       3.937  80.896 110.913  0.00  0.00    -0.276 OA
ATOM     17  H   LIG d   1       1.758  82.872 109.759  0.00  0.00     0.149 HD
ENDBRANCH   6  13
BRANCH   5  18
ATOM     18  N   LIG d   1       1.157  79.250 110.156  0.00  0.00     0.381 N 
ATOM     19  H   LIG d   1       1.722  78.916 110.910  0.00  0.00    -0.090 HD
ATOM     20  H   LIG d   1       1.766  79.567 109.422  0.00  0.00    -0.090 HD
ATOM     21  H   LIG d   1       0.572  78.518 109.819  0.00  0.00    -0.090 HD
ENDBRANCH   5  18
BRANCH   3  22
ATOM     22  C   LIG d   1      -2.735  80.531 112.636  0.00  0.00     0.382 C 
ATOM     23  O   LIG d   1      -3.084  79.330 112.742  0.00  0.00    -0.241 OA
ATOM     24  O   LIG d   1      -3.566  81.433 112.853  0.00  0.00    -0.241 OA
ENDBRANCH   3  22
TORSDOF 7
ENDMDL
MODEL 6
REMARK VINA RESULT:      -5.5      2.245      3.907
REMARK  7 active torsions:
REMARK  status: ('A' for Active; 'I' for Inactive)
REMARK    1  A    between atoms: C_2  and  C_3 
REMARK    2  A    between atoms: C_3  and  O_6 
REMARK    3  A    between atoms: C_3  and  C_4 
REMARK    4  A    between atoms: C_7  and  O_6 
REMARK    5  A    between atoms: C_9  and  C_10 
REMARK    6  A    between atoms: N_15  and  C_14 
REMARK    7  A    between atoms: N_20  and  C_19 
REMARK       I    between atoms: C_22  and  N_20 
ROOT
ATOM      1  C   LIG d   1       1.953  82.022 111.936  0.00  0.00     0.161 C 
ATOM      2  C   LIG d   1       0.871  81.153 112.154  0.00  0.00     0.016 C 
ATOM      3  C   LIG d   1      -0.441  81.599 112.434  0.00  0.00     0.038 C 
ATOM      4  C   LIG d   1      -0.794  82.954 112.365  0.00  0.00     0.028 C 
ATOM      5  C   LIG d   1       0.370  83.898 112.646  0.00  0.00    -0.047 C 
ATOM      6  C   LIG d   1       1.564  83.503 111.747  0.00  0.00     0.091 C 
ENDROOT
BRANCH   1   7
ATOM      7  O   LIG d   1       2.731  81.561 110.813  0.00  0.00    -0.368 OA
BRANCH   7   8
ATOM      8  C   LIG d   1       2.248  81.944 109.502  0.00  0.00     0.119 C 
BRANCH   8   9
ATOM      9  C   LIG d   1       1.903  80.650 108.740  0.00  0.00     0.028 C 
ATOM     10  C   LIG d   1       2.576  79.410 109.353  0.00  0.00     0.006 C 
ENDBRANCH   8   9
BRANCH   8  11
ATOM     11  C   LIG d   1       3.348  82.619 108.679  0.00  0.00     0.028 C 
ATOM     12  C   LIG d   1       4.699  82.662 109.410  0.00  0.00     0.006 C 
ENDBRANCH   8  11
ENDBRANCH   7   8
ENDBRANCH   1   7
BRANCH   6  13
ATOM     13  N   LIG d   1       2.774  84.323 112.017  0.00  0.00    -0.311 N 
ATOM     14  C   LIG d   1       3.078  85.427 111.337  0.00  0.00     0.210 C 
ATOM     15  C   LIG d   1       4.380  86.111 111.764  0.00  0.00     0.109 C 
ATOM     16  O   LIG d   1       2.376  85.923 110.443  0.00  0.00    -0.276 OA
ATOM     17  H   LIG d   1       3.383  84.010 112.748  0.00  0.00     0.149 HD
ENDBRANCH   6  13
BRANCH   5  18
ATOM     18  N   LIG d   1      -0.104  85.274 112.405  0.00  0.00     0.381 N 
ATOM     19  H   LIG d   1      -0.914  85.256 111.818  0.00  0.00    -0.090 HD
ATOM     20  H   LIG d   1       0.618  85.789 111.931  0.00  0.00    -0.090 HD
ATOM     21  H   LIG d   1      -0.322  85.716 113.271  0.00  0.00    -0.090 HD
ENDBRANCH   5  18
BRANCH   3  22
ATOM     22  C   LIG d   1      -1.408  80.686 112.827  0.00  0.00     0.382 C 
ATOM     23  O   LIG d   1      -2.002  79.992 111.967  0.00  0.00    -0.241 OA
ATOM     24  O   LIG d   1      -1.725  80.579 114.027  0.00  0.00    -0.241 OA
ENDBRANCH   3  22
TORSDOF 7
ENDMDL
MODEL 7
REMARK VINA RESULT:      -5.5      2.978      5.064
REMARK  7 active torsions:
REMARK  status: ('A' for Active; 'I' for Inactive)
REMARK    1  A    between atoms: C_2  and  C_3 
REMARK    2  A    between atoms: C_3  and  O_6 
REMARK    3  A    between atoms: C_3  and  C_4 
REMARK    4  A    between atoms: C_7  and  O_6 
REMARK    5  A    between atoms: C_9  and  C_10 
REMARK    6  A    between atoms: N_15  and  C_14 
REMARK    7  A    between atoms: N_20  and  C_19 
REMARK       I    between atoms: C_22  and  N_20 
ROOT
ATOM      1  C   LIG d   1       0.332  82.744 111.783  0.00  0.00     0.161 C 
ATOM      2  C   LIG d   1      -0.080  83.800 110.952  0.00  0.00     0.016 C 
ATOM      3  C   LIG d   1      -0.262  85.125 111.409  0.00  0.00     0.038 C 
ATOM      4  C   LIG d   1       0.103  85.519 112.705  0.00  0.00     0.028 C 
ATOM      5  C   LIG d   1       0.045  84.383 113.722  0.00  0.00    -0.047 C 
ATOM      6  C   LIG d   1       0.841  83.177 113.173  0.00  0.00     0.091 C 
ENDROOT
BRANCH   1   7
ATOM      7  O   LIG d   1       1.329  81.951 111.108  0.00  0.00    -0.368 OA
BRANCH   7   8
ATOM      8  C   LIG d   1       1.872  82.514 109.889  0.00  0.00     0.119 C 
BRANCH   8   9
ATOM      9  C   LIG d   1       1.877  81.397 108.826  0.00  0.00     0.028 C 
ATOM     10  C   LIG d   1       0.861  80.286 109.138  0.00  0.00     0.006 C 
ENDBRANCH   8   9
BRANCH   8  11
ATOM     11  C   LIG d   1       3.340  82.913 110.065  0.00  0.00     0.028 C 
ATOM     12  C   LIG d   1       4.252  82.326 108.975  0.00  0.00     0.006 C 
ENDBRANCH   8  11
ENDBRANCH   7   8
ENDBRANCH   1   7
BRANCH   6  13
ATOM     13  N   LIG d   1       0.765  81.994 114.069  0.00  0.00    -0.311 N 
ATOM     14  C   LIG d   1       1.659  81.737 115.022  0.00  0.00     0.210 C 
ATOM     15  C   LIG d   1       1.405  80.453 115.818  0.00  0.00     0.109 C 
ATOM     16  O   LIG d   1       2.620  82.468 115.306  0.00  0.00    -0.276 OA
ATOM     17  H   LIG d   1      -0.001  81.364 113.929  0.00  0.00     0.149 HD
ENDBRANCH   6  13
BRANCH   5  18
ATOM     18  N   LIG d   1       0.581  84.898 114.996  0.00  0.00     0.381 N 
ATOM     19  H   LIG d   1       0.393  85.878 115.071  0.00  0.00    -0.090 HD
ATOM     20  H   LIG d   1       1.577  84.766 115.007  0.00  0.00    -0.090 HD
ATOM     21  H   LIG d   1       0.165  84.414 115.761  0.00  0.00    -0.090 HD
ENDBRANCH   5  18
BRANCH   3  22
ATOM     22  C   LIG d   1      -0.853  86.064 110.577  0.00  0.00     0.382 C 
ATOM     23  O   LIG d   1      -1.312  87.128 111.059  0.00  0.00    -0.241 OA
ATOM     24  O   LIG d   1      -0.971  85.842 109.358  0.00  0.00    -0.241 OA
ENDBRANCH   3  22
TORSDOF 7
ENDMDL
MODEL 8
REMARK VINA RESULT:      -5.4      2.417      4.019
REMARK  7 active torsions:
REMARK  status: ('A' for Active; 'I' for Inactive)
REMARK    1  A    between atoms: C_2  and  C_3 
REMARK    2  A    between atoms: C_3  and  O_6 
REMARK    3  A    between atoms: C_3  and  C_4 
REMARK    4  A    between atoms: C_7  and  O_6 
REMARK    5  A    between atoms: C_9  and  C_10 
REMARK    6  A    between atoms: N_15  and  C_14 
REMARK    7  A    between atoms: N_20  and  C_19 
REMARK       I    between atoms: C_22  and  N_20 
ROOT
ATOM      1  C   LIG d   1       0.075  81.684 111.938  0.00  0.00     0.161 C 
ATOM      2  C   LIG d   1      -0.537  80.434 111.753  0.00  0.00     0.016 C 
ATOM      3  C   LIG d   1      -1.596  79.959 112.561  0.00  0.00     0.038 C 
ATOM      4  C   LIG d   1      -2.219  80.772 113.519  0.00  0.00     0.028 C 
ATOM      5  C   LIG d   1      -1.305  81.856 114.081  0.00  0.00    -0.047 C 
ATOM      6  C   LIG d   1      -0.665  82.630 112.907  0.00  0.00     0.091 C 
ENDROOT
BRANCH   1   7
ATOM      7  O   LIG d   1       0.270  82.326 110.662  0.00  0.00    -0.368 OA
BRANCH   7   8
ATOM      8  C   LIG d   1       1.630  82.352 110.163  0.00  0.00     0.119 C 
BRANCH   8   9
ATOM      9  C   LIG d   1       1.974  83.817 109.831  0.00  0.00     0.028 C 
ATOM     10  C   LIG d   1       0.721  84.668 109.565  0.00  0.00     0.006 C 
ENDBRANCH   8   9
BRANCH   8  11
ATOM     11  C   LIG d   1       1.750  81.597 108.835  0.00  0.00     0.028 C 
ATOM     12  C   LIG d   1       2.930  82.082 107.979  0.00  0.00     0.006 C 
ENDBRANCH   8  11
ENDBRANCH   7   8
ENDBRANCH   1   7
BRANCH   6  13
ATOM     13  N   LIG d   1       0.309  83.654 113.367  0.00  0.00    -0.311 N 
ATOM     14  C   LIG d   1       0.140  84.962 113.183  0.00  0.00     0.210 C 
ATOM     15  C   LIG d   1       1.273  85.843 113.717  0.00  0.00     0.109 C 
ATOM     16  O   LIG d   1      -0.857  85.479 112.655  0.00  0.00    -0.276 OA
ATOM     17  H   LIG d   1       1.132  83.324 113.833  0.00  0.00     0.149 HD
ENDBRANCH   6  13
BRANCH   5  18
ATOM     18  N   LIG d   1      -2.120  82.713 114.963  0.00  0.00     0.381 N 
ATOM     19  H   LIG d   1      -2.040  83.668 114.676  0.00  0.00    -0.090 HD
ATOM     20  H   LIG d   1      -1.773  82.635 115.903  0.00  0.00    -0.090 HD
ATOM     21  H   LIG d   1      -3.074  82.427 114.929  0.00  0.00    -0.090 HD
ENDBRANCH   5  18
BRANCH   3  22
ATOM     22  C   LIG d   1      -2.015  78.643 112.440  0.00  0.00     0.382 C 
ATOM     23  O   LIG d   1      -1.266  77.709 112.815  0.00  0.00    -0.241 OA
ATOM     24  O   LIG d   1      -3.116  78.376 111.921  0.00  0.00    -0.241 OA
ENDBRANCH   3  22
TORSDOF 7
ENDMDL
MODEL 9
REMARK VINA RESULT:      -5.4      2.570      3.953
REMARK  7 active torsions:
REMARK  status: ('A' for Active; 'I' for Inactive)
REMARK    1  A    between atoms: C_2  and  C_3 
REMARK    2  A    between atoms: C_3  and  O_6 
REMARK    3  A    between atoms: C_3  and  C_4 
REMARK    4  A    between atoms: C_7  and  O_6 
REMARK    5  A    between atoms: C_9  and  C_10 
REMARK    6  A    between atoms: N_15  and  C_14 
REMARK    7  A    between atoms: N_20  and  C_19 
REMARK       I    between atoms: C_22  and  N_20 
ROOT
ATOM      1  C   LIG d   1       0.727  82.700 112.014  0.00  0.00     0.161 C 
ATOM      2  C   LIG d   1      -0.429  81.960 111.711  0.00  0.00     0.016 C 
ATOM      3  C   LIG d   1      -1.414  81.628 112.669  0.00  0.00     0.038 C 
ATOM      4  C   LIG d   1      -1.384  82.146 113.973  0.00  0.00     0.028 C 
ATOM      5  C   LIG d   1       0.021  82.480 114.460  0.00  0.00    -0.047 C 
ATOM      6  C   LIG d   1       0.721  83.367 113.405  0.00  0.00     0.091 C 
ENDROOT
BRANCH   1   7
ATOM      7  O   LIG d   1       0.960  83.684 110.987  0.00  0.00    -0.368 OA
BRANCH   7   8
ATOM      8  C   LIG d   1       2.097  83.443 110.121  0.00  0.00     0.119 C 
BRANCH   8   9
ATOM      9  C   LIG d   1       3.142  84.537 110.415  0.00  0.00     0.028 C 
ATOM     10  C   LIG d   1       4.448  83.962 110.987  0.00  0.00     0.006 C 
ENDBRANCH   8   9
BRANCH   8  11
ATOM     11  C   LIG d   1       1.723  83.625 108.647  0.00  0.00     0.028 C 
ATOM     12  C   LIG d   1       2.173  82.448 107.768  0.00  0.00     0.006 C 
ENDBRANCH   8  11
ENDBRANCH   7   8
ENDBRANCH   1   7
BRANCH   6  13
ATOM     13  N   LIG d   1       2.131  83.671 113.764  0.00  0.00    -0.311 N 
ATOM     14  C   LIG d   1       2.506  84.793 114.376  0.00  0.00     0.210 C 
ATOM     15  C   LIG d   1       4.011  84.915 114.636  0.00  0.00     0.109 C 
ATOM     16  O   LIG d   1       1.732  85.684 114.756  0.00  0.00    -0.276 OA
ATOM     17  H   LIG d   1       2.821  82.988 113.520  0.00  0.00     0.149 HD
ENDBRANCH   6  13
BRANCH   5  18
ATOM     18  N   LIG d   1      -0.107  83.137 115.775  0.00  0.00     0.381 N 
ATOM     19  H   LIG d   1      -1.031  83.505 115.881  0.00  0.00    -0.090 HD
ATOM     20  H   LIG d   1       0.544  83.901 115.821  0.00  0.00    -0.090 HD
ATOM     21  H   LIG d   1       0.084  82.484 116.502  0.00  0.00    -0.090 HD
ENDBRANCH   5  18
BRANCH   3  22
ATOM     22  C   LIG d   1      -2.422  80.736 112.338  0.00  0.00     0.382 C 
ATOM     23  O   LIG d   1      -3.620  81.112 112.348  0.00  0.00    -0.241 OA
ATOM     24  O   LIG d   1      -2.154  79.550 112.071  0.00  0.00    -0.241 OA
ENDBRANCH   3  22
TORSDOF 7
ENDMDL
