MODEL 1
REMARK VINA RESULT:      -6.8      0.000      0.000
REMARK  7 active torsions:
REMARK  status: ('A' for Active; 'I' for Inactive)
REMARK    1  A    between atoms: C_2  and  C_3 
REMARK    2  A    between atoms: C_3  and  O_6 
REMARK    3  A    between atoms: C_3  and  C_4 
REMARK    4  A    between atoms: C_7  and  O_6 
REMARK    5  A    between atoms: C_9  and  C_10 
REMARK    6  A    between atoms: N_15  and  C_14 
REMARK    7  A    between atoms: N_20  and  C_19 
REMARK       I    between atoms: C_22  and  N_20 
ROOT
ATOM      1  C   LIG d   1       0.260  82.947 111.196  0.00  0.00     0.161 C 
ATOM      2  C   LIG d   1      -0.903  82.606 111.907  0.00  0.00     0.016 C 
ATOM      3  C   LIG d   1      -1.328  81.273 112.110  0.00  0.00     0.038 C 
ATOM      4  C   LIG d   1      -0.534  80.177 111.742  0.00  0.00     0.028 C 
ATOM      5  C   LIG d   1       0.403  80.473 110.575  0.00  0.00    -0.047 C 
ATOM      6  C   LIG d   1       1.198  81.762 110.884  0.00  0.00     0.091 C 
ENDROOT
BRANCH   1   7
ATOM      7  O   LIG d   1       0.977  83.981 111.900  0.00  0.00    -0.368 OA
BRANCH   7   8
ATOM      8  C   LIG d   1       0.948  85.299 111.298  0.00  0.00     0.119 C 
BRANCH   8   9
ATOM      9  C   LIG d   1      -0.024  85.241 110.104  0.00  0.00     0.028 C 
ATOM     10  C   LIG d   1       0.620  85.735 108.798  0.00  0.00     0.006 C 
ENDBRANCH   8   9
BRANCH   8  11
ATOM     11  C   LIG d   1       2.308  85.667 110.696  0.00  0.00     0.028 C 
ATOM     12  C   LIG d   1       3.489  85.117 111.511  0.00  0.00     0.006 C 
ENDBRANCH   8  11
ENDBRANCH   7   8
ENDBRANCH   1   7
BRANCH   6  13
ATOM     13  N   LIG d   1       2.077  82.170 109.757  0.00  0.00    -0.311 N 
ATOM     14  C   LIG d   1       3.376  81.881 109.699  0.00  0.00     0.210 C 
ATOM     15  C   LIG d   1       4.102  82.413 108.460  0.00  0.00     0.109 C 
ATOM     16  O   LIG d   1       3.989  81.208 110.542  0.00  0.00    -0.276 OA
ATOM     17  H   LIG d   1       1.655  82.693 109.015  0.00  0.00     0.149 HD
ENDBRANCH   6  13
BRANCH   5  18
ATOM     18  N   LIG d   1       1.267  79.292 110.387  0.00  0.00     0.381 N 
ATOM     19  H   LIG d   1       0.883  78.701 109.677  0.00  0.00    -0.090 HD
ATOM     20  H   LIG d   1       1.299  78.772 111.246  0.00  0.00    -0.090 HD
ATOM     21  H   LIG d   1       2.186  79.579 110.130  0.00  0.00    -0.090 HD
ENDBRANCH   5  18
BRANCH   3  22
ATOM     22  C   LIG d   1      -2.581  81.027 112.651  0.00  0.00     0.382 C 
ATOM     23  O   LIG d   1      -2.751  80.048 113.417  0.00  0.00    -0.241 OA
ATOM     24  O   LIG d   1      -3.553  81.744 112.347  0.00  0.00    -0.241 OA
ENDBRANCH   3  22
TORSDOF 7
ENDMDL
MODEL 2
REMARK VINA RESULT:      -6.3      2.498      4.250
REMARK  7 active torsions:
REMARK  status: ('A' for Active; 'I' for Inactive)
REMARK    1  A    between atoms: C_2  and  C_3 
REMARK    2  A    between atoms: C_3  and  O_6 
REMARK    3  A    between atoms: C_3  and  C_4 
REMARK    4  A    between atoms: C_7  and  O_6 
REMARK    5  A    between atoms: C_9  and  C_10 
REMARK    6  A    between atoms: N_15  and  C_14 
REMARK    7  A    between atoms: N_20  and  C_19 
REMARK       I    between atoms: C_22  and  N_20 
ROOT
ATOM      1  C   LIG d   1       1.616  82.522 110.292  0.00  0.00     0.161 C 
ATOM      2  C   LIG d   1       1.729  81.451 109.389  0.00  0.00     0.016 C 
ATOM      3  C   LIG d   1       1.547  80.099 109.759  0.00  0.00     0.038 C 
ATOM      4  C   LIG d   1       1.087  79.734 111.034  0.00  0.00     0.028 C 
ATOM      5  C   LIG d   1       1.447  80.743 112.119  0.00  0.00    -0.047 C 
ATOM      6  C   LIG d   1       1.006  82.152 111.660  0.00  0.00     0.091 C 
ENDROOT
BRANCH   1   7
ATOM      7  O   LIG d   1       0.870  83.595 109.685  0.00  0.00    -0.368 OA
BRANCH   7   8
ATOM      8  C   LIG d   1       1.645  84.734 109.235  0.00  0.00     0.119 C 
BRANCH   8   9
ATOM      9  C   LIG d   1       2.979  84.720 110.006  0.00  0.00     0.028 C 
ATOM     10  C   LIG d   1       3.138  85.940 110.928  0.00  0.00     0.006 C 
ENDBRANCH   8   9
BRANCH   8  11
ATOM     11  C   LIG d   1       0.969  86.054 109.619  0.00  0.00     0.028 C 
ATOM     12  C   LIG d   1      -0.559  85.932 109.725  0.00  0.00     0.006 C 
ENDBRANCH   8  11
ENDBRANCH   7   8
ENDBRANCH   1   7
BRANCH   6  13
ATOM     13  N   LIG d   1       1.396  83.211 112.627  0.00  0.00    -0.311 N 
ATOM     14  C   LIG d   1       0.582  84.195 113.005  0.00  0.00     0.210 C 
ATOM     15  C   LIG d   1       1.190  85.193 113.995  0.00  0.00     0.109 C 
ATOM     16  O   LIG d   1      -0.597  84.318 112.639  0.00  0.00    -0.276 OA
ATOM     17  H   LIG d   1       2.325  83.170 112.998  0.00  0.00     0.149 HD
ENDBRANCH   6  13
BRANCH   5  18
ATOM     18  N   LIG d   1       0.790  80.309 113.366  0.00  0.00     0.381 N 
ATOM     19  H   LIG d   1       0.303  81.080 113.778  0.00  0.00    -0.090 HD
ATOM     20  H   LIG d   1       1.493  79.999 114.013  0.00  0.00    -0.090 HD
ATOM     21  H   LIG d   1       0.153  79.568 113.176  0.00  0.00    -0.090 HD
ENDBRANCH   5  18
BRANCH   3  22
ATOM     22  C   LIG d   1       1.864  79.091 108.861  0.00  0.00     0.382 C 
ATOM     23  O   LIG d   1       2.601  78.141 109.219  0.00  0.00    -0.241 OA
ATOM     24  O   LIG d   1       1.459  79.144 107.684  0.00  0.00    -0.241 OA
ENDBRANCH   3  22
TORSDOF 7
ENDMDL
MODEL 3
REMARK VINA RESULT:      -6.3      2.334      4.261
REMARK  7 active torsions:
REMARK  status: ('A' for Active; 'I' for Inactive)
REMARK    1  A    between atoms: C_2  and  C_3 
REMARK    2  A    between atoms: C_3  and  O_6 
REMARK    3  A    between atoms: C_3  and  C_4 
REMARK    4  A    between atoms: C_7  and  O_6 
REMARK    5  A    between atoms: C_9  and  C_10 
REMARK    6  A    between atoms: N_15  and  C_14 
REMARK    7  A    between atoms: N_20  and  C_19 
REMARK       I    between atoms: C_22  and  N_20 
ROOT
ATOM      1  C   LIG d   1       1.921  82.932 112.265  0.00  0.00     0.161 C 
ATOM      2  C   LIG d   1       0.835  82.046 112.171  0.00  0.00     0.016 C 
ATOM      3  C   LIG d   1      -0.502  82.470 111.995  0.00  0.00     0.038 C 
ATOM      4  C   LIG d   1      -0.828  83.812 111.749  0.00  0.00     0.028 C 
ATOM      5  C   LIG d   1       0.176  84.797 112.338  0.00  0.00    -0.047 C 
ATOM      6  C   LIG d   1       1.599  84.393 111.888  0.00  0.00     0.091 C 
ENDROOT
BRANCH   1   7
ATOM      7  O   LIG d   1       3.022  82.442 111.475  0.00  0.00    -0.368 OA
BRANCH   7   8
ATOM      8  C   LIG d   1       2.670  81.719 110.270  0.00  0.00     0.119 C 
BRANCH   8   9
ATOM      9  C   LIG d   1       3.564  80.465 110.203  0.00  0.00     0.028 C 
ATOM     10  C   LIG d   1       2.806  79.231 109.685  0.00  0.00     0.006 C 
ENDBRANCH   8   9
BRANCH   8  11
ATOM     11  C   LIG d   1       3.011  82.528 109.015  0.00  0.00     0.028 C 
ATOM     12  C   LIG d   1       1.827  83.363 108.503  0.00  0.00     0.006 C 
ENDBRANCH   8  11
ENDBRANCH   7   8
ENDBRANCH   1   7
BRANCH   6  13
ATOM     13  N   LIG d   1       2.650  85.255 112.488  0.00  0.00    -0.311 N 
ATOM     14  C   LIG d   1       3.080  86.384 111.928  0.00  0.00     0.210 C 
ATOM     15  C   LIG d   1       4.183  87.111 112.703  0.00  0.00     0.109 C 
ATOM     16  O   LIG d   1       2.630  86.870 110.879  0.00  0.00    -0.276 OA
ATOM     17  H   LIG d   1       3.048  84.952 113.356  0.00  0.00     0.149 HD
ENDBRANCH   6  13
BRANCH   5  18
ATOM     18  N   LIG d   1      -0.210  86.148 111.889  0.00  0.00     0.381 N 
ATOM     19  H   LIG d   1      -0.292  86.757 112.680  0.00  0.00    -0.090 HD
ATOM     20  H   LIG d   1      -1.105  86.097 111.436  0.00  0.00    -0.090 HD
ATOM     21  H   LIG d   1       0.471  86.505 111.256  0.00  0.00    -0.090 HD
ENDBRANCH   5  18
BRANCH   3  22
ATOM     22  C   LIG d   1      -1.534  81.551 112.105  0.00  0.00     0.382 C 
ATOM     23  O   LIG d   1      -1.334  80.346 111.816  0.00  0.00    -0.241 OA
ATOM     24  O   LIG d   1      -2.674  81.919 112.446  0.00  0.00    -0.241 OA
ENDBRANCH   3  22
TORSDOF 7
ENDMDL
MODEL 4
REMARK VINA RESULT:      -5.5      3.332      5.581
REMARK  7 active torsions:
REMARK  status: ('A' for Active; 'I' for Inactive)
REMARK    1  A    between atoms: C_2  and  C_3 
REMARK    2  A    between atoms: C_3  and  O_6 
REMARK    3  A    between atoms: C_3  and  C_4 
REMARK    4  A    between atoms: C_7  and  O_6 
REMARK    5  A    between atoms: C_9  and  C_10 
REMARK    6  A    between atoms: N_15  and  C_14 
REMARK    7  A    between atoms: N_20  and  C_19 
REMARK       I    between atoms: C_22  and  N_20 
ROOT
ATOM      1  C   LIG d   1       2.424  83.689 111.683  0.00  0.00     0.161 C 
ATOM      2  C   LIG d   1       1.454  84.073 110.742  0.00  0.00     0.016 C 
ATOM      3  C   LIG d   1       1.208  85.418 110.383  0.00  0.00     0.038 C 
ATOM      4  C   LIG d   1       2.024  86.467 110.832  0.00  0.00     0.028 C 
ATOM      5  C   LIG d   1       2.693  86.183 112.173  0.00  0.00    -0.047 C 
ATOM      6  C   LIG d   1       3.399  84.810 112.100  0.00  0.00     0.091 C 
ENDROOT
BRANCH   1   7
ATOM      7  O   LIG d   1       3.154  82.547 111.194  0.00  0.00    -0.368 OA
BRANCH   7   8
ATOM      8  C   LIG d   1       2.516  81.787 110.138  0.00  0.00     0.119 C 
BRANCH   8   9
ATOM      9  C   LIG d   1       2.300  80.355 110.663  0.00  0.00     0.028 C 
ATOM     10  C   LIG d   1       2.953  79.294 109.761  0.00  0.00     0.006 C 
ENDBRANCH   8   9
BRANCH   8  11
ATOM     11  C   LIG d   1       3.437  81.640 108.924  0.00  0.00     0.028 C 
ATOM     12  C   LIG d   1       4.485  82.759 108.831  0.00  0.00     0.006 C 
ENDBRANCH   8  11
ENDBRANCH   7   8
ENDBRANCH   1   7
BRANCH   6  13
ATOM     13  N   LIG d   1       4.008  84.417 113.398  0.00  0.00    -0.311 N 
ATOM     14  C   LIG d   1       3.310  84.280 114.524  0.00  0.00     0.210 C 
ATOM     15  C   LIG d   1       4.135  83.887 115.753  0.00  0.00     0.109 C 
ATOM     16  O   LIG d   1       2.080  84.416 114.614  0.00  0.00    -0.276 OA
ATOM     17  H   LIG d   1       4.996  84.256 113.408  0.00  0.00     0.149 HD
ENDBRANCH   6  13
BRANCH   5  18
ATOM     18  N   LIG d   1       3.619  87.296 112.453  0.00  0.00     0.381 N 
ATOM     19  H   LIG d   1       4.494  86.935 112.777  0.00  0.00    -0.090 HD
ATOM     20  H   LIG d   1       3.227  87.870 113.179  0.00  0.00    -0.090 HD
ATOM     21  H   LIG d   1       3.760  87.839 111.630  0.00  0.00    -0.090 HD
ENDBRANCH   5  18
BRANCH   3  22
ATOM     22  C   LIG d   1       0.109  85.729 109.596  0.00  0.00     0.382 C 
ATOM     23  O   LIG d   1      -1.042  85.714 110.094  0.00  0.00    -0.241 OA
ATOM     24  O   LIG d   1       0.251  85.981 108.385  0.00  0.00    -0.241 OA
ENDBRANCH   3  22
TORSDOF 7
ENDMDL
MODEL 5
REMARK VINA RESULT:      -4.7      6.759     10.250
REMARK  7 active torsions:
REMARK  status: ('A' for Active; 'I' for Inactive)
REMARK    1  A    between atoms: C_2  and  C_3 
REMARK    2  A    between atoms: C_3  and  O_6 
REMARK    3  A    between atoms: C_3  and  C_4 
REMARK    4  A    between atoms: C_7  and  O_6 
REMARK    5  A    between atoms: C_9  and  C_10 
REMARK    6  A    between atoms: N_15  and  C_14 
REMARK    7  A    between atoms: N_20  and  C_19 
REMARK       I    between atoms: C_22  and  N_20 
ROOT
ATOM      1  C   LIG d   1      -4.246  76.314 114.422  0.00  0.00     0.161 C 
ATOM      2  C   LIG d   1      -3.317  77.302 114.058  0.00  0.00     0.016 C 
ATOM      3  C   LIG d   1      -1.953  77.263 114.431  0.00  0.00     0.038 C 
ATOM      4  C   LIG d   1      -1.391  76.148 115.070  0.00  0.00     0.028 C 
ATOM      5  C   LIG d   1      -2.395  75.356 115.901  0.00  0.00    -0.047 C 
ATOM      6  C   LIG d   1      -3.628  75.035 115.025  0.00  0.00     0.091 C 
ENDROOT
BRANCH   1   7
ATOM      7  O   LIG d   1      -5.077  75.984 113.292  0.00  0.00    -0.368 OA
BRANCH   7   8
ATOM      8  C   LIG d   1      -6.505  75.959 113.536  0.00  0.00     0.119 C 
BRANCH   8   9
ATOM      9  C   LIG d   1      -7.184  76.727 112.385  0.00  0.00     0.028 C 
ATOM     10  C   LIG d   1      -6.278  76.855 111.149  0.00  0.00     0.006 C 
ENDBRANCH   8   9
BRANCH   8  11
ATOM     11  C   LIG d   1      -6.866  76.731 114.808  0.00  0.00     0.028 C 
ATOM     12  C   LIG d   1      -7.914  76.005 115.668  0.00  0.00     0.006 C 
ENDBRANCH   8  11
ENDBRANCH   7   8
ENDBRANCH   1   7
BRANCH   6  13
ATOM     13  N   LIG d   1      -4.696  74.334 115.785  0.00  0.00    -0.311 N 
ATOM     14  C   LIG d   1      -5.291  73.222 115.356  0.00  0.00     0.210 C 
ATOM     15  C   LIG d   1      -6.380  72.673 116.283  0.00  0.00     0.109 C 
ATOM     16  O   LIG d   1      -4.998  72.621 114.311  0.00  0.00    -0.276 OA
ATOM     17  H   LIG d   1      -4.973  74.736 116.658  0.00  0.00     0.149 HD
ENDBRANCH   6  13
BRANCH   5  18
ATOM     18  N   LIG d   1      -1.708  74.148 116.397  0.00  0.00     0.381 N 
ATOM     19  H   LIG d   1      -0.718  74.272 116.335  0.00  0.00    -0.090 HD
ATOM     20  H   LIG d   1      -1.965  73.367 115.819  0.00  0.00    -0.090 HD
ATOM     21  H   LIG d   1      -1.969  73.972 117.342  0.00  0.00    -0.090 HD
ENDBRANCH   5  18
BRANCH   3  22
ATOM     22  C   LIG d   1      -1.146  78.366 114.199  0.00  0.00     0.382 C 
ATOM     23  O   LIG d   1      -0.453  78.843 115.131  0.00  0.00    -0.241 OA
ATOM     24  O   LIG d   1      -1.135  78.918 113.083  0.00  0.00    -0.241 OA
ENDBRANCH   3  22
TORSDOF 7
ENDMDL
MODEL 6
REMARK VINA RESULT:      -4.5     10.943     13.419
REMARK  7 active torsions:
REMARK  status: ('A' for Active; 'I' for Inactive)
REMARK    1  A    between atoms: C_2  and  C_3 
REMARK    2  A    between atoms: C_3  and  O_6 
REMARK    3  A    between atoms: C_3  and  C_4 
REMARK    4  A    between atoms: C_7  and  O_6 
REMARK    5  A    between atoms: C_9  and  C_10 
REMARK    6  A    between atoms: N_15  and  C_14 
REMARK    7  A    between atoms: N_20  and  C_19 
REMARK       I    between atoms: C_22  and  N_20 
ROOT
ATOM      1  C   LIG d   1      13.290  79.396 114.766  0.00  0.00     0.161 C 
ATOM      2  C   LIG d   1      12.208  79.901 115.506  0.00  0.00     0.016 C 
ATOM      3  C   LIG d   1      11.051  80.454 114.913  0.00  0.00     0.038 C 
ATOM      4  C   LIG d   1      10.830  80.403 113.529  0.00  0.00     0.028 C 
ATOM      5  C   LIG d   1      12.116  80.360 112.711  0.00  0.00    -0.047 C 
ATOM      6  C   LIG d   1      13.019  79.230 113.256  0.00  0.00     0.091 C 
ENDROOT
BRANCH   1   7
ATOM      7  O   LIG d   1      13.733  78.148 115.335  0.00  0.00    -0.368 OA
BRANCH   7   8
ATOM      8  C   LIG d   1      13.170  76.947 114.753  0.00  0.00     0.119 C 
BRANCH   8   9
ATOM      9  C   LIG d   1      12.170  76.363 115.771  0.00  0.00     0.028 C 
ATOM     10  C   LIG d   1      10.717  76.436 115.273  0.00  0.00     0.006 C 
ENDBRANCH   8   9
BRANCH   8  11
ATOM     11  C   LIG d   1      14.238  75.864 114.568  0.00  0.00     0.028 C 
ATOM     12  C   LIG d   1      15.663  76.437 114.516  0.00  0.00     0.006 C 
ENDBRANCH   8  11
ENDBRANCH   7   8
ENDBRANCH   1   7
BRANCH   6  13
ATOM     13  N   LIG d   1      14.335  79.173 112.566  0.00  0.00    -0.311 N 
ATOM     14  C   LIG d   1      14.559  78.446 111.473  0.00  0.00     0.210 C 
ATOM     15  C   LIG d   1      15.991  78.514 110.934  0.00  0.00     0.109 C 
ATOM     16  O   LIG d   1      13.699  77.777 110.880  0.00  0.00    -0.276 OA
ATOM     17  H   LIG d   1      15.081  79.711 112.962  0.00  0.00     0.149 HD
ENDBRANCH   6  13
BRANCH   5  18
ATOM     18  N   LIG d   1      11.740  80.169 111.298  0.00  0.00     0.381 N 
ATOM     19  H   LIG d   1      12.134  80.901 110.740  0.00  0.00    -0.090 HD
ATOM     20  H   LIG d   1      10.739  80.216 111.218  0.00  0.00    -0.090 HD
ATOM     21  H   LIG d   1      12.065  79.284 110.975  0.00  0.00    -0.090 HD
ENDBRANCH   5  18
BRANCH   3  22
ATOM     22  C   LIG d   1      10.116  81.104 115.705  0.00  0.00     0.382 C 
ATOM     23  O   LIG d   1       9.010  80.562 115.942  0.00  0.00    -0.241 OA
ATOM     24  O   LIG d   1      10.349  82.245 116.149  0.00  0.00    -0.241 OA
ENDBRANCH   3  22
TORSDOF 7
ENDMDL
MODEL 7
REMARK VINA RESULT:      -4.3     24.383     27.324
REMARK  7 active torsions:
REMARK  status: ('A' for Active; 'I' for Inactive)
REMARK    1  A    between atoms: C_2  and  C_3 
REMARK    2  A    between atoms: C_3  and  O_6 
REMARK    3  A    between atoms: C_3  and  C_4 
REMARK    4  A    between atoms: C_7  and  O_6 
REMARK    5  A    between atoms: C_9  and  C_10 
REMARK    6  A    between atoms: N_15  and  C_14 
REMARK    7  A    between atoms: N_20  and  C_19 
REMARK       I    between atoms: C_22  and  N_20 
ROOT
ATOM      1  C   LIG d   1     -25.618  86.518 113.216  0.00  0.00     0.161 C 
ATOM      2  C   LIG d   1     -24.215  86.492 113.157  0.00  0.00     0.016 C 
ATOM      3  C   LIG d   1     -23.455  85.303 113.238  0.00  0.00     0.038 C 
ATOM      4  C   LIG d   1     -24.057  84.036 113.230  0.00  0.00     0.028 C 
ATOM      5  C   LIG d   1     -25.472  84.034 113.798  0.00  0.00    -0.047 C 
ATOM      6  C   LIG d   1     -26.296  85.137 113.095  0.00  0.00     0.091 C 
ENDROOT
BRANCH   1   7
ATOM      7  O   LIG d   1     -26.132  87.418 112.214  0.00  0.00    -0.368 OA
BRANCH   7   8
ATOM      8  C   LIG d   1     -26.354  88.785 112.638  0.00  0.00     0.119 C 
BRANCH   8   9
ATOM      9  C   LIG d   1     -26.944  88.738 114.061  0.00  0.00     0.028 C 
ATOM     10  C   LIG d   1     -28.476  88.869 114.065  0.00  0.00     0.006 C 
ENDBRANCH   8   9
BRANCH   8  11
ATOM     11  C   LIG d   1     -27.421  89.469 111.779  0.00  0.00     0.028 C 
ATOM     12  C   LIG d   1     -26.998  90.870 111.307  0.00  0.00     0.006 C 
ENDBRANCH   8  11
ENDBRANCH   7   8
ENDBRANCH   1   7
BRANCH   6  13
ATOM     13  N   LIG d   1     -27.669  85.260 113.651  0.00  0.00    -0.311 N 
ATOM     14  C   LIG d   1     -28.763  85.329 112.894  0.00  0.00     0.210 C 
ATOM     15  C   LIG d   1     -30.077  85.472 113.668  0.00  0.00     0.109 C 
ATOM     16  O   LIG d   1     -28.772  85.252 111.656  0.00  0.00    -0.276 OA
ATOM     17  H   LIG d   1     -27.756  85.298 114.647  0.00  0.00     0.149 HD
ENDBRANCH   6  13
BRANCH   5  18
ATOM     18  N   LIG d   1     -26.029  82.683 113.602  0.00  0.00     0.381 N 
ATOM     19  H   LIG d   1     -25.947  82.418 112.641  0.00  0.00    -0.090 HD
ATOM     20  H   LIG d   1     -27.005  82.695 113.844  0.00  0.00    -0.090 HD
ATOM     21  H   LIG d   1     -25.545  82.028 114.177  0.00  0.00    -0.090 HD
ENDBRANCH   5  18
BRANCH   3  22
ATOM     22  C   LIG d   1     -22.076  85.376 113.367  0.00  0.00     0.382 C 
ATOM     23  O   LIG d   1     -21.434  84.389 113.801  0.00  0.00    -0.241 OA
ATOM     24  O   LIG d   1     -21.471  86.431 113.098  0.00  0.00    -0.241 OA
ENDBRANCH   3  22
TORSDOF 7
ENDMDL
MODEL 8
REMARK VINA RESULT:      -4.3     11.016     13.085
REMARK  7 active torsions:
REMARK  status: ('A' for Active; 'I' for Inactive)
REMARK    1  A    between atoms: C_2  and  C_3 
REMARK    2  A    between atoms: C_3  and  O_6 
REMARK    3  A    between atoms: C_3  and  C_4 
REMARK    4  A    between atoms: C_7  and  O_6 
REMARK    5  A    between atoms: C_9  and  C_10 
REMARK    6  A    between atoms: N_15  and  C_14 
REMARK    7  A    between atoms: N_20  and  C_19 
REMARK       I    between atoms: C_22  and  N_20 
ROOT
ATOM      1  C   LIG d   1      12.476  77.773 115.263  0.00  0.00     0.161 C 
ATOM      2  C   LIG d   1      12.495  76.401 114.961  0.00  0.00     0.016 C 
ATOM      3  C   LIG d   1      11.329  75.607 114.878  0.00  0.00     0.038 C 
ATOM      4  C   LIG d   1      10.044  76.166 114.943  0.00  0.00     0.028 C 
ATOM      5  C   LIG d   1       9.987  77.460 115.748  0.00  0.00    -0.047 C 
ATOM      6  C   LIG d   1      11.077  78.424 115.227  0.00  0.00     0.091 C 
ENDROOT
BRANCH   1   7
ATOM      7  O   LIG d   1      13.379  78.478 114.388  0.00  0.00    -0.368 OA
BRANCH   7   8
ATOM      8  C   LIG d   1      12.932  78.660 113.022  0.00  0.00     0.119 C 
BRANCH   8   9
ATOM      9  C   LIG d   1      14.027  78.094 112.097  0.00  0.00     0.028 C 
ATOM     10  C   LIG d   1      15.391  77.990 112.799  0.00  0.00     0.006 C 
ENDBRANCH   8   9
BRANCH   8  11
ATOM     11  C   LIG d   1      12.826  80.145 112.663  0.00  0.00     0.028 C 
ATOM     12  C   LIG d   1      11.541  80.480 111.888  0.00  0.00     0.006 C 
ENDBRANCH   8  11
ENDBRANCH   7   8
ENDBRANCH   1   7
BRANCH   6  13
ATOM     13  N   LIG d   1      11.146  79.682 116.015  0.00  0.00    -0.311 N 
ATOM     14  C   LIG d   1      10.471  80.785 115.696  0.00  0.00     0.210 C 
ATOM     15  C   LIG d   1      10.700  81.976 116.632  0.00  0.00     0.109 C 
ATOM     16  O   LIG d   1       9.679  80.880 114.747  0.00  0.00    -0.276 OA
ATOM     17  H   LIG d   1      11.741  79.684 116.820  0.00  0.00     0.149 HD
ENDBRANCH   6  13
BRANCH   5  18
ATOM     18  N   LIG d   1       8.623  78.006 115.618  0.00  0.00     0.381 N 
ATOM     19  H   LIG d   1       8.000  77.290 115.301  0.00  0.00    -0.090 HD
ATOM     20  H   LIG d   1       8.631  78.742 114.934  0.00  0.00    -0.090 HD
ATOM     21  H   LIG d   1       8.313  78.361 116.496  0.00  0.00    -0.090 HD
ENDBRANCH   5  18
BRANCH   3  22
ATOM     22  C   LIG d   1      11.442  74.229 114.769  0.00  0.00     0.382 C 
ATOM     23  O   LIG d   1      12.546  73.713 114.469  0.00  0.00    -0.241 OA
ATOM     24  O   LIG d   1      10.445  73.499 114.921  0.00  0.00    -0.241 OA
ENDBRANCH   3  22
TORSDOF 7
ENDMDL
MODEL 9
REMARK VINA RESULT:      -4.2     23.168     26.202
REMARK  7 active torsions:
REMARK  status: ('A' for Active; 'I' for Inactive)
REMARK    1  A    between atoms: C_2  and  C_3 
REMARK    2  A    between atoms: C_3  and  O_6 
REMARK    3  A    between atoms: C_3  and  C_4 
REMARK    4  A    between atoms: C_7  and  O_6 
REMARK    5  A    between atoms: C_9  and  C_10 
REMARK    6  A    between atoms: N_15  and  C_14 
REMARK    7  A    between atoms: N_20  and  C_19 
REMARK       I    between atoms: C_22  and  N_20 
ROOT
ATOM      1  C   LIG d   1     -24.972  85.866 113.202  0.00  0.00     0.161 C 
ATOM      2  C   LIG d   1     -23.856  86.676 113.470  0.00  0.00     0.016 C 
ATOM      3  C   LIG d   1     -22.526  86.196 113.461  0.00  0.00     0.038 C 
ATOM      4  C   LIG d   1     -22.209  84.899 113.032  0.00  0.00     0.028 C 
ATOM      5  C   LIG d   1     -23.342  83.899 113.237  0.00  0.00    -0.047 C 
ATOM      6  C   LIG d   1     -24.638  84.476 112.623  0.00  0.00     0.091 C 
ENDROOT
BRANCH   1   7
ATOM      7  O   LIG d   1     -25.885  86.565 112.332  0.00  0.00    -0.368 OA
BRANCH   7   8
ATOM      8  C   LIG d   1     -27.112  87.036 112.942  0.00  0.00     0.119 C 
BRANCH   8   9
ATOM      9  C   LIG d   1     -27.021  88.571 113.040  0.00  0.00     0.028 C 
ATOM     10  C   LIG d   1     -26.703  89.228 111.687  0.00  0.00     0.006 C 
ENDBRANCH   8   9
BRANCH   8  11
ATOM     11  C   LIG d   1     -27.241  86.543 114.387  0.00  0.00     0.028 C 
ATOM     12  C   LIG d   1     -28.408  85.562 114.580  0.00  0.00     0.006 C 
ENDBRANCH   8  11
ENDBRANCH   7   8
ENDBRANCH   1   7
BRANCH   6  13
ATOM     13  N   LIG d   1     -25.814  83.597 112.854  0.00  0.00    -0.311 N 
ATOM     14  C   LIG d   1     -26.485  82.997 111.872  0.00  0.00     0.210 C 
ATOM     15  C   LIG d   1     -27.679  82.152 112.327  0.00  0.00     0.109 C 
ATOM     16  O   LIG d   1     -26.186  83.059 110.670  0.00  0.00    -0.276 OA
ATOM     17  H   LIG d   1     -26.107  83.467 113.802  0.00  0.00     0.149 HD
ENDBRANCH   6  13
BRANCH   5  18
ATOM     18  N   LIG d   1     -22.928  82.624 112.622  0.00  0.00     0.381 N 
ATOM     19  H   LIG d   1     -22.197  82.790 111.958  0.00  0.00    -0.090 HD
ATOM     20  H   LIG d   1     -23.712  82.228 112.134  0.00  0.00    -0.090 HD
ATOM     21  H   LIG d   1     -22.611  81.993 113.325  0.00  0.00    -0.090 HD
ENDBRANCH   5  18
BRANCH   3  22
ATOM     22  C   LIG d   1     -21.500  87.007 113.923  0.00  0.00     0.382 C 
ATOM     23  O   LIG d   1     -21.520  87.431 115.104  0.00  0.00    -0.241 OA
ATOM     24  O   LIG d   1     -20.578  87.355 113.162  0.00  0.00    -0.241 OA
ENDBRANCH   3  22
TORSDOF 7
ENDMDL
