MODEL 1
REMARK VINA RESULT:      -6.5      0.000      0.000
REMARK  7 active torsions:
REMARK  status: ('A' for Active; 'I' for Inactive)
REMARK    1  A    between atoms: C_2  and  C_3 
REMARK    2  A    between atoms: C_3  and  O_6 
REMARK    3  A    between atoms: C_3  and  C_4 
REMARK    4  A    between atoms: C_7  and  O_6 
REMARK    5  A    between atoms: C_9  and  C_10 
REMARK    6  A    between atoms: N_15  and  C_14 
REMARK    7  A    between atoms: N_20  and  C_19 
REMARK       I    between atoms: C_22  and  N_20 
ROOT
ATOM      1  C   LIG d   1       0.396  82.460 110.850  0.00  0.00     0.161 C 
ATOM      2  C   LIG d   1      -0.737  82.113 111.605  0.00  0.00     0.016 C 
ATOM      3  C   LIG d   1      -1.319  80.825 111.589  0.00  0.00     0.038 C 
ATOM      4  C   LIG d   1      -0.713  79.746 110.927  0.00  0.00     0.028 C 
ATOM      5  C   LIG d   1       0.151  80.169 109.744  0.00  0.00    -0.047 C 
ATOM      6  C   LIG d   1       1.135  81.267 110.209  0.00  0.00     0.091 C 
ENDROOT
BRANCH   1   7
ATOM      7  O   LIG d   1       1.303  83.236 111.657  0.00  0.00    -0.368 OA
BRANCH   7   8
ATOM      8  C   LIG d   1       1.178  84.675 111.551  0.00  0.00     0.119 C 
BRANCH   8   9
ATOM      9  C   LIG d   1       0.817  85.002 110.089  0.00  0.00     0.028 C 
ATOM     10  C   LIG d   1      -0.430  85.896 109.978  0.00  0.00     0.006 C 
ENDBRANCH   8   9
BRANCH   8  11
ATOM     11  C   LIG d   1       2.520  85.371 111.801  0.00  0.00     0.028 C 
ATOM     12  C   LIG d   1       3.553  85.088 110.699  0.00  0.00     0.006 C 
ENDBRANCH   8  11
ENDBRANCH   7   8
ENDBRANCH   1   7
BRANCH   6  13
ATOM     13  N   LIG d   1       1.961  81.797 109.093  0.00  0.00    -0.311 N 
ATOM     14  C   LIG d   1       3.293  81.798 109.103  0.00  0.00     0.210 C 
ATOM     15  C   LIG d   1       3.948  82.410 107.860  0.00  0.00     0.109 C 
ATOM     16  O   LIG d   1       3.994  81.322 110.008  0.00  0.00    -0.276 OA
ATOM     17  H   LIG d   1       1.474  82.174 108.304  0.00  0.00     0.149 HD
ENDBRANCH   6  13
BRANCH   5  18
ATOM     18  N   LIG d   1       0.829  78.963 109.233  0.00  0.00     0.381 N 
ATOM     19  H   LIG d   1       0.307  78.577 108.472  0.00  0.00    -0.090 HD
ATOM     20  H   LIG d   1       0.869  78.277 109.967  0.00  0.00    -0.090 HD
ATOM     21  H   LIG d   1       1.751  79.191 108.932  0.00  0.00    -0.090 HD
ENDBRANCH   5  18
BRANCH   3  22
ATOM     22  C   LIG d   1      -2.542  80.615 112.207  0.00  0.00     0.382 C 
ATOM     23  O   LIG d   1      -3.397  81.532 112.232  0.00  0.00    -0.241 OA
ATOM     24  O   LIG d   1      -2.784  79.535 112.779  0.00  0.00    -0.241 OA
ENDBRANCH   3  22
TORSDOF 7
ENDMDL
MODEL 2
REMARK VINA RESULT:      -6.4      2.942      4.021
REMARK  7 active torsions:
REMARK  status: ('A' for Active; 'I' for Inactive)
REMARK    1  A    between atoms: C_2  and  C_3 
REMARK    2  A    between atoms: C_3  and  O_6 
REMARK    3  A    between atoms: C_3  and  C_4 
REMARK    4  A    between atoms: C_7  and  O_6 
REMARK    5  A    between atoms: C_9  and  C_10 
REMARK    6  A    between atoms: N_15  and  C_14 
REMARK    7  A    between atoms: N_20  and  C_19 
REMARK       I    between atoms: C_22  and  N_20 
ROOT
ATOM      1  C   LIG d   1       2.071  85.234 110.146  0.00  0.00     0.161 C 
ATOM      2  C   LIG d   1       1.077  86.011 110.763  0.00  0.00     0.016 C 
ATOM      3  C   LIG d   1      -0.172  85.493 111.174  0.00  0.00     0.038 C 
ATOM      4  C   LIG d   1      -0.455  84.119 111.133  0.00  0.00     0.028 C 
ATOM      5  C   LIG d   1       0.323  83.373 110.055  0.00  0.00    -0.047 C 
ATOM      6  C   LIG d   1       1.825  83.711 110.194  0.00  0.00     0.091 C 
ENDROOT
BRANCH   1   7
ATOM      7  O   LIG d   1       3.359  85.551 110.710  0.00  0.00    -0.368 OA
BRANCH   7   8
ATOM      8  C   LIG d   1       3.345  86.269 111.968  0.00  0.00     0.119 C 
BRANCH   8   9
ATOM      9  C   LIG d   1       4.529  87.254 111.952  0.00  0.00     0.028 C 
ATOM     10  C   LIG d   1       4.434  88.305 113.072  0.00  0.00     0.006 C 
ENDBRANCH   8   9
BRANCH   8  11
ATOM     11  C   LIG d   1       3.613  85.331 113.149  0.00  0.00     0.028 C 
ATOM     12  C   LIG d   1       2.365  85.087 114.012  0.00  0.00     0.006 C 
ENDBRANCH   8  11
ENDBRANCH   7   8
ENDBRANCH   1   7
BRANCH   6  13
ATOM     13  N   LIG d   1       2.648  83.088 109.125  0.00  0.00    -0.311 N 
ATOM     14  C   LIG d   1       3.681  82.284 109.370  0.00  0.00     0.210 C 
ATOM     15  C   LIG d   1       4.406  81.765 108.124  0.00  0.00     0.109 C 
ATOM     16  O   LIG d   1       4.045  81.925 110.500  0.00  0.00    -0.276 OA
ATOM     17  H   LIG d   1       2.402  83.301 108.178  0.00  0.00     0.149 HD
ENDBRANCH   6  13
BRANCH   5  18
ATOM     18  N   LIG d   1       0.037  81.934 110.215  0.00  0.00     0.381 N 
ATOM     19  H   LIG d   1       0.893  81.431 110.338  0.00  0.00    -0.090 HD
ATOM     20  H   LIG d   1      -0.410  81.597 109.380  0.00  0.00    -0.090 HD
ATOM     21  H   LIG d   1      -0.558  81.790 111.001  0.00  0.00    -0.090 HD
ENDBRANCH   5  18
BRANCH   3  22
ATOM     22  C   LIG d   1      -1.170  86.358 111.596  0.00  0.00     0.382 C 
ATOM     23  O   LIG d   1      -1.607  86.287 112.770  0.00  0.00    -0.241 OA
ATOM     24  O   LIG d   1      -1.670  87.180 110.805  0.00  0.00    -0.241 OA
ENDBRANCH   3  22
TORSDOF 7
ENDMDL
MODEL 3
REMARK VINA RESULT:      -6.3      2.694      4.014
REMARK  7 active torsions:
REMARK  status: ('A' for Active; 'I' for Inactive)
REMARK    1  A    between atoms: C_2  and  C_3 
REMARK    2  A    between atoms: C_3  and  O_6 
REMARK    3  A    between atoms: C_3  and  C_4 
REMARK    4  A    between atoms: C_7  and  O_6 
REMARK    5  A    between atoms: C_9  and  C_10 
REMARK    6  A    between atoms: N_15  and  C_14 
REMARK    7  A    between atoms: N_20  and  C_19 
REMARK       I    between atoms: C_22  and  N_20 
ROOT
ATOM      1  C   LIG d   1       1.166  82.814 110.287  0.00  0.00     0.161 C 
ATOM      2  C   LIG d   1       0.831  81.569 109.730  0.00  0.00     0.016 C 
ATOM      3  C   LIG d   1       1.748  80.764 109.016  0.00  0.00     0.038 C 
ATOM      4  C   LIG d   1       3.112  81.083 108.941  0.00  0.00     0.028 C 
ATOM      5  C   LIG d   1       3.392  82.578 109.056  0.00  0.00    -0.047 C 
ATOM      6  C   LIG d   1       2.676  83.127 110.311  0.00  0.00     0.091 C 
ENDROOT
BRANCH   1   7
ATOM      7  O   LIG d   1       0.611  82.921 111.613  0.00  0.00    -0.368 OA
BRANCH   7   8
ATOM      8  C   LIG d   1      -0.532  83.799 111.757  0.00  0.00     0.119 C 
BRANCH   8   9
ATOM      9  C   LIG d   1      -0.649  84.624 110.460  0.00  0.00     0.028 C 
ATOM     10  C   LIG d   1      -0.727  86.136 110.732  0.00  0.00     0.006 C 
ENDBRANCH   8   9
BRANCH   8  11
ATOM     11  C   LIG d   1      -0.310  84.825 112.872  0.00  0.00     0.028 C 
ATOM     12  C   LIG d   1       0.586  84.293 114.002  0.00  0.00     0.006 C 
ENDBRANCH   8  11
ENDBRANCH   7   8
ENDBRANCH   1   7
BRANCH   6  13
ATOM     13  N   LIG d   1       2.829  84.599 110.452  0.00  0.00    -0.311 N 
ATOM     14  C   LIG d   1       3.262  85.188 111.565  0.00  0.00     0.210 C 
ATOM     15  C   LIG d   1       3.326  86.717 111.505  0.00  0.00     0.109 C 
ATOM     16  O   LIG d   1       3.630  84.587 112.586  0.00  0.00    -0.276 OA
ATOM     17  H   LIG d   1       2.582  85.161 109.661  0.00  0.00     0.149 HD
ENDBRANCH   6  13
BRANCH   5  18
ATOM     18  N   LIG d   1       4.856  82.755 109.101  0.00  0.00     0.381 N 
ATOM     19  H   LIG d   1       5.305  81.861 109.127  0.00  0.00    -0.090 HD
ATOM     20  H   LIG d   1       5.097  83.254 109.939  0.00  0.00    -0.090 HD
ATOM     21  H   LIG d   1       5.162  83.265 108.302  0.00  0.00    -0.090 HD
ENDBRANCH   5  18
BRANCH   3  22
ATOM     22  C   LIG d   1       1.295  79.645 108.334  0.00  0.00     0.382 C 
ATOM     23  O   LIG d   1       0.158  79.652 107.804  0.00  0.00    -0.241 OA
ATOM     24  O   LIG d   1       1.991  78.614 108.279  0.00  0.00    -0.241 OA
ENDBRANCH   3  22
TORSDOF 7
ENDMDL
MODEL 4
REMARK VINA RESULT:      -6.2      1.911      4.967
REMARK  7 active torsions:
REMARK  status: ('A' for Active; 'I' for Inactive)
REMARK    1  A    between atoms: C_2  and  C_3 
REMARK    2  A    between atoms: C_3  and  O_6 
REMARK    3  A    between atoms: C_3  and  C_4 
REMARK    4  A    between atoms: C_7  and  O_6 
REMARK    5  A    between atoms: C_9  and  C_10 
REMARK    6  A    between atoms: N_15  and  C_14 
REMARK    7  A    between atoms: N_20  and  C_19 
REMARK       I    between atoms: C_22  and  N_20 
ROOT
ATOM      1  C   LIG d   1       1.299  81.783 111.805  0.00  0.00     0.161 C 
ATOM      2  C   LIG d   1       2.343  82.561 111.279  0.00  0.00     0.016 C 
ATOM      3  C   LIG d   1       2.621  82.657 109.896  0.00  0.00     0.038 C 
ATOM      4  C   LIG d   1       1.773  82.096 108.929  0.00  0.00     0.028 C 
ATOM      5  C   LIG d   1       0.998  80.883 109.433  0.00  0.00    -0.047 C 
ATOM      6  C   LIG d   1       0.296  81.253 110.759  0.00  0.00     0.091 C 
ENDROOT
BRANCH   1   7
ATOM      7  O   LIG d   1       0.608  82.522 112.832  0.00  0.00    -0.368 OA
BRANCH   7   8
ATOM      8  C   LIG d   1       0.756  83.963 112.789  0.00  0.00     0.119 C 
BRANCH   8   9
ATOM      9  C   LIG d   1       0.943  84.453 114.238  0.00  0.00     0.028 C 
ATOM     10  C   LIG d   1       0.107  85.706 114.546  0.00  0.00     0.006 C 
ENDBRANCH   8   9
BRANCH   8  11
ATOM     11  C   LIG d   1      -0.526  84.639 112.294  0.00  0.00     0.028 C 
ATOM     12  C   LIG d   1      -0.513  84.907 110.781  0.00  0.00     0.006 C 
ENDBRANCH   8  11
ENDBRANCH   7   8
ENDBRANCH   1   7
BRANCH   6  13
ATOM     13  N   LIG d   1      -0.417  80.097 111.364  0.00  0.00    -0.311 N 
ATOM     14  C   LIG d   1      -1.646  80.178 111.871  0.00  0.00     0.210 C 
ATOM     15  C   LIG d   1      -2.187  78.873 112.464  0.00  0.00     0.109 C 
ATOM     16  O   LIG d   1      -2.352  81.197 111.856  0.00  0.00    -0.276 OA
ATOM     17  H   LIG d   1       0.071  79.223 111.390  0.00  0.00     0.149 HD
ENDBRANCH   6  13
BRANCH   5  18
ATOM     18  N   LIG d   1       0.055  80.484 108.371  0.00  0.00     0.381 N 
ATOM     19  H   LIG d   1       0.391  79.662 107.911  0.00  0.00    -0.090 HD
ATOM     20  H   LIG d   1      -0.002  81.223 107.693  0.00  0.00    -0.090 HD
ATOM     21  H   LIG d   1      -0.845  80.312 108.762  0.00  0.00    -0.090 HD
ENDBRANCH   5  18
BRANCH   3  22
ATOM     22  C   LIG d   1       3.780  83.287 109.470  0.00  0.00     0.382 C 
ATOM     23  O   LIG d   1       4.011  84.472 109.810  0.00  0.00    -0.241 OA
ATOM     24  O   LIG d   1       4.577  82.699 108.713  0.00  0.00    -0.241 OA
ENDBRANCH   3  22
TORSDOF 7
ENDMDL
MODEL 5
REMARK VINA RESULT:      -5.8      2.448      5.233
REMARK  7 active torsions:
REMARK  status: ('A' for Active; 'I' for Inactive)
REMARK    1  A    between atoms: C_2  and  C_3 
REMARK    2  A    between atoms: C_3  and  O_6 
REMARK    3  A    between atoms: C_3  and  C_4 
REMARK    4  A    between atoms: C_7  and  O_6 
REMARK    5  A    between atoms: C_9  and  C_10 
REMARK    6  A    between atoms: N_15  and  C_14 
REMARK    7  A    between atoms: N_20  and  C_19 
REMARK       I    between atoms: C_22  and  N_20 
ROOT
ATOM      1  C   LIG d   1       2.582  82.267 110.506  0.00  0.00     0.161 C 
ATOM      2  C   LIG d   1       2.785  83.561 111.013  0.00  0.00     0.016 C 
ATOM      3  C   LIG d   1       2.563  84.736 110.258  0.00  0.00     0.038 C 
ATOM      4  C   LIG d   1       1.973  84.700 108.986  0.00  0.00     0.028 C 
ATOM      5  C   LIG d   1       2.222  83.393 108.240  0.00  0.00    -0.047 C 
ATOM      6  C   LIG d   1       1.834  82.211 109.157  0.00  0.00     0.091 C 
ENDROOT
BRANCH   1   7
ATOM      7  O   LIG d   1       1.906  81.458 111.488  0.00  0.00    -0.368 OA
BRANCH   7   8
ATOM      8  C   LIG d   1       0.832  82.104 112.216  0.00  0.00     0.119 C 
BRANCH   8   9
ATOM      9  C   LIG d   1       0.979  81.714 113.700  0.00  0.00     0.028 C 
ATOM     10  C   LIG d   1       2.365  81.128 114.018  0.00  0.00     0.006 C 
ENDBRANCH   8   9
BRANCH   8  11
ATOM     11  C   LIG d   1      -0.535  81.563 111.788  0.00  0.00     0.028 C 
ATOM     12  C   LIG d   1      -0.622  80.031 111.867  0.00  0.00     0.006 C 
ENDBRANCH   8  11
ENDBRANCH   7   8
ENDBRANCH   1   7
BRANCH   6  13
ATOM     13  N   LIG d   1       2.125  80.892 108.536  0.00  0.00    -0.311 N 
ATOM     14  C   LIG d   1       1.190  79.976 108.288  0.00  0.00     0.210 C 
ATOM     15  C   LIG d   1       1.708  78.678 107.661  0.00  0.00     0.109 C 
ATOM     16  O   LIG d   1      -0.023  80.129 108.498  0.00  0.00    -0.276 OA
ATOM     17  H   LIG d   1       3.079  80.698 108.305  0.00  0.00     0.149 HD
ENDBRANCH   6  13
BRANCH   5  18
ATOM     18  N   LIG d   1       1.439  83.437 106.991  0.00  0.00     0.381 N 
ATOM     19  H   LIG d   1       1.495  84.351 106.588  0.00  0.00    -0.090 HD
ATOM     20  H   LIG d   1       0.476  83.245 107.204  0.00  0.00    -0.090 HD
ATOM     21  H   LIG d   1       1.785  82.760 106.347  0.00  0.00    -0.090 HD
ENDBRANCH   5  18
BRANCH   3  22
ATOM     22  C   LIG d   1       2.969  85.963 110.761  0.00  0.00     0.382 C 
ATOM     23  O   LIG d   1       2.155  86.916 110.822  0.00  0.00    -0.241 OA
ATOM     24  O   LIG d   1       4.150  86.142 111.113  0.00  0.00    -0.241 OA
ENDBRANCH   3  22
TORSDOF 7
ENDMDL
MODEL 6
REMARK VINA RESULT:      -5.8      2.205      4.470
REMARK  7 active torsions:
REMARK  status: ('A' for Active; 'I' for Inactive)
REMARK    1  A    between atoms: C_2  and  C_3 
REMARK    2  A    between atoms: C_3  and  O_6 
REMARK    3  A    between atoms: C_3  and  C_4 
REMARK    4  A    between atoms: C_7  and  O_6 
REMARK    5  A    between atoms: C_9  and  C_10 
REMARK    6  A    between atoms: N_15  and  C_14 
REMARK    7  A    between atoms: N_20  and  C_19 
REMARK       I    between atoms: C_22  and  N_20 
ROOT
ATOM      1  C   LIG d   1       1.657  82.546 111.037  0.00  0.00     0.161 C 
ATOM      2  C   LIG d   1       0.531  81.709 111.089  0.00  0.00     0.016 C 
ATOM      3  C   LIG d   1      -0.731  82.130 111.570  0.00  0.00     0.038 C 
ATOM      4  C   LIG d   1      -0.991  83.469 111.893  0.00  0.00     0.028 C 
ATOM      5  C   LIG d   1       0.249  84.238 112.335  0.00  0.00    -0.047 C 
ATOM      6  C   LIG d   1       1.363  84.041 111.281  0.00  0.00     0.091 C 
ENDROOT
BRANCH   1   7
ATOM      7  O   LIG d   1       2.340  82.369 109.780  0.00  0.00    -0.368 OA
BRANCH   7   8
ATOM      8  C   LIG d   1       2.678  81.005 109.425  0.00  0.00     0.119 C 
BRANCH   8   9
ATOM      9  C   LIG d   1       4.111  81.016 108.859  0.00  0.00     0.028 C 
ATOM     10  C   LIG d   1       4.419  82.296 108.065  0.00  0.00     0.006 C 
ENDBRANCH   8   9
BRANCH   8  11
ATOM     11  C   LIG d   1       1.795  80.492 108.284  0.00  0.00     0.028 C 
ATOM     12  C   LIG d   1       1.747  78.958 108.212  0.00  0.00     0.006 C 
ENDBRANCH   8  11
ENDBRANCH   7   8
ENDBRANCH   1   7
BRANCH   6  13
ATOM     13  N   LIG d   1       2.639  84.692 111.677  0.00  0.00    -0.311 N 
ATOM     14  C   LIG d   1       2.988  85.918 111.290  0.00  0.00     0.210 C 
ATOM     15  C   LIG d   1       4.355  86.390 111.795  0.00  0.00     0.109 C 
ATOM     16  O   LIG d   1       2.282  86.671 110.603  0.00  0.00    -0.276 OA
ATOM     17  H   LIG d   1       3.259  84.164 112.260  0.00  0.00     0.149 HD
ENDBRANCH   6  13
BRANCH   5  18
ATOM     18  N   LIG d   1      -0.140  85.651 112.507  0.00  0.00     0.381 N 
ATOM     19  H   LIG d   1       0.651  86.242 112.345  0.00  0.00    -0.090 HD
ATOM     20  H   LIG d   1      -0.448  85.790 113.453  0.00  0.00    -0.090 HD
ATOM     21  H   LIG d   1      -0.873  85.882 111.874  0.00  0.00    -0.090 HD
ENDBRANCH   5  18
BRANCH   3  22
ATOM     22  C   LIG d   1      -1.736  81.196 111.770  0.00  0.00     0.382 C 
ATOM     23  O   LIG d   1      -1.539  79.991 111.482  0.00  0.00    -0.241 OA
ATOM     24  O   LIG d   1      -2.853  81.551 112.192  0.00  0.00    -0.241 OA
ENDBRANCH   3  22
TORSDOF 7
ENDMDL
MODEL 7
REMARK VINA RESULT:      -5.2      1.560      2.333
REMARK  7 active torsions:
REMARK  status: ('A' for Active; 'I' for Inactive)
REMARK    1  A    between atoms: C_2  and  C_3 
REMARK    2  A    between atoms: C_3  and  O_6 
REMARK    3  A    between atoms: C_3  and  C_4 
REMARK    4  A    between atoms: C_7  and  O_6 
REMARK    5  A    between atoms: C_9  and  C_10 
REMARK    6  A    between atoms: N_15  and  C_14 
REMARK    7  A    between atoms: N_20  and  C_19 
REMARK       I    between atoms: C_22  and  N_20 
ROOT
ATOM      1  C   LIG d   1      -0.584  82.033 111.229  0.00  0.00     0.161 C 
ATOM      2  C   LIG d   1      -1.452  81.219 111.976  0.00  0.00     0.016 C 
ATOM      3  C   LIG d   1      -1.556  79.821 111.795  0.00  0.00     0.038 C 
ATOM      4  C   LIG d   1      -0.684  79.115 110.952  0.00  0.00     0.028 C 
ATOM      5  C   LIG d   1      -0.134  79.958 109.807  0.00  0.00    -0.047 C 
ATOM      6  C   LIG d   1       0.454  81.266 110.383  0.00  0.00     0.091 C 
ENDROOT
BRANCH   1   7
ATOM      7  O   LIG d   1       0.075  82.973 112.100  0.00  0.00    -0.368 OA
BRANCH   7   8
ATOM      8  C   LIG d   1       1.453  82.675 112.433  0.00  0.00     0.119 C 
BRANCH   8   9
ATOM      9  C   LIG d   1       1.501  82.325 113.933  0.00  0.00     0.028 C 
ATOM     10  C   LIG d   1       1.779  80.832 114.177  0.00  0.00     0.006 C 
ENDBRANCH   8   9
BRANCH   8  11
ATOM     11  C   LIG d   1       2.344  83.912 112.277  0.00  0.00     0.028 C 
ATOM     12  C   LIG d   1       1.712  84.993 111.385  0.00  0.00     0.006 C 
ENDBRANCH   8  11
ENDBRANCH   7   8
ENDBRANCH   1   7
BRANCH   6  13
ATOM     13  N   LIG d   1       0.938  82.186 109.322  0.00  0.00    -0.311 N 
ATOM     14  C   LIG d   1       2.197  82.209 108.889  0.00  0.00     0.210 C 
ATOM     15  C   LIG d   1       2.489  83.248 107.802  0.00  0.00     0.109 C 
ATOM     16  O   LIG d   1       3.093  81.444 109.278  0.00  0.00    -0.276 OA
ATOM     17  H   LIG d   1       0.270  82.820 108.928  0.00  0.00     0.149 HD
ENDBRANCH   6  13
BRANCH   5  18
ATOM     18  N   LIG d   1       0.864  79.141 109.091  0.00  0.00     0.381 N 
ATOM     19  H   LIG d   1       1.749  79.607 109.095  0.00  0.00    -0.090 HD
ATOM     20  H   LIG d   1       0.569  79.030 108.137  0.00  0.00    -0.090 HD
ATOM     21  H   LIG d   1       0.949  78.249 109.526  0.00  0.00    -0.090 HD
ENDBRANCH   5  18
BRANCH   3  22
ATOM     22  C   LIG d   1      -2.569  79.119 112.431  0.00  0.00     0.382 C 
ATOM     23  O   LIG d   1      -3.277  78.313 111.781  0.00  0.00    -0.241 OA
ATOM     24  O   LIG d   1      -2.812  79.315 113.637  0.00  0.00    -0.241 OA
ENDBRANCH   3  22
TORSDOF 7
ENDMDL
MODEL 8
REMARK VINA RESULT:      -5.0      2.237      5.287
REMARK  7 active torsions:
REMARK  status: ('A' for Active; 'I' for Inactive)
REMARK    1  A    between atoms: C_2  and  C_3 
REMARK    2  A    between atoms: C_3  and  O_6 
REMARK    3  A    between atoms: C_3  and  C_4 
REMARK    4  A    between atoms: C_7  and  O_6 
REMARK    5  A    between atoms: C_9  and  C_10 
REMARK    6  A    between atoms: N_15  and  C_14 
REMARK    7  A    between atoms: N_20  and  C_19 
REMARK       I    between atoms: C_22  and  N_20 
ROOT
ATOM      1  C   LIG d   1       1.604  82.272 110.966  0.00  0.00     0.161 C 
ATOM      2  C   LIG d   1       2.232  83.404 111.512  0.00  0.00     0.016 C 
ATOM      3  C   LIG d   1       2.632  84.519 110.741  0.00  0.00     0.038 C 
ATOM      4  C   LIG d   1       2.291  84.644 109.385  0.00  0.00     0.028 C 
ATOM      5  C   LIG d   1       2.102  83.304 108.682  0.00  0.00    -0.047 C 
ATOM      6  C   LIG d   1       1.125  82.437 109.509  0.00  0.00     0.091 C 
ENDROOT
BRANCH   1   7
ATOM      7  O   LIG d   1       0.509  81.866 111.811  0.00  0.00    -0.368 OA
BRANCH   7   8
ATOM      8  C   LIG d   1       0.595  80.532 112.369  0.00  0.00     0.119 C 
BRANCH   8   9
ATOM      9  C   LIG d   1      -0.824  79.930 112.351  0.00  0.00     0.028 C 
ATOM     10  C   LIG d   1      -1.059  79.018 111.136  0.00  0.00     0.006 C 
ENDBRANCH   8   9
BRANCH   8  11
ATOM     11  C   LIG d   1       1.000  80.571 113.846  0.00  0.00     0.028 C 
ATOM     12  C   LIG d   1       0.798  79.223 114.555  0.00  0.00     0.006 C 
ENDBRANCH   8  11
ENDBRANCH   7   8
ENDBRANCH   1   7
BRANCH   6  13
ATOM     13  N   LIG d   1       0.950  81.078 108.935  0.00  0.00    -0.311 N 
ATOM     14  C   LIG d   1       1.965  80.256 108.675  0.00  0.00     0.210 C 
ATOM     15  C   LIG d   1       1.565  78.907 108.067  0.00  0.00     0.109 C 
ATOM     16  O   LIG d   1       3.155  80.502 108.919  0.00  0.00    -0.276 OA
ATOM     17  H   LIG d   1       0.014  80.784 108.736  0.00  0.00     0.149 HD
ENDBRANCH   6  13
BRANCH   5  18
ATOM     18  N   LIG d   1       1.617  83.581 107.317  0.00  0.00     0.381 N 
ATOM     19  H   LIG d   1       1.425  82.721 106.845  0.00  0.00    -0.090 HD
ATOM     20  H   LIG d   1       2.335  84.067 106.809  0.00  0.00    -0.090 HD
ATOM     21  H   LIG d   1       0.792  84.139 107.355  0.00  0.00    -0.090 HD
ENDBRANCH   5  18
BRANCH   3  22
ATOM     22  C   LIG d   1       3.415  85.508 111.317  0.00  0.00     0.382 C 
ATOM     23  O   LIG d   1       4.373  85.193 112.063  0.00  0.00    -0.241 OA
ATOM     24  O   LIG d   1       3.149  86.711 111.135  0.00  0.00    -0.241 OA
ENDBRANCH   3  22
TORSDOF 7
ENDMDL
MODEL 9
REMARK VINA RESULT:      -4.7      2.147      5.209
REMARK  7 active torsions:
REMARK  status: ('A' for Active; 'I' for Inactive)
REMARK    1  A    between atoms: C_2  and  C_3 
REMARK    2  A    between atoms: C_3  and  O_6 
REMARK    3  A    between atoms: C_3  and  C_4 
REMARK    4  A    between atoms: C_7  and  O_6 
REMARK    5  A    between atoms: C_9  and  C_10 
REMARK    6  A    between atoms: N_15  and  C_14 
REMARK    7  A    between atoms: N_20  and  C_19 
REMARK       I    between atoms: C_22  and  N_20 
ROOT
ATOM      1  C   LIG d   1       1.217  81.679 111.575  0.00  0.00     0.161 C 
ATOM      2  C   LIG d   1       2.241  82.381 110.917  0.00  0.00     0.016 C 
ATOM      3  C   LIG d   1       2.465  82.307 109.523  0.00  0.00     0.038 C 
ATOM      4  C   LIG d   1       1.580  81.639 108.665  0.00  0.00     0.028 C 
ATOM      5  C   LIG d   1       0.822  80.502 109.341  0.00  0.00    -0.047 C 
ATOM      6  C   LIG d   1       0.173  81.033 110.640  0.00  0.00     0.091 C 
ENDROOT
BRANCH   1   7
ATOM      7  O   LIG d   1       0.569  82.541 112.530  0.00  0.00    -0.368 OA
BRANCH   7   8
ATOM      8  C   LIG d   1       1.338  82.875 113.712  0.00  0.00     0.119 C 
BRANCH   8   9
ATOM      9  C   LIG d   1       2.308  84.009 113.329  0.00  0.00     0.028 C 
ATOM     10  C   LIG d   1       2.759  84.833 114.547  0.00  0.00     0.006 C 
ENDBRANCH   8   9
BRANCH   8  11
ATOM     11  C   LIG d   1       2.230  81.707 114.145  0.00  0.00     0.028 C 
ATOM     12  C   LIG d   1       1.426  80.463 114.555  0.00  0.00     0.006 C 
ENDBRANCH   8  11
ENDBRANCH   7   8
ENDBRANCH   1   7
BRANCH   6  13
ATOM     13  N   LIG d   1      -0.517  79.964 111.407  0.00  0.00    -0.311 N 
ATOM     14  C   LIG d   1      -1.724  80.115 111.950  0.00  0.00     0.210 C 
ATOM     15  C   LIG d   1      -2.244  78.895 112.717  0.00  0.00     0.109 C 
ATOM     16  O   LIG d   1      -2.426  81.131 111.843  0.00  0.00    -0.276 OA
ATOM     17  H   LIG d   1      -0.032  79.095 111.516  0.00  0.00     0.149 HD
ENDBRANCH   6  13
BRANCH   5  18
ATOM     18  N   LIG d   1      -0.163  79.984 108.373  0.00  0.00     0.381 N 
ATOM     19  H   LIG d   1      -1.057  80.397 108.546  0.00  0.00    -0.090 HD
ATOM     20  H   LIG d   1      -0.245  78.990 108.494  0.00  0.00    -0.090 HD
ATOM     21  H   LIG d   1       0.132  80.190 107.444  0.00  0.00    -0.090 HD
ENDBRANCH   5  18
BRANCH   3  22
ATOM     22  C   LIG d   1       3.608  82.874 108.980  0.00  0.00     0.382 C 
ATOM     23  O   LIG d   1       4.195  82.308 108.026  0.00  0.00    -0.241 OA
ATOM     24  O   LIG d   1       4.085  83.919 109.460  0.00  0.00    -0.241 OA
ENDBRANCH   3  22
TORSDOF 7
ENDMDL
