MODEL 1
REMARK VINA RESULT:      -6.8      0.000      0.000
REMARK  7 active torsions:
REMARK  status: ('A' for Active; 'I' for Inactive)
REMARK    1  A    between atoms: C_2  and  C_3 
REMARK    2  A    between atoms: C_3  and  O_6 
REMARK    3  A    between atoms: C_3  and  C_4 
REMARK    4  A    between atoms: C_7  and  O_6 
REMARK    5  A    between atoms: C_9  and  C_10 
REMARK    6  A    between atoms: N_15  and  C_14 
REMARK    7  A    between atoms: N_20  and  C_19 
REMARK       I    between atoms: C_22  and  N_20 
ROOT
ATOM      1  C   LIG d   1       0.859  83.807 109.681  0.00  0.00     0.161 C 
ATOM      2  C   LIG d   1       0.503  85.080 110.155  0.00  0.00     0.016 C 
ATOM      3  C   LIG d   1      -0.349  85.287 111.264  0.00  0.00     0.038 C 
ATOM      4  C   LIG d   1      -0.785  84.227 112.072  0.00  0.00     0.028 C 
ATOM      5  C   LIG d   1      -0.862  82.895 111.335  0.00  0.00    -0.047 C 
ATOM      6  C   LIG d   1       0.483  82.639 110.618  0.00  0.00     0.091 C 
ENDROOT
BRANCH   1   7
ATOM      7  O   LIG d   1       2.269  83.774 109.381  0.00  0.00    -0.368 OA
BRANCH   7   8
ATOM      8  C   LIG d   1       3.153  83.522 110.500  0.00  0.00     0.119 C 
BRANCH   8   9
ATOM      9  C   LIG d   1       3.683  84.885 110.987  0.00  0.00     0.028 C 
ATOM     10  C   LIG d   1       3.426  85.113 112.486  0.00  0.00     0.006 C 
ENDBRANCH   8   9
BRANCH   8  11
ATOM     11  C   LIG d   1       4.394  82.736 110.065  0.00  0.00     0.028 C 
ATOM     12  C   LIG d   1       4.287  82.204 108.627  0.00  0.00     0.006 C 
ENDBRANCH   8  11
ENDBRANCH   7   8
ENDBRANCH   1   7
BRANCH   6  13
ATOM     13  N   LIG d   1       0.465  81.397 109.803  0.00  0.00    -0.311 N 
ATOM     14  C   LIG d   1       1.272  80.362 110.026  0.00  0.00     0.210 C 
ATOM     15  C   LIG d   1       1.102  79.188 109.056  0.00  0.00     0.109 C 
ATOM     16  O   LIG d   1       2.092  80.291 110.955  0.00  0.00    -0.276 OA
ATOM     17  H   LIG d   1      -0.192  81.356 109.048  0.00  0.00     0.149 HD
ENDBRANCH   6  13
BRANCH   5  18
ATOM     18  N   LIG d   1      -1.196  81.855 112.326  0.00  0.00     0.381 N 
ATOM     19  H   LIG d   1      -0.358  81.411 112.646  0.00  0.00    -0.090 HD
ATOM     20  H   LIG d   1      -1.773  81.160 111.887  0.00  0.00    -0.090 HD
ATOM     21  H   LIG d   1      -1.680  82.261 113.097  0.00  0.00    -0.090 HD
ENDBRANCH   5  18
BRANCH   3  22
ATOM     22  C   LIG d   1      -0.807  86.565 111.550  0.00  0.00     0.382 C 
ATOM     23  O   LIG d   1       0.006  87.465 111.871  0.00  0.00    -0.241 OA
ATOM     24  O   LIG d   1      -2.026  86.818 111.533  0.00  0.00    -0.241 OA
ENDBRANCH   3  22
TORSDOF 7
ENDMDL
MODEL 2
REMARK VINA RESULT:      -6.4      2.502      4.116
REMARK  7 active torsions:
REMARK  status: ('A' for Active; 'I' for Inactive)
REMARK    1  A    between atoms: C_2  and  C_3 
REMARK    2  A    between atoms: C_3  and  O_6 
REMARK    3  A    between atoms: C_3  and  C_4 
REMARK    4  A    between atoms: C_7  and  O_6 
REMARK    5  A    between atoms: C_9  and  C_10 
REMARK    6  A    between atoms: N_15  and  C_14 
REMARK    7  A    between atoms: N_20  and  C_19 
REMARK       I    between atoms: C_22  and  N_20 
ROOT
ATOM      1  C   LIG d   1      -0.024  83.017 111.429  0.00  0.00     0.161 C 
ATOM      2  C   LIG d   1      -1.028  82.727 112.368  0.00  0.00     0.016 C 
ATOM      3  C   LIG d   1      -1.444  81.413 112.682  0.00  0.00     0.038 C 
ATOM      4  C   LIG d   1      -0.776  80.285 112.184  0.00  0.00     0.028 C 
ATOM      5  C   LIG d   1      -0.088  80.530 110.846  0.00  0.00    -0.047 C 
ATOM      6  C   LIG d   1       0.793  81.795 110.958  0.00  0.00     0.091 C 
ENDROOT
BRANCH   1   7
ATOM      7  O   LIG d   1       0.852  84.036 111.949  0.00  0.00    -0.368 OA
BRANCH   7   8
ATOM      8  C   LIG d   1       0.961  85.246 111.160  0.00  0.00     0.119 C 
BRANCH   8   9
ATOM      9  C   LIG d   1       2.457  85.606 111.067  0.00  0.00     0.028 C 
ATOM     10  C   LIG d   1       3.355  84.558 111.745  0.00  0.00     0.006 C 
ENDBRANCH   8   9
BRANCH   8  11
ATOM     11  C   LIG d   1       0.302  86.434 111.868  0.00  0.00     0.028 C 
ATOM     12  C   LIG d   1      -1.222  86.474 111.670  0.00  0.00     0.006 C 
ENDBRANCH   8  11
ENDBRANCH   7   8
ENDBRANCH   1   7
BRANCH   6  13
ATOM     13  N   LIG d   1       1.436  82.155 109.668  0.00  0.00    -0.311 N 
ATOM     14  C   LIG d   1       2.660  81.757 109.323  0.00  0.00     0.210 C 
ATOM     15  C   LIG d   1       3.141  82.257 107.957  0.00  0.00     0.109 C 
ATOM     16  O   LIG d   1       3.380  81.012 110.005  0.00  0.00    -0.276 OA
ATOM     17  H   LIG d   1       0.910  82.731 109.041  0.00  0.00     0.149 HD
ENDBRANCH   6  13
BRANCH   5  18
ATOM     18  N   LIG d   1       0.683  79.317 110.512  0.00  0.00     0.381 N 
ATOM     19  H   LIG d   1       0.066  78.606 110.174  0.00  0.00    -0.090 HD
ATOM     20  H   LIG d   1       1.130  78.976 111.346  0.00  0.00    -0.090 HD
ATOM     21  H   LIG d   1       1.369  79.528 109.821  0.00  0.00    -0.090 HD
ENDBRANCH   5  18
BRANCH   3  22
ATOM     22  C   LIG d   1      -2.567  81.218 113.471  0.00  0.00     0.382 C 
ATOM     23  O   LIG d   1      -3.711  81.420 112.996  0.00  0.00    -0.241 OA
ATOM     24  O   LIG d   1      -2.450  80.886 114.666  0.00  0.00    -0.241 OA
ENDBRANCH   3  22
TORSDOF 7
ENDMDL
MODEL 3
REMARK VINA RESULT:      -6.3      2.554      4.043
REMARK  7 active torsions:
REMARK  status: ('A' for Active; 'I' for Inactive)
REMARK    1  A    between atoms: C_2  and  C_3 
REMARK    2  A    between atoms: C_3  and  O_6 
REMARK    3  A    between atoms: C_3  and  C_4 
REMARK    4  A    between atoms: C_7  and  O_6 
REMARK    5  A    between atoms: C_9  and  C_10 
REMARK    6  A    between atoms: N_15  and  C_14 
REMARK    7  A    between atoms: N_20  and  C_19 
REMARK       I    between atoms: C_22  and  N_20 
ROOT
ATOM      1  C   LIG d   1      -0.014  82.936 111.658  0.00  0.00     0.161 C 
ATOM      2  C   LIG d   1      -1.062  82.581 112.524  0.00  0.00     0.016 C 
ATOM      3  C   LIG d   1      -1.498  81.250 112.714  0.00  0.00     0.038 C 
ATOM      4  C   LIG d   1      -0.811  80.159 112.161  0.00  0.00     0.028 C 
ATOM      5  C   LIG d   1      -0.060  80.502 110.880  0.00  0.00    -0.047 C 
ATOM      6  C   LIG d   1       0.820  81.748 111.132  0.00  0.00     0.091 C 
ENDROOT
BRANCH   1   7
ATOM      7  O   LIG d   1       0.841  83.904 112.297  0.00  0.00    -0.368 OA
BRANCH   7   8
ATOM      8  C   LIG d   1       0.808  85.244 111.747  0.00  0.00     0.119 C 
BRANCH   8   9
ATOM      9  C   LIG d   1      -0.246  85.258 110.623  0.00  0.00     0.028 C 
ATOM     10  C   LIG d   1       0.363  85.598 109.252  0.00  0.00     0.006 C 
ENDBRANCH   8   9
BRANCH   8  11
ATOM     11  C   LIG d   1       2.132  85.601 111.066  0.00  0.00     0.028 C 
ATOM     12  C   LIG d   1       3.330  84.842 111.659  0.00  0.00     0.006 C 
ENDBRANCH   8  11
ENDBRANCH   7   8
ENDBRANCH   1   7
BRANCH   6  13
ATOM     13  N   LIG d   1       1.525  82.203 109.905  0.00  0.00    -0.311 N 
ATOM     14  C   LIG d   1       2.754  81.807 109.577  0.00  0.00     0.210 C 
ATOM     15  C   LIG d   1       3.303  82.411 108.281  0.00  0.00     0.109 C 
ATOM     16  O   LIG d   1       3.429  80.989 110.220  0.00  0.00    -0.276 OA
ATOM     17  H   LIG d   1       1.038  82.844 109.310  0.00  0.00     0.149 HD
ENDBRANCH   6  13
BRANCH   5  18
ATOM     18  N   LIG d   1       0.721  79.313 110.489  0.00  0.00     0.381 N 
ATOM     19  H   LIG d   1       1.694  79.544 110.452  0.00  0.00    -0.090 HD
ATOM     20  H   LIG d   1       0.432  79.021 109.572  0.00  0.00    -0.090 HD
ATOM     21  H   LIG d   1       0.571  78.577 111.143  0.00  0.00    -0.090 HD
ENDBRANCH   5  18
BRANCH   3  22
ATOM     22  C   LIG d   1      -2.658  81.003 113.432  0.00  0.00     0.382 C 
ATOM     23  O   LIG d   1      -2.612  80.313 114.479  0.00  0.00    -0.241 OA
ATOM     24  O   LIG d   1      -3.757  81.423 113.023  0.00  0.00    -0.241 OA
ENDBRANCH   3  22
TORSDOF 7
ENDMDL
MODEL 4
REMARK VINA RESULT:      -6.3      2.253      4.783
REMARK  7 active torsions:
REMARK  status: ('A' for Active; 'I' for Inactive)
REMARK    1  A    between atoms: C_2  and  C_3 
REMARK    2  A    between atoms: C_3  and  O_6 
REMARK    3  A    between atoms: C_3  and  C_4 
REMARK    4  A    between atoms: C_7  and  O_6 
REMARK    5  A    between atoms: C_9  and  C_10 
REMARK    6  A    between atoms: N_15  and  C_14 
REMARK    7  A    between atoms: N_20  and  C_19 
REMARK       I    between atoms: C_22  and  N_20 
ROOT
ATOM      1  C   LIG d   1       1.250  82.609 111.781  0.00  0.00     0.161 C 
ATOM      2  C   LIG d   1       2.070  82.828 110.661  0.00  0.00     0.016 C 
ATOM      3  C   LIG d   1       2.010  82.042 109.487  0.00  0.00     0.038 C 
ATOM      4  C   LIG d   1       1.015  81.072 109.294  0.00  0.00     0.028 C 
ATOM      5  C   LIG d   1       0.490  80.476 110.596  0.00  0.00    -0.047 C 
ATOM      6  C   LIG d   1       0.084  81.626 111.546  0.00  0.00     0.091 C 
ENDROOT
BRANCH   1   7
ATOM      7  O   LIG d   1       0.753  83.867 112.276  0.00  0.00    -0.368 OA
BRANCH   7   8
ATOM      8  C   LIG d   1       0.599  84.923 111.296  0.00  0.00     0.119 C 
BRANCH   8   9
ATOM      9  C   LIG d   1       1.151  86.219 111.920  0.00  0.00     0.028 C 
ATOM     10  C   LIG d   1       2.668  86.370 111.714  0.00  0.00     0.006 C 
ENDBRANCH   8   9
BRANCH   8  11
ATOM     11  C   LIG d   1      -0.878  85.207 111.010  0.00  0.00     0.028 C 
ATOM     12  C   LIG d   1      -1.370  86.510 111.659  0.00  0.00     0.006 C 
ENDBRANCH   8  11
ENDBRANCH   7   8
ENDBRANCH   1   7
BRANCH   6  13
ATOM     13  N   LIG d   1      -0.362  81.132 112.875  0.00  0.00    -0.311 N 
ATOM     14  C   LIG d   1      -1.595  81.310 113.347  0.00  0.00     0.210 C 
ATOM     15  C   LIG d   1      -1.840  80.739 114.747  0.00  0.00     0.109 C 
ATOM     16  O   LIG d   1      -2.518  81.858 112.725  0.00  0.00    -0.276 OA
ATOM     17  H   LIG d   1       0.314  80.649 113.433  0.00  0.00     0.149 HD
ENDBRANCH   6  13
BRANCH   5  18
ATOM     18  N   LIG d   1      -0.634  79.583 110.256  0.00  0.00     0.381 N 
ATOM     19  H   LIG d   1      -1.333  79.632 110.969  0.00  0.00    -0.090 HD
ATOM     20  H   LIG d   1      -0.296  78.638 110.210  0.00  0.00    -0.090 HD
ATOM     21  H   LIG d   1      -1.025  79.847 109.378  0.00  0.00    -0.090 HD
ENDBRANCH   5  18
BRANCH   3  22
ATOM     22  C   LIG d   1       2.978  82.197 108.506  0.00  0.00     0.382 C 
ATOM     23  O   LIG d   1       4.193  82.114 108.807  0.00  0.00    -0.241 OA
ATOM     24  O   LIG d   1       2.653  82.463 107.334  0.00  0.00    -0.241 OA
ENDBRANCH   3  22
TORSDOF 7
ENDMDL
MODEL 5
REMARK VINA RESULT:      -6.0      2.383      4.374
REMARK  7 active torsions:
REMARK  status: ('A' for Active; 'I' for Inactive)
REMARK    1  A    between atoms: C_2  and  C_3 
REMARK    2  A    between atoms: C_3  and  O_6 
REMARK    3  A    between atoms: C_3  and  C_4 
REMARK    4  A    between atoms: C_7  and  O_6 
REMARK    5  A    between atoms: C_9  and  C_10 
REMARK    6  A    between atoms: N_15  and  C_14 
REMARK    7  A    between atoms: N_20  and  C_19 
REMARK       I    between atoms: C_22  and  N_20 
ROOT
ATOM      1  C   LIG d   1      -0.332  82.392 111.772  0.00  0.00     0.161 C 
ATOM      2  C   LIG d   1      -0.772  83.657 112.195  0.00  0.00     0.016 C 
ATOM      3  C   LIG d   1      -0.581  84.839 111.442  0.00  0.00     0.038 C 
ATOM      4  C   LIG d   1      -0.069  84.812 110.137  0.00  0.00     0.028 C 
ATOM      5  C   LIG d   1       0.851  83.624 109.872  0.00  0.00    -0.047 C 
ATOM      6  C   LIG d   1       0.130  82.326 110.301  0.00  0.00     0.091 C 
ENDROOT
BRANCH   1   7
ATOM      7  O   LIG d   1      -1.358  81.410 112.019  0.00  0.00    -0.368 OA
BRANCH   7   8
ATOM      8  C   LIG d   1      -1.042  80.391 112.999  0.00  0.00     0.119 C 
BRANCH   8   9
ATOM      9  C   LIG d   1      -2.073  79.257 112.836  0.00  0.00     0.028 C 
ATOM     10  C   LIG d   1      -1.801  78.391 111.593  0.00  0.00     0.006 C 
ENDBRANCH   8   9
BRANCH   8  11
ATOM     11  C   LIG d   1      -1.235  80.911 114.426  0.00  0.00     0.028 C 
ATOM     12  C   LIG d   1       0.095  81.134 115.164  0.00  0.00     0.006 C 
ENDBRANCH   8  11
ENDBRANCH   7   8
ENDBRANCH   1   7
BRANCH   6  13
ATOM     13  N   LIG d   1       0.992  81.124 110.154  0.00  0.00    -0.311 N 
ATOM     14  C   LIG d   1       0.641  80.054 109.443  0.00  0.00     0.210 C 
ATOM     15  C   LIG d   1       1.668  78.916 109.438  0.00  0.00     0.109 C 
ATOM     16  O   LIG d   1      -0.408  79.951 108.790  0.00  0.00    -0.276 OA
ATOM     17  H   LIG d   1       1.875  81.135 110.625  0.00  0.00     0.149 HD
ENDBRANCH   6  13
BRANCH   5  18
ATOM     18  N   LIG d   1       1.202  83.644 108.439  0.00  0.00     0.381 N 
ATOM     19  H   LIG d   1       0.868  84.489 108.020  0.00  0.00    -0.090 HD
ATOM     20  H   LIG d   1       0.755  82.868 107.984  0.00  0.00    -0.090 HD
ATOM     21  H   LIG d   1       2.190  83.578 108.329  0.00  0.00    -0.090 HD
ENDBRANCH   5  18
BRANCH   3  22
ATOM     22  C   LIG d   1      -0.869  86.070 112.012  0.00  0.00     0.382 C 
ATOM     23  O   LIG d   1      -0.186  87.077 111.706  0.00  0.00    -0.241 OA
ATOM     24  O   LIG d   1      -1.775  86.177 112.860  0.00  0.00    -0.241 OA
ENDBRANCH   3  22
TORSDOF 7
ENDMDL
MODEL 6
REMARK VINA RESULT:      -5.9      3.138      4.761
REMARK  7 active torsions:
REMARK  status: ('A' for Active; 'I' for Inactive)
REMARK    1  A    between atoms: C_2  and  C_3 
REMARK    2  A    between atoms: C_3  and  O_6 
REMARK    3  A    between atoms: C_3  and  C_4 
REMARK    4  A    between atoms: C_7  and  O_6 
REMARK    5  A    between atoms: C_9  and  C_10 
REMARK    6  A    between atoms: N_15  and  C_14 
REMARK    7  A    between atoms: N_20  and  C_19 
REMARK       I    between atoms: C_22  and  N_20 
ROOT
ATOM      1  C   LIG d   1       1.943  86.227 112.430  0.00  0.00     0.161 C 
ATOM      2  C   LIG d   1       2.223  87.585 112.654  0.00  0.00     0.016 C 
ATOM      3  C   LIG d   1       3.081  88.043 113.681  0.00  0.00     0.038 C 
ATOM      4  C   LIG d   1       3.839  87.160 114.463  0.00  0.00     0.028 C 
ATOM      5  C   LIG d   1       3.205  85.780 114.606  0.00  0.00    -0.047 C 
ATOM      6  C   LIG d   1       2.848  85.244 113.201  0.00  0.00     0.091 C 
ENDROOT
BRANCH   1   7
ATOM      7  O   LIG d   1       1.987  85.946 111.017  0.00  0.00    -0.368 OA
BRANCH   7   8
ATOM      8  C   LIG d   1       0.723  86.018 110.313  0.00  0.00     0.119 C 
BRANCH   8   9
ATOM      9  C   LIG d   1      -0.366  85.476 111.259  0.00  0.00     0.028 C 
ATOM     10  C   LIG d   1      -1.433  86.533 111.591  0.00  0.00     0.006 C 
ENDBRANCH   8   9
BRANCH   8  11
ATOM     11  C   LIG d   1       0.707  85.084 109.099  0.00  0.00     0.028 C 
ATOM     12  C   LIG d   1       1.162  83.656 109.441  0.00  0.00     0.006 C 
ENDBRANCH   8  11
ENDBRANCH   7   8
ENDBRANCH   1   7
BRANCH   6  13
ATOM     13  N   LIG d   1       2.146  83.935 113.256  0.00  0.00    -0.311 N 
ATOM     14  C   LIG d   1       2.605  82.831 112.668  0.00  0.00     0.210 C 
ATOM     15  C   LIG d   1       1.716  81.594 112.831  0.00  0.00     0.109 C 
ATOM     16  O   LIG d   1       3.680  82.752 112.054  0.00  0.00    -0.276 OA
ATOM     17  H   LIG d   1       1.281  83.901 113.760  0.00  0.00     0.149 HD
ENDBRANCH   6  13
BRANCH   5  18
ATOM     18  N   LIG d   1       4.164  84.921 115.327  0.00  0.00     0.381 N 
ATOM     19  H   LIG d   1       3.681  84.373 116.010  0.00  0.00    -0.090 HD
ATOM     20  H   LIG d   1       4.829  85.505 115.804  0.00  0.00    -0.090 HD
ATOM     21  H   LIG d   1       4.636  84.324 114.684  0.00  0.00    -0.090 HD
ENDBRANCH   5  18
BRANCH   3  22
ATOM     22  C   LIG d   1       3.155  89.399 113.960  0.00  0.00     0.382 C 
ATOM     23  O   LIG d   1       2.564  89.866 114.964  0.00  0.00    -0.241 OA
ATOM     24  O   LIG d   1       3.768  90.169 113.196  0.00  0.00    -0.241 OA
ENDBRANCH   3  22
TORSDOF 7
ENDMDL
MODEL 7
REMARK VINA RESULT:      -5.8      2.962      5.482
REMARK  7 active torsions:
REMARK  status: ('A' for Active; 'I' for Inactive)
REMARK    1  A    between atoms: C_2  and  C_3 
REMARK    2  A    between atoms: C_3  and  O_6 
REMARK    3  A    between atoms: C_3  and  C_4 
REMARK    4  A    between atoms: C_7  and  O_6 
REMARK    5  A    between atoms: C_9  and  C_10 
REMARK    6  A    between atoms: N_15  and  C_14 
REMARK    7  A    between atoms: N_20  and  C_19 
REMARK       I    between atoms: C_22  and  N_20 
ROOT
ATOM      1  C   LIG d   1       0.486  80.334 110.934  0.00  0.00     0.161 C 
ATOM      2  C   LIG d   1      -0.358  79.260 110.606  0.00  0.00     0.016 C 
ATOM      3  C   LIG d   1      -1.344  78.751 111.482  0.00  0.00     0.038 C 
ATOM      4  C   LIG d   1      -1.657  79.383 112.695  0.00  0.00     0.028 C 
ATOM      5  C   LIG d   1      -0.489  80.164 113.289  0.00  0.00    -0.047 C 
ATOM      6  C   LIG d   1       0.086  81.107 112.208  0.00  0.00     0.091 C 
ENDROOT
BRANCH   1   7
ATOM      7  O   LIG d   1       0.589  81.235 109.813  0.00  0.00    -0.368 OA
BRANCH   7   8
ATOM      8  C   LIG d   1       1.768  81.089 108.984  0.00  0.00     0.119 C 
BRANCH   8   9
ATOM      9  C   LIG d   1       2.937  80.693 109.907  0.00  0.00     0.028 C 
ATOM     10  C   LIG d   1       4.253  81.388 109.519  0.00  0.00     0.006 C 
ENDBRANCH   8   9
BRANCH   8  11
ATOM     11  C   LIG d   1       2.179  82.425 108.360  0.00  0.00     0.028 C 
ATOM     12  C   LIG d   1       1.313  83.600 108.842  0.00  0.00     0.006 C 
ENDBRANCH   8  11
ENDBRANCH   7   8
ENDBRANCH   1   7
BRANCH   6  13
ATOM     13  N   LIG d   1       1.285  81.847 112.681  0.00  0.00    -0.311 N 
ATOM     14  C   LIG d   1       1.376  83.175 112.674  0.00  0.00     0.210 C 
ATOM     15  C   LIG d   1       2.707  83.735 113.186  0.00  0.00     0.109 C 
ATOM     16  O   LIG d   1       0.469  83.945 112.323  0.00  0.00    -0.276 OA
ATOM     17  H   LIG d   1       2.056  81.301 113.012  0.00  0.00     0.149 HD
ENDBRANCH   6  13
BRANCH   5  18
ATOM     18  N   LIG d   1      -0.992  80.882 114.475  0.00  0.00     0.381 N 
ATOM     19  H   LIG d   1      -1.737  80.363 114.895  0.00  0.00    -0.090 HD
ATOM     20  H   LIG d   1      -1.353  81.774 114.186  0.00  0.00    -0.090 HD
ATOM     21  H   LIG d   1      -0.255  81.012 115.133  0.00  0.00    -0.090 HD
ENDBRANCH   5  18
BRANCH   3  22
ATOM     22  C   LIG d   1      -2.003  77.573 111.164  0.00  0.00     0.382 C 
ATOM     23  O   LIG d   1      -3.254  77.515 111.235  0.00  0.00    -0.241 OA
ATOM     24  O   LIG d   1      -1.359  76.554 110.851  0.00  0.00    -0.241 OA
ENDBRANCH   3  22
TORSDOF 7
ENDMDL
MODEL 8
REMARK VINA RESULT:      -5.8      2.752      3.870
REMARK  7 active torsions:
REMARK  status: ('A' for Active; 'I' for Inactive)
REMARK    1  A    between atoms: C_2  and  C_3 
REMARK    2  A    between atoms: C_3  and  O_6 
REMARK    3  A    between atoms: C_3  and  C_4 
REMARK    4  A    between atoms: C_7  and  O_6 
REMARK    5  A    between atoms: C_9  and  C_10 
REMARK    6  A    between atoms: N_15  and  C_14 
REMARK    7  A    between atoms: N_20  and  C_19 
REMARK       I    between atoms: C_22  and  N_20 
ROOT
ATOM      1  C   LIG d   1       0.229  82.942 111.683  0.00  0.00     0.161 C 
ATOM      2  C   LIG d   1      -0.826  82.650 112.564  0.00  0.00     0.016 C 
ATOM      3  C   LIG d   1      -1.350  81.349 112.746  0.00  0.00     0.038 C 
ATOM      4  C   LIG d   1      -0.751  80.221 112.168  0.00  0.00     0.028 C 
ATOM      5  C   LIG d   1      -0.000  80.528 110.876  0.00  0.00    -0.047 C 
ATOM      6  C   LIG d   1       0.968  81.706 111.128  0.00  0.00     0.091 C 
ENDROOT
BRANCH   1   7
ATOM      7  O   LIG d   1       1.161  83.840 112.318  0.00  0.00    -0.368 OA
BRANCH   7   8
ATOM      8  C   LIG d   1       2.453  83.280 112.659  0.00  0.00     0.119 C 
BRANCH   8   9
ATOM      9  C   LIG d   1       2.547  83.237 114.197  0.00  0.00     0.028 C 
ATOM     10  C   LIG d   1       2.074  81.893 114.776  0.00  0.00     0.006 C 
ENDBRANCH   8   9
BRANCH   8  11
ATOM     11  C   LIG d   1       3.594  84.197 112.209  0.00  0.00     0.028 C 
ATOM     12  C   LIG d   1       3.145  85.245 111.179  0.00  0.00     0.006 C 
ENDBRANCH   8  11
ENDBRANCH   7   8
ENDBRANCH   1   7
BRANCH   6  13
ATOM     13  N   LIG d   1       1.682  82.127 109.893  0.00  0.00    -0.311 N 
ATOM     14  C   LIG d   1       2.870  81.644 109.533  0.00  0.00     0.210 C 
ATOM     15  C   LIG d   1       3.437  82.227 108.235  0.00  0.00     0.109 C 
ATOM     16  O   LIG d   1       3.492  80.766 110.148  0.00  0.00    -0.276 OA
ATOM     17  H   LIG d   1       1.233  82.813 109.319  0.00  0.00     0.149 HD
ENDBRANCH   6  13
BRANCH   5  18
ATOM     18  N   LIG d   1       0.688  79.293 110.457  0.00  0.00     0.381 N 
ATOM     19  H   LIG d   1       0.798  79.288 109.462  0.00  0.00    -0.090 HD
ATOM     20  H   LIG d   1       0.125  78.502 110.716  0.00  0.00    -0.090 HD
ATOM     21  H   LIG d   1       1.580  79.233 110.897  0.00  0.00    -0.090 HD
ENDBRANCH   5  18
BRANCH   3  22
ATOM     22  C   LIG d   1      -2.512  81.174 113.483  0.00  0.00     0.382 C 
ATOM     23  O   LIG d   1      -2.452  80.706 114.645  0.00  0.00    -0.241 OA
ATOM     24  O   LIG d   1      -3.622  81.437 112.984  0.00  0.00    -0.241 OA
ENDBRANCH   3  22
TORSDOF 7
ENDMDL
MODEL 9
REMARK VINA RESULT:      -5.4      3.152      4.878
REMARK  7 active torsions:
REMARK  status: ('A' for Active; 'I' for Inactive)
REMARK    1  A    between atoms: C_2  and  C_3 
REMARK    2  A    between atoms: C_3  and  O_6 
REMARK    3  A    between atoms: C_3  and  C_4 
REMARK    4  A    between atoms: C_7  and  O_6 
REMARK    5  A    between atoms: C_9  and  C_10 
REMARK    6  A    between atoms: N_15  and  C_14 
REMARK    7  A    between atoms: N_20  and  C_19 
REMARK       I    between atoms: C_22  and  N_20 
ROOT
ATOM      1  C   LIG d   1       0.924  81.285 111.664  0.00  0.00     0.161 C 
ATOM      2  C   LIG d   1      -0.175  80.739 112.347  0.00  0.00     0.016 C 
ATOM      3  C   LIG d   1      -0.969  79.689 111.830  0.00  0.00     0.038 C 
ATOM      4  C   LIG d   1      -0.622  79.008 110.653  0.00  0.00     0.028 C 
ATOM      5  C   LIG d   1       0.187  79.856 109.678  0.00  0.00    -0.047 C 
ATOM      6  C   LIG d   1       1.384  80.481 110.431  0.00  0.00     0.091 C 
ENDROOT
BRANCH   1   7
ATOM      7  O   LIG d   1       2.022  81.473 112.578  0.00  0.00    -0.368 OA
BRANCH   7   8
ATOM      8  C   LIG d   1       2.156  82.797 113.151  0.00  0.00     0.119 C 
BRANCH   8   9
ATOM      9  C   LIG d   1       3.274  83.525 112.379  0.00  0.00     0.028 C 
ATOM     10  C   LIG d   1       2.721  84.538 111.362  0.00  0.00     0.006 C 
ENDBRANCH   8   9
BRANCH   8  11
ATOM     11  C   LIG d   1       2.643  82.731 114.602  0.00  0.00     0.028 C 
ATOM     12  C   LIG d   1       1.704  81.920 115.508  0.00  0.00     0.006 C 
ENDBRANCH   8  11
ENDBRANCH   7   8
ENDBRANCH   1   7
BRANCH   6  13
ATOM     13  N   LIG d   1       2.181  81.394 109.570  0.00  0.00    -0.311 N 
ATOM     14  C   LIG d   1       3.499  81.291 109.414  0.00  0.00     0.210 C 
ATOM     15  C   LIG d   1       4.127  82.346 108.498  0.00  0.00     0.109 C 
ATOM     16  O   LIG d   1       4.204  80.406 109.922  0.00  0.00    -0.276 OA
ATOM     17  H   LIG d   1       1.684  82.123 109.095  0.00  0.00     0.149 HD
ENDBRANCH   6  13
BRANCH   5  18
ATOM     18  N   LIG d   1       0.597  78.984 108.562  0.00  0.00     0.381 N 
ATOM     19  H   LIG d   1       1.044  78.163 108.920  0.00  0.00    -0.090 HD
ATOM     20  H   LIG d   1       1.258  79.478 107.989  0.00  0.00    -0.090 HD
ATOM     21  H   LIG d   1      -0.198  78.728 108.019  0.00  0.00    -0.090 HD
ENDBRANCH   5  18
BRANCH   3  22
ATOM     22  C   LIG d   1      -2.146  79.337 112.472  0.00  0.00     0.382 C 
ATOM     23  O   LIG d   1      -2.967  80.225 112.807  0.00  0.00    -0.241 OA
ATOM     24  O   LIG d   1      -2.378  78.147 112.760  0.00  0.00    -0.241 OA
ENDBRANCH   3  22
TORSDOF 7
ENDMDL
