MODEL 1
REMARK VINA RESULT:      -6.3      0.000      0.000
REMARK  7 active torsions:
REMARK  status: ('A' for Active; 'I' for Inactive)
REMARK    1  A    between atoms: C_2  and  C_3 
REMARK    2  A    between atoms: C_3  and  O_6 
REMARK    3  A    between atoms: C_3  and  C_4 
REMARK    4  A    between atoms: C_7  and  O_6 
REMARK    5  A    between atoms: C_9  and  C_10 
REMARK    6  A    between atoms: N_15  and  C_14 
REMARK    7  A    between atoms: N_20  and  C_19 
REMARK       I    between atoms: C_22  and  N_20 
ROOT
ATOM      1  C   LIG d   1       0.071  83.060 110.895  0.00  0.00     0.161 C 
ATOM      2  C   LIG d   1      -1.054  82.714 111.662  0.00  0.00     0.016 C 
ATOM      3  C   LIG d   1      -1.541  81.392 111.776  0.00  0.00     0.038 C 
ATOM      4  C   LIG d   1      -0.842  80.296 111.249  0.00  0.00     0.028 C 
ATOM      5  C   LIG d   1       0.021  80.652 110.043  0.00  0.00    -0.047 C 
ATOM      6  C   LIG d   1       0.912  81.863 110.403  0.00  0.00     0.091 C 
ENDROOT
BRANCH   1   7
ATOM      7  O   LIG d   1       0.898  83.984 111.630  0.00  0.00    -0.368 OA
BRANCH   7   8
ATOM      8  C   LIG d   1       0.994  85.324 111.088  0.00  0.00     0.119 C 
BRANCH   8   9
ATOM      9  C   LIG d   1      -0.106  85.470 110.018  0.00  0.00     0.028 C 
ATOM     10  C   LIG d   1      -1.171  86.508 110.410  0.00  0.00     0.006 C 
ENDBRANCH   8   9
BRANCH   8  11
ATOM     11  C   LIG d   1       2.316  85.530 110.341  0.00  0.00     0.028 C 
ATOM     12  C   LIG d   1       3.523  84.954 111.097  0.00  0.00     0.006 C 
ENDBRANCH   8  11
ENDBRANCH   7   8
ENDBRANCH   1   7
BRANCH   6  13
ATOM     13  N   LIG d   1       1.727  82.329 109.252  0.00  0.00    -0.311 N 
ATOM     14  C   LIG d   1       2.972  81.915 109.020  0.00  0.00     0.210 C 
ATOM     15  C   LIG d   1       3.641  82.536 107.789  0.00  0.00     0.109 C 
ATOM     16  O   LIG d   1       3.574  81.069 109.697  0.00  0.00    -0.276 OA
ATOM     17  H   LIG d   1       1.305  82.993 108.633  0.00  0.00     0.149 HD
ENDBRANCH   6  13
BRANCH   5  18
ATOM     18  N   LIG d   1       0.798  79.451 109.681  0.00  0.00     0.381 N 
ATOM     19  H   LIG d   1       0.702  79.268 108.702  0.00  0.00    -0.090 HD
ATOM     20  H   LIG d   1       0.432  78.663 110.186  0.00  0.00    -0.090 HD
ATOM     21  H   LIG d   1       1.758  79.584 109.909  0.00  0.00    -0.090 HD
ENDBRANCH   5  18
BRANCH   3  22
ATOM     22  C   LIG d   1      -2.762  81.160 112.391  0.00  0.00     0.382 C 
ATOM     23  O   LIG d   1      -3.255  80.006 112.392  0.00  0.00    -0.241 OA
ATOM     24  O   LIG d   1      -3.399  82.099 112.905  0.00  0.00    -0.241 OA
ENDBRANCH   3  22
TORSDOF 7
ENDMDL
MODEL 2
REMARK VINA RESULT:      -6.2      1.628      5.005
REMARK  7 active torsions:
REMARK  status: ('A' for Active; 'I' for Inactive)
REMARK    1  A    between atoms: C_2  and  C_3 
REMARK    2  A    between atoms: C_3  and  O_6 
REMARK    3  A    between atoms: C_3  and  C_4 
REMARK    4  A    between atoms: C_7  and  O_6 
REMARK    5  A    between atoms: C_9  and  C_10 
REMARK    6  A    between atoms: N_15  and  C_14 
REMARK    7  A    between atoms: N_20  and  C_19 
REMARK       I    between atoms: C_22  and  N_20 
ROOT
ATOM      1  C   LIG d   1       1.549  83.413 111.296  0.00  0.00     0.161 C 
ATOM      2  C   LIG d   1       2.574  83.330 110.339  0.00  0.00     0.016 C 
ATOM      3  C   LIG d   1       2.708  82.251 109.435  0.00  0.00     0.038 C 
ATOM      4  C   LIG d   1       1.732  81.250 109.325  0.00  0.00     0.028 C 
ATOM      5  C   LIG d   1       0.947  81.026 110.612  0.00  0.00    -0.047 C 
ATOM      6  C   LIG d   1       0.412  82.385 111.117  0.00  0.00     0.091 C 
ENDROOT
BRANCH   1   7
ATOM      7  O   LIG d   1       1.014  84.751 111.325  0.00  0.00    -0.368 OA
BRANCH   7   8
ATOM      8  C   LIG d   1       1.444  85.632 110.258  0.00  0.00     0.119 C 
BRANCH   8   9
ATOM      9  C   LIG d   1       1.898  86.955 110.905  0.00  0.00     0.028 C 
ATOM     10  C   LIG d   1       3.278  86.838 111.575  0.00  0.00     0.006 C 
ENDBRANCH   8   9
BRANCH   8  11
ATOM     11  C   LIG d   1       0.277  86.009 109.341  0.00  0.00     0.028 C 
ATOM     12  C   LIG d   1      -1.054  86.147 110.098  0.00  0.00     0.006 C 
ENDBRANCH   8  11
ENDBRANCH   7   8
ENDBRANCH   1   7
BRANCH   6  13
ATOM     13  N   LIG d   1      -0.298  82.268 112.417  0.00  0.00    -0.311 N 
ATOM     14  C   LIG d   1      -1.611  82.069 112.521  0.00  0.00     0.210 C 
ATOM     15  C   LIG d   1      -2.143  81.998 113.956  0.00  0.00     0.109 C 
ATOM     16  O   LIG d   1      -2.380  81.912 111.561  0.00  0.00    -0.276 OA
ATOM     17  H   LIG d   1       0.255  82.352 113.248  0.00  0.00     0.149 HD
ENDBRANCH   6  13
BRANCH   5  18
ATOM     18  N   LIG d   1      -0.125  80.056 110.317  0.00  0.00     0.381 N 
ATOM     19  H   LIG d   1      -0.666  79.888 111.142  0.00  0.00    -0.090 HD
ATOM     20  H   LIG d   1       0.292  79.188 110.030  0.00  0.00    -0.090 HD
ATOM     21  H   LIG d   1      -0.712  80.406 109.592  0.00  0.00    -0.090 HD
ENDBRANCH   5  18
BRANCH   3  22
ATOM     22  C   LIG d   1       3.850  82.147 108.655  0.00  0.00     0.382 C 
ATOM     23  O   LIG d   1       4.637  83.119 108.562  0.00  0.00    -0.241 OA
ATOM     24  O   LIG d   1       4.081  81.107 108.009  0.00  0.00    -0.241 OA
ENDBRANCH   3  22
TORSDOF 7
ENDMDL
MODEL 3
REMARK VINA RESULT:      -5.8      2.771      5.475
REMARK  7 active torsions:
REMARK  status: ('A' for Active; 'I' for Inactive)
REMARK    1  A    between atoms: C_2  and  C_3 
REMARK    2  A    between atoms: C_3  and  O_6 
REMARK    3  A    between atoms: C_3  and  C_4 
REMARK    4  A    between atoms: C_7  and  O_6 
REMARK    5  A    between atoms: C_9  and  C_10 
REMARK    6  A    between atoms: N_15  and  C_14 
REMARK    7  A    between atoms: N_20  and  C_19 
REMARK       I    between atoms: C_22  and  N_20 
ROOT
ATOM      1  C   LIG d   1       2.735  84.419 111.005  0.00  0.00     0.161 C 
ATOM      2  C   LIG d   1       3.423  83.824 109.934  0.00  0.00     0.016 C 
ATOM      3  C   LIG d   1       2.814  82.941 109.013  0.00  0.00     0.038 C 
ATOM      4  C   LIG d   1       1.431  82.710 109.011  0.00  0.00     0.028 C 
ATOM      5  C   LIG d   1       0.784  82.892 110.380  0.00  0.00    -0.047 C 
ATOM      6  C   LIG d   1       1.201  84.266 110.953  0.00  0.00     0.091 C 
ENDROOT
BRANCH   1   7
ATOM      7  O   LIG d   1       3.097  85.811 111.105  0.00  0.00    -0.368 OA
BRANCH   7   8
ATOM      8  C   LIG d   1       4.281  86.107 111.885  0.00  0.00     0.119 C 
BRANCH   8   9
ATOM      9  C   LIG d   1       4.137  85.383 113.238  0.00  0.00     0.028 C 
ATOM     10  C   LIG d   1       3.205  86.129 114.207  0.00  0.00     0.006 C 
ENDBRANCH   8   9
BRANCH   8  11
ATOM     11  C   LIG d   1       4.362  87.598 112.230  0.00  0.00     0.028 C 
ATOM     12  C   LIG d   1       5.768  88.029 112.678  0.00  0.00     0.006 C 
ENDBRANCH   8  11
ENDBRANCH   7   8
ENDBRANCH   1   7
BRANCH   6  13
ATOM     13  N   LIG d   1       0.680  84.489 112.327  0.00  0.00    -0.311 N 
ATOM     14  C   LIG d   1      -0.430  85.177 112.587  0.00  0.00     0.210 C 
ATOM     15  C   LIG d   1      -0.778  85.305 114.074  0.00  0.00     0.109 C 
ATOM     16  O   LIG d   1      -1.177  85.667 111.727  0.00  0.00    -0.276 OA
ATOM     17  H   LIG d   1       1.207  84.099 113.084  0.00  0.00     0.149 HD
ENDBRANCH   6  13
BRANCH   5  18
ATOM     18  N   LIG d   1      -0.674  82.756 110.206  0.00  0.00     0.381 N 
ATOM     19  H   LIG d   1      -1.135  82.902 111.082  0.00  0.00    -0.090 HD
ATOM     20  H   LIG d   1      -0.879  81.823 109.894  0.00  0.00    -0.090 HD
ATOM     21  H   LIG d   1      -1.001  83.418 109.537  0.00  0.00    -0.090 HD
ENDBRANCH   5  18
BRANCH   3  22
ATOM     22  C   LIG d   1       3.599  82.248 108.104  0.00  0.00     0.382 C 
ATOM     23  O   LIG d   1       4.317  81.296 108.495  0.00  0.00    -0.241 OA
ATOM     24  O   LIG d   1       3.632  82.590 106.907  0.00  0.00    -0.241 OA
ENDBRANCH   3  22
TORSDOF 7
ENDMDL
MODEL 4
REMARK VINA RESULT:      -5.6      3.644      6.656
REMARK  7 active torsions:
REMARK  status: ('A' for Active; 'I' for Inactive)
REMARK    1  A    between atoms: C_2  and  C_3 
REMARK    2  A    between atoms: C_3  and  O_6 
REMARK    3  A    between atoms: C_3  and  C_4 
REMARK    4  A    between atoms: C_7  and  O_6 
REMARK    5  A    between atoms: C_9  and  C_10 
REMARK    6  A    between atoms: N_15  and  C_14 
REMARK    7  A    between atoms: N_20  and  C_19 
REMARK       I    between atoms: C_22  and  N_20 
ROOT
ATOM      1  C   LIG d   1       2.765  86.055 111.790  0.00  0.00     0.161 C 
ATOM      2  C   LIG d   1       3.293  87.353 111.896  0.00  0.00     0.016 C 
ATOM      3  C   LIG d   1       4.233  87.732 112.882  0.00  0.00     0.038 C 
ATOM      4  C   LIG d   1       4.825  86.795 113.741  0.00  0.00     0.028 C 
ATOM      5  C   LIG d   1       3.949  85.575 114.003  0.00  0.00    -0.047 C 
ATOM      6  C   LIG d   1       3.482  84.993 112.649  0.00  0.00     0.091 C 
ENDROOT
BRANCH   1   7
ATOM      7  O   LIG d   1       2.740  85.649 110.408  0.00  0.00    -0.368 OA
BRANCH   7   8
ATOM      8  C   LIG d   1       1.518  85.017 109.951  0.00  0.00     0.119 C 
BRANCH   8   9
ATOM      9  C   LIG d   1       1.899  84.031 108.830  0.00  0.00     0.028 C 
ATOM     10  C   LIG d   1       1.361  82.613 109.088  0.00  0.00     0.006 C 
ENDBRANCH   8   9
BRANCH   8  11
ATOM     11  C   LIG d   1       0.577  86.032 109.297  0.00  0.00     0.028 C 
ATOM     12  C   LIG d   1      -0.794  86.104 109.987  0.00  0.00     0.006 C 
ENDBRANCH   8  11
ENDBRANCH   7   8
ENDBRANCH   1   7
BRANCH   6  13
ATOM     13  N   LIG d   1       2.552  83.846 112.816  0.00  0.00    -0.311 N 
ATOM     14  C   LIG d   1       2.862  82.595 112.480  0.00  0.00     0.210 C 
ATOM     15  C   LIG d   1       1.751  81.567 112.715  0.00  0.00     0.109 C 
ATOM     16  O   LIG d   1       3.964  82.234 112.039  0.00  0.00    -0.276 OA
ATOM     17  H   LIG d   1       1.647  84.044 113.196  0.00  0.00     0.149 HD
ENDBRANCH   6  13
BRANCH   5  18
ATOM     18  N   LIG d   1       4.742  84.620 114.800  0.00  0.00     0.381 N 
ATOM     19  H   LIG d   1       4.809  84.941 115.745  0.00  0.00    -0.090 HD
ATOM     20  H   LIG d   1       5.670  84.569 114.418  0.00  0.00    -0.090 HD
ATOM     21  H   LIG d   1       4.316  83.720 114.777  0.00  0.00    -0.090 HD
ENDBRANCH   5  18
BRANCH   3  22
ATOM     22  C   LIG d   1       4.559  89.071 113.041  0.00  0.00     0.382 C 
ATOM     23  O   LIG d   1       5.741  89.401 113.300  0.00  0.00    -0.241 OA
ATOM     24  O   LIG d   1       3.678  89.948 112.973  0.00  0.00    -0.241 OA
ENDBRANCH   3  22
TORSDOF 7
ENDMDL
MODEL 5
REMARK VINA RESULT:      -5.6      2.312      4.360
REMARK  7 active torsions:
REMARK  status: ('A' for Active; 'I' for Inactive)
REMARK    1  A    between atoms: C_2  and  C_3 
REMARK    2  A    between atoms: C_3  and  O_6 
REMARK    3  A    between atoms: C_3  and  C_4 
REMARK    4  A    between atoms: C_7  and  O_6 
REMARK    5  A    between atoms: C_9  and  C_10 
REMARK    6  A    between atoms: N_15  and  C_14 
REMARK    7  A    between atoms: N_20  and  C_19 
REMARK       I    between atoms: C_22  and  N_20 
ROOT
ATOM      1  C   LIG d   1       1.861  82.837 111.775  0.00  0.00     0.161 C 
ATOM      2  C   LIG d   1       0.756  81.970 111.796  0.00  0.00     0.016 C 
ATOM      3  C   LIG d   1      -0.585  82.417 111.798  0.00  0.00     0.038 C 
ATOM      4  C   LIG d   1      -0.916  83.769 111.625  0.00  0.00     0.028 C 
ATOM      5  C   LIG d   1       0.171  84.725 112.108  0.00  0.00    -0.047 C 
ATOM      6  C   LIG d   1       1.519  84.312 111.475  0.00  0.00     0.091 C 
ENDROOT
BRANCH   1   7
ATOM      7  O   LIG d   1       2.846  82.351 110.843  0.00  0.00    -0.368 OA
BRANCH   7   8
ATOM      8  C   LIG d   1       2.337  81.831 109.590  0.00  0.00     0.119 C 
BRANCH   8   9
ATOM      9  C   LIG d   1       2.929  80.422 109.399  0.00  0.00     0.028 C 
ATOM     10  C   LIG d   1       4.460  80.444 109.251  0.00  0.00     0.006 C 
ENDBRANCH   8   9
BRANCH   8  11
ATOM     11  C   LIG d   1       2.845  82.650 108.399  0.00  0.00     0.028 C 
ATOM     12  C   LIG d   1       1.717  83.381 107.654  0.00  0.00     0.006 C 
ENDBRANCH   8  11
ENDBRANCH   7   8
ENDBRANCH   1   7
BRANCH   6  13
ATOM     13  N   LIG d   1       2.651  85.143 111.960  0.00  0.00    -0.311 N 
ATOM     14  C   LIG d   1       2.983  86.316 111.422  0.00  0.00     0.210 C 
ATOM     15  C   LIG d   1       4.196  87.000 112.061  0.00  0.00     0.109 C 
ATOM     16  O   LIG d   1       2.368  86.869 110.498  0.00  0.00    -0.276 OA
ATOM     17  H   LIG d   1       3.185  84.784 112.727  0.00  0.00     0.149 HD
ENDBRANCH   6  13
BRANCH   5  18
ATOM     18  N   LIG d   1      -0.244  86.092 111.743  0.00  0.00     0.381 N 
ATOM     19  H   LIG d   1       0.258  86.394 110.932  0.00  0.00    -0.090 HD
ATOM     20  H   LIG d   1      -0.021  86.713 112.501  0.00  0.00    -0.090 HD
ATOM     21  H   LIG d   1      -1.224  86.115 111.563  0.00  0.00    -0.090 HD
ENDBRANCH   5  18
BRANCH   3  22
ATOM     22  C   LIG d   1      -1.612  81.511 112.014  0.00  0.00     0.382 C 
ATOM     23  O   LIG d   1      -1.349  80.297 112.192  0.00  0.00    -0.241 OA
ATOM     24  O   LIG d   1      -2.800  81.884 111.989  0.00  0.00    -0.241 OA
ENDBRANCH   3  22
TORSDOF 7
ENDMDL
MODEL 6
REMARK VINA RESULT:      -5.5      2.562      4.354
REMARK  7 active torsions:
REMARK  status: ('A' for Active; 'I' for Inactive)
REMARK    1  A    between atoms: C_2  and  C_3 
REMARK    2  A    between atoms: C_3  and  O_6 
REMARK    3  A    between atoms: C_3  and  C_4 
REMARK    4  A    between atoms: C_7  and  O_6 
REMARK    5  A    between atoms: C_9  and  C_10 
REMARK    6  A    between atoms: N_15  and  C_14 
REMARK    7  A    between atoms: N_20  and  C_19 
REMARK       I    between atoms: C_22  and  N_20 
ROOT
ATOM      1  C   LIG d   1       1.614  83.429 111.554  0.00  0.00     0.161 C 
ATOM      2  C   LIG d   1       0.525  82.561 111.371  0.00  0.00     0.016 C 
ATOM      3  C   LIG d   1      -0.668  82.641 112.126  0.00  0.00     0.038 C 
ATOM      4  C   LIG d   1      -0.913  83.697 113.016  0.00  0.00     0.028 C 
ATOM      5  C   LIG d   1       0.358  84.305 113.599  0.00  0.00    -0.047 C 
ATOM      6  C   LIG d   1       1.322  84.656 112.443  0.00  0.00     0.091 C 
ENDROOT
BRANCH   1   7
ATOM      7  O   LIG d   1       2.124  83.849 110.273  0.00  0.00    -0.368 OA
BRANCH   7   8
ATOM      8  C   LIG d   1       1.145  83.999 109.215  0.00  0.00     0.119 C 
BRANCH   8   9
ATOM      9  C   LIG d   1       1.756  83.405 107.931  0.00  0.00     0.028 C 
ATOM     10  C   LIG d   1       3.083  82.674 108.196  0.00  0.00     0.006 C 
ENDBRANCH   8   9
BRANCH   8  11
ATOM     11  C   LIG d   1       0.890  85.475 108.897  0.00  0.00     0.028 C 
ATOM     12  C   LIG d   1      -0.366  86.026 109.592  0.00  0.00     0.006 C 
ENDBRANCH   8  11
ENDBRANCH   7   8
ENDBRANCH   1   7
BRANCH   6  13
ATOM     13  N   LIG d   1       2.625  85.178 112.931  0.00  0.00    -0.311 N 
ATOM     14  C   LIG d   1       2.886  86.476 113.078  0.00  0.00     0.210 C 
ATOM     15  C   LIG d   1       4.299  86.799 113.575  0.00  0.00     0.109 C 
ATOM     16  O   LIG d   1       2.071  87.388 112.875  0.00  0.00    -0.276 OA
ATOM     17  H   LIG d   1       3.334  84.505 113.149  0.00  0.00     0.149 HD
ENDBRANCH   6  13
BRANCH   5  18
ATOM     18  N   LIG d   1      -0.036  85.479 114.400  0.00  0.00     0.381 N 
ATOM     19  H   LIG d   1      -0.892  85.857 114.048  0.00  0.00    -0.090 HD
ATOM     20  H   LIG d   1       0.677  86.182 114.318  0.00  0.00    -0.090 HD
ATOM     21  H   LIG d   1      -0.147  85.218 115.355  0.00  0.00    -0.090 HD
ENDBRANCH   5  18
BRANCH   3  22
ATOM     22  C   LIG d   1      -1.616  81.634 112.021  0.00  0.00     0.382 C 
ATOM     23  O   LIG d   1      -2.835  81.924 111.962  0.00  0.00    -0.241 OA
ATOM     24  O   LIG d   1      -1.270  80.438 112.031  0.00  0.00    -0.241 OA
ENDBRANCH   3  22
TORSDOF 7
ENDMDL
MODEL 7
REMARK VINA RESULT:      -5.3      2.313      5.298
REMARK  7 active torsions:
REMARK  status: ('A' for Active; 'I' for Inactive)
REMARK    1  A    between atoms: C_2  and  C_3 
REMARK    2  A    between atoms: C_3  and  O_6 
REMARK    3  A    between atoms: C_3  and  C_4 
REMARK    4  A    between atoms: C_7  and  O_6 
REMARK    5  A    between atoms: C_9  and  C_10 
REMARK    6  A    between atoms: N_15  and  C_14 
REMARK    7  A    between atoms: N_20  and  C_19 
REMARK       I    between atoms: C_22  and  N_20 
ROOT
ATOM      1  C   LIG d   1       1.366  81.991 111.595  0.00  0.00     0.161 C 
ATOM      2  C   LIG d   1       2.490  82.417 110.867  0.00  0.00     0.016 C 
ATOM      3  C   LIG d   1       2.661  82.172 109.485  0.00  0.00     0.038 C 
ATOM      4  C   LIG d   1       1.642  81.612 108.700  0.00  0.00     0.028 C 
ATOM      5  C   LIG d   1       0.696  80.711 109.487  0.00  0.00    -0.047 C 
ATOM      6  C   LIG d   1       0.194  81.477 110.732  0.00  0.00     0.091 C 
ENDROOT
BRANCH   1   7
ATOM      7  O   LIG d   1       0.920  83.047 112.468  0.00  0.00    -0.368 OA
BRANCH   7   8
ATOM      8  C   LIG d   1       1.207  82.873 113.877  0.00  0.00     0.119 C 
BRANCH   8   9
ATOM      9  C   LIG d   1       2.343  83.848 114.242  0.00  0.00     0.028 C 
ATOM     10  C   LIG d   1       2.194  85.211 113.544  0.00  0.00     0.006 C 
ENDBRANCH   8   9
BRANCH   8  11
ATOM     11  C   LIG d   1       1.764  81.476 114.164  0.00  0.00     0.028 C 
ATOM     12  C   LIG d   1       3.116  81.512 114.894  0.00  0.00     0.006 C 
ENDBRANCH   8  11
ENDBRANCH   7   8
ENDBRANCH   1   7
BRANCH   6  13
ATOM     13  N   LIG d   1      -0.670  80.638 111.603  0.00  0.00    -0.311 N 
ATOM     14  C   LIG d   1      -1.863  81.030 112.047  0.00  0.00     0.210 C 
ATOM     15  C   LIG d   1      -2.581  80.020 112.948  0.00  0.00     0.109 C 
ATOM     16  O   LIG d   1      -2.409  82.105 111.755  0.00  0.00    -0.276 OA
ATOM     17  H   LIG d   1      -0.319  79.738 111.863  0.00  0.00     0.149 HD
ENDBRANCH   6  13
BRANCH   5  18
ATOM     18  N   LIG d   1      -0.394  80.308 108.578  0.00  0.00     0.381 N 
ATOM     19  H   LIG d   1      -0.043  79.673 107.889  0.00  0.00    -0.090 HD
ATOM     20  H   LIG d   1      -0.743  81.123 108.107  0.00  0.00    -0.090 HD
ATOM     21  H   LIG d   1      -1.126  79.875 109.096  0.00  0.00    -0.090 HD
ENDBRANCH   5  18
BRANCH   3  22
ATOM     22  C   LIG d   1       3.878  82.452 108.883  0.00  0.00     0.382 C 
ATOM     23  O   LIG d   1       3.966  82.485 107.632  0.00  0.00    -0.241 OA
ATOM     24  O   LIG d   1       4.899  82.629 109.574  0.00  0.00    -0.241 OA
ENDBRANCH   3  22
TORSDOF 7
ENDMDL
MODEL 8
REMARK VINA RESULT:      -5.2      1.628      2.451
REMARK  7 active torsions:
REMARK  status: ('A' for Active; 'I' for Inactive)
REMARK    1  A    between atoms: C_2  and  C_3 
REMARK    2  A    between atoms: C_3  and  O_6 
REMARK    3  A    between atoms: C_3  and  C_4 
REMARK    4  A    between atoms: C_7  and  O_6 
REMARK    5  A    between atoms: C_9  and  C_10 
REMARK    6  A    between atoms: N_15  and  C_14 
REMARK    7  A    between atoms: N_20  and  C_19 
REMARK       I    between atoms: C_22  and  N_20 
ROOT
ATOM      1  C   LIG d   1       1.753  83.064 111.266  0.00  0.00     0.161 C 
ATOM      2  C   LIG d   1       0.526  83.171 111.942  0.00  0.00     0.016 C 
ATOM      3  C   LIG d   1      -0.476  82.175 111.897  0.00  0.00     0.038 C 
ATOM      4  C   LIG d   1      -0.257  80.929 111.291  0.00  0.00     0.028 C 
ATOM      5  C   LIG d   1       0.774  80.975 110.168  0.00  0.00    -0.047 C 
ATOM      6  C   LIG d   1       2.055  81.665 110.691  0.00  0.00     0.091 C 
ENDROOT
BRANCH   1   7
ATOM      7  O   LIG d   1       2.825  83.493 112.129  0.00  0.00    -0.368 OA
BRANCH   7   8
ATOM      8  C   LIG d   1       3.426  84.772 111.810  0.00  0.00     0.119 C 
BRANCH   8   9
ATOM      9  C   LIG d   1       3.168  85.715 113.002  0.00  0.00     0.028 C 
ATOM     10  C   LIG d   1       4.339  85.734 113.999  0.00  0.00     0.006 C 
ENDBRANCH   8   9
BRANCH   8  11
ATOM     11  C   LIG d   1       2.732  85.432 110.615  0.00  0.00     0.028 C 
ATOM     12  C   LIG d   1       2.096  86.786 110.967  0.00  0.00     0.006 C 
ENDBRANCH   8  11
ENDBRANCH   7   8
ENDBRANCH   1   7
BRANCH   6  13
ATOM     13  N   LIG d   1       3.085  81.826 109.631  0.00  0.00    -0.311 N 
ATOM     14  C   LIG d   1       2.852  82.437 108.471  0.00  0.00     0.210 C 
ATOM     15  C   LIG d   1       4.046  82.477 107.511  0.00  0.00     0.109 C 
ATOM     16  O   LIG d   1       1.781  82.977 108.158  0.00  0.00    -0.276 OA
ATOM     17  H   LIG d   1       3.992  81.445 109.815  0.00  0.00     0.149 HD
ENDBRANCH   6  13
BRANCH   5  18
ATOM     18  N   LIG d   1       1.006  79.589 109.719  0.00  0.00     0.381 N 
ATOM     19  H   LIG d   1       1.166  78.999 110.511  0.00  0.00    -0.090 HD
ATOM     20  H   LIG d   1       1.827  79.568 109.139  0.00  0.00    -0.090 HD
ATOM     21  H   LIG d   1       0.218  79.261 109.204  0.00  0.00    -0.090 HD
ENDBRANCH   5  18
BRANCH   3  22
ATOM     22  C   LIG d   1      -1.730  82.437 112.429  0.00  0.00     0.382 C 
ATOM     23  O   LIG d   1      -1.845  83.207 113.413  0.00  0.00    -0.241 OA
ATOM     24  O   LIG d   1      -2.742  81.878 111.965  0.00  0.00    -0.241 OA
ENDBRANCH   3  22
TORSDOF 7
ENDMDL
MODEL 9
REMARK VINA RESULT:      -5.2      2.302      5.351
REMARK  7 active torsions:
REMARK  status: ('A' for Active; 'I' for Inactive)
REMARK    1  A    between atoms: C_2  and  C_3 
REMARK    2  A    between atoms: C_3  and  O_6 
REMARK    3  A    between atoms: C_3  and  C_4 
REMARK    4  A    between atoms: C_7  and  O_6 
REMARK    5  A    between atoms: C_9  and  C_10 
REMARK    6  A    between atoms: N_15  and  C_14 
REMARK    7  A    between atoms: N_20  and  C_19 
REMARK       I    between atoms: C_22  and  N_20 
ROOT
ATOM      1  C   LIG d   1       0.528  83.360 110.011  0.00  0.00     0.161 C 
ATOM      2  C   LIG d   1       1.114  84.635 110.060  0.00  0.00     0.016 C 
ATOM      3  C   LIG d   1       1.084  85.462 111.207  0.00  0.00     0.038 C 
ATOM      4  C   LIG d   1       0.593  85.004 112.439  0.00  0.00     0.028 C 
ATOM      5  C   LIG d   1      -0.462  83.911 112.302  0.00  0.00    -0.047 C 
ATOM      6  C   LIG d   1       0.085  82.798 111.379  0.00  0.00     0.091 C 
ENDROOT
BRANCH   1   7
ATOM      7  O   LIG d   1       1.420  82.437 109.356  0.00  0.00    -0.368 OA
BRANCH   7   8
ATOM      8  C   LIG d   1       2.454  81.852 110.185  0.00  0.00     0.119 C 
BRANCH   8   9
ATOM      9  C   LIG d   1       3.754  82.639 109.929  0.00  0.00     0.028 C 
ATOM     10  C   LIG d   1       4.358  83.209 111.223  0.00  0.00     0.006 C 
ENDBRANCH   8   9
BRANCH   8  11
ATOM     11  C   LIG d   1       2.761  80.412 109.761  0.00  0.00     0.028 C 
ATOM     12  C   LIG d   1       1.529  79.679 109.208  0.00  0.00     0.006 C 
ENDBRANCH   8  11
ENDBRANCH   7   8
ENDBRANCH   1   7
BRANCH   6  13
ATOM     13  N   LIG d   1      -0.916  81.730 111.124  0.00  0.00    -0.311 N 
ATOM     14  C   LIG d   1      -1.059  80.658 111.902  0.00  0.00     0.210 C 
ATOM     15  C   LIG d   1      -2.137  79.669 111.448  0.00  0.00     0.109 C 
ATOM     16  O   LIG d   1      -0.417  80.449 112.942  0.00  0.00    -0.276 OA
ATOM     17  H   LIG d   1      -1.500  81.836 110.318  0.00  0.00     0.149 HD
ENDBRANCH   6  13
BRANCH   5  18
ATOM     18  N   LIG d   1      -0.784  83.430 113.658  0.00  0.00     0.381 N 
ATOM     19  H   LIG d   1      -0.942  84.210 114.265  0.00  0.00    -0.090 HD
ATOM     20  H   LIG d   1      -0.003  82.908 114.013  0.00  0.00    -0.090 HD
ATOM     21  H   LIG d   1      -1.595  82.852 113.632  0.00  0.00    -0.090 HD
ENDBRANCH   5  18
BRANCH   3  22
ATOM     22  C   LIG d   1       1.513  86.778 111.117  0.00  0.00     0.382 C 
ATOM     23  O   LIG d   1       2.725  87.029 110.918  0.00  0.00    -0.241 OA
ATOM     24  O   LIG d   1       0.709  87.716 111.277  0.00  0.00    -0.241 OA
ENDBRANCH   3  22
TORSDOF 7
ENDMDL
